REMARK SMILES COc1c(C(=O)OCCOC(=O)c2ccc(-c3c4nc(c(-c5cc(S(=O)(=O)[O-])ccc5F)c5ccc([nH]5)c(-c5cc(S(=O)(=O)[O-])ccc5F)c5nc(c(-c6cc(S(=O)(=O)[O-])ccc6F)c6ccc3[nH]6)C=C5)C=C4)cc2)cccc1-c1cc(C)ccc1C
REMARK SMILES IDX 9 1 8 2 7 3 5 4 6 5 4 6 3 7 79 8 76 9 78 10 77 11 2 12 1 13
REMARK SMILES IDX 80 14 81 15 86 16 82 17 85 18 87 19 83 20 84 21 10 22 11 23
REMARK SMILES IDX 12 24 13 25 14 26 75 27 15 28 74 29 16 30 17 31 18 32 68 33
REMARK SMILES IDX 19 34 73 35 67 36 69 37 20 38 72 39 66 40 65 41 21 43 53 44
REMARK SMILES IDX 33 45 52 46 34 47 37 48 51 49 70 50 35 51 36 52 50 54 71 55
REMARK SMILES IDX 38 56 22 57 23 58 31 59 24 60 30 61 32 62 29 63 25 64 26 65
REMARK SMILES IDX 27 66 28 67 54 68 55 69 63 70 56 71 62 72 64 73 61 74 57 75
REMARK SMILES IDX 58 76 59 77 60 78 39 79 40 80 48 81 41 82 47 83 49 84 46 85
REMARK SMILES IDX 42 86 43 87 44 88 45 89
REMARK H PARENT 69 42 37 53
REMARK Flexibility Score: inf
ROOT
ATOM      1  C   UNL     1      -4.034   2.187  -0.284  1.00  0.00     0.275 C 
ENDROOT
BRANCH   1   2
ATOM      2  C   UNL     1      -3.212   1.388  -1.292  1.00  0.00     0.275 C 
BRANCH   2   3
ATOM      3  O   UNL     1      -1.813   1.703  -1.152  1.00  0.00    -0.458 OA
BRANCH   3   4
ATOM      4  C   UNL     1      -1.207   2.265  -2.226  1.00  0.00     0.342 C 
ATOM      5  O   UNL     1      -1.737   2.548  -3.291  1.00  0.00    -0.246 OA
BRANCH   4   6
ATOM      6  C   UNL     1       0.183   2.661  -1.898  1.00  0.00     0.102 A 
ATOM      7  C   UNL     1       1.075   1.830  -1.202  1.00  0.00     0.141 A 
ATOM      8  C   UNL     1       2.398   2.270  -0.963  1.00  0.00     0.025 A 
ATOM      9  C   UNL     1       0.607   3.920  -2.350  1.00  0.00     0.019 A 
ATOM     10  C   UNL     1       2.745   3.591  -1.321  1.00  0.00     0.012 A 
ATOM     11  C   UNL     1       1.861   4.409  -2.013  1.00  0.00     0.002 A 
BRANCH   7  12
ATOM     12  O   UNL     1       0.679   0.540  -0.934  1.00  0.00    -0.495 OA
ATOM     13  C   UNL     1       0.617   0.274   0.467  1.00  0.00     0.278 C 
ENDBRANCH   7  12
BRANCH   8  14
ATOM     14  C   UNL     1       3.485   1.392  -0.483  1.00  0.00    -0.011 A 
ATOM     15  C   UNL     1       4.160   1.719   0.712  1.00  0.00     0.012 A 
ATOM     16  C   UNL     1       3.945   0.289  -1.238  1.00  0.00    -0.043 A 
ATOM     17  C   UNL     1       5.261   0.978   1.161  1.00  0.00    -0.050 A 
ATOM     18  C   UNL     1       5.018  -0.478  -0.756  1.00  0.00     0.004 A 
ATOM     19  C   UNL     1       3.320  -0.117  -2.549  1.00  0.00     0.045 C 
ATOM     20  C   UNL     1       6.000   1.409   2.393  1.00  0.00     0.044 C 
ATOM     21  C   UNL     1       5.676  -0.131   0.423  1.00  0.00     0.004 A 
ENDBRANCH   8  14
ENDBRANCH   4   6
ENDBRANCH   3   4
ENDBRANCH   2   3
ENDBRANCH   1   2
BRANCH   1  22
ATOM     22  O   UNL     1      -3.999   3.582  -0.632  1.00  0.00    -0.458 OA
BRANCH  22  23
ATOM     23  C   UNL     1      -3.284   4.375   0.200  1.00  0.00     0.338 C 
ATOM     24  O   UNL     1      -2.745   4.065   1.247  1.00  0.00    -0.246 OA
BRANCH  23  25
ATOM     25  C   UNL     1      -3.182   5.712  -0.403  1.00  0.00     0.060 A 
ATOM     26  C   UNL     1      -2.241   5.905  -1.410  1.00  0.00     0.016 A 
ATOM     27  C   UNL     1      -3.921   6.785   0.083  1.00  0.00     0.016 A 
ATOM     28  C   UNL     1      -1.973   7.183  -1.894  1.00  0.00     0.010 A 
ATOM     29  C   UNL     1      -3.709   8.059  -0.460  1.00  0.00     0.010 A 
ATOM     30  C   UNL     1      -2.712   8.279  -1.432  1.00  0.00    -0.014 A 
BRANCH  30  31
ATOM     31  C   UNL     1      -2.408   9.660  -1.908  1.00  0.00     0.031 A 
ATOM     32  C   UNL     1      -1.990  10.713  -0.915  1.00  0.00     0.074 A 
ATOM     33  C   UNL     1      -2.504   9.982  -3.213  1.00  0.00     0.049 A 
ATOM     34  N   UNL     1      -1.903  12.010  -1.062  1.00  0.00    -0.248 NA
ATOM     35  C   UNL     1      -1.642  10.235   0.430  1.00  0.00     0.031 C 
ATOM     36  C   UNL     1      -2.832   9.053  -4.295  1.00  0.00     0.029 A 
ATOM     37  N   UNL     1      -2.341  11.188  -3.852  1.00  0.00    -0.354 N 
ATOM     38  C   UNL     1      -1.550  12.512   0.188  1.00  0.00     0.074 A 
ATOM     39  C   UNL     1      -1.453  11.374   1.079  1.00  0.00     0.031 C 
ATOM     40  C   UNL     1      -2.832   9.717  -5.461  1.00  0.00     0.029 A 
ATOM     41  C   UNL     1      -2.596  11.134  -5.203  1.00  0.00     0.049 A 
ATOM     42  H   UNL     1      -2.068  12.012  -3.387  1.00  0.00     0.167 HD
ATOM     43  C   UNL     1      -1.333  13.801   0.555  1.00  0.00     0.034 A 
ATOM     44  C   UNL     1      -2.689  12.115  -6.123  1.00  0.00     0.034 A 
ATOM     45  C   UNL     1      -1.397  14.917  -0.360  1.00  0.00     0.049 A 
ATOM     46  C   UNL     1      -2.498  13.544  -5.690  1.00  0.00     0.074 A 
ATOM     47  C   UNL     1      -1.185  16.261  -0.101  1.00  0.00     0.029 A 
ATOM     48  N   UNL     1      -1.691  14.820  -1.715  1.00  0.00    -0.354 N 
ATOM     49  N   UNL     1      -2.242  14.017  -4.492  1.00  0.00    -0.248 NA
ATOM     50  C   UNL     1      -2.623  14.573  -6.730  1.00  0.00     0.031 C 
ATOM     51  C   UNL     1      -1.408  16.979  -1.282  1.00  0.00     0.029 A 
ATOM     52  C   UNL     1      -1.688  16.079  -2.298  1.00  0.00     0.049 A 
ATOM     53  H   UNL     1      -1.874  13.979  -2.192  1.00  0.00     0.167 HD
ATOM     54  C   UNL     1      -2.162  15.398  -4.638  1.00  0.00     0.074 A 
ATOM     55  C   UNL     1      -2.380  15.680  -6.043  1.00  0.00     0.031 C 
ATOM     56  C   UNL     1      -1.927  16.348  -3.697  1.00  0.00     0.034 A 
BRANCH  43  57
ATOM     57  C   UNL     1      -1.079  14.068   2.021  1.00  0.00     0.023 A 
ATOM     58  C   UNL     1       0.045  13.555   2.693  1.00  0.00     0.031 A 
ATOM     59  C   UNL     1      -2.014  14.801   2.774  1.00  0.00     0.131 A 
ATOM     60  C   UNL     1       0.157  13.702   4.085  1.00  0.00     0.055 A 
ATOM     61  C   UNL     1      -1.852  15.019   4.144  1.00  0.00     0.041 A 
ATOM     62  F   UNL     1      -3.118  15.299   2.195  1.00  0.00    -0.206 F 
ATOM     63  C   UNL     1      -0.772  14.451   4.811  1.00  0.00     0.022 A 
BRANCH  60  64
ATOM     64  S   UNL     1       1.437  12.756   4.956  1.00  0.00     0.124 S 
ATOM     65  O   UNL     1       1.121  11.388   4.550  1.00  0.00    -0.237 OA
ATOM     66  O   UNL     1       2.668  13.317   4.411  1.00  0.00    -0.237 OA
ATOM     67  O   UNL     1       1.184  13.053   6.364  1.00  0.00    -0.744 OA
ENDBRANCH  60  64
ENDBRANCH  43  57
BRANCH  44  68
ATOM     68  C   UNL     1      -3.057  11.785  -7.530  1.00  0.00     0.023 A 
ATOM     69  C   UNL     1      -2.154  11.985  -8.585  1.00  0.00     0.031 A 
ATOM     70  C   UNL     1      -4.332  11.276  -7.838  1.00  0.00     0.131 A 
ATOM     71  C   UNL     1      -2.547  11.697  -9.903  1.00  0.00     0.055 A 
ATOM     72  C   UNL     1      -4.700  10.946  -9.142  1.00  0.00     0.041 A 
ATOM     73  F   UNL     1      -5.233  11.068  -6.864  1.00  0.00    -0.206 F 
ATOM     74  C   UNL     1      -3.807  11.164 -10.186  1.00  0.00     0.022 A 
BRANCH  71  75
ATOM     75  S   UNL     1      -1.401  12.079 -11.256  1.00  0.00     0.124 S 
ATOM     76  O   UNL     1      -1.250  13.524 -11.120  1.00  0.00    -0.237 OA
ATOM     77  O   UNL     1      -0.235  11.276 -10.905  1.00  0.00    -0.237 OA
ATOM     78  O   UNL     1      -2.123  11.637 -12.448  1.00  0.00    -0.744 OA
ENDBRANCH  71  75
ENDBRANCH  44  68
BRANCH  56  79
ATOM     79  C   UNL     1      -1.854  17.777  -4.175  1.00  0.00     0.023 A 
ATOM     80  C   UNL     1      -2.990  18.461  -4.643  1.00  0.00     0.031 A 
ATOM     81  C   UNL     1      -0.623  18.456  -4.177  1.00  0.00     0.131 A 
ATOM     82  C   UNL     1      -2.862  19.766  -5.141  1.00  0.00     0.055 A 
ATOM     83  C   UNL     1      -0.512  19.773  -4.625  1.00  0.00     0.041 A 
ATOM     84  F   UNL     1       0.493  17.849  -3.743  1.00  0.00    -0.206 F 
ATOM     85  C   UNL     1      -1.633  20.432  -5.122  1.00  0.00     0.022 A 
BRANCH  82  86
ATOM     86  S   UNL     1      -4.309  20.559  -5.896  1.00  0.00     0.124 S 
ATOM     87  O   UNL     1      -4.633  19.634  -6.977  1.00  0.00    -0.237 OA
ATOM     88  O   UNL     1      -5.257  20.601  -4.787  1.00  0.00    -0.237 OA
ATOM     89  O   UNL     1      -3.802  21.861  -6.325  1.00  0.00    -0.744 OA
ENDBRANCH  82  86
ENDBRANCH  56  79
ENDBRANCH  30  31
ENDBRANCH  23  25
ENDBRANCH  22  23
ENDBRANCH   1  22
TORSDOF 16
