REMARK SMILES CCOc1ccccc1[C@@H](C(=O)OCCOC(=O)c1ccc(-c2c3nc(c(-c4cc(S(=O)(=O)[O-])ccc4F)c4ccc([nH]4)c(-c4cc(S(=O)(=O)[O-])ccc4F)c4nc(c(-c5cc(S(=O)(=O)[O-])ccc5F)c5ccc2[nH]5)C=C4)C=C3)cc1)[NH+]1CCC(C(=O)N2CCCC2)CC1
REMARK SMILES IDX 14 1 13 2 11 3 12 4 10 5 9 6 4 7 5 8 6 9 8 10 7 11 3 12 2 13
REMARK SMILES IDX 1 14 82 15 83 16 94 17 84 19 93 20 85 21 86 22 87 23 88 24
REMARK SMILES IDX 89 25 92 26 90 27 91 28 15 29 16 30 17 31 18 32 19 33 20 34
REMARK SMILES IDX 81 35 21 36 80 37 22 38 23 39 24 40 74 41 25 42 79 43 73 44
REMARK SMILES IDX 75 45 26 46 78 47 72 48 71 49 27 51 59 52 39 53 58 54 40 55
REMARK SMILES IDX 43 56 57 57 76 58 41 59 42 60 56 62 77 63 44 64 28 65 29 66
REMARK SMILES IDX 37 67 30 68 36 69 38 70 35 71 31 72 32 73 33 74 34 75 60 76
REMARK SMILES IDX 61 77 69 78 62 79 68 80 70 81 67 82 63 83 64 84 65 85 66 86
REMARK SMILES IDX 45 87 46 88 54 89 47 90 53 91 55 92 52 93 48 94 49 95 50 96
REMARK SMILES IDX 51 97
REMARK H PARENT 82 18 75 50 43 61
REMARK Flexibility Score: inf
ROOT
ATOM      1  C   UNL     1       2.491   1.204   3.935  1.00  0.00     0.274 C 
ENDROOT
BRANCH   1   2
ATOM      2  O   UNL     1       2.864   0.306   2.873  1.00  0.00    -0.457 OA
BRANCH   2   3
ATOM      3  C   UNL     1       2.715   0.796   1.608  1.00  0.00     0.370 C 
ATOM      4  O   UNL     1       2.363   1.951   1.371  1.00  0.00    -0.245 OA
BRANCH   3   5
ATOM      5  C   UNL     1       2.841  -0.271   0.519  1.00  0.00     0.330 C 
BRANCH   5   6
ATOM      6  C   UNL     1       3.030  -1.712   0.969  1.00  0.00     0.063 A 
ATOM      7  C   UNL     1       1.934  -2.597   0.978  1.00  0.00     0.129 A 
ATOM      8  C   UNL     1       2.105  -3.955   1.243  1.00  0.00     0.047 A 
ATOM      9  C   UNL     1       3.375  -4.447   1.540  1.00  0.00     0.004 A 
ATOM     10  C   UNL     1       4.277  -2.211   1.375  1.00  0.00     0.014 A 
ATOM     11  C   UNL     1       4.453  -3.571   1.637  1.00  0.00     0.001 A 
BRANCH   7  12
ATOM     12  O   UNL     1       0.659  -2.092   0.941  1.00  0.00    -0.493 OA
BRANCH  12  13
ATOM     13  C   UNL     1       0.034  -2.176  -0.342  1.00  0.00     0.226 C 
ATOM     14  C   UNL     1      -0.781  -0.901  -0.535  1.00  0.00     0.049 C 
ENDBRANCH  12  13
ENDBRANCH   7  12
ENDBRANCH   5   6
BRANCH   5  15
ATOM     15  N   UNL     1       3.587   0.179  -0.708  1.00  0.00    -0.319 N 
ATOM     16  C   UNL     1       5.051   0.051  -0.691  1.00  0.00     0.264 C 
ATOM     17  C   UNL     1       3.039  -0.485  -1.899  1.00  0.00     0.264 C 
ATOM     18  H   UNL     1       3.434   1.188  -0.727  1.00  0.00     0.349 HD
ATOM     19  C   UNL     1       5.712   0.668  -1.944  1.00  0.00     0.075 C 
ATOM     20  C   UNL     1       3.556   0.166  -3.164  1.00  0.00     0.075 C 
ATOM     21  C   UNL     1       5.083   0.132  -3.227  1.00  0.00     0.090 C 
BRANCH  21  22
ATOM     22  C   UNL     1       5.485   0.706  -4.586  1.00  0.00     0.226 C 
ATOM     23  O   UNL     1       5.902  -0.075  -5.449  1.00  0.00    -0.275 OA
ATOM     24  N   UNL     1       5.133   1.993  -4.916  1.00  0.00    -0.342 N 
ATOM     25  C   UNL     1       5.033   3.173  -4.085  1.00  0.00     0.119 C 
ATOM     26  C   UNL     1       4.870   2.336  -6.302  1.00  0.00     0.119 C 
ATOM     27  C   UNL     1       4.027   4.045  -4.807  1.00  0.00     0.023 C 
ATOM     28  C   UNL     1       4.277   3.743  -6.279  1.00  0.00     0.023 C 
ENDBRANCH  21  22
ENDBRANCH   5  15
ENDBRANCH   3   5
ENDBRANCH   2   3
ENDBRANCH   1   2
BRANCH   1  29
ATOM     29  C   UNL     1       3.719   1.857   4.560  1.00  0.00     0.275 C 
BRANCH  29  30
ATOM     30  O   UNL     1       4.415   2.636   3.574  1.00  0.00    -0.458 OA
BRANCH  30  31
ATOM     31  C   UNL     1       5.608   2.148   3.167  1.00  0.00     0.338 C 
ATOM     32  O   UNL     1       6.207   1.188   3.640  1.00  0.00    -0.246 OA
BRANCH  31  33
ATOM     33  C   UNL     1       6.121   2.924   2.021  1.00  0.00     0.060 A 
ATOM     34  C   UNL     1       5.264   3.341   1.006  1.00  0.00     0.016 A 
ATOM     35  C   UNL     1       7.495   3.122   1.882  1.00  0.00     0.016 A 
ATOM     36  C   UNL     1       5.784   3.850  -0.183  1.00  0.00     0.010 A 
ATOM     37  C   UNL     1       8.002   3.734   0.727  1.00  0.00     0.010 A 
ATOM     38  C   UNL     1       7.159   4.064  -0.349  1.00  0.00    -0.014 A 
BRANCH  38  39
ATOM     39  C   UNL     1       7.722   4.551  -1.651  1.00  0.00     0.031 A 
ATOM     40  C   UNL     1       8.856   3.800  -2.316  1.00  0.00     0.074 A 
ATOM     41  C   UNL     1       7.205   5.623  -2.291  1.00  0.00     0.049 A 
ATOM     42  N   UNL     1       9.654   4.185  -3.279  1.00  0.00    -0.248 NA
ATOM     43  C   UNL     1       9.132   2.442  -1.824  1.00  0.00     0.031 C 
ATOM     44  C   UNL     1       6.037   6.393  -1.861  1.00  0.00     0.029 A 
ATOM     45  N   UNL     1       7.573   6.229  -3.470  1.00  0.00    -0.354 N 
ATOM     46  C   UNL     1      10.585   3.161  -3.439  1.00  0.00     0.074 A 
ATOM     47  C   UNL     1      10.224   2.119  -2.503  1.00  0.00     0.031 C 
ATOM     48  C   UNL     1       5.732   7.299  -2.801  1.00  0.00     0.029 A 
ATOM     49  C   UNL     1       6.771   7.292  -3.824  1.00  0.00     0.049 A 
ATOM     50  H   UNL     1       8.340   5.931  -4.012  1.00  0.00     0.167 HD
ATOM     51  C   UNL     1      11.661   3.116  -4.265  1.00  0.00     0.034 A 
ATOM     52  C   UNL     1       6.888   8.206  -4.809  1.00  0.00     0.034 A 
ATOM     53  C   UNL     1      11.970   4.139  -5.236  1.00  0.00     0.049 A 
ATOM     54  C   UNL     1       8.114   8.173  -5.684  1.00  0.00     0.074 A 
ATOM     55  C   UNL     1      13.058   4.223  -6.089  1.00  0.00     0.029 A 
ATOM     56  N   UNL     1      11.176   5.247  -5.501  1.00  0.00    -0.354 N 
ATOM     57  N   UNL     1       9.093   7.300  -5.699  1.00  0.00    -0.248 NA
ATOM     58  C   UNL     1       8.277   9.278  -6.639  1.00  0.00     0.031 C 
ATOM     59  C   UNL     1      12.952   5.409  -6.824  1.00  0.00     0.029 A 
ATOM     60  C   UNL     1      11.762   6.030  -6.484  1.00  0.00     0.049 A 
ATOM     61  H   UNL     1      10.321   5.447  -5.056  1.00  0.00     0.167 HD
ATOM     62  C   UNL     1       9.994   7.760  -6.655  1.00  0.00     0.074 A 
ATOM     63  C   UNL     1       9.425   8.964  -7.222  1.00  0.00     0.031 C 
ATOM     64  C   UNL     1      11.194   7.241  -7.021  1.00  0.00     0.034 A 
BRANCH  51  65
ATOM     65  C   UNL     1      12.650   1.991  -4.070  1.00  0.00     0.023 A 
ATOM     66  C   UNL     1      12.360   0.650  -4.374  1.00  0.00     0.031 A 
ATOM     67  C   UNL     1      13.925   2.286  -3.548  1.00  0.00     0.131 A 
ATOM     68  C   UNL     1      13.315  -0.347  -4.110  1.00  0.00     0.055 A 
ATOM     69  C   UNL     1      14.893   1.301  -3.354  1.00  0.00     0.041 A 
ATOM     70  F   UNL     1      14.249   3.546  -3.213  1.00  0.00    -0.206 F 
ATOM     71  C   UNL     1      14.587  -0.027  -3.625  1.00  0.00     0.022 A 
BRANCH  68  72
ATOM     72  S   UNL     1      12.839  -2.089  -4.287  1.00  0.00     0.124 S 
ATOM     73  O   UNL     1      11.693  -2.177  -3.387  1.00  0.00    -0.237 OA
ATOM     74  O   UNL     1      12.549  -2.193  -5.712  1.00  0.00    -0.237 OA
ATOM     75  O   UNL     1      14.027  -2.816  -3.840  1.00  0.00    -0.744 OA
ENDBRANCH  68  72
ENDBRANCH  51  65
BRANCH  52  76
ATOM     76  C   UNL     1       5.880   9.298  -4.956  1.00  0.00     0.023 A 
ATOM     77  C   UNL     1       5.130   9.436  -6.135  1.00  0.00     0.031 A 
ATOM     78  C   UNL     1       5.672  10.243  -3.933  1.00  0.00     0.131 A 
ATOM     79  C   UNL     1       4.224  10.501  -6.268  1.00  0.00     0.055 A 
ATOM     80  C   UNL     1       4.723  11.259  -4.044  1.00  0.00     0.041 A 
ATOM     81  F   UNL     1       6.376  10.175  -2.792  1.00  0.00    -0.206 F 
ATOM     82  C   UNL     1       3.998  11.398  -5.222  1.00  0.00     0.022 A 
BRANCH  79  83
ATOM     83  S   UNL     1       3.395  10.746  -7.863  1.00  0.00     0.124 S 
ATOM     84  O   UNL     1       4.529  10.944  -8.758  1.00  0.00    -0.237 OA
ATOM     85  O   UNL     1       2.664   9.493  -8.020  1.00  0.00    -0.237 OA
ATOM     86  O   UNL     1       2.564  11.926  -7.636  1.00  0.00    -0.744 OA
ENDBRANCH  79  83
ENDBRANCH  52  76
BRANCH  64  87
ATOM     87  C   UNL     1      11.956   7.972  -8.095  1.00  0.00     0.023 A 
ATOM     88  C   UNL     1      12.551   9.223  -7.851  1.00  0.00     0.031 A 
ATOM     89  C   UNL     1      12.091   7.410  -9.376  1.00  0.00     0.131 A 
ATOM     90  C   UNL     1      13.220   9.891  -8.887  1.00  0.00     0.055 A 
ATOM     91  C   UNL     1      12.797   8.058 -10.390  1.00  0.00     0.041 A 
ATOM     92  F   UNL     1      11.541   6.219  -9.660  1.00  0.00    -0.206 F 
ATOM     93  C   UNL     1      13.358   9.310 -10.151  1.00  0.00     0.022 A 
BRANCH  90  94
ATOM     94  S   UNL     1      13.857  11.562  -8.581  1.00  0.00     0.124 S 
ATOM     95  O   UNL     1      12.638  12.298  -8.261  1.00  0.00    -0.237 OA
ATOM     96  O   UNL     1      14.781  11.347  -7.473  1.00  0.00    -0.237 OA
ATOM     97  O   UNL     1      14.486  11.927  -9.849  1.00  0.00    -0.744 OA
ENDBRANCH  90  94
ENDBRANCH  64  87
ENDBRANCH  38  39
ENDBRANCH  31  33
ENDBRANCH  30  31
ENDBRANCH  29  30
ENDBRANCH   1  29
TORSDOF 19
