REMARK SMILES COc1ccc(S(=O)(=O)N2CCC[C@H](C(=O)N3CCC[C@H](C(=O)OCCOC(=O)c4ccc(-c5c6nc(c(-c7cc(S(=O)(=O)[O-])ccc7F)c7ccc([nH]7)c(-c7cc(S(=O)(=O)[O-])ccc7F)c7nc(c(-c8cc(S(=O)(=O)[O-])ccc8F)c8ccc5[nH]8)C=C7)C=C6)cc4)C3)C2)cc1
REMARK SMILES IDX 25 1 24 2 22 3 23 4 21 5 17 6 18 7 93 8 19 9 20 10 15 11
REMARK SMILES IDX 16 12 14 13 10 14 11 15 94 16 12 17 13 18 7 19 8 20 9 21
REMARK SMILES IDX 6 22 3 23 4 24 96 25 5 26 95 27 2 28 1 29 26 30 27 31 28 32
REMARK SMILES IDX 29 33 30 34 31 35 92 36 32 37 91 38 33 39 34 40 35 41 85 42
REMARK SMILES IDX 36 43 90 44 84 45 86 46 37 47 89 48 83 49 82 50 38 52 70 53
REMARK SMILES IDX 50 54 69 55 51 56 54 57 68 58 87 59 52 60 53 61 67 63 88 64
REMARK SMILES IDX 55 65 39 66 40 67 48 68 41 69 47 70 49 71 46 72 42 73 43 74
REMARK SMILES IDX 44 75 45 76 71 77 72 78 80 79 73 80 79 81 81 82 78 83 74 84
REMARK SMILES IDX 75 85 76 86 77 87 56 88 57 89 65 90 58 91 64 92 66 93 63 94
REMARK SMILES IDX 59 95 60 96 61 97 62 98
REMARK H PARENT 86 51 54 62
REMARK Flexibility Score: inf
ROOT
ATOM      1  C   UNL     1       8.808 -10.251  -4.553  1.00  0.00     0.274 C 
ENDROOT
BRANCH   1   2
ATOM      2  O   UNL     1       7.412 -10.148  -4.883  1.00  0.00    -0.462 OA
BRANCH   2   3
ATOM      3  C   UNL     1       6.976  -8.947  -5.331  1.00  0.00     0.310 C 
ATOM      4  O   UNL     1       7.677  -7.945  -5.434  1.00  0.00    -0.252 OA
BRANCH   3   5
ATOM      5  C   UNL     1       5.497  -8.934  -5.685  1.00  0.00     0.119 C 
ATOM      6  N   UNL     1       4.682  -8.570  -3.410  1.00  0.00    -0.342 N 
ATOM      7  C   UNL     1       3.938  -9.825  -3.378  1.00  0.00     0.119 C 
ATOM      8  C   UNL     1       4.796  -7.974  -4.730  1.00  0.00     0.134 C 
ATOM      9  C   UNL     1       4.516 -10.864  -4.331  1.00  0.00     0.022 C 
ATOM     10  C   UNL     1       4.785 -10.288  -5.723  1.00  0.00     0.019 C 
BRANCH   6  11
ATOM     11  C   UNL     1       5.483  -8.231  -2.338  1.00  0.00     0.227 C 
ATOM     12  O   UNL     1       5.989  -9.103  -1.623  1.00  0.00    -0.275 OA
BRANCH  11  13
ATOM     13  C   UNL     1       5.551  -6.771  -1.870  1.00  0.00     0.094 C 
ATOM     14  N   UNL     1       3.206  -6.071  -2.223  1.00  0.00    -0.197 NA
ATOM     15  C   UNL     1       3.537  -5.175  -3.343  1.00  0.00     0.102 C 
ATOM     16  C   UNL     1       4.230  -6.401  -1.219  1.00  0.00     0.116 C 
ATOM     17  C   UNL     1       5.010  -4.811  -3.487  1.00  0.00     0.018 C 
ATOM     18  C   UNL     1       6.063  -5.667  -2.780  1.00  0.00     0.016 C 
BRANCH  14  19
ATOM     19  S   UNL     1       1.575  -6.181  -1.768  1.00  0.00     0.243 S 
ATOM     20  O   UNL     1       1.435  -7.230  -0.791  1.00  0.00    -0.207 OA
ATOM     21  O   UNL     1       0.787  -6.170  -2.989  1.00  0.00    -0.207 OA
BRANCH  19  22
ATOM     22  C   UNL     1       1.202  -4.653  -0.930  1.00  0.00     0.082 A 
ATOM     23  C   UNL     1       0.483  -2.223   0.236  1.00  0.00     0.118 A 
ATOM     24  C   UNL     1      -0.491  -3.189  -0.018  1.00  0.00     0.048 A 
ATOM     25  C   UNL     1       1.822  -2.494  -0.039  1.00  0.00     0.048 A 
ATOM     26  C   UNL     1      -0.137  -4.403  -0.613  1.00  0.00     0.025 A 
ATOM     27  C   UNL     1       2.180  -3.704  -0.630  1.00  0.00     0.025 A 
BRANCH  23  28
ATOM     28  O   UNL     1       0.050  -1.045   0.781  1.00  0.00    -0.497 OA
ATOM     29  C   UNL     1       0.688   0.103   0.221  1.00  0.00     0.278 C 
ENDBRANCH  23  28
ENDBRANCH  19  22
ENDBRANCH  14  19
ENDBRANCH  11  13
ENDBRANCH   6  11
ENDBRANCH   3   5
ENDBRANCH   2   3
ENDBRANCH   1   2
BRANCH   1  30
ATOM     30  C   UNL     1       9.569 -10.976  -5.663  1.00  0.00     0.275 C 
BRANCH  30  31
ATOM     31  O   UNL     1       9.596 -10.199  -6.875  1.00  0.00    -0.458 OA
BRANCH  31  32
ATOM     32  C   UNL     1       8.577 -10.446  -7.732  1.00  0.00     0.338 C 
ATOM     33  O   UNL     1       7.687 -11.270  -7.609  1.00  0.00    -0.246 OA
BRANCH  32  34
ATOM     34  C   UNL     1       8.615  -9.479  -8.835  1.00  0.00     0.060 A 
ATOM     35  C   UNL     1       7.697  -8.428  -8.833  1.00  0.00     0.016 A 
ATOM     36  C   UNL     1       9.468  -9.675  -9.918  1.00  0.00     0.016 A 
ATOM     37  C   UNL     1       7.595  -7.582  -9.930  1.00  0.00     0.010 A 
ATOM     38  C   UNL     1       9.387  -8.806 -11.009  1.00  0.00     0.010 A 
ATOM     39  C   UNL     1       8.437  -7.767 -11.029  1.00  0.00    -0.014 A 
BRANCH  39  40
ATOM     40  C   UNL     1       8.293  -6.908 -12.227  1.00  0.00     0.031 A 
ATOM     41  C   UNL     1       7.769  -7.506 -13.501  1.00  0.00     0.074 A 
ATOM     42  C   UNL     1       8.645  -5.609 -12.169  1.00  0.00     0.049 A 
ATOM     43  N   UNL     1       7.745  -6.998 -14.704  1.00  0.00    -0.248 NA
ATOM     44  C   UNL     1       7.207  -8.863 -13.406  1.00  0.00     0.031 C 
ATOM     45  C   UNL     1       9.105  -4.913 -10.965  1.00  0.00     0.029 A 
ATOM     46  N   UNL     1       8.693  -4.650 -13.148  1.00  0.00    -0.354 N 
ATOM     47  C   UNL     1       7.212  -7.988 -15.521  1.00  0.00     0.074 A 
ATOM     48  C   UNL     1       6.922  -9.125 -14.674  1.00  0.00     0.031 C 
ATOM     49  C   UNL     1       9.408  -3.644 -11.282  1.00  0.00     0.029 A 
ATOM     50  C   UNL     1       9.232  -3.458 -12.719  1.00  0.00     0.049 A 
ATOM     51  H   UNL     1       8.372  -4.798 -14.066  1.00  0.00     0.167 HD
ATOM     52  C   UNL     1       6.999  -7.947 -16.859  1.00  0.00     0.034 A 
ATOM     53  C   UNL     1       9.600  -2.365 -13.417  1.00  0.00     0.034 A 
ATOM     54  C   UNL     1       7.271  -6.788 -17.673  1.00  0.00     0.049 A 
ATOM     55  C   UNL     1       9.395  -2.363 -14.912  1.00  0.00     0.074 A 
ATOM     56  C   UNL     1       7.061  -6.620 -19.031  1.00  0.00     0.029 A 
ATOM     57  N   UNL     1       7.818  -5.600 -17.206  1.00  0.00    -0.354 N 
ATOM     58  N   UNL     1       8.904  -3.310 -15.679  1.00  0.00    -0.248 NA
ATOM     59  C   UNL     1       9.793  -1.149 -15.635  1.00  0.00     0.031 C 
ATOM     60  C   UNL     1       7.538  -5.356 -19.394  1.00  0.00     0.029 A 
ATOM     61  C   UNL     1       7.980  -4.707 -18.253  1.00  0.00     0.049 A 
ATOM     62  H   UNL     1       8.056  -5.418 -16.268  1.00  0.00     0.167 HD
ATOM     63  C   UNL     1       8.907  -2.791 -16.970  1.00  0.00     0.074 A 
ATOM     64  C   UNL     1       9.437  -1.446 -16.876  1.00  0.00     0.031 C 
ATOM     65  C   UNL     1       8.507  -3.369 -18.131  1.00  0.00     0.034 A 
BRANCH  52  66
ATOM     66  C   UNL     1       6.518  -9.206 -17.533  1.00  0.00     0.023 A 
ATOM     67  C   UNL     1       5.238  -9.739 -17.307  1.00  0.00     0.031 A 
ATOM     68  C   UNL     1       7.369  -9.886 -18.424  1.00  0.00     0.131 A 
ATOM     69  C   UNL     1       4.863 -10.941 -17.928  1.00  0.00     0.055 A 
ATOM     70  C   UNL     1       6.967 -11.046 -19.088  1.00  0.00     0.041 A 
ATOM     71  F   UNL     1       8.612  -9.435 -18.658  1.00  0.00    -0.206 F 
ATOM     72  C   UNL     1       5.710 -11.585 -18.834  1.00  0.00     0.022 A 
BRANCH  69  73
ATOM     73  S   UNL     1       3.290 -11.711 -17.458  1.00  0.00     0.124 S 
ATOM     74  O   UNL     1       3.496 -11.959 -16.034  1.00  0.00    -0.237 OA
ATOM     75  O   UNL     1       2.319 -10.676 -17.793  1.00  0.00    -0.237 OA
ATOM     76  O   UNL     1       3.233 -12.912 -18.291  1.00  0.00    -0.744 OA
ENDBRANCH  69  73
ENDBRANCH  52  66
BRANCH  53  77
ATOM     77  C   UNL     1      10.267  -1.219 -12.735  1.00  0.00     0.023 A 
ATOM     78  C   UNL     1       9.688   0.058 -12.723  1.00  0.00     0.031 A 
ATOM     79  C   UNL     1      11.531  -1.375 -12.134  1.00  0.00     0.131 A 
ATOM     80  C   UNL     1      10.392   1.140 -12.170  1.00  0.00     0.055 A 
ATOM     81  C   UNL     1      12.200  -0.308 -11.533  1.00  0.00     0.041 A 
ATOM     82  F   UNL     1      12.133  -2.575 -12.117  1.00  0.00    -0.206 F 
ATOM     83  C   UNL     1      11.638   0.963 -11.564  1.00  0.00     0.022 A 
BRANCH  80  84
ATOM     84  S   UNL     1       9.701   2.808 -12.352  1.00  0.00     0.124 S 
ATOM     85  O   UNL     1       9.511   2.896 -13.795  1.00  0.00    -0.237 OA
ATOM     86  O   UNL     1       8.486   2.719 -11.548  1.00  0.00    -0.237 OA
ATOM     87  O   UNL     1      10.746   3.670 -11.805  1.00  0.00    -0.744 OA
ENDBRANCH  80  84
ENDBRANCH  53  77
BRANCH  65  88
ATOM     88  C   UNL     1       8.569  -2.519 -19.373  1.00  0.00     0.023 A 
ATOM     89  C   UNL     1       9.793  -2.135 -19.948  1.00  0.00     0.031 A 
ATOM     90  C   UNL     1       7.380  -2.086 -19.987  1.00  0.00     0.131 A 
ATOM     91  C   UNL     1       9.800  -1.302 -21.076  1.00  0.00     0.055 A 
ATOM     92  C   UNL     1       7.394  -1.303 -21.141  1.00  0.00     0.041 A 
ATOM     93  F   UNL     1       6.186  -2.425 -19.476  1.00  0.00    -0.206 F 
ATOM     94  C   UNL     1       8.609  -0.897 -21.685  1.00  0.00     0.022 A 
BRANCH  91  95
ATOM     95  S   UNL     1      11.390  -0.689 -21.697  1.00  0.00     0.124 S 
ATOM     96  O   UNL     1      11.902   0.046 -20.545  1.00  0.00    -0.237 OA
ATOM     97  O   UNL     1      12.093  -1.924 -22.029  1.00  0.00    -0.237 OA
ATOM     98  O   UNL     1      11.016   0.137 -22.843  1.00  0.00    -0.744 OA
ENDBRANCH  91  95
ENDBRANCH  65  88
ENDBRANCH  39  40
ENDBRANCH  32  34
ENDBRANCH  31  32
ENDBRANCH  30  31
ENDBRANCH   1  30
TORSDOF 19
