REMARK SMILES CC(C)CCNC(=O)[C@@H](C)Oc1ccc(N)cc1C(=O)OCCOC(=O)c1ccc(-c2c3nc(c(-c4cc(S(=O)(=O)[O-])ccc4F)c4ccc([nH]4)c(-c4cc(S(=O)(=O)[O-])ccc4F)c4nc(c(-c5cc(S(=O)(=O)[O-])ccc5F)c5ccc2[nH]5)C=C4)C=C3)cc1
REMARK SMILES IDX 21 1 19 2 20 3 18 4 12 5 13 6 14 7 17 8 15 9 11 10 9 11
REMARK SMILES IDX 10 12 7 13 6 14 8 16 5 17 4 18 2 19 1 20 3 21 16 22 22 25
REMARK SMILES IDX 23 26 24 27 25 28 26 29 27 30 28 31 89 32 29 33 88 34 30 35
REMARK SMILES IDX 31 36 32 37 82 38 33 39 87 40 81 41 83 42 34 43 86 44 80 45
REMARK SMILES IDX 79 46 35 48 67 49 47 50 66 51 48 52 51 53 65 54 84 55 49 56
REMARK SMILES IDX 50 57 64 59 85 60 52 61 36 62 37 63 45 64 38 65 44 66 46 67
REMARK SMILES IDX 43 68 39 69 40 70 41 71 42 72 68 73 69 74 77 75 70 76 76 77
REMARK SMILES IDX 78 78 75 79 71 80 72 81 73 82 74 83 53 84 54 85 62 86 55 87
REMARK SMILES IDX 61 88 63 89 60 90 56 91 57 92 58 93 59 94
REMARK H PARENT 6 15 16 23 16 24 83 47 51 58
REMARK Flexibility Score: inf
ROOT
ATOM      1  O   UNL     1      -5.909   2.517   0.455  1.00  0.00    -0.458 OA
ENDROOT
BRANCH   1   2
ATOM      2  C   UNL     1      -5.269   2.378   1.641  1.00  0.00     0.342 C 
ATOM      3  O   UNL     1      -5.794   2.405   2.744  1.00  0.00    -0.246 OA
BRANCH   2   4
ATOM      4  C   UNL     1      -3.815   2.154   1.496  1.00  0.00     0.104 A 
ATOM      5  C   UNL     1      -2.985   3.026   0.793  1.00  0.00     0.135 A 
ATOM      6  C   UNL     1      -1.619   3.040   1.087  1.00  0.00     0.049 A 
ATOM      7  C   UNL     1      -1.062   2.053   1.909  1.00  0.00     0.029 A 
ATOM      8  C   UNL     1      -3.239   1.145   2.283  1.00  0.00     0.045 A 
ATOM      9  C   UNL     1      -1.859   1.046   2.445  1.00  0.00     0.032 A 
BRANCH   5  10
ATOM     10  O   UNL     1      -3.487   3.933  -0.091  1.00  0.00    -0.480 OA
BRANCH  10  11
ATOM     11  C   UNL     1      -3.200   3.636  -1.465  1.00  0.00     0.258 C 
ATOM     12  C   UNL     1      -4.207   2.658  -2.073  1.00  0.00     0.064 C 
BRANCH  11  13
ATOM     13  C   UNL     1      -1.738   3.451  -1.979  1.00  0.00     0.260 C 
ATOM     14  N   UNL     1      -1.102   2.249  -2.065  1.00  0.00    -0.353 N 
ATOM     15  H   UNL     1      -0.248   2.278  -2.553  1.00  0.00     0.163 HD
ATOM     16  O   UNL     1      -1.082   4.442  -2.327  1.00  0.00    -0.271 OA
BRANCH  14  17
ATOM     17  C   UNL     1      -1.459   0.932  -1.565  1.00  0.00     0.116 C 
BRANCH  17  18
ATOM     18  C   UNL     1      -0.701  -0.202  -2.254  1.00  0.00     0.024 C 
BRANCH  18  19
ATOM     19  C   UNL     1       0.829  -0.218  -2.048  1.00  0.00    -0.016 C 
ATOM     20  C   UNL     1       1.238  -0.245  -0.574  1.00  0.00     0.007 C 
ATOM     21  C   UNL     1       1.421  -1.434  -2.767  1.00  0.00     0.007 C 
ENDBRANCH  18  19
ENDBRANCH  17  18
ENDBRANCH  14  17
ENDBRANCH  11  13
ENDBRANCH  10  11
ENDBRANCH   5  10
BRANCH   9  22
ATOM     22  N   UNL     1      -1.314   0.025   3.195  1.00  0.00    -0.399 N 
ATOM     23  H   UNL     1      -0.338  -0.038   3.305  1.00  0.00     0.156 HD
ATOM     24  H   UNL     1      -1.902  -0.640   3.621  1.00  0.00     0.156 HD
ENDBRANCH   9  22
ENDBRANCH   2   4
ENDBRANCH   1   2
BRANCH   1  25
ATOM     25  C   UNL     1      -7.311   2.846   0.556  1.00  0.00     0.275 C 
BRANCH  25  26
ATOM     26  C   UNL     1      -8.193   1.608   0.410  1.00  0.00     0.275 C 
BRANCH  26  27
ATOM     27  O   UNL     1      -7.911   0.681   1.471  1.00  0.00    -0.458 OA
BRANCH  27  28
ATOM     28  C   UNL     1      -7.863  -0.622   1.116  1.00  0.00     0.338 C 
ATOM     29  O   UNL     1      -8.126  -1.090   0.016  1.00  0.00    -0.246 OA
BRANCH  28  30
ATOM     30  C   UNL     1      -7.416  -1.446   2.257  1.00  0.00     0.060 A 
ATOM     31  C   UNL     1      -6.318  -1.051   3.017  1.00  0.00     0.016 A 
ATOM     32  C   UNL     1      -8.004  -2.687   2.493  1.00  0.00     0.016 A 
ATOM     33  C   UNL     1      -5.728  -1.937   3.919  1.00  0.00     0.010 A 
ATOM     34  C   UNL     1      -7.478  -3.531   3.481  1.00  0.00     0.010 A 
ATOM     35  C   UNL     1      -6.295  -3.197   4.166  1.00  0.00    -0.014 A 
BRANCH  35  36
ATOM     36  C   UNL     1      -5.606  -4.185   5.057  1.00  0.00     0.031 A 
ATOM     37  C   UNL     1      -5.258  -5.563   4.534  1.00  0.00     0.074 A 
ATOM     38  C   UNL     1      -5.247  -3.860   6.317  1.00  0.00     0.049 A 
ATOM     39  N   UNL     1      -4.818  -6.613   5.182  1.00  0.00    -0.248 NA
ATOM     40  C   UNL     1      -5.458  -5.796   3.095  1.00  0.00     0.031 C 
ATOM     41  C   UNL     1      -5.480  -2.566   6.962  1.00  0.00     0.029 A 
ATOM     42  N   UNL     1      -4.584  -4.587   7.278  1.00  0.00    -0.354 N 
ATOM     43  C   UNL     1      -4.778  -7.650   4.253  1.00  0.00     0.074 A 
ATOM     44  C   UNL     1      -5.230  -7.098   2.994  1.00  0.00     0.031 C 
ATOM     45  C   UNL     1      -4.907  -2.566   8.175  1.00  0.00     0.029 A 
ATOM     46  C   UNL     1      -4.346  -3.887   8.439  1.00  0.00     0.049 A 
ATOM     47  H   UNL     1      -4.305  -5.522   7.147  1.00  0.00     0.167 HD
ATOM     48  C   UNL     1      -4.407  -8.943   4.433  1.00  0.00     0.034 A 
ATOM     49  C   UNL     1      -3.772  -4.267   9.598  1.00  0.00     0.034 A 
ATOM     50  C   UNL     1      -3.866  -9.466   5.664  1.00  0.00     0.049 A 
ATOM     51  C   UNL     1      -3.314  -5.693   9.757  1.00  0.00     0.074 A 
ATOM     52  C   UNL     1      -3.437 -10.754   5.941  1.00  0.00     0.029 A 
ATOM     53  N   UNL     1      -3.652  -8.724   6.817  1.00  0.00    -0.354 N 
ATOM     54  N   UNL     1      -3.373  -6.681   8.894  1.00  0.00    -0.248 NA
ATOM     55  C   UNL     1      -2.732  -6.058  11.055  1.00  0.00     0.031 C 
ATOM     56  C   UNL     1      -2.997 -10.798   7.270  1.00  0.00     0.029 A 
ATOM     57  C   UNL     1      -3.103  -9.526   7.806  1.00  0.00     0.049 A 
ATOM     58  H   UNL     1      -3.860  -7.767   6.918  1.00  0.00     0.167 HD
ATOM     59  C   UNL     1      -2.841  -7.786   9.552  1.00  0.00     0.074 A 
ATOM     60  C   UNL     1      -2.428  -7.333  10.864  1.00  0.00     0.031 C 
ATOM     61  C   UNL     1      -2.720  -9.066   9.118  1.00  0.00     0.034 A 
BRANCH  48  62
ATOM     62  C   UNL     1      -4.635  -9.897   3.286  1.00  0.00     0.023 A 
ATOM     63  C   UNL     1      -3.913  -9.819   2.084  1.00  0.00     0.031 A 
ATOM     64  C   UNL     1      -5.622 -10.894   3.399  1.00  0.00     0.131 A 
ATOM     65  C   UNL     1      -4.234 -10.678   1.020  1.00  0.00     0.055 A 
ATOM     66  C   UNL     1      -5.887 -11.792   2.364  1.00  0.00     0.041 A 
ATOM     67  F   UNL     1      -6.356 -11.004   4.519  1.00  0.00    -0.206 F 
ATOM     68  C   UNL     1      -5.200 -11.678   1.160  1.00  0.00     0.022 A 
BRANCH  65  69
ATOM     69  S   UNL     1      -3.455 -10.392  -0.593  1.00  0.00     0.124 S 
ATOM     70  O   UNL     1      -3.913  -9.040  -0.906  1.00  0.00    -0.237 OA
ATOM     71  O   UNL     1      -2.036 -10.531  -0.288  1.00  0.00    -0.237 OA
ATOM     72  O   UNL     1      -4.017 -11.444  -1.437  1.00  0.00    -0.744 OA
ENDBRANCH  65  69
ENDBRANCH  48  62
BRANCH  49  73
ATOM     73  C   UNL     1      -3.640  -3.308  10.732  1.00  0.00     0.023 A 
ATOM     74  C   UNL     1      -2.376  -2.910  11.197  1.00  0.00     0.031 A 
ATOM     75  C   UNL     1      -4.774  -2.819  11.403  1.00  0.00     0.131 A 
ATOM     76  C   UNL     1      -2.275  -2.080  12.324  1.00  0.00     0.055 A 
ATOM     77  C   UNL     1      -4.670  -1.952  12.492  1.00  0.00     0.041 A 
ATOM     78  F   UNL     1      -6.006  -3.171  11.001  1.00  0.00    -0.206 F 
ATOM     79  C   UNL     1      -3.414  -1.587  12.966  1.00  0.00     0.022 A 
BRANCH  76  80
ATOM     80  S   UNL     1      -0.628  -1.718  12.992  1.00  0.00     0.124 S 
ATOM     81  O   UNL     1      -0.112  -3.057  13.257  1.00  0.00    -0.237 OA
ATOM     82  O   UNL     1      -0.004  -0.999  11.887  1.00  0.00    -0.237 OA
ATOM     83  O   UNL     1      -0.910  -0.913  14.178  1.00  0.00    -0.744 OA
ENDBRANCH  76  80
ENDBRANCH  49  73
BRANCH  61  84
ATOM     84  C   UNL     1      -2.100 -10.045  10.081  1.00  0.00     0.023 A 
ATOM     85  C   UNL     1      -2.770 -10.439  11.252  1.00  0.00     0.031 A 
ATOM     86  C   UNL     1      -0.806 -10.543   9.854  1.00  0.00     0.131 A 
ATOM     87  C   UNL     1      -2.119 -11.256  12.188  1.00  0.00     0.055 A 
ATOM     88  C   UNL     1      -0.181 -11.396  10.765  1.00  0.00     0.041 A 
ATOM     89  F   UNL     1      -0.123 -10.196   8.752  1.00  0.00    -0.206 F 
ATOM     90  C   UNL     1      -0.831 -11.744  11.947  1.00  0.00     0.022 A 
BRANCH  87  91
ATOM     91  S   UNL     1      -2.933 -11.581  13.776  1.00  0.00     0.124 S 
ATOM     92  O   UNL     1      -3.216 -10.232  14.258  1.00  0.00    -0.237 OA
ATOM     93  O   UNL     1      -4.092 -12.371  13.374  1.00  0.00    -0.237 OA
ATOM     94  O   UNL     1      -1.920 -12.310  14.537  1.00  0.00    -0.744 OA
ENDBRANCH  87  91
ENDBRANCH  61  84
ENDBRANCH  35  36
ENDBRANCH  28  30
ENDBRANCH  27  28
ENDBRANCH  26  27
ENDBRANCH  25  26
ENDBRANCH   1  25
TORSDOF 21
