REMARK SMILES Cn1ccnc1[C@@H]1[C@@H](C(=O)OCCOC(=O)c2ccc(-c3c4nc(c(-c5cc(S(=O)(=O)[O-])ccc5F)c5ccc([nH]5)c(-c5cc(S(=O)(=O)[O-])ccc5F)c5nc(c(-c6cc(S(=O)(=O)[O-])ccc6F)c6ccc3[nH]6)C=C5)C=C4)cc2)CC(=O)N1CCCOC1CCCCC1
REMARK SMILES IDX 12 1 11 2 9 3 10 4 8 5 7 6 83 7 80 8 81 9 82 10 6 11 1 12
REMARK SMILES IDX 2 13 3 14 4 15 5 16 84 17 85 18 86 19 87 20 88 21 89 22
REMARK SMILES IDX 93 23 90 24 92 25 91 26 13 27 14 28 15 29 16 30 17 31 18 32
REMARK SMILES IDX 79 33 19 34 78 35 20 36 21 37 22 38 72 39 23 40 77 41 71 42
REMARK SMILES IDX 73 43 24 44 76 45 70 46 69 47 25 49 57 50 37 51 56 52 38 53
REMARK SMILES IDX 41 54 55 55 74 56 39 57 40 58 54 60 75 61 42 62 26 63 27 64
REMARK SMILES IDX 35 65 28 66 34 67 36 68 33 69 29 70 30 71 31 72 32 73 58 74
REMARK SMILES IDX 59 75 67 76 60 77 66 78 68 79 65 80 61 81 62 82 63 83 64 84
REMARK SMILES IDX 43 85 44 86 52 87 45 88 51 89 53 90 50 91 46 92 47 93 48 94
REMARK SMILES IDX 49 95
REMARK H PARENT 73 48 41 59
REMARK Flexibility Score: inf
ROOT
ATOM      1  C   UNL     1      -1.221   5.408  -3.529  1.00  0.00     0.274 C 
ENDROOT
BRANCH   1   2
ATOM      2  O   UNL     1      -0.707   5.078  -2.228  1.00  0.00    -0.462 OA
BRANCH   2   3
ATOM      3  C   UNL     1      -0.043   3.902  -2.175  1.00  0.00     0.312 C 
ATOM      4  O   UNL     1       0.042   3.100  -3.099  1.00  0.00    -0.252 OA
BRANCH   3   5
ATOM      5  C   UNL     1       0.618   3.647  -0.858  1.00  0.00     0.139 C 
ATOM      6  C   UNL     1      -0.335   2.928   0.074  1.00  0.00     0.166 C 
ATOM      7  N   UNL     1       0.243   3.158   1.392  1.00  0.00    -0.331 N 
ATOM      8  C   UNL     1       1.147   4.815  -0.062  1.00  0.00     0.118 C 
ATOM      9  C   UNL     1       1.114   4.268   1.338  1.00  0.00     0.224 C 
ATOM     10  O   UNL     1       1.669   4.793   2.294  1.00  0.00    -0.275 OA
BRANCH   6  11
ATOM     11  C   UNL     1      -0.567   1.500  -0.370  1.00  0.00     0.132 A 
ATOM     12  C   UNL     1       1.787   0.590  -0.944  1.00  0.00     0.151 C 
ATOM     13  N   UNL     1       0.346   0.565  -0.847  1.00  0.00    -0.336 N 
ATOM     14  C   UNL     1      -0.364  -0.517  -1.313  1.00  0.00     0.107 A 
ATOM     15  C   UNL     1      -1.680  -0.202  -1.124  1.00  0.00     0.131 A 
ATOM     16  N   UNL     1      -1.797   1.032  -0.547  1.00  0.00    -0.239 NA
ENDBRANCH   6  11
BRANCH   7  17
ATOM     17  C   UNL     1      -0.351   2.917   2.711  1.00  0.00     0.122 C 
BRANCH  17  18
ATOM     18  C   UNL     1      -1.520   1.973   2.961  1.00  0.00     0.050 C 
BRANCH  18  19
ATOM     19  C   UNL     1      -1.431   0.472   2.699  1.00  0.00     0.162 C 
BRANCH  19  20
ATOM     20  O   UNL     1      -0.404  -0.225   3.398  1.00  0.00    -0.378 OA
BRANCH  20  21
ATOM     21  C   UNL     1       0.733  -0.578   2.594  1.00  0.00     0.118 C 
ATOM     22  C   UNL     1       1.814   0.472   2.822  1.00  0.00     0.032 C 
ATOM     23  C   UNL     1       1.207  -1.982   2.976  1.00  0.00     0.032 C 
ATOM     24  C   UNL     1       3.221   0.112   2.392  1.00  0.00     0.003 C 
ATOM     25  C   UNL     1       2.565  -2.301   2.354  1.00  0.00     0.003 C 
ATOM     26  C   UNL     1       3.614  -1.291   2.803  1.00  0.00     0.000 C 
ENDBRANCH  20  21
ENDBRANCH  19  20
ENDBRANCH  18  19
ENDBRANCH  17  18
ENDBRANCH   7  17
ENDBRANCH   3   5
ENDBRANCH   2   3
ENDBRANCH   1   2
BRANCH   1  27
ATOM     27  C   UNL     1      -0.211   6.227  -4.345  1.00  0.00     0.275 C 
BRANCH  27  28
ATOM     28  O   UNL     1       0.959   5.473  -4.729  1.00  0.00    -0.458 OA
BRANCH  28  29
ATOM     29  C   UNL     1       2.001   5.541  -3.864  1.00  0.00     0.338 C 
ATOM     30  O   UNL     1       2.030   6.159  -2.812  1.00  0.00    -0.246 OA
BRANCH  29  31
ATOM     31  C   UNL     1       3.082   4.622  -4.265  1.00  0.00     0.060 A 
ATOM     32  C   UNL     1       3.370   3.548  -3.420  1.00  0.00     0.016 A 
ATOM     33  C   UNL     1       3.882   4.862  -5.379  1.00  0.00     0.016 A 
ATOM     34  C   UNL     1       4.450   2.710  -3.667  1.00  0.00     0.010 A 
ATOM     35  C   UNL     1       4.966   4.011  -5.639  1.00  0.00     0.010 A 
ATOM     36  C   UNL     1       5.260   2.933  -4.782  1.00  0.00    -0.014 A 
BRANCH  36  37
ATOM     37  C   UNL     1       6.442   2.063  -5.006  1.00  0.00     0.031 A 
ATOM     38  C   UNL     1       7.823   2.622  -4.820  1.00  0.00     0.074 A 
ATOM     39  C   UNL     1       6.272   0.769  -5.339  1.00  0.00     0.049 A 
ATOM     40  N   UNL     1       8.980   2.082  -5.099  1.00  0.00    -0.248 NA
ATOM     41  C   UNL     1       7.908   3.973  -4.247  1.00  0.00     0.031 C 
ATOM     42  C   UNL     1       4.979   0.094  -5.468  1.00  0.00     0.029 A 
ATOM     43  N   UNL     1       7.188  -0.208  -5.636  1.00  0.00    -0.354 N 
ATOM     44  C   UNL     1       9.934   3.040  -4.771  1.00  0.00     0.074 A 
ATOM     45  C   UNL     1       9.213   4.198  -4.283  1.00  0.00     0.031 C 
ATOM     46  C   UNL     1       5.185  -1.184  -5.824  1.00  0.00     0.029 A 
ATOM     47  C   UNL     1       6.615  -1.398  -6.021  1.00  0.00     0.049 A 
ATOM     48  H   UNL     1       8.161  -0.071  -5.579  1.00  0.00     0.167 HD
ATOM     49  C   UNL     1      11.284   2.956  -4.875  1.00  0.00     0.034 A 
ATOM     50  C   UNL     1       7.174  -2.515  -6.529  1.00  0.00     0.034 A 
ATOM     51  C   UNL     1      11.977   1.784  -5.355  1.00  0.00     0.049 A 
ATOM     52  C   UNL     1       8.669  -2.554  -6.720  1.00  0.00     0.074 A 
ATOM     53  C   UNL     1      13.340   1.583  -5.492  1.00  0.00     0.029 A 
ATOM     54  N   UNL     1      11.361   0.614  -5.784  1.00  0.00    -0.354 N 
ATOM     55  N   UNL     1       9.561  -1.630  -6.444  1.00  0.00    -0.248 NA
ATOM     56  C   UNL     1       9.231  -3.783  -7.294  1.00  0.00     0.031 C 
ATOM     57  C   UNL     1      13.543   0.325  -6.070  1.00  0.00     0.029 A 
ATOM     58  C   UNL     1      12.313  -0.296  -6.220  1.00  0.00     0.049 A 
ATOM     59  H   UNL     1      10.390   0.455  -5.780  1.00  0.00     0.167 HD
ATOM     60  C   UNL     1      10.793  -2.176  -6.794  1.00  0.00     0.074 A 
ATOM     61  C   UNL     1      10.529  -3.515  -7.281  1.00  0.00     0.031 C 
ATOM     62  C   UNL     1      12.031  -1.622  -6.719  1.00  0.00     0.034 A 
BRANCH  49  63
ATOM     63  C   UNL     1      12.084   4.191  -4.536  1.00  0.00     0.023 A 
ATOM     64  C   UNL     1      12.112   4.732  -3.239  1.00  0.00     0.031 A 
ATOM     65  C   UNL     1      12.803   4.861  -5.543  1.00  0.00     0.131 A 
ATOM     66  C   UNL     1      12.778   5.945  -3.001  1.00  0.00     0.055 A 
ATOM     67  C   UNL     1      13.531   6.023  -5.282  1.00  0.00     0.041 A 
ATOM     68  F   UNL     1      12.794   4.406  -6.806  1.00  0.00    -0.206 F 
ATOM     69  C   UNL     1      13.508   6.581  -4.008  1.00  0.00     0.022 A 
BRANCH  66  70
ATOM     70  S   UNL     1      12.551   6.759  -1.396  1.00  0.00     0.124 S 
ATOM     71  O   UNL     1      11.100   6.918  -1.349  1.00  0.00    -0.237 OA
ATOM     72  O   UNL     1      13.119   5.789  -0.468  1.00  0.00    -0.237 OA
ATOM     73  O   UNL     1      13.302   8.006  -1.534  1.00  0.00    -0.744 OA
ENDBRANCH  66  70
ENDBRANCH  49  63
BRANCH  50  74
ATOM     74  C   UNL     1       6.317  -3.654  -6.967  1.00  0.00     0.023 A 
ATOM     75  C   UNL     1       6.413  -4.915  -6.359  1.00  0.00     0.031 A 
ATOM     76  C   UNL     1       5.412  -3.506  -8.036  1.00  0.00     0.131 A 
ATOM     77  C   UNL     1       5.646  -5.986  -6.845  1.00  0.00     0.055 A 
ATOM     78  C   UNL     1       4.612  -4.559  -8.480  1.00  0.00     0.041 A 
ATOM     79  F   UNL     1       5.282  -2.322  -8.656  1.00  0.00    -0.206 F 
ATOM     80  C   UNL     1       4.736  -5.813  -7.891  1.00  0.00     0.022 A 
BRANCH  77  81
ATOM     81  S   UNL     1       5.912  -7.635  -6.140  1.00  0.00     0.124 S 
ATOM     82  O   UNL     1       7.331  -7.845  -6.404  1.00  0.00    -0.237 OA
ATOM     83  O   UNL     1       5.543  -7.428  -4.743  1.00  0.00    -0.237 OA
ATOM     84  O   UNL     1       5.001  -8.483  -6.904  1.00  0.00    -0.744 OA
ENDBRANCH  77  81
ENDBRANCH  50  74
BRANCH  62  85
ATOM     85  C   UNL     1      13.192  -2.491  -7.137  1.00  0.00     0.023 A 
ATOM     86  C   UNL     1      13.373  -2.892  -8.473  1.00  0.00     0.031 A 
ATOM     87  C   UNL     1      14.123  -2.935  -6.181  1.00  0.00     0.131 A 
ATOM     88  C   UNL     1      14.425  -3.758  -8.805  1.00  0.00     0.055 A 
ATOM     89  C   UNL     1      15.204  -3.745  -6.529  1.00  0.00     0.041 A 
ATOM     90  F   UNL     1      13.997  -2.585  -4.891  1.00  0.00    -0.206 F 
ATOM     91  C   UNL     1      15.352  -4.173  -7.845  1.00  0.00     0.022 A 
BRANCH  88  92
ATOM     92  S   UNL     1      14.514  -4.412 -10.495  1.00  0.00     0.124 S 
ATOM     93  O   UNL     1      13.230  -5.094 -10.623  1.00  0.00    -0.237 OA
ATOM     94  O   UNL     1      14.676  -3.201 -11.291  1.00  0.00    -0.237 OA
ATOM     95  O   UNL     1      15.682  -5.291 -10.461  1.00  0.00    -0.744 OA
ENDBRANCH  88  92
ENDBRANCH  62  85
ENDBRANCH  36  37
ENDBRANCH  29  31
ENDBRANCH  28  29
ENDBRANCH  27  28
ENDBRANCH   1  27
TORSDOF 20
