REMARK SMILES O=C(OCCOC(=O)c1ccc(-c2c3nc(c(-c4cc(S(=O)(=O)[O-])ccc4F)c4ccc([nH]4)c(-c4cc(S(=O)(=O)[O-])ccc4F)c4nc(c(-c5cc(S(=O)(=O)[O-])ccc5F)c5ccc2[nH]5)C=C4)C=C3)cc1)C1=Cc2c(Cl)ccc(Cl)c2O[C@@H]1C(F)(F)F
REMARK SMILES IDX 5 1 4 2 3 3 2 4 1 5 72 6 73 7 83 8 74 9 82 10 75 11 81 12
REMARK SMILES IDX 76 13 77 14 79 15 78 16 80 17 84 18 85 19 86 20 87 21 6 22
REMARK SMILES IDX 7 23 8 24 9 25 10 26 71 27 11 28 70 29 12 30 13 31 14 32
REMARK SMILES IDX 64 33 15 34 69 35 63 36 65 37 16 38 68 39 62 40 61 41 17 43
REMARK SMILES IDX 49 44 29 45 48 46 30 47 33 48 47 49 66 50 31 51 32 52 46 54
REMARK SMILES IDX 67 55 34 56 18 57 19 58 27 59 20 60 26 61 28 62 25 63 21 64
REMARK SMILES IDX 22 65 23 66 24 67 50 68 51 69 59 70 52 71 58 72 60 73 57 74
REMARK SMILES IDX 53 75 54 76 55 77 56 78 35 79 36 80 44 81 37 82 43 83 45 84
REMARK SMILES IDX 42 85 38 86 39 87 40 88 41 89
REMARK H PARENT 65 42 33 53
REMARK Flexibility Score: inf
ROOT
ATOM      1  C   UNL     1       4.676  -0.526   0.675  1.00  0.00     0.275 C 
ENDROOT
BRANCH   1   2
ATOM      2  C   UNL     1       3.840   0.359  -1.132  1.00  0.00     0.275 C 
BRANCH   2   3
ATOM      3  O   UNL     1       2.981  -0.360  -2.191  1.00  0.00    -0.459 OA
BRANCH   3   4
ATOM      4  C   UNL     1       3.209  -1.677  -2.250  1.00  0.00     0.338 C 
ATOM      5  O   UNL     1       2.635  -2.530  -2.875  1.00  0.00    -0.246 OA
BRANCH   4   6
ATOM      6  C   UNL     1       4.056  -1.724  -1.079  1.00  0.00     0.087 C 
ATOM      7  C   UNL     1       5.417  -1.246  -1.348  1.00  0.00     0.029 C 
ATOM      8  C   UNL     1       2.786  -0.875   0.097  1.00  0.00     0.316 C 
ATOM      9  C   UNL     1       6.047   0.359  -0.785  1.00  0.00     0.037 A 
ATOM     10  O   UNL     1       3.406   0.860   0.669  1.00  0.00    -0.474 OA
ATOM     11  C   UNL     1       7.241   0.833  -1.270  1.00  0.00     0.052 A 
ATOM     12  C   UNL     1       5.054   1.456   0.140  1.00  0.00     0.148 A 
ATOM     13  Cl  UNL     1       8.310  -0.098  -2.233  1.00  0.00    -0.084 Cl
ATOM     14  C   UNL     1       7.524   2.180  -0.986  1.00  0.00     0.023 A 
ATOM     15  C   UNL     1       5.418   2.756   0.367  1.00  0.00     0.083 A 
ATOM     16  C   UNL     1       6.665   3.083  -0.224  1.00  0.00     0.026 A 
ATOM     17  Cl  UNL     1       4.491   3.922   1.177  1.00  0.00    -0.080 Cl
BRANCH   8  18
ATOM     18  C   UNL     1       2.371  -2.209   0.849  1.00  0.00     0.430 C 
ATOM     19  F   UNL     1       1.109  -2.164   1.290  1.00  0.00    -0.167 F 
ATOM     20  F   UNL     1       2.356  -3.231  -0.065  1.00  0.00    -0.167 F 
ATOM     21  F   UNL     1       3.209  -2.681   1.786  1.00  0.00    -0.167 F 
ENDBRANCH   8  18
ENDBRANCH   4   6
ENDBRANCH   3   4
ENDBRANCH   2   3
ENDBRANCH   1   2
BRANCH   1  22
ATOM     22  O   UNL     1       3.894  -0.595   2.202  1.00  0.00    -0.458 OA
BRANCH  22  23
ATOM     23  C   UNL     1       3.012   0.062   3.027  1.00  0.00     0.338 C 
ATOM     24  O   UNL     1       2.585   1.199   2.962  1.00  0.00    -0.246 OA
BRANCH  23  25
ATOM     25  C   UNL     1       2.333  -1.020   3.804  1.00  0.00     0.060 A 
ATOM     26  C   UNL     1       0.960  -1.239   3.593  1.00  0.00     0.016 A 
ATOM     27  C   UNL     1       3.111  -2.010   4.407  1.00  0.00     0.016 A 
ATOM     28  C   UNL     1       0.417  -2.520   3.805  1.00  0.00     0.010 A 
ATOM     29  C   UNL     1       2.570  -3.283   4.613  1.00  0.00     0.010 A 
ATOM     30  C   UNL     1       1.233  -3.563   4.269  1.00  0.00    -0.014 A 
BRANCH  30  31
ATOM     31  C   UNL     1       0.623  -4.832   4.748  1.00  0.00     0.031 A 
ATOM     32  C   UNL     1       0.204  -4.806   6.190  1.00  0.00     0.074 A 
ATOM     33  C   UNL     1       0.485  -5.951   4.005  1.00  0.00     0.049 A 
ATOM     34  N   UNL     1      -0.320  -5.740   6.934  1.00  0.00    -0.248 NA
ATOM     35  C   UNL     1       0.458  -3.538   6.897  1.00  0.00     0.031 C 
ATOM     36  C   UNL     1       0.865  -6.107   2.600  1.00  0.00     0.029 A 
ATOM     37  N   UNL     1      -0.019  -7.188   4.343  1.00  0.00    -0.354 N 
ATOM     38  C   UNL     1      -0.461  -5.162   8.190  1.00  0.00     0.074 A 
ATOM     39  C   UNL     1       0.129  -3.848   8.133  1.00  0.00     0.031 C 
ATOM     40  C   UNL     1       0.570  -7.362   2.198  1.00  0.00     0.029 A 
ATOM     41  C   UNL     1      -0.009  -8.109   3.314  1.00  0.00     0.049 A 
ATOM     42  H   UNL     1      -0.358  -7.398   5.243  1.00  0.00     0.167 HD
ATOM     43  C   UNL     1      -1.066  -5.663   9.291  1.00  0.00     0.034 A 
ATOM     44  C   UNL     1      -0.430  -9.395   3.293  1.00  0.00     0.034 A 
ATOM     45  C   UNL     1      -1.603  -6.992   9.343  1.00  0.00     0.049 A 
ATOM     46  C   UNL     1      -1.027  -9.975   4.566  1.00  0.00     0.074 A 
ATOM     47  C   UNL     1      -2.216  -7.635  10.399  1.00  0.00     0.029 A 
ATOM     48  N   UNL     1      -1.565  -7.893   8.285  1.00  0.00    -0.354 N 
ATOM     49  N   UNL     1      -1.212  -9.400   5.735  1.00  0.00    -0.248 NA
ATOM     50  C   UNL     1      -1.490 -11.369   4.509  1.00  0.00     0.031 C 
ATOM     51  C   UNL     1      -2.483  -8.950  10.003  1.00  0.00     0.029 A 
ATOM     52  C   UNL     1      -2.124  -9.097   8.670  1.00  0.00     0.049 A 
ATOM     53  H   UNL     1      -1.194  -7.702   7.393  1.00  0.00     0.167 HD
ATOM     54  C   UNL     1      -1.869 -10.342   6.527  1.00  0.00     0.074 A 
ATOM     55  C   UNL     1      -2.045 -11.520   5.702  1.00  0.00     0.031 C 
ATOM     56  C   UNL     1      -2.302 -10.246   7.812  1.00  0.00     0.034 A 
BRANCH  43  57
ATOM     57  C   UNL     1      -1.092  -4.762  10.500  1.00  0.00     0.023 A 
ATOM     58  C   UNL     1      -1.714  -3.498  10.455  1.00  0.00     0.031 A 
ATOM     59  C   UNL     1      -0.350  -5.091  11.645  1.00  0.00     0.131 A 
ATOM     60  C   UNL     1      -1.471  -2.565  11.472  1.00  0.00     0.055 A 
ATOM     61  C   UNL     1      -0.206  -4.195  12.706  1.00  0.00     0.041 A 
ATOM     62  F   UNL     1       0.295  -6.265  11.728  1.00  0.00    -0.206 F 
ATOM     63  C   UNL     1      -0.745  -2.915  12.611  1.00  0.00     0.022 A 
BRANCH  60  64
ATOM     64  S   UNL     1      -1.917  -0.829  11.176  1.00  0.00     0.124 S 
ATOM     65  O   UNL     1      -1.103  -0.513  10.005  1.00  0.00    -0.237 OA
ATOM     66  O   UNL     1      -3.356  -0.905  10.953  1.00  0.00    -0.237 OA
ATOM     67  O   UNL     1      -1.510  -0.157  12.408  1.00  0.00    -0.744 OA
ENDBRANCH  60  64
ENDBRANCH  43  57
BRANCH  44  68
ATOM     68  C   UNL     1      -0.336 -10.249   2.061  1.00  0.00     0.023 A 
ATOM     69  C   UNL     1      -1.489 -10.788   1.455  1.00  0.00     0.031 A 
ATOM     70  C   UNL     1       0.909 -10.633   1.531  1.00  0.00     0.131 A 
ATOM     71  C   UNL     1      -1.373 -11.718   0.405  1.00  0.00     0.055 A 
ATOM     72  C   UNL     1       1.018 -11.517   0.451  1.00  0.00     0.041 A 
ATOM     73  F   UNL     1       2.048 -10.168   2.069  1.00  0.00    -0.206 F 
ATOM     74  C   UNL     1      -0.127 -12.077  -0.109  1.00  0.00     0.022 A 
BRANCH  71  75
ATOM     75  S   UNL     1      -2.873 -12.537  -0.216  1.00  0.00     0.124 S 
ATOM     76  O   UNL     1      -3.372 -13.194   0.986  1.00  0.00    -0.237 OA
ATOM     77  O   UNL     1      -3.657 -11.408  -0.704  1.00  0.00    -0.237 OA
ATOM     78  O   UNL     1      -2.368 -13.435  -1.254  1.00  0.00    -0.744 OA
ENDBRANCH  71  75
ENDBRANCH  44  68
BRANCH  56  79
ATOM     79  C   UNL     1      -3.090 -11.406   8.372  1.00  0.00     0.023 A 
ATOM     80  C   UNL     1      -2.522 -12.675   8.571  1.00  0.00     0.031 A 
ATOM     81  C   UNL     1      -4.438 -11.220   8.732  1.00  0.00     0.131 A 
ATOM     82  C   UNL     1      -3.316 -13.724   9.057  1.00  0.00     0.055 A 
ATOM     83  C   UNL     1      -5.201 -12.247   9.287  1.00  0.00     0.041 A 
ATOM     84  F   UNL     1      -5.033 -10.028   8.564  1.00  0.00    -0.206 F 
ATOM     85  C   UNL     1      -4.644 -13.513   9.437  1.00  0.00     0.022 A 
BRANCH  82  86
ATOM     86  S   UNL     1      -2.623 -15.399   9.079  1.00  0.00     0.124 S 
ATOM     87  O   UNL     1      -2.218 -15.579   7.689  1.00  0.00    -0.237 OA
ATOM     88  O   UNL     1      -1.538 -15.275  10.047  1.00  0.00    -0.237 OA
ATOM     89  O   UNL     1      -3.746 -16.229   9.510  1.00  0.00    -0.744 OA
ENDBRANCH  82  86
ENDBRANCH  56  79
ENDBRANCH  30  31
ENDBRANCH  23  25
ENDBRANCH  22  23
ENDBRANCH   1  22
TORSDOF 15
