REMARK SMILES C[NH2+][C@@]1(C(=O)OCCOC(=O)c2ccc(-c3c4nc(c(-c5cc(S(=O)(=O)[O-])ccc5F)c5ccc([nH]5)c(-c5cc(S(=O)(=O)[O-])ccc5F)c5nc(c(-c6cc(S(=O)(=O)[O-])ccc6F)c6ccc3[nH]6)C=C5)C=C4)cc2)CCC[C@@H](Oc2cc(F)cc(F)c2)C1
REMARK SMILES IDX 8 1 7 2 6 3 4 4 5 5 3 6 75 7 88 8 76 9 78 10 77 11 2 12 1 13
REMARK SMILES IDX 79 16 80 17 81 18 87 19 82 20 85 21 83 22 84 23 86 24 9 25
REMARK SMILES IDX 10 26 11 27 12 28 13 29 74 30 14 31 73 32 15 33 16 34 17 35
REMARK SMILES IDX 67 36 18 37 72 38 66 39 68 40 19 41 71 42 65 43 64 44 20 46
REMARK SMILES IDX 52 47 32 48 51 49 33 50 36 51 50 52 69 53 34 54 35 55 49 57
REMARK SMILES IDX 70 58 37 59 21 60 22 61 30 62 23 63 29 64 31 65 28 66 24 67
REMARK SMILES IDX 25 68 26 69 27 70 53 71 54 72 62 73 55 74 61 75 63 76 60 77
REMARK SMILES IDX 56 78 57 79 58 80 59 81 38 82 39 83 47 84 40 85 46 86 48 87
REMARK SMILES IDX 45 88 41 89 42 90 43 91 44 92
REMARK H PARENT 2 14 2 15 68 45 36 56
REMARK Flexibility Score: inf
ROOT
ATOM      1  C   UNL     1      -2.652   0.199  -4.859  1.00  0.00     0.275 C 
ENDROOT
BRANCH   1   2
ATOM      2  C   UNL     1      -3.219  -0.799  -3.855  1.00  0.00     0.274 C 
BRANCH   2   3
ATOM      3  O   UNL     1      -2.734  -0.516  -2.526  1.00  0.00    -0.457 OA
BRANCH   3   4
ATOM      4  C   UNL     1      -1.825  -1.394  -2.019  1.00  0.00     0.368 C 
ATOM      5  O   UNL     1      -1.429  -2.383  -2.630  1.00  0.00    -0.245 OA
BRANCH   4   6
ATOM      6  C   UNL     1      -1.363  -1.032  -0.560  1.00  0.00     0.197 C 
ATOM      7  C   UNL     1      -1.853  -2.196   0.334  1.00  0.00     0.081 C 
ATOM      8  C   UNL     1      -1.900   0.322  -0.051  1.00  0.00     0.126 C 
ATOM      9  C   UNL     1      -3.370  -2.179   0.528  1.00  0.00     0.011 C 
ATOM     10  C   UNL     1      -3.390   0.344   0.326  1.00  0.00     0.180 C 
ATOM     11  C   UNL     1      -3.813  -0.868   1.166  1.00  0.00     0.046 C 
BRANCH   6  12
ATOM     12  N   UNL     1       0.128  -0.972  -0.622  1.00  0.00    -0.334 N 
ATOM     13  C   UNL     1       0.867  -0.804   0.621  1.00  0.00     0.331 C 
ATOM     14  H   UNL     1       0.448  -1.841  -1.048  1.00  0.00     0.347 HD
ATOM     15  H   UNL     1       0.323  -0.118  -1.146  1.00  0.00     0.347 HD
ENDBRANCH   6  12
BRANCH  10  16
ATOM     16  O   UNL     1      -3.804   1.613   0.892  1.00  0.00    -0.490 OA
BRANCH  16  17
ATOM     17  C   UNL     1      -3.341   1.893   2.148  1.00  0.00     0.125 A 
ATOM     18  C   UNL     1      -4.179   1.672   3.239  1.00  0.00     0.085 A 
ATOM     19  C   UNL     1      -2.094   2.485   2.338  1.00  0.00     0.085 A 
ATOM     20  C   UNL     1      -3.721   1.959   4.521  1.00  0.00     0.129 A 
ATOM     21  C   UNL     1      -1.650   2.744   3.631  1.00  0.00     0.129 A 
ATOM     22  F   UNL     1      -4.519   1.725   5.572  1.00  0.00    -0.207 F 
ATOM     23  C   UNL     1      -2.451   2.477   4.732  1.00  0.00     0.078 A 
ATOM     24  F   UNL     1      -0.427   3.255   3.817  1.00  0.00    -0.207 F 
ENDBRANCH  16  17
ENDBRANCH  10  16
ENDBRANCH   4   6
ENDBRANCH   3   4
ENDBRANCH   2   3
ENDBRANCH   1   2
BRANCH   1  25
ATOM     25  O   UNL     1      -1.220   0.085  -4.903  1.00  0.00    -0.458 OA
BRANCH  25  26
ATOM     26  C   UNL     1      -0.542   1.146  -4.411  1.00  0.00     0.338 C 
ATOM     27  O   UNL     1      -1.008   2.195  -3.999  1.00  0.00    -0.246 OA
BRANCH  26  28
ATOM     28  C   UNL     1       0.901   0.862  -4.406  1.00  0.00     0.060 A 
ATOM     29  C   UNL     1       1.395  -0.198  -3.648  1.00  0.00     0.016 A 
ATOM     30  C   UNL     1       1.778   1.746  -5.032  1.00  0.00     0.016 A 
ATOM     31  C   UNL     1       2.764  -0.294  -3.404  1.00  0.00     0.010 A 
ATOM     32  C   UNL     1       3.157   1.566  -4.890  1.00  0.00     0.010 A 
ATOM     33  C   UNL     1       3.670   0.573  -4.035  1.00  0.00    -0.014 A 
BRANCH  33  34
ATOM     34  C   UNL     1       5.139   0.474  -3.782  1.00  0.00     0.031 A 
ATOM     35  C   UNL     1       5.911   1.683  -3.310  1.00  0.00     0.074 A 
ATOM     36  C   UNL     1       5.796  -0.688  -3.978  1.00  0.00     0.049 A 
ATOM     37  N   UNL     1       7.205   1.880  -3.268  1.00  0.00    -0.248 NA
ATOM     38  C   UNL     1       5.117   2.831  -2.848  1.00  0.00     0.031 C 
ATOM     39  C   UNL     1       5.184  -1.952  -4.394  1.00  0.00     0.029 A 
ATOM     40  N   UNL     1       7.128  -0.998  -3.848  1.00  0.00    -0.354 N 
ATOM     41  C   UNL     1       7.379   3.196  -2.849  1.00  0.00     0.074 A 
ATOM     42  C   UNL     1       6.055   3.747  -2.647  1.00  0.00     0.031 C 
ATOM     43  C   UNL     1       6.125  -2.906  -4.440  1.00  0.00     0.029 A 
ATOM     44  C   UNL     1       7.423  -2.305  -4.158  1.00  0.00     0.049 A 
ATOM     45  H   UNL     1       7.807  -0.346  -3.559  1.00  0.00     0.167 HD
ATOM     46  C   UNL     1       8.536   3.882  -2.661  1.00  0.00     0.034 A 
ATOM     47  C   UNL     1       8.605  -2.944  -4.261  1.00  0.00     0.034 A 
ATOM     48  C   UNL     1       9.850   3.300  -2.805  1.00  0.00     0.049 A 
ATOM     49  C   UNL     1       9.874  -2.171  -4.040  1.00  0.00     0.074 A 
ATOM     50  C   UNL     1      11.086   3.901  -2.636  1.00  0.00     0.029 A 
ATOM     51  N   UNL     1      10.098   1.974  -3.133  1.00  0.00    -0.354 N 
ATOM     52  N   UNL     1      10.024  -0.899  -3.753  1.00  0.00    -0.248 NA
ATOM     53  C   UNL     1      11.133  -2.913  -4.180  1.00  0.00     0.031 C 
ATOM     54  C   UNL     1      12.080   2.949  -2.898  1.00  0.00     0.029 A 
ATOM     55  C   UNL     1      11.465   1.740  -3.178  1.00  0.00     0.049 A 
ATOM     56  H   UNL     1       9.405   1.297  -3.308  1.00  0.00     0.167 HD
ATOM     57  C   UNL     1      11.397  -0.688  -3.688  1.00  0.00     0.074 A 
ATOM     58  C   UNL     1      12.029  -1.969  -3.934  1.00  0.00     0.031 C 
ATOM     59  C   UNL     1      12.076   0.463  -3.454  1.00  0.00     0.034 A 
BRANCH  46  60
ATOM     60  C   UNL     1       8.426   5.355  -2.347  1.00  0.00     0.023 A 
ATOM     61  C   UNL     1       7.876   5.828  -1.144  1.00  0.00     0.031 A 
ATOM     62  C   UNL     1       8.852   6.305  -3.294  1.00  0.00     0.131 A 
ATOM     63  C   UNL     1       7.702   7.208  -0.949  1.00  0.00     0.055 A 
ATOM     64  C   UNL     1       8.744   7.678  -3.064  1.00  0.00     0.041 A 
ATOM     65  F   UNL     1       9.368   5.913  -4.470  1.00  0.00    -0.206 F 
ATOM     66  C   UNL     1       8.153   8.136  -1.891  1.00  0.00     0.022 A 
BRANCH  63  67
ATOM     67  S   UNL     1       6.754   7.769   0.492  1.00  0.00     0.124 S 
ATOM     68  O   UNL     1       5.471   7.102   0.279  1.00  0.00    -0.237 OA
ATOM     69  O   UNL     1       7.554   7.276   1.607  1.00  0.00    -0.237 OA
ATOM     70  O   UNL     1       6.725   9.223   0.339  1.00  0.00    -0.744 OA
ENDBRANCH  63  67
ENDBRANCH  46  60
BRANCH  47  71
ATOM     71  C   UNL     1       8.645  -4.375  -4.673  1.00  0.00     0.023 A 
ATOM     72  C   UNL     1       9.067  -5.375  -3.784  1.00  0.00     0.031 A 
ATOM     73  C   UNL     1       8.266  -4.758  -5.973  1.00  0.00     0.131 A 
ATOM     74  C   UNL     1       9.121  -6.710  -4.214  1.00  0.00     0.055 A 
ATOM     75  C   UNL     1       8.278  -6.092  -6.380  1.00  0.00     0.041 A 
ATOM     76  F   UNL     1       7.852  -3.837  -6.858  1.00  0.00    -0.206 F 
ATOM     77  C   UNL     1       8.716  -7.076  -5.500  1.00  0.00     0.022 A 
BRANCH  74  78
ATOM     78  S   UNL     1       9.780  -7.963  -3.081  1.00  0.00     0.124 S 
ATOM     79  O   UNL     1      11.132  -7.469  -2.843  1.00  0.00    -0.237 OA
ATOM     80  O   UNL     1       8.856  -7.871  -1.955  1.00  0.00    -0.237 OA
ATOM     81  O   UNL     1       9.694  -9.200  -3.853  1.00  0.00    -0.744 OA
ENDBRANCH  74  78
ENDBRANCH  47  71
BRANCH  59  82
ATOM     82  C   UNL     1      13.578   0.365  -3.439  1.00  0.00     0.023 A 
ATOM     83  C   UNL     1      14.309   0.164  -4.622  1.00  0.00     0.031 A 
ATOM     84  C   UNL     1      14.280   0.436  -2.224  1.00  0.00     0.131 A 
ATOM     85  C   UNL     1      15.699  -0.009  -4.560  1.00  0.00     0.055 A 
ATOM     86  C   UNL     1      15.668   0.306  -2.173  1.00  0.00     0.041 A 
ATOM     87  F   UNL     1      13.625   0.624  -1.067  1.00  0.00    -0.206 F 
ATOM     88  C   UNL     1      16.384   0.071  -3.344  1.00  0.00     0.022 A 
BRANCH  85  89
ATOM     89  S   UNL     1      16.596  -0.417  -6.083  1.00  0.00     0.124 S 
ATOM     90  O   UNL     1      15.957  -1.665  -6.489  1.00  0.00    -0.237 OA
ATOM     91  O   UNL     1      16.324   0.743  -6.927  1.00  0.00    -0.237 OA
ATOM     92  O   UNL     1      17.983  -0.547  -5.640  1.00  0.00    -0.744 OA
ENDBRANCH  85  89
ENDBRANCH  59  82
ENDBRANCH  33  34
ENDBRANCH  26  28
ENDBRANCH  25  26
ENDBRANCH   1  25
TORSDOF 17
