REMARK SMILES C[C@@H]1CN(S(=O)(=O)[C@@H](C)C(=O)OCCOC(=O)c2ccc(-c3c4nc(c(-c5cc(S(=O)(=O)[O-])ccc5F)c5ccc([nH]5)c(-c5cc(S(=O)(=O)[O-])ccc5F)c5nc(c(-c6cc(S(=O)(=O)[O-])ccc6F)c6ccc3[nH]6)C=C5)C=C4)cc2)CC[C@@H]1[NH3+]
REMARK SMILES IDX 13 1 12 2 10 3 11 4 8 5 9 6 5 7 6 8 7 9 4 10 1 11 2 12 3 13
REMARK SMILES IDX 83 14 82 15 81 16 84 17 14 21 15 22 16 23 17 24 18 25 19 26
REMARK SMILES IDX 80 27 20 28 79 29 21 30 22 31 23 32 73 33 24 34 78 35 72 36
REMARK SMILES IDX 74 37 25 38 77 39 71 40 70 41 26 43 58 44 38 45 57 46 39 47
REMARK SMILES IDX 42 48 56 49 75 50 40 51 41 52 55 54 76 55 43 56 27 57 28 58
REMARK SMILES IDX 36 59 29 60 35 61 37 62 34 63 30 64 31 65 32 66 33 67 59 68
REMARK SMILES IDX 60 69 68 70 61 71 67 72 69 73 66 74 62 75 63 76 64 77 65 78
REMARK SMILES IDX 44 79 45 80 53 81 46 82 52 83 54 84 51 85 47 86 48 87 49 88
REMARK SMILES IDX 50 89
REMARK H PARENT 84 18 84 19 84 20 74 42 42 53
REMARK Flexibility Score: inf
ROOT
ATOM      1  C   UNL     1      -2.784   0.243   1.600  1.00  0.00     0.274 C 
ENDROOT
BRANCH   1   2
ATOM      2  O   UNL     1      -1.596  -0.429   2.082  1.00  0.00    -0.461 OA
BRANCH   2   3
ATOM      3  C   UNL     1      -1.661  -1.001   3.307  1.00  0.00     0.325 C 
ATOM      4  O   UNL     1      -2.638  -0.890   4.043  1.00  0.00    -0.251 OA
BRANCH   3   5
ATOM      5  C   UNL     1      -0.382  -1.616   3.776  1.00  0.00     0.230 C 
ATOM      6  C   UNL     1       0.692  -0.578   4.030  1.00  0.00     0.039 C 
BRANCH   5   7
ATOM      7  S   UNL     1       0.179  -3.060   2.899  1.00  0.00     0.227 S 
ATOM      8  O   UNL     1      -0.941  -3.923   2.609  1.00  0.00    -0.211 OA
ATOM      9  O   UNL     1       1.283  -3.574   3.692  1.00  0.00    -0.211 OA
BRANCH   7  10
ATOM     10  N   UNL     1       0.857  -2.579   1.408  1.00  0.00    -0.200 NA
ATOM     11  C   UNL     1       1.036  -0.184  -0.294  1.00  0.00     0.015 C 
ATOM     12  C   UNL     1       0.566  -1.555  -0.807  1.00  0.00     0.059 C 
ATOM     13  C   UNL     1      -0.115  -2.376   0.295  1.00  0.00     0.111 C 
ATOM     14  C   UNL     1       1.703  -2.420  -1.385  1.00  0.00     0.186 C 
ATOM     15  C   UNL     1       2.662  -2.906  -0.287  1.00  0.00     0.082 C 
ATOM     16  C   UNL     1       1.926  -3.516   0.913  1.00  0.00     0.108 C 
BRANCH  14  17
ATOM     17  N   UNL     1       2.440  -1.714  -2.440  1.00  0.00    -0.355 N 
ATOM     18  H   UNL     1       2.889  -0.887  -2.046  1.00  0.00     0.344 HD
ATOM     19  H   UNL     1       1.792  -1.431  -3.176  1.00  0.00     0.344 HD
ATOM     20  H   UNL     1       3.150  -2.333  -2.831  1.00  0.00     0.344 HD
ENDBRANCH  14  17
ENDBRANCH   7  10
ENDBRANCH   5   7
ENDBRANCH   3   5
ENDBRANCH   2   3
ENDBRANCH   1   2
BRANCH   1  21
ATOM     21  C   UNL     1      -3.759  -0.708   0.897  1.00  0.00     0.275 C 
BRANCH  21  22
ATOM     22  O   UNL     1      -4.409  -1.558   1.856  1.00  0.00    -0.458 OA
BRANCH  22  23
ATOM     23  C   UNL     1      -4.090  -2.874   1.796  1.00  0.00     0.338 C 
ATOM     24  O   UNL     1      -3.403  -3.415   0.950  1.00  0.00    -0.246 OA
BRANCH  23  25
ATOM     25  C   UNL     1      -4.682  -3.546   2.968  1.00  0.00     0.060 A 
ATOM     26  C   UNL     1      -3.888  -3.800   4.089  1.00  0.00     0.016 A 
ATOM     27  C   UNL     1      -6.015  -3.958   2.942  1.00  0.00     0.016 A 
ATOM     28  C   UNL     1      -4.416  -4.471   5.189  1.00  0.00     0.010 A 
ATOM     29  C   UNL     1      -6.547  -4.630   4.049  1.00  0.00     0.010 A 
ATOM     30  C   UNL     1      -5.746  -4.903   5.173  1.00  0.00    -0.014 A 
BRANCH  30  31
ATOM     31  C   UNL     1      -6.258  -5.733   6.291  1.00  0.00     0.031 A 
ATOM     32  C   UNL     1      -6.382  -7.219   6.100  1.00  0.00     0.074 A 
ATOM     33  C   UNL     1      -6.565  -5.170   7.474  1.00  0.00     0.049 A 
ATOM     34  N   UNL     1      -6.862  -8.124   6.912  1.00  0.00    -0.248 NA
ATOM     35  C   UNL     1      -5.902  -7.751   4.816  1.00  0.00     0.031 C 
ATOM     36  C   UNL     1      -6.435  -3.747   7.789  1.00  0.00     0.029 A 
ATOM     37  N   UNL     1      -7.052  -5.725   8.630  1.00  0.00    -0.354 N 
ATOM     38  C   UNL     1      -6.744  -9.336   6.240  1.00  0.00     0.074 A 
ATOM     39  C   UNL     1      -6.185  -9.039   4.937  1.00  0.00     0.031 C 
ATOM     40  C   UNL     1      -6.842  -3.540   9.053  1.00  0.00     0.029 A 
ATOM     41  C   UNL     1      -7.297  -4.806   9.624  1.00  0.00     0.049 A 
ATOM     42  H   UNL     1      -7.211  -6.691   8.739  1.00  0.00     0.167 HD
ATOM     43  C   UNL     1      -7.064 -10.581   6.674  1.00  0.00     0.034 A 
ATOM     44  C   UNL     1      -7.848  -4.965  10.845  1.00  0.00     0.034 A 
ATOM     45  C   UNL     1      -7.639 -10.854   7.970  1.00  0.00     0.049 A 
ATOM     46  C   UNL     1      -8.249  -6.353  11.285  1.00  0.00     0.074 A 
ATOM     47  C   UNL     1      -8.056 -12.066   8.495  1.00  0.00     0.029 A 
ATOM     48  N   UNL     1      -7.877  -9.898   8.951  1.00  0.00    -0.354 N 
ATOM     49  N   UNL     1      -8.171  -7.486  10.624  1.00  0.00    -0.248 NA
ATOM     50  C   UNL     1      -8.793  -6.485  12.642  1.00  0.00     0.031 C 
ATOM     51  C   UNL     1      -8.588 -11.835   9.769  1.00  0.00     0.029 A 
ATOM     52  C   UNL     1      -8.438 -10.491  10.072  1.00  0.00     0.049 A 
ATOM     53  H   UNL     1      -7.675  -8.939   8.862  1.00  0.00     0.167 HD
ATOM     54  C   UNL     1      -8.628  -8.469  11.500  1.00  0.00     0.074 A 
ATOM     55  C   UNL     1      -8.958  -7.796  12.739  1.00  0.00     0.031 C 
ATOM     56  C   UNL     1      -8.763  -9.805  11.300  1.00  0.00     0.034 A 
BRANCH  43  57
ATOM     57  C   UNL     1      -6.845 -11.721   5.709  1.00  0.00     0.023 A 
ATOM     58  C   UNL     1      -5.558 -12.082   5.272  1.00  0.00     0.031 A 
ATOM     59  C   UNL     1      -7.941 -12.428   5.182  1.00  0.00     0.131 A 
ATOM     60  C   UNL     1      -5.404 -13.071   4.288  1.00  0.00     0.055 A 
ATOM     61  C   UNL     1      -7.775 -13.464   4.261  1.00  0.00     0.041 A 
ATOM     62  F   UNL     1      -9.195 -12.112   5.542  1.00  0.00    -0.206 F 
ATOM     63  C   UNL     1      -6.502 -13.781   3.798  1.00  0.00     0.022 A 
BRANCH  60  64
ATOM     64  S   UNL     1      -3.762 -13.327   3.559  1.00  0.00     0.124 S 
ATOM     65  O   UNL     1      -3.495 -12.018   2.968  1.00  0.00    -0.237 OA
ATOM     66  O   UNL     1      -2.952 -13.684   4.717  1.00  0.00    -0.237 OA
ATOM     67  O   UNL     1      -3.980 -14.404   2.595  1.00  0.00    -0.744 OA
ENDBRANCH  60  64
ENDBRANCH  43  57
BRANCH  44  68
ATOM     68  C   UNL     1      -8.098  -3.787  11.724  1.00  0.00     0.023 A 
ATOM     69  C   UNL     1      -7.471  -3.657  12.973  1.00  0.00     0.031 A 
ATOM     70  C   UNL     1      -9.030  -2.800  11.351  1.00  0.00     0.131 A 
ATOM     71  C   UNL     1      -7.822  -2.598  13.827  1.00  0.00     0.055 A 
ATOM     72  C   UNL     1      -9.334  -1.719  12.178  1.00  0.00     0.041 A 
ATOM     73  F   UNL     1      -9.661  -2.875  10.168  1.00  0.00    -0.206 F 
ATOM     74  C   UNL     1      -8.740  -1.622  13.433  1.00  0.00     0.022 A 
BRANCH  71  75
ATOM     75  S   UNL     1      -7.139  -2.571  15.508  1.00  0.00     0.124 S 
ATOM     76  O   UNL     1      -7.552  -3.873  16.019  1.00  0.00    -0.237 OA
ATOM     77  O   UNL     1      -5.712  -2.405  15.251  1.00  0.00    -0.237 OA
ATOM     78  O   UNL     1      -7.796  -1.420  16.124  1.00  0.00    -0.744 OA
ENDBRANCH  71  75
ENDBRANCH  44  68
BRANCH  56  79
ATOM     79  C   UNL     1      -9.234 -10.626  12.478  1.00  0.00     0.023 A 
ATOM     80  C   UNL     1     -10.525 -10.480  13.017  1.00  0.00     0.031 A 
ATOM     81  C   UNL     1      -8.360 -11.541  13.092  1.00  0.00     0.131 A 
ATOM     82  C   UNL     1     -10.880 -11.184  14.178  1.00  0.00     0.055 A 
ATOM     83  C   UNL     1      -8.741 -12.284  14.210  1.00  0.00     0.041 A 
ATOM     84  F   UNL     1      -7.117 -11.721  12.619  1.00  0.00    -0.206 F 
ATOM     85  C   UNL     1     -10.001 -12.094  14.771  1.00  0.00     0.022 A 
BRANCH  82  86
ATOM     86  S   UNL     1     -12.466 -10.806  14.976  1.00  0.00     0.124 S 
ATOM     87  O   UNL     1     -12.375  -9.362  15.167  1.00  0.00    -0.237 OA
ATOM     88  O   UNL     1     -13.430 -11.257  13.977  1.00  0.00    -0.237 OA
ATOM     89  O   UNL     1     -12.430 -11.598  16.204  1.00  0.00    -0.744 OA
ENDBRANCH  82  86
ENDBRANCH  56  79
ENDBRANCH  30  31
ENDBRANCH  23  25
ENDBRANCH  22  23
ENDBRANCH  21  22
ENDBRANCH   1  21
TORSDOF 17
