REMARK SMILES O=C1C[N@@H+](Cc2ccc(C(=O)OCCOC(=O)c3ccc(-c4c5nc(c(-c6cc(S(=O)(=O)[O-])ccc6F)c6ccc([nH]6)c(-c6cc(S(=O)(=O)[O-])ccc6F)c6nc(c(-c7cc(S(=O)(=O)[O-])ccc7F)c7ccc4[nH]7)C=C6)C=C5)cc3)cc2)CCN1
REMARK SMILES IDX 14 1 13 2 12 3 10 4 11 5 9 6 6 7 7 8 82 9 8 10 81 11 5 12
REMARK SMILES IDX 4 13 1 14 2 15 3 16 85 17 84 18 83 20 15 22 16 23 17 24
REMARK SMILES IDX 18 25 19 26 80 27 20 28 79 29 21 30 22 31 23 32 73 33 24 34
REMARK SMILES IDX 78 35 72 36 74 37 25 38 77 39 71 40 70 41 26 43 58 44 38 45
REMARK SMILES IDX 57 46 39 47 42 48 56 49 75 50 40 51 41 52 55 54 76 55 43 56
REMARK SMILES IDX 27 57 28 58 36 59 29 60 35 61 37 62 34 63 30 64 31 65 32 66
REMARK SMILES IDX 33 67 59 68 60 69 68 70 61 71 67 72 69 73 66 74 62 75 63 76
REMARK SMILES IDX 64 77 65 78 44 79 45 80 53 81 46 82 52 83 54 84 51 85 47 86
REMARK SMILES IDX 48 87 49 88 50 89
REMARK H PARENT 85 19 4 21 74 42 42 53
REMARK Flexibility Score: inf
ROOT
ATOM      1  C   UNL     1       0.590   6.026   5.783  1.00  0.00     0.275 C 
ENDROOT
BRANCH   1   2
ATOM      2  C   UNL     1       0.817   5.880   4.279  1.00  0.00     0.275 C 
BRANCH   2   3
ATOM      3  O   UNL     1       0.095   4.750   3.759  1.00  0.00    -0.458 OA
BRANCH   3   4
ATOM      4  C   UNL     1       0.853   3.640   3.557  1.00  0.00     0.338 C 
ATOM      5  O   UNL     1       2.055   3.563   3.706  1.00  0.00    -0.246 OA
BRANCH   4   6
ATOM      6  C   UNL     1       0.017   2.475   3.163  1.00  0.00     0.060 A 
ATOM      7  C   UNL     1      -1.333   0.222   2.197  1.00  0.00     0.006 A 
ATOM      8  C   UNL     1      -0.058   0.088   2.755  1.00  0.00     0.010 A 
ATOM      9  C   UNL     1      -1.986   1.462   2.272  1.00  0.00     0.010 A 
ATOM     10  C   UNL     1       0.629   1.215   3.188  1.00  0.00     0.016 A 
ATOM     11  C   UNL     1      -1.315   2.588   2.756  1.00  0.00     0.016 A 
BRANCH   7  12
ATOM     12  C   UNL     1      -1.921  -0.925   1.412  1.00  0.00     0.299 C 
BRANCH  12  13
ATOM     13  N   UNL     1      -1.442  -1.060   0.026  1.00  0.00    -0.322 N 
ATOM     14  O   UNL     1       2.160  -0.392   0.081  1.00  0.00    -0.269 OA
ATOM     15  C   UNL     1       0.968  -0.269  -0.199  1.00  0.00     0.275 C 
ATOM     16  C   UNL     1      -0.020  -1.440  -0.116  1.00  0.00     0.363 C 
ATOM     17  N   UNL     1       0.524   0.921  -0.706  1.00  0.00    -0.346 N 
ATOM     18  C   UNL     1      -0.867   1.236  -0.912  1.00  0.00     0.177 C 
ATOM     19  H   UNL     1       1.195   1.602  -0.943  1.00  0.00     0.163 HD
ATOM     20  C   UNL     1      -1.803   0.018  -0.896  1.00  0.00     0.284 C 
ATOM     21  H   UNL     1      -1.991  -1.864  -0.277  1.00  0.00     0.348 HD
ENDBRANCH  12  13
ENDBRANCH   7  12
ENDBRANCH   4   6
ENDBRANCH   3   4
ENDBRANCH   2   3
ENDBRANCH   1   2
BRANCH   1  22
ATOM     22  O   UNL     1       1.088   4.876   6.494  1.00  0.00    -0.458 OA
BRANCH  22  23
ATOM     23  C   UNL     1       0.135   4.049   6.988  1.00  0.00     0.338 C 
ATOM     24  O   UNL     1      -1.074   4.209   6.938  1.00  0.00    -0.246 OA
BRANCH  23  25
ATOM     25  C   UNL     1       0.746   2.837   7.558  1.00  0.00     0.060 A 
ATOM     26  C   UNL     1       1.110   1.817   6.688  1.00  0.00     0.016 A 
ATOM     27  C   UNL     1       0.774   2.618   8.933  1.00  0.00     0.016 A 
ATOM     28  C   UNL     1       1.401   0.545   7.170  1.00  0.00     0.010 A 
ATOM     29  C   UNL     1       1.166   1.361   9.424  1.00  0.00     0.010 A 
ATOM     30  C   UNL     1       1.438   0.292   8.548  1.00  0.00    -0.014 A 
BRANCH  30  31
ATOM     31  C   UNL     1       1.687  -1.101   9.039  1.00  0.00     0.031 A 
ATOM     32  C   UNL     1       0.669  -1.796   9.914  1.00  0.00     0.074 A 
ATOM     33  C   UNL     1       2.792  -1.776   8.655  1.00  0.00     0.049 A 
ATOM     34  N   UNL     1       0.747  -2.954  10.522  1.00  0.00    -0.248 NA
ATOM     35  C   UNL     1      -0.596  -1.086  10.149  1.00  0.00     0.031 C 
ATOM     36  C   UNL     1       3.840  -1.251   7.777  1.00  0.00     0.029 A 
ATOM     37  N   UNL     1       3.209  -3.056   8.931  1.00  0.00    -0.354 N 
ATOM     38  C   UNL     1      -0.431  -3.086  11.254  1.00  0.00     0.074 A 
ATOM     39  C   UNL     1      -1.193  -1.875  11.030  1.00  0.00     0.031 C 
ATOM     40  C   UNL     1       4.741  -2.216   7.538  1.00  0.00     0.029 A 
ATOM     41  C   UNL     1       4.397  -3.396   8.323  1.00  0.00     0.049 A 
ATOM     42  H   UNL     1       2.705  -3.674   9.509  1.00  0.00     0.167 HD
ATOM     43  C   UNL     1      -0.840  -4.119  12.034  1.00  0.00     0.034 A 
ATOM     44  C   UNL     1       5.152  -4.510   8.411  1.00  0.00     0.034 A 
ATOM     45  C   UNL     1      -0.091  -5.343  12.210  1.00  0.00     0.049 A 
ATOM     46  C   UNL     1       4.693  -5.630   9.308  1.00  0.00     0.074 A 
ATOM     47  C   UNL     1      -0.421  -6.454  12.969  1.00  0.00     0.029 A 
ATOM     48  N   UNL     1       1.131  -5.627  11.612  1.00  0.00    -0.354 N 
ATOM     49  N   UNL     1       3.607  -5.710  10.042  1.00  0.00    -0.248 NA
ATOM     50  C   UNL     1       5.566  -6.808   9.392  1.00  0.00     0.031 C 
ATOM     51  C   UNL     1       0.627  -7.378  12.882  1.00  0.00     0.029 A 
ATOM     52  C   UNL     1       1.575  -6.883  12.003  1.00  0.00     0.049 A 
ATOM     53  H   UNL     1       1.611  -5.024  11.000  1.00  0.00     0.167 HD
ATOM     54  C   UNL     1       3.660  -6.957  10.660  1.00  0.00     0.074 A 
ATOM     55  C   UNL     1       4.868  -7.602  10.189  1.00  0.00     0.031 C 
ATOM     56  C   UNL     1       2.790  -7.515  11.541  1.00  0.00     0.034 A 
BRANCH  43  57
ATOM     57  C   UNL     1      -2.130  -3.943  12.807  1.00  0.00     0.023 A 
ATOM     58  C   UNL     1      -3.373  -3.787  12.170  1.00  0.00     0.031 A 
ATOM     59  C   UNL     1      -2.106  -3.906  14.214  1.00  0.00     0.131 A 
ATOM     60  C   UNL     1      -4.524  -3.526  12.933  1.00  0.00     0.055 A 
ATOM     61  C   UNL     1      -3.267  -3.732  14.970  1.00  0.00     0.041 A 
ATOM     62  F   UNL     1      -0.948  -4.029  14.882  1.00  0.00    -0.206 F 
ATOM     63  C   UNL     1      -4.484  -3.524  14.329  1.00  0.00     0.022 A 
BRANCH  60  64
ATOM     64  S   UNL     1      -6.046  -3.041  12.072  1.00  0.00     0.124 S 
ATOM     65  O   UNL     1      -5.607  -1.856  11.340  1.00  0.00    -0.237 OA
ATOM     66  O   UNL     1      -6.341  -4.219  11.264  1.00  0.00    -0.237 OA
ATOM     67  O   UNL     1      -6.987  -2.778  13.160  1.00  0.00    -0.744 OA
ENDBRANCH  60  64
ENDBRANCH  43  57
BRANCH  44  68
ATOM     68  C   UNL     1       6.452  -4.604   7.681  1.00  0.00     0.023 A 
ATOM     69  C   UNL     1       6.673  -5.590   6.706  1.00  0.00     0.031 A 
ATOM     70  C   UNL     1       7.513  -3.730   7.984  1.00  0.00     0.131 A 
ATOM     71  C   UNL     1       7.934  -5.704   6.099  1.00  0.00     0.055 A 
ATOM     72  C   UNL     1       8.743  -3.805   7.330  1.00  0.00     0.041 A 
ATOM     73  F   UNL     1       7.362  -2.774   8.914  1.00  0.00    -0.206 F 
ATOM     74  C   UNL     1       8.964  -4.806   6.390  1.00  0.00     0.022 A 
BRANCH  71  75
ATOM     75  S   UNL     1       8.244  -7.105   4.989  1.00  0.00     0.124 S 
ATOM     76  O   UNL     1       7.973  -8.241   5.862  1.00  0.00    -0.237 OA
ATOM     77  O   UNL     1       7.275  -6.869   3.923  1.00  0.00    -0.237 OA
ATOM     78  O   UNL     1       9.644  -6.932   4.605  1.00  0.00    -0.744 OA
ENDBRANCH  71  75
ENDBRANCH  44  68
BRANCH  56  79
ATOM     79  C   UNL     1       3.101  -8.918  12.008  1.00  0.00     0.023 A 
ATOM     80  C   UNL     1       4.242  -9.208  12.777  1.00  0.00     0.031 A 
ATOM     81  C   UNL     1       2.268  -9.988  11.635  1.00  0.00     0.131 A 
ATOM     82  C   UNL     1       4.561 -10.540  13.083  1.00  0.00     0.055 A 
ATOM     83  C   UNL     1       2.553 -11.304  12.001  1.00  0.00     0.041 A 
ATOM     84  F   UNL     1       1.167  -9.773  10.898  1.00  0.00    -0.206 F 
ATOM     85  C   UNL     1       3.715 -11.588  12.714  1.00  0.00     0.022 A 
BRANCH  82  86
ATOM     86  S   UNL     1       6.160 -10.897  13.861  1.00  0.00     0.124 S 
ATOM     87  O   UNL     1       7.098 -10.292  12.921  1.00  0.00    -0.237 OA
ATOM     88  O   UNL     1       6.034 -10.230  15.153  1.00  0.00    -0.237 OA
ATOM     89  O   UNL     1       6.196 -12.357  13.919  1.00  0.00    -0.744 OA
ENDBRANCH  82  86
ENDBRANCH  56  79
ENDBRANCH  30  31
ENDBRANCH  23  25
ENDBRANCH  22  23
ENDBRANCH   1  22
TORSDOF 16
