REMARK SMILES O=C(OCCOC(=O)c1ccc([S@@](=O)[C@H]2CCOC3(CCCC3)C2)cc1)c1ccc(-c2c3nc(c(-c4cc(S(=O)(=O)[O-])ccc4F)c4ccc([nH]4)c(-c4cc(S(=O)(=O)[O-])ccc4F)c4nc(c(-c5cc(S(=O)(=O)[O-])ccc5F)c5ccc2[nH]5)C=C4)C=C3)cc1
REMARK SMILES IDX 4 1 3 2 2 3 1 4 27 5 28 6 89 7 29 8 88 9 30 10 31 11 32 12
REMARK SMILES IDX 82 13 33 14 87 15 81 16 83 17 34 18 86 19 80 20 79 21 35 23
REMARK SMILES IDX 67 24 47 25 66 26 48 27 51 28 65 29 84 30 49 31 50 32 64 34
REMARK SMILES IDX 85 35 52 36 36 37 37 38 45 39 38 40 44 41 46 42 43 43 39 44
REMARK SMILES IDX 40 45 41 46 42 47 68 48 69 49 77 50 70 51 76 52 78 53 75 54
REMARK SMILES IDX 71 55 72 56 73 57 74 58 53 59 54 60 62 61 55 62 61 63 63 64
REMARK SMILES IDX 60 65 56 66 57 67 58 68 59 69 5 70 6 71 7 72 8 73 9 74 10 75
REMARK SMILES IDX 26 76 11 77 25 78 12 79 13 80 14 81 15 82 16 83 24 84 17 85
REMARK SMILES IDX 19 86 18 87 20 88 23 89 21 90 22 91
REMARK H PARENT 83 22 51 33
REMARK Flexibility Score: inf
ROOT
ATOM      1  C   UNL     1       5.231  14.385   6.805  1.00  0.00     0.275 C 
ENDROOT
BRANCH   1   2
ATOM      2  O   UNL     1       4.336  14.052   5.729  1.00  0.00    -0.458 OA
BRANCH   2   3
ATOM      3  C   UNL     1       4.252  12.929   4.976  1.00  0.00     0.338 C 
ATOM      4  O   UNL     1       3.465  12.920   4.029  1.00  0.00    -0.246 OA
BRANCH   3   5
ATOM      5  C   UNL     1       4.964  11.651   5.302  1.00  0.00     0.060 A 
ATOM      6  C   UNL     1       6.150  11.538   6.031  1.00  0.00     0.016 A 
ATOM      7  C   UNL     1       4.370  10.466   4.829  1.00  0.00     0.016 A 
ATOM      8  C   UNL     1       6.686  10.293   6.356  1.00  0.00     0.010 A 
ATOM      9  C   UNL     1       4.910   9.214   5.135  1.00  0.00     0.010 A 
ATOM     10  C   UNL     1       6.075   9.127   5.906  1.00  0.00    -0.014 A 
BRANCH  10  11
ATOM     11  C   UNL     1       6.778   7.845   6.109  1.00  0.00     0.031 A 
ATOM     12  C   UNL     1       7.545   7.276   4.952  1.00  0.00     0.074 A 
ATOM     13  C   UNL     1       6.731   7.218   7.299  1.00  0.00     0.049 A 
ATOM     14  N   UNL     1       8.266   6.188   4.895  1.00  0.00    -0.248 NA
ATOM     15  C   UNL     1       7.474   8.027   3.690  1.00  0.00     0.031 C 
ATOM     16  C   UNL     1       6.039   7.715   8.486  1.00  0.00     0.029 A 
ATOM     17  N   UNL     1       7.251   6.016   7.702  1.00  0.00    -0.354 N 
ATOM     18  C   UNL     1       8.736   6.124   3.588  1.00  0.00     0.074 A 
ATOM     19  C   UNL     1       8.176   7.254   2.880  1.00  0.00     0.031 C 
ATOM     20  C   UNL     1       6.145   6.811   9.474  1.00  0.00     0.029 A 
ATOM     21  C   UNL     1       6.915   5.671   8.991  1.00  0.00     0.049 A 
ATOM     22  H   UNL     1       7.813   5.452   7.123  1.00  0.00     0.167 HD
ATOM     23  C   UNL     1       9.566   5.207   3.037  1.00  0.00     0.034 A 
ATOM     24  C   UNL     1       7.205   4.559   9.693  1.00  0.00     0.034 A 
ATOM     25  C   UNL     1      10.043   4.051   3.753  1.00  0.00     0.049 A 
ATOM     26  C   UNL     1       8.072   3.512   9.036  1.00  0.00     0.074 A 
ATOM     27  C   UNL     1      10.889   3.049   3.317  1.00  0.00     0.029 A 
ATOM     28  N   UNL     1       9.681   3.727   5.057  1.00  0.00    -0.354 N 
ATOM     29  N   UNL     1       8.581   3.505   7.824  1.00  0.00    -0.248 NA
ATOM     30  C   UNL     1       8.428   2.345   9.849  1.00  0.00     0.031 C 
ATOM     31  C   UNL     1      10.975   2.083   4.326  1.00  0.00     0.029 A 
ATOM     32  C   UNL     1      10.254   2.522   5.427  1.00  0.00     0.049 A 
ATOM     33  H   UNL     1       9.101   4.276   5.633  1.00  0.00     0.167 HD
ATOM     34  C   UNL     1       9.364   2.357   7.750  1.00  0.00     0.074 A 
ATOM     35  C   UNL     1       9.255   1.702   9.039  1.00  0.00     0.031 C 
ATOM     36  C   UNL     1      10.118   1.891   6.720  1.00  0.00     0.034 A 
BRANCH  23  37
ATOM     37  C   UNL     1       9.931   5.410   1.586  1.00  0.00     0.023 A 
ATOM     38  C   UNL     1      10.599   6.573   1.156  1.00  0.00     0.031 A 
ATOM     39  C   UNL     1       9.523   4.489   0.608  1.00  0.00     0.131 A 
ATOM     40  C   UNL     1      10.740   6.835  -0.214  1.00  0.00     0.055 A 
ATOM     41  C   UNL     1       9.751   4.712  -0.752  1.00  0.00     0.041 A 
ATOM     42  F   UNL     1       8.860   3.374   0.952  1.00  0.00    -0.206 F 
ATOM     43  C   UNL     1      10.342   5.900  -1.172  1.00  0.00     0.022 A 
BRANCH  40  44
ATOM     44  S   UNL     1      11.277   8.491  -0.726  1.00  0.00     0.124 S 
ATOM     45  O   UNL     1      10.234   9.332  -0.143  1.00  0.00    -0.237 OA
ATOM     46  O   UNL     1      12.597   8.598  -0.116  1.00  0.00    -0.237 OA
ATOM     47  O   UNL     1      11.267   8.420  -2.186  1.00  0.00    -0.744 OA
ENDBRANCH  40  44
ENDBRANCH  23  37
BRANCH  24  48
ATOM     48  C   UNL     1       6.706   4.381  11.087  1.00  0.00     0.023 A 
ATOM     49  C   UNL     1       7.596   4.321  12.171  1.00  0.00     0.031 A 
ATOM     50  C   UNL     1       5.334   4.224  11.353  1.00  0.00     0.131 A 
ATOM     51  C   UNL     1       7.113   4.060  13.463  1.00  0.00     0.055 A 
ATOM     52  C   UNL     1       4.853   4.008  12.648  1.00  0.00     0.041 A 
ATOM     53  F   UNL     1       4.437   4.286  10.355  1.00  0.00    -0.206 F 
ATOM     54  C   UNL     1       5.747   3.912  13.710  1.00  0.00     0.022 A 
BRANCH  51  55
ATOM     55  S   UNL     1       8.310   3.841  14.809  1.00  0.00     0.124 S 
ATOM     56  O   UNL     1       9.126   2.743  14.304  1.00  0.00    -0.237 OA
ATOM     57  O   UNL     1       8.952   5.151  14.854  1.00  0.00    -0.237 OA
ATOM     58  O   UNL     1       7.471   3.521  15.961  1.00  0.00    -0.744 OA
ENDBRANCH  51  55
ENDBRANCH  24  48
BRANCH  36  59
ATOM     59  C   UNL     1      10.924   0.642   6.980  1.00  0.00     0.023 A 
ATOM     60  C   UNL     1      10.312  -0.598   7.226  1.00  0.00     0.031 A 
ATOM     61  C   UNL     1      12.329   0.705   6.998  1.00  0.00     0.131 A 
ATOM     62  C   UNL     1      11.101  -1.711   7.549  1.00  0.00     0.055 A 
ATOM     63  C   UNL     1      13.111  -0.423   7.248  1.00  0.00     0.041 A 
ATOM     64  F   UNL     1      12.965   1.866   6.773  1.00  0.00    -0.206 F 
ATOM     65  C   UNL     1      12.497  -1.637   7.542  1.00  0.00     0.022 A 
BRANCH  62  66
ATOM     66  S   UNL     1      10.273  -3.230   8.093  1.00  0.00     0.124 S 
ATOM     67  O   UNL     1       9.507  -2.760   9.243  1.00  0.00    -0.237 OA
ATOM     68  O   UNL     1       9.494  -3.598   6.916  1.00  0.00    -0.237 OA
ATOM     69  O   UNL     1      11.381  -4.129   8.411  1.00  0.00    -0.744 OA
ENDBRANCH  62  66
ENDBRANCH  36  59
ENDBRANCH  10  11
ENDBRANCH   3   5
ENDBRANCH   2   3
ENDBRANCH   1   2
BRANCH   1  70
ATOM     70  C   UNL     1       4.830  13.843   8.184  1.00  0.00     0.275 C 
BRANCH  70  71
ATOM     71  O   UNL     1       4.306  12.505   8.161  1.00  0.00    -0.458 OA
BRANCH  71  72
ATOM     72  C   UNL     1       2.956  12.419   8.028  1.00  0.00     0.338 C 
ATOM     73  O   UNL     1       2.173  13.356   7.995  1.00  0.00    -0.246 OA
BRANCH  72  74
ATOM     74  C   UNL     1       2.547  11.013   7.801  1.00  0.00     0.060 A 
ATOM     75  C   UNL     1       1.603  10.751   6.802  1.00  0.00     0.017 A 
ATOM     76  C   UNL     1       3.041   9.961   8.575  1.00  0.00     0.017 A 
ATOM     77  C   UNL     1       1.152   9.443   6.580  1.00  0.00     0.018 A 
ATOM     78  C   UNL     1       2.583   8.652   8.352  1.00  0.00     0.018 A 
ATOM     79  C   UNL     1       1.636   8.381   7.353  1.00  0.00     0.039 A 
BRANCH  79  80
ATOM     80  S   UNL     1       0.865   6.748   7.297  1.00  0.00     0.056 S 
ATOM     81  O   UNL     1      -0.573   7.004   6.943  1.00  0.00    -0.254 OA
BRANCH  80  82
ATOM     82  C   UNL     1       1.626   5.907   5.872  1.00  0.00     0.089 C 
ATOM     83  C   UNL     1       1.315   6.555   4.530  1.00  0.00     0.046 C 
ATOM     84  C   UNL     1       3.121   5.654   6.021  1.00  0.00     0.053 C 
ATOM     85  C   UNL     1       1.879   5.689   3.416  1.00  0.00     0.162 C 
ATOM     86  C   UNL     1       3.659   4.835   4.823  1.00  0.00     0.069 C 
ATOM     87  O   UNL     1       3.274   5.469   3.592  1.00  0.00    -0.375 OA
ATOM     88  C   UNL     1       5.197   4.798   4.825  1.00  0.00     0.035 C 
ATOM     89  C   UNL     1       3.247   3.343   4.868  1.00  0.00     0.035 C 
ATOM     90  C   UNL     1       5.604   3.388   5.208  1.00  0.00     0.003 C 
ATOM     91  C   UNL     1       4.518   2.551   4.570  1.00  0.00     0.003 C 
ENDBRANCH  80  82
ENDBRANCH  79  80
ENDBRANCH  72  74
ENDBRANCH  71  72
ENDBRANCH  70  71
ENDBRANCH   1  70
TORSDOF 16
