REMARK SMILES Cc1ccc(Nc2c(Cl)cc(Cl)cc2Cl)c(CC(=O)OCCOC(=O)c2ccc(-c3c4nc(c(-c5cc(S(=O)(=O)[O-])ccc5F)c5ccc([nH]5)c(-c5cc(S(=O)(=O)[O-])ccc5F)c5nc(c(-c6cc(S(=O)(=O)[O-])ccc6F)c6ccc3[nH]6)C=C5)C=C4)cc2)c1
REMARK SMILES IDX 21 1 20 2 18 3 19 4 17 5 16 6 1 7 2 8 3 9 89 10 4 11 5 12
REMARK SMILES IDX 6 13 7 15 8 16 14 17 9 18 10 19 13 20 15 21 11 22 12 23
REMARK SMILES IDX 22 24 23 25 24 26 25 27 26 28 27 29 88 30 28 31 87 32 29 33
REMARK SMILES IDX 30 34 31 35 81 36 32 37 86 38 80 39 82 40 33 41 85 42 79 43
REMARK SMILES IDX 78 44 34 46 66 47 46 48 65 49 47 50 50 51 64 52 83 53 48 54
REMARK SMILES IDX 49 55 63 57 84 58 51 59 35 60 36 61 44 62 37 63 43 64 45 65
REMARK SMILES IDX 42 66 38 67 39 68 40 69 41 70 67 71 68 72 76 73 69 74 75 75
REMARK SMILES IDX 77 76 74 77 70 78 71 79 72 80 73 81 52 82 53 83 61 84 54 85
REMARK SMILES IDX 60 86 62 87 59 88 55 89 56 90 57 91 58 92
REMARK H PARENT 6 14 82 45 50 56
REMARK Flexibility Score: inf
ROOT
ATOM      1  C   UNL     1      -2.165   0.943  -3.641  1.00  0.00     0.274 C 
ENDROOT
BRANCH   1   2
ATOM      2  O   UNL     1      -1.845   0.825  -2.262  1.00  0.00    -0.462 OA
BRANCH   2   3
ATOM      3  C   UNL     1      -1.015   1.747  -1.707  1.00  0.00     0.310 C 
ATOM      4  O   UNL     1      -0.356   2.566  -2.305  1.00  0.00    -0.252 OA
BRANCH   3   5
ATOM      5  C   UNL     1      -1.020   1.541  -0.203  1.00  0.00     0.160 C 
BRANCH   5   6
ATOM      6  C   UNL     1      -0.379   0.213   0.100  1.00  0.00    -0.013 A 
ATOM      7  C   UNL     1       3.254  -0.883   0.132  1.00  0.00     0.044 C 
ATOM      8  C   UNL     1       1.760  -0.939   0.181  1.00  0.00    -0.051 A 
ATOM      9  C   UNL     1       1.078  -2.155   0.141  1.00  0.00     0.005 A 
ATOM     10  C   UNL     1       1.024   0.238   0.189  1.00  0.00     0.009 A 
ATOM     11  C   UNL     1      -0.320  -2.190   0.104  1.00  0.00     0.026 A 
ATOM     12  C   UNL     1      -1.079  -1.016   0.067  1.00  0.00     0.042 A 
BRANCH  12  13
ATOM     13  N   UNL     1      -2.477  -1.088  -0.080  1.00  0.00    -0.353 N 
ATOM     14  H   UNL     1      -2.905  -0.248  -0.364  1.00  0.00     0.167 HD
BRANCH  13  15
ATOM     15  C   UNL     1      -3.368  -2.174   0.114  1.00  0.00     0.076 A 
ATOM     16  C   UNL     1      -3.753  -2.580   1.405  1.00  0.00     0.067 A 
ATOM     17  C   UNL     1      -4.078  -2.734  -0.970  1.00  0.00     0.067 A 
ATOM     18  Cl  UNL     1      -2.951  -1.986   2.820  1.00  0.00    -0.082 Cl
ATOM     19  C   UNL     1      -4.789  -3.502   1.597  1.00  0.00     0.043 A 
ATOM     20  C   UNL     1      -5.174  -3.580  -0.779  1.00  0.00     0.043 A 
ATOM     21  Cl  UNL     1      -3.507  -2.588  -2.592  1.00  0.00    -0.082 Cl
ATOM     22  C   UNL     1      -5.513  -3.970   0.507  1.00  0.00     0.044 A 
ATOM     23  Cl  UNL     1      -6.796  -5.092   0.748  1.00  0.00    -0.084 Cl
ENDBRANCH  13  15
ENDBRANCH  12  13
ENDBRANCH   5   6
ENDBRANCH   3   5
ENDBRANCH   2   3
ENDBRANCH   1   2
BRANCH   1  24
ATOM     24  C   UNL     1      -3.617   0.479  -3.841  1.00  0.00     0.275 C 
BRANCH  24  25
ATOM     25  O   UNL     1      -4.439   0.305  -2.623  1.00  0.00    -0.458 OA
BRANCH  25  26
ATOM     26  C   UNL     1      -4.653   1.134  -1.556  1.00  0.00     0.338 C 
ATOM     27  O   UNL     1      -4.900   0.696  -0.436  1.00  0.00    -0.246 OA
BRANCH  26  28
ATOM     28  C   UNL     1      -4.329   2.555  -1.730  1.00  0.00     0.060 A 
ATOM     29  C   UNL     1      -3.799   3.344  -0.691  1.00  0.00     0.016 A 
ATOM     30  C   UNL     1      -4.359   3.026  -3.018  1.00  0.00     0.016 A 
ATOM     31  C   UNL     1      -3.166   4.543  -1.010  1.00  0.00     0.010 A 
ATOM     32  C   UNL     1      -3.439   3.964  -3.360  1.00  0.00     0.010 A 
ATOM     33  C   UNL     1      -2.961   4.813  -2.363  1.00  0.00    -0.014 A 
BRANCH  33  34
ATOM     34  C   UNL     1      -2.587   6.102  -2.920  1.00  0.00     0.031 A 
ATOM     35  C   UNL     1      -1.224   6.610  -2.768  1.00  0.00     0.074 A 
ATOM     36  C   UNL     1      -3.602   6.672  -3.615  1.00  0.00     0.049 A 
ATOM     37  N   UNL     1      -0.924   7.790  -2.350  1.00  0.00    -0.248 NA
ATOM     38  C   UNL     1      -0.046   5.779  -3.025  1.00  0.00     0.031 C 
ATOM     39  C   UNL     1      -3.682   7.830  -4.476  1.00  0.00     0.029 A 
ATOM     40  N   UNL     1      -4.934   6.249  -3.541  1.00  0.00    -0.354 N 
ATOM     41  C   UNL     1       0.390   7.984  -2.726  1.00  0.00     0.074 A 
ATOM     42  C   UNL     1       0.950   6.666  -2.897  1.00  0.00     0.031 C 
ATOM     43  C   UNL     1      -4.982   8.197  -4.574  1.00  0.00     0.029 A 
ATOM     44  C   UNL     1      -5.780   7.323  -3.714  1.00  0.00     0.049 A 
ATOM     45  H   UNL     1      -5.223   5.320  -3.387  1.00  0.00     0.167 HD
ATOM     46  C   UNL     1       0.779   9.192  -3.224  1.00  0.00     0.034 A 
ATOM     47  C   UNL     1      -6.527   7.654  -2.620  1.00  0.00     0.034 A 
ATOM     48  C   UNL     1      -0.392  10.045  -3.411  1.00  0.00     0.049 A 
ATOM     49  C   UNL     1      -5.952   8.904  -2.004  1.00  0.00     0.074 A 
ATOM     50  C   UNL     1      -1.145  10.333  -4.538  1.00  0.00     0.029 A 
ATOM     51  N   UNL     1      -1.167  10.403  -2.318  1.00  0.00    -0.354 N 
ATOM     52  N   UNL     1      -4.711   9.286  -2.148  1.00  0.00    -0.248 NA
ATOM     53  C   UNL     1      -6.760   9.865  -1.270  1.00  0.00     0.031 C 
ATOM     54  C   UNL     1      -2.412  10.807  -4.106  1.00  0.00     0.029 A 
ATOM     55  C   UNL     1      -2.426  10.802  -2.722  1.00  0.00     0.049 A 
ATOM     56  H   UNL     1      -0.862  10.376  -1.383  1.00  0.00     0.167 HD
ATOM     57  C   UNL     1      -4.561  10.546  -1.640  1.00  0.00     0.074 A 
ATOM     58  C   UNL     1      -5.873  10.858  -1.089  1.00  0.00     0.031 C 
ATOM     59  C   UNL     1      -3.392  11.250  -1.737  1.00  0.00     0.034 A 
BRANCH  46  60
ATOM     60  C   UNL     1       2.100   9.456  -3.904  1.00  0.00     0.023 A 
ATOM     61  C   UNL     1       2.166  10.400  -4.949  1.00  0.00     0.031 A 
ATOM     62  C   UNL     1       3.322   8.858  -3.543  1.00  0.00     0.131 A 
ATOM     63  C   UNL     1       3.366  10.673  -5.626  1.00  0.00     0.055 A 
ATOM     64  C   UNL     1       4.519   9.110  -4.234  1.00  0.00     0.041 A 
ATOM     65  F   UNL     1       3.409   8.035  -2.486  1.00  0.00    -0.206 F 
ATOM     66  C   UNL     1       4.545  10.018  -5.286  1.00  0.00     0.022 A 
BRANCH  63  67
ATOM     67  S   UNL     1       3.356  11.926  -6.939  1.00  0.00     0.124 S 
ATOM     68  O   UNL     1       2.461  11.329  -7.925  1.00  0.00    -0.237 OA
ATOM     69  O   UNL     1       2.852  13.104  -6.242  1.00  0.00    -0.237 OA
ATOM     70  O   UNL     1       4.758  12.004  -7.344  1.00  0.00    -0.744 OA
ENDBRANCH  63  67
ENDBRANCH  46  60
BRANCH  47  71
ATOM     71  C   UNL     1      -7.074   6.451  -1.879  1.00  0.00     0.023 A 
ATOM     72  C   UNL     1      -7.781   5.485  -2.643  1.00  0.00     0.031 A 
ATOM     73  C   UNL     1      -6.671   6.061  -0.594  1.00  0.00     0.131 A 
ATOM     74  C   UNL     1      -7.928   4.161  -2.192  1.00  0.00     0.055 A 
ATOM     75  C   UNL     1      -6.892   4.755  -0.113  1.00  0.00     0.041 A 
ATOM     76  F   UNL     1      -5.976   6.897   0.190  1.00  0.00    -0.206 F 
ATOM     77  C   UNL     1      -7.488   3.788  -0.924  1.00  0.00     0.022 A 
BRANCH  74  78
ATOM     78  S   UNL     1      -8.407   2.872  -3.388  1.00  0.00     0.124 S 
ATOM     79  O   UNL     1      -9.857   2.834  -3.240  1.00  0.00    -0.237 OA
ATOM     80  O   UNL     1      -7.903   3.405  -4.652  1.00  0.00    -0.237 OA
ATOM     81  O   UNL     1      -7.685   1.694  -2.914  1.00  0.00    -0.744 OA
ENDBRANCH  74  78
ENDBRANCH  47  71
BRANCH  59  82
ATOM     82  C   UNL     1      -3.078  12.506  -0.969  1.00  0.00     0.023 A 
ATOM     83  C   UNL     1      -3.806  12.884   0.158  1.00  0.00     0.031 A 
ATOM     84  C   UNL     1      -1.968  13.325  -1.294  1.00  0.00     0.131 A 
ATOM     85  C   UNL     1      -3.530  14.084   0.822  1.00  0.00     0.055 A 
ATOM     86  C   UNL     1      -1.610  14.445  -0.546  1.00  0.00     0.041 A 
ATOM     87  F   UNL     1      -1.175  13.073  -2.347  1.00  0.00    -0.206 F 
ATOM     88  C   UNL     1      -2.414  14.852   0.505  1.00  0.00     0.022 A 
BRANCH  85  89
ATOM     89  S   UNL     1      -4.758  14.667   2.009  1.00  0.00     0.124 S 
ATOM     90  O   UNL     1      -5.938  14.822   1.161  1.00  0.00    -0.237 OA
ATOM     91  O   UNL     1      -4.812  13.571   2.971  1.00  0.00    -0.237 OA
ATOM     92  O   UNL     1      -4.184  15.913   2.510  1.00  0.00    -0.744 OA
ENDBRANCH  85  89
ENDBRANCH  59  82
ENDBRANCH  33  34
ENDBRANCH  26  28
ENDBRANCH  25  26
ENDBRANCH  24  25
ENDBRANCH   1  24
TORSDOF 17
