REMARK SMILES Cc1ccccc1/C=C1\SC(=O)N(CC(=O)Nc2ccccc2C(=O)OCCOC(=O)c2ccc(-c3c4nc(c(-c5cc(S(=O)(=O)[O-])ccc5F)c5ccc([nH]5)c(-c5cc(S(=O)(=O)[O-])ccc5F)c5nc(c(-c6cc(S(=O)(=O)[O-])ccc6F)c6ccc3[nH]6)C=C5)C=C4)cc2)C1=O
REMARK SMILES IDX 27 1 26 2 24 3 25 4 23 5 18 6 19 7 20 8 22 9 21 10 17 11
REMARK SMILES IDX 15 12 16 13 14 15 13 16 8 17 9 18 10 19 95 20 11 21 96 22
REMARK SMILES IDX 12 23 7 24 1 25 2 26 3 27 4 28 6 29 5 30 28 31 29 32 30 33
REMARK SMILES IDX 31 34 32 35 33 36 94 37 34 38 93 39 35 40 36 41 37 42 87 43
REMARK SMILES IDX 38 44 92 45 86 46 88 47 39 48 91 49 85 50 84 51 40 53 72 54
REMARK SMILES IDX 52 55 71 56 53 57 56 58 70 59 89 60 54 61 55 62 69 64 90 65
REMARK SMILES IDX 57 66 41 67 42 68 50 69 43 70 49 71 51 72 48 73 44 74 45 75
REMARK SMILES IDX 46 76 47 77 73 78 74 79 82 80 75 81 81 82 83 83 80 84 76 85
REMARK SMILES IDX 77 86 78 87 79 88 58 89 59 90 67 91 60 92 66 93 68 94 65 95
REMARK SMILES IDX 61 96 62 97 63 98 64 99
REMARK H PARENT 17 14 88 52 56 63
REMARK Flexibility Score: inf
ROOT
ATOM      1  C   UNL     1       4.744   2.054  -0.436  1.00  0.00     0.275 C 
ENDROOT
BRANCH   1   2
ATOM      2  O   UNL     1       3.140   2.313  -1.704  1.00  0.00    -0.458 OA
BRANCH   2   3
ATOM      3  C   UNL     1       2.340   3.304  -2.655  1.00  0.00     0.340 C 
ATOM      4  O   UNL     1       1.708   3.719  -1.640  1.00  0.00    -0.246 OA
BRANCH   3   5
ATOM      5  C   UNL     1       2.141   3.991  -4.692  1.00  0.00     0.083 A 
ATOM      6  C   UNL     1       2.560   5.616  -5.162  1.00  0.00     0.055 A 
ATOM      7  C   UNL     1       2.355   6.132  -6.454  1.00  0.00     0.027 A 
ATOM      8  C   UNL     1       1.858   5.299  -7.452  1.00  0.00     0.002 A 
ATOM      9  C   UNL     1       1.645   3.350  -5.931  1.00  0.00     0.018 A 
ATOM     10  C   UNL     1       1.530   3.964  -7.203  1.00  0.00     0.001 A 
BRANCH   6  11
ATOM     11  N   UNL     1       3.300   6.780  -4.154  1.00  0.00    -0.324 N 
ATOM     12  C   UNL     1       4.035   6.785  -2.745  1.00  0.00     0.244 C 
ATOM     13  O   UNL     1       4.428   7.929  -2.444  1.00  0.00    -0.273 OA
ATOM     14  H   UNL     1       3.260   7.682  -4.548  1.00  0.00     0.170 HD
BRANCH  12  15
ATOM     15  C   UNL     1       4.746   5.316  -1.748  1.00  0.00     0.230 C 
BRANCH  15  16
ATOM     16  N   UNL     1       4.361   3.582  -1.517  1.00  0.00    -0.259 N 
ATOM     17  C   UNL     1       1.365   1.409   0.728  1.00  0.00     0.029 C 
ATOM     18  C   UNL     1       2.504   1.746   0.076  1.00  0.00     0.083 C 
ATOM     19  S   UNL     1       3.307   0.281  -1.337  1.00  0.00    -0.022 SA
ATOM     20  C   UNL     1       3.232   3.518  -0.131  1.00  0.00     0.268 C 
ATOM     21  C   UNL     1       4.685   1.856  -2.321  1.00  0.00     0.294 C 
ATOM     22  O   UNL     1       2.925   4.465   0.576  1.00  0.00    -0.268 OA
ATOM     23  O   UNL     1       5.483   1.233  -3.012  1.00  0.00    -0.261 OA
BRANCH  17  24
ATOM     24  C   UNL     1       0.583   0.142   0.590  1.00  0.00    -0.021 A 
ATOM     25  C   UNL     1       2.427  -1.411   1.421  1.00  0.00     0.045 C 
ATOM     26  C   UNL     1       1.071  -1.150   0.838  1.00  0.00    -0.044 A 
ATOM     27  C   UNL     1       0.270  -2.279   0.536  1.00  0.00     0.004 A 
ATOM     28  C   UNL     1      -1.042  -2.146   0.085  1.00  0.00     0.000 A 
ATOM     29  C   UNL     1      -0.759   0.236   0.179  1.00  0.00     0.008 A 
ATOM     30  C   UNL     1      -1.571  -0.879  -0.060  1.00  0.00     0.001 A 
ENDBRANCH  17  24
ENDBRANCH  15  16
ENDBRANCH  12  15
ENDBRANCH   6  11
ENDBRANCH   3   5
ENDBRANCH   2   3
ENDBRANCH   1   2
BRANCH   1  31
ATOM     31  C   UNL     1       6.349   2.764  -1.115  1.00  0.00     0.275 C 
BRANCH  31  32
ATOM     32  O   UNL     1       6.450   3.276  -2.762  1.00  0.00    -0.458 OA
BRANCH  32  33
ATOM     33  C   UNL     1       5.711   3.264  -4.027  1.00  0.00     0.338 C 
ATOM     34  O   UNL     1       6.290   3.565  -5.068  1.00  0.00    -0.246 OA
BRANCH  33  35
ATOM     35  C   UNL     1       4.070   3.160  -4.089  1.00  0.00     0.060 A 
ATOM     36  C   UNL     1       3.542   4.641  -3.474  1.00  0.00     0.016 A 
ATOM     37  C   UNL     1       2.821   1.919  -4.209  1.00  0.00     0.016 A 
ATOM     38  C   UNL     1       1.754   5.168  -3.087  1.00  0.00     0.010 A 
ATOM     39  C   UNL     1       1.074   2.245  -3.806  1.00  0.00     0.010 A 
ATOM     40  C   UNL     1       0.465   3.897  -3.322  1.00  0.00    -0.014 A 
BRANCH  40  41
ATOM     41  C   UNL     1      -0.773   3.829  -2.450  1.00  0.00     0.031 A 
ATOM     42  C   UNL     1      -1.854   2.922  -2.913  1.00  0.00     0.074 A 
ATOM     43  C   UNL     1      -0.784   4.208  -1.127  1.00  0.00     0.049 A 
ATOM     44  N   UNL     1      -2.893   2.640  -2.217  1.00  0.00    -0.248 NA
ATOM     45  C   UNL     1      -1.888   2.252  -4.210  1.00  0.00     0.031 C 
ATOM     46  C   UNL     1      -1.567   3.587  -0.050  1.00  0.00     0.029 A 
ATOM     47  N   UNL     1       0.019   5.099  -0.403  1.00  0.00    -0.354 N 
ATOM     48  C   UNL     1      -3.562   1.594  -2.785  1.00  0.00     0.074 A 
ATOM     49  C   UNL     1      -2.926   1.421  -4.063  1.00  0.00     0.031 C 
ATOM     50  C   UNL     1      -1.221   4.058   1.155  1.00  0.00     0.029 A 
ATOM     51  C   UNL     1      -0.415   5.227   0.937  1.00  0.00     0.049 A 
ATOM     52  H   UNL     1       0.792   5.579  -0.781  1.00  0.00     0.167 HD
ATOM     53  C   UNL     1      -4.530   0.990  -2.042  1.00  0.00     0.034 A 
ATOM     54  C   UNL     1      -0.798   6.443   1.427  1.00  0.00     0.034 A 
ATOM     55  C   UNL     1      -4.886   1.827  -0.870  1.00  0.00     0.049 A 
ATOM     56  C   UNL     1      -2.299   6.651   1.222  1.00  0.00     0.074 A 
ATOM     57  C   UNL     1      -4.840   1.686   0.507  1.00  0.00     0.029 A 
ATOM     58  N   UNL     1      -5.151   3.187  -1.088  1.00  0.00    -0.354 N 
ATOM     59  N   UNL     1      -3.172   5.682   1.075  1.00  0.00    -0.248 NA
ATOM     60  C   UNL     1      -2.941   7.958   1.147  1.00  0.00     0.031 C 
ATOM     61  C   UNL     1      -4.942   2.995   1.089  1.00  0.00     0.029 A 
ATOM     62  C   UNL     1      -5.122   3.930   0.081  1.00  0.00     0.049 A 
ATOM     63  H   UNL     1      -5.338   3.571  -1.975  1.00  0.00     0.167 HD
ATOM     64  C   UNL     1      -4.361   6.183   0.613  1.00  0.00     0.074 A 
ATOM     65  C   UNL     1      -4.202   7.617   0.824  1.00  0.00     0.031 C 
ATOM     66  C   UNL     1      -5.325   5.390   0.030  1.00  0.00     0.034 A 
BRANCH  53  67
ATOM     67  C   UNL     1      -5.090  -0.397  -2.313  1.00  0.00     0.023 A 
ATOM     68  C   UNL     1      -6.114  -0.900  -1.482  1.00  0.00     0.031 A 
ATOM     69  C   UNL     1      -4.602  -1.316  -3.274  1.00  0.00     0.131 A 
ATOM     70  C   UNL     1      -6.596  -2.220  -1.623  1.00  0.00     0.055 A 
ATOM     71  C   UNL     1      -5.124  -2.606  -3.452  1.00  0.00     0.041 A 
ATOM     72  F   UNL     1      -3.549  -1.054  -4.055  1.00  0.00    -0.206 F 
ATOM     73  C   UNL     1      -6.123  -3.069  -2.619  1.00  0.00     0.022 A 
BRANCH  70  74
ATOM     74  S   UNL     1      -7.814  -2.853  -0.437  1.00  0.00     0.124 S 
ATOM     75  O   UNL     1      -7.067  -2.809   0.816  1.00  0.00    -0.237 OA
ATOM     76  O   UNL     1      -8.908  -1.899  -0.576  1.00  0.00    -0.237 OA
ATOM     77  O   UNL     1      -8.104  -4.198  -0.933  1.00  0.00    -0.744 OA
ENDBRANCH  70  74
ENDBRANCH  53  67
BRANCH  54  78
ATOM     78  C   UNL     1       0.334   7.401   1.272  1.00  0.00     0.023 A 
ATOM     79  C   UNL     1       1.454   7.179   2.122  1.00  0.00     0.031 A 
ATOM     80  C   UNL     1       0.552   8.030   0.039  1.00  0.00     0.131 A 
ATOM     81  C   UNL     1       2.755   7.392   1.645  1.00  0.00     0.055 A 
ATOM     82  C   UNL     1       1.849   8.251  -0.425  1.00  0.00     0.041 A 
ATOM     83  F   UNL     1      -0.468   8.258  -0.802  1.00  0.00    -0.206 F 
ATOM     84  C   UNL     1       2.951   7.896   0.360  1.00  0.00     0.022 A 
BRANCH  81  85
ATOM     85  S   UNL     1       4.212   6.806   2.585  1.00  0.00     0.124 S 
ATOM     86  O   UNL     1       4.724   8.055   3.144  1.00  0.00    -0.237 OA
ATOM     87  O   UNL     1       3.658   5.873   3.561  1.00  0.00    -0.237 OA
ATOM     88  O   UNL     1       5.080   6.199   1.573  1.00  0.00    -0.744 OA
ENDBRANCH  81  85
ENDBRANCH  54  78
BRANCH  66  89
ATOM     89  C   UNL     1      -6.598   5.927  -0.623  1.00  0.00     0.023 A 
ATOM     90  C   UNL     1      -6.799   7.279  -0.925  1.00  0.00     0.031 A 
ATOM     91  C   UNL     1      -7.684   5.076  -0.952  1.00  0.00     0.131 A 
ATOM     92  C   UNL     1      -8.055   7.762  -1.330  1.00  0.00     0.055 A 
ATOM     93  C   UNL     1      -8.890   5.541  -1.489  1.00  0.00     0.041 A 
ATOM     94  F   UNL     1      -7.638   3.751  -0.757  1.00  0.00    -0.206 F 
ATOM     95  C   UNL     1      -9.100   6.900  -1.638  1.00  0.00     0.022 A 
BRANCH  92  96
ATOM     96  S   UNL     1      -8.327   9.552  -1.267  1.00  0.00     0.124 S 
ATOM     97  O   UNL     1      -8.075   9.842   0.142  1.00  0.00    -0.237 OA
ATOM     98  O   UNL     1      -7.329  10.055  -2.205  1.00  0.00    -0.237 OA
ATOM     99  O   UNL     1      -9.717   9.704  -1.692  1.00  0.00    -0.744 OA
ENDBRANCH  92  96
ENDBRANCH  66  89
ENDBRANCH  40  41
ENDBRANCH  33  35
ENDBRANCH  32  33
ENDBRANCH  31  32
ENDBRANCH   1  31
TORSDOF 18
