REMARK SMILES C[C@@H](C(=O)OCCOC(=O)c1ccc(-c2c3nc(c(-c4cc(S(=O)(=O)[O-])ccc4F)c4ccc([nH]4)c(-c4cc(S(=O)(=O)[O-])ccc4F)c4nc(c(-c5cc(S(=O)(=O)[O-])ccc5F)c5ccc2[nH]5)C=C4)C=C3)cc1)c1ccc2c3cc(Cl)ccc3n(C(=O)c3ccc(Cl)cc3)c2c1
REMARK SMILES IDX 6 1 5 2 3 3 4 4 2 5 1 6 74 7 75 8 96 9 76 10 95 11 77 12
REMARK SMILES IDX 85 13 78 14 84 15 79 16 83 17 80 18 82 19 81 20 86 21 87 22
REMARK SMILES IDX 88 23 89 24 94 25 90 26 93 27 91 28 92 29 7 30 8 31 9 32
REMARK SMILES IDX 10 33 11 34 12 35 73 36 13 37 72 38 14 39 15 40 16 41 66 42
REMARK SMILES IDX 17 43 71 44 65 45 67 46 18 47 70 48 64 49 63 50 19 52 51 53
REMARK SMILES IDX 31 54 50 55 32 56 35 57 49 58 68 59 33 60 34 61 48 63 69 64
REMARK SMILES IDX 36 65 20 66 21 67 29 68 22 69 28 70 30 71 27 72 23 73 24 74
REMARK SMILES IDX 25 75 26 76 52 77 53 78 61 79 54 80 60 81 62 82 59 83 55 84
REMARK SMILES IDX 56 85 57 86 58 87 37 88 38 89 46 90 39 91 45 92 47 93 44 94
REMARK SMILES IDX 40 95 41 96 42 97 43 98
REMARK H PARENT 67 51 35 62
REMARK Flexibility Score: inf
ROOT
ATOM      1  C   UNL     1       2.663   0.970   3.475  1.00  0.00     0.274 C 
ENDROOT
BRANCH   1   2
ATOM      2  O   UNL     1       2.229   0.478   2.192  1.00  0.00    -0.462 OA
BRANCH   2   3
ATOM      3  C   UNL     1       1.211  -0.429   2.200  1.00  0.00     0.313 C 
ATOM      4  O   UNL     1       0.715  -0.881   3.226  1.00  0.00    -0.252 OA
BRANCH   3   5
ATOM      5  C   UNL     1       0.802  -0.872   0.787  1.00  0.00     0.126 C 
ATOM      6  C   UNL     1       1.563  -0.137  -0.322  1.00  0.00     0.025 C 
BRANCH   5   7
ATOM      7  C   UNL     1      -0.717  -0.866   0.601  1.00  0.00    -0.032 A 
ATOM      8  C   UNL     1      -1.398   0.134  -0.100  1.00  0.00     0.005 A 
ATOM      9  C   UNL     1      -1.466  -1.904   1.190  1.00  0.00     0.032 A 
ATOM     10  C   UNL     1      -2.796   0.114  -0.222  1.00  0.00     0.011 A 
ATOM     11  C   UNL     1      -2.875  -1.901   1.101  1.00  0.00     0.057 A 
ATOM     12  C   UNL     1      -3.549  -0.906   0.398  1.00  0.00     0.008 A 
ATOM     13  N   UNL     1      -3.829  -2.811   1.578  1.00  0.00    -0.276 N 
ATOM     14  C   UNL     1      -4.947  -1.143   0.548  1.00  0.00     0.009 A 
ATOM     15  C   UNL     1      -5.101  -2.275   1.357  1.00  0.00     0.057 A 
ATOM     16  C   UNL     1      -6.094  -0.444   0.113  1.00  0.00     0.031 A 
ATOM     17  C   UNL     1      -6.372  -2.659   1.831  1.00  0.00     0.029 A 
ATOM     18  C   UNL     1      -7.356  -0.860   0.540  1.00  0.00     0.041 A 
ATOM     19  C   UNL     1      -7.493  -1.939   1.403  1.00  0.00     0.023 A 
ATOM     20  Cl  UNL     1      -8.755  -0.018  -0.001  1.00  0.00    -0.084 Cl
BRANCH  13  21
ATOM     21  C   UNL     1      -3.507  -4.051   2.183  1.00  0.00     0.262 C 
ATOM     22  O   UNL     1      -2.467  -4.089   2.844  1.00  0.00    -0.268 OA
BRANCH  21  23
ATOM     23  C   UNL     1      -4.234  -5.346   2.011  1.00  0.00     0.040 A 
ATOM     24  C   UNL     1      -3.834  -6.429   2.816  1.00  0.00     0.015 A 
ATOM     25  C   UNL     1      -5.173  -5.574   0.998  1.00  0.00     0.015 A 
ATOM     26  C   UNL     1      -4.366  -7.706   2.622  1.00  0.00     0.021 A 
ATOM     27  C   UNL     1      -5.728  -6.849   0.823  1.00  0.00     0.021 A 
ATOM     28  C   UNL     1      -5.316  -7.910   1.626  1.00  0.00     0.041 A 
ATOM     29  Cl  UNL     1      -5.947  -9.488   1.359  1.00  0.00    -0.084 Cl
ENDBRANCH  21  23
ENDBRANCH  13  21
ENDBRANCH   5   7
ENDBRANCH   3   5
ENDBRANCH   2   3
ENDBRANCH   1   2
BRANCH   1  30
ATOM     30  C   UNL     1       2.147   2.388   3.696  1.00  0.00     0.275 C 
BRANCH  30  31
ATOM     31  O   UNL     1       0.714   2.362   3.796  1.00  0.00    -0.458 OA
BRANCH  31  32
ATOM     32  C   UNL     1       0.040   3.046   2.843  1.00  0.00     0.338 C 
ATOM     33  O   UNL     1       0.513   3.741   1.960  1.00  0.00    -0.246 OA
BRANCH  32  34
ATOM     34  C   UNL     1      -1.408   2.845   3.028  1.00  0.00     0.060 A 
ATOM     35  C   UNL     1      -1.931   1.557   3.085  1.00  0.00     0.016 A 
ATOM     36  C   UNL     1      -2.263   3.948   3.034  1.00  0.00     0.016 A 
ATOM     37  C   UNL     1      -3.313   1.372   3.050  1.00  0.00     0.010 A 
ATOM     38  C   UNL     1      -3.649   3.754   3.088  1.00  0.00     0.010 A 
ATOM     39  C   UNL     1      -4.197   2.460   3.045  1.00  0.00    -0.014 A 
BRANCH  39  40
ATOM     40  C   UNL     1      -5.673   2.247   2.912  1.00  0.00     0.031 A 
ATOM     41  C   UNL     1      -6.439   2.922   1.799  1.00  0.00     0.074 A 
ATOM     42  C   UNL     1      -6.337   1.419   3.745  1.00  0.00     0.049 A 
ATOM     43  N   UNL     1      -7.733   3.046   1.635  1.00  0.00    -0.248 NA
ATOM     44  C   UNL     1      -5.643   3.558   0.738  1.00  0.00     0.031 C 
ATOM     45  C   UNL     1      -5.734   0.644   4.832  1.00  0.00     0.029 A 
ATOM     46  N   UNL     1      -7.667   1.075   3.798  1.00  0.00    -0.354 N 
ATOM     47  C   UNL     1      -7.904   3.827   0.495  1.00  0.00     0.074 A 
ATOM     48  C   UNL     1      -6.578   4.154   0.013  1.00  0.00     0.031 C 
ATOM     49  C   UNL     1      -6.674  -0.127   5.398  1.00  0.00     0.029 A 
ATOM     50  C   UNL     1      -7.966   0.174   4.794  1.00  0.00     0.049 A 
ATOM     51  H   UNL     1      -8.342   1.439   3.181  1.00  0.00     0.167 HD
ATOM     52  C   UNL     1      -9.059   4.234  -0.093  1.00  0.00     0.034 A 
ATOM     53  C   UNL     1      -9.147  -0.323   5.213  1.00  0.00     0.034 A 
ATOM     54  C   UNL     1     -10.375   3.839   0.350  1.00  0.00     0.049 A 
ATOM     55  C   UNL     1     -10.415   0.151   4.557  1.00  0.00     0.074 A 
ATOM     56  C   UNL     1     -11.608   4.215  -0.158  1.00  0.00     0.029 A 
ATOM     57  N   UNL     1     -10.632   2.948   1.383  1.00  0.00    -0.354 N 
ATOM     58  N   UNL     1     -10.566   1.000   3.569  1.00  0.00    -0.248 NA
ATOM     59  C   UNL     1     -11.675  -0.384   5.092  1.00  0.00     0.031 C 
ATOM     60  C   UNL     1     -12.608   3.589   0.597  1.00  0.00     0.029 A 
ATOM     61  C   UNL     1     -12.000   2.775   1.537  1.00  0.00     0.049 A 
ATOM     62  H   UNL     1      -9.943   2.502   1.927  1.00  0.00     0.167 HD
ATOM     63  C   UNL     1     -11.938   1.107   3.369  1.00  0.00     0.074 A 
ATOM     64  C   UNL     1     -12.569   0.207   4.313  1.00  0.00     0.031 C 
ATOM     65  C   UNL     1     -12.617   1.892   2.495  1.00  0.00     0.034 A 
BRANCH  52  66
ATOM     66  C   UNL     1      -8.949   5.211  -1.240  1.00  0.00     0.023 A 
ATOM     67  C   UNL     1      -8.379   4.860  -2.475  1.00  0.00     0.031 A 
ATOM     68  C   UNL     1      -9.412   6.531  -1.079  1.00  0.00     0.131 A 
ATOM     69  C   UNL     1      -8.228   5.833  -3.476  1.00  0.00     0.055 A 
ATOM     70  C   UNL     1      -9.327   7.473  -2.106  1.00  0.00     0.041 A 
ATOM     71  F   UNL     1      -9.948   6.930   0.085  1.00  0.00    -0.206 F 
ATOM     72  C   UNL     1      -8.719   7.130  -3.309  1.00  0.00     0.022 A 
BRANCH  69  73
ATOM     73  S   UNL     1      -7.255   5.419  -4.950  1.00  0.00     0.124 S 
ATOM     74  O   UNL     1      -5.980   5.016  -4.361  1.00  0.00    -0.237 OA
ATOM     75  O   UNL     1      -8.042   4.353  -5.559  1.00  0.00    -0.237 OA
ATOM     76  O   UNL     1      -7.216   6.673  -5.700  1.00  0.00    -0.744 OA
ENDBRANCH  69  73
ENDBRANCH  52  66
BRANCH  53  77
ATOM     77  C   UNL     1      -9.196  -1.272   6.361  1.00  0.00     0.023 A 
ATOM     78  C   UNL     1      -9.637  -2.592   6.187  1.00  0.00     0.031 A 
ATOM     79  C   UNL     1      -8.828  -0.862   7.655  1.00  0.00     0.131 A 
ATOM     80  C   UNL     1      -9.723  -3.450   7.294  1.00  0.00     0.055 A 
ATOM     81  C   UNL     1      -8.865  -1.734   8.743  1.00  0.00     0.041 A 
ATOM     82  F   UNL     1      -8.402   0.392   7.875  1.00  0.00    -0.206 F 
ATOM     83  C   UNL     1      -9.324  -3.036   8.568  1.00  0.00     0.022 A 
BRANCH  80  84
ATOM     84  S   UNL     1     -10.418  -5.107   7.053  1.00  0.00     0.124 S 
ATOM     85  O   UNL     1     -11.763  -4.799   6.583  1.00  0.00    -0.237 OA
ATOM     86  O   UNL     1      -9.507  -5.675   6.064  1.00  0.00    -0.237 OA
ATOM     87  O   UNL     1     -10.342  -5.705   8.384  1.00  0.00    -0.744 OA
ENDBRANCH  80  84
ENDBRANCH  53  77
BRANCH  65  88
ATOM     88  C   UNL     1     -14.120   1.789   2.519  1.00  0.00     0.023 A 
ATOM     89  C   UNL     1     -14.871   2.277   3.603  1.00  0.00     0.031 A 
ATOM     90  C   UNL     1     -14.806   1.171   1.460  1.00  0.00     0.131 A 
ATOM     91  C   UNL     1     -16.261   2.093   3.629  1.00  0.00     0.055 A 
ATOM     92  C   UNL     1     -16.195   1.033   1.469  1.00  0.00     0.041 A 
ATOM     93  F   UNL     1     -14.137   0.686   0.403  1.00  0.00    -0.206 F 
ATOM     94  C   UNL     1     -16.929   1.484   2.563  1.00  0.00     0.022 A 
BRANCH  91  95
ATOM     95  S   UNL     1     -17.179   2.585   5.115  1.00  0.00     0.124 S 
ATOM     96  O   UNL     1     -16.538   1.780   6.149  1.00  0.00    -0.237 OA
ATOM     97  O   UNL     1     -16.928   4.021   5.176  1.00  0.00    -0.237 OA
ATOM     98  O   UNL     1     -18.558   2.211   4.805  1.00  0.00    -0.744 OA
ENDBRANCH  91  95
ENDBRANCH  65  88
ENDBRANCH  39  40
ENDBRANCH  32  34
ENDBRANCH  31  32
ENDBRANCH  30  31
ENDBRANCH   1  30
TORSDOF 17
