REMARK SMILES CCC(=O)N1[C@H](C(=O)OCCOC(=O)c2ccc(-c3c4nc(c(-c5cc(S(=O)(=O)[O-])ccc5F)c5ccc([nH]5)c(-c5cc(S(=O)(=O)[O-])ccc5F)c5nc(c(-c6cc(S(=O)(=O)[O-])ccc6F)c6ccc3[nH]6)C=C5)C=C4)cc2)Cc2c([nH]c3ccccc23)[C@@H]1CC(C)C
REMARK SMILES IDX 11 1 10 2 9 3 7 4 8 5 6 6 5 7 88 8 78 9 80 10 79 11 81 12
REMARK SMILES IDX 87 13 82 14 86 16 83 17 85 18 84 19 3 20 4 21 2 22 1 23
REMARK SMILES IDX 89 24 90 25 91 26 92 27 12 28 13 29 14 30 15 31 16 32 77 33
REMARK SMILES IDX 17 34 76 35 18 36 19 37 20 38 70 39 21 40 75 41 69 42 71 43
REMARK SMILES IDX 22 44 74 45 68 46 67 47 23 49 55 50 35 51 54 52 36 53 39 54
REMARK SMILES IDX 53 55 72 56 37 57 38 58 52 60 73 61 40 62 24 63 25 64 33 65
REMARK SMILES IDX 26 66 32 67 34 68 31 69 27 70 28 71 29 72 30 73 56 74 57 75
REMARK SMILES IDX 65 76 58 77 64 78 66 79 63 80 59 81 60 82 61 83 62 84 41 85
REMARK SMILES IDX 42 86 50 87 43 88 49 89 51 90 48 91 44 92 45 93 46 94 47 95
REMARK H PARENT 81 15 71 48 39 59
REMARK Flexibility Score: inf
ROOT
ATOM      1  C   UNL     1       5.231  -0.663  -3.561  1.00  0.00     0.275 C 
ENDROOT
BRANCH   1   2
ATOM      2  C   UNL     1       5.819  -1.509  -2.437  1.00  0.00     0.274 C 
BRANCH   2   3
ATOM      3  O   UNL     1       4.769  -2.018  -1.594  1.00  0.00    -0.461 OA
BRANCH   3   4
ATOM      4  C   UNL     1       4.641  -1.433  -0.379  1.00  0.00     0.329 C 
ATOM      5  O   UNL     1       5.340  -0.500   0.011  1.00  0.00    -0.250 OA
BRANCH   4   6
ATOM      6  C   UNL     1       3.553  -2.060   0.514  1.00  0.00     0.200 C 
ATOM      7  N   UNL     1       2.621  -3.100  -0.030  1.00  0.00    -0.320 N 
ATOM      8  C   UNL     1       3.140  -4.443  -0.390  1.00  0.00     0.133 C 
ATOM      9  C   UNL     1       4.290  -2.614   1.757  1.00  0.00     0.075 C 
ATOM     10  C   UNL     1       4.410  -4.688   0.379  1.00  0.00     0.042 A 
ATOM     11  C   UNL     1       4.957  -3.884   1.360  1.00  0.00    -0.015 A 
ATOM     12  N   UNL     1       5.221  -5.782   0.243  1.00  0.00    -0.356 N 
ATOM     13  C   UNL     1       6.187  -4.455   1.766  1.00  0.00     0.003 A 
ATOM     14  C   UNL     1       6.332  -5.646   1.050  1.00  0.00     0.046 A 
ATOM     15  H   UNL     1       5.038  -6.553  -0.342  1.00  0.00     0.166 HD
ATOM     16  C   UNL     1       7.203  -4.070   2.661  1.00  0.00     0.010 A 
ATOM     17  C   UNL     1       7.448  -6.478   1.197  1.00  0.00     0.026 A 
ATOM     18  C   UNL     1       8.329  -4.886   2.811  1.00  0.00     0.001 A 
ATOM     19  C   UNL     1       8.446  -6.073   2.090  1.00  0.00     0.002 A 
BRANCH   7  20
ATOM     20  C   UNL     1       1.241  -2.953   0.021  1.00  0.00     0.223 C 
ATOM     21  O   UNL     1       0.492  -3.885   0.310  1.00  0.00    -0.275 OA
BRANCH  20  22
ATOM     22  C   UNL     1       0.669  -1.622  -0.419  1.00  0.00     0.097 C 
ATOM     23  C   UNL     1       0.147  -0.778   0.725  1.00  0.00     0.014 C 
ENDBRANCH  20  22
ENDBRANCH   7  20
BRANCH   8  24
ATOM     24  C   UNL     1       3.324  -4.526  -1.927  1.00  0.00     0.034 C 
BRANCH  24  25
ATOM     25  C   UNL     1       2.493  -5.613  -2.641  1.00  0.00    -0.015 C 
ATOM     26  C   UNL     1       0.986  -5.396  -2.500  1.00  0.00     0.007 C 
ATOM     27  C   UNL     1       2.853  -5.623  -4.131  1.00  0.00     0.007 C 
ENDBRANCH  24  25
ENDBRANCH   8  24
ENDBRANCH   4   6
ENDBRANCH   3   4
ENDBRANCH   2   3
ENDBRANCH   1   2
BRANCH   1  28
ATOM     28  O   UNL     1       4.481   0.427  -3.000  1.00  0.00    -0.458 OA
BRANCH  28  29
ATOM     29  C   UNL     1       3.142   0.366  -3.188  1.00  0.00     0.338 C 
ATOM     30  O   UNL     1       2.521  -0.450  -3.844  1.00  0.00    -0.246 OA
BRANCH  29  31
ATOM     31  C   UNL     1       2.494   1.452  -2.435  1.00  0.00     0.060 A 
ATOM     32  C   UNL     1       2.549   1.454  -1.042  1.00  0.00     0.016 A 
ATOM     33  C   UNL     1       1.719   2.393  -3.109  1.00  0.00     0.016 A 
ATOM     34  C   UNL     1       1.764   2.343  -0.315  1.00  0.00     0.010 A 
ATOM     35  C   UNL     1       1.006   3.348  -2.377  1.00  0.00     0.010 A 
ATOM     36  C   UNL     1       0.993   3.313  -0.971  1.00  0.00    -0.014 A 
BRANCH  36  37
ATOM     37  C   UNL     1       0.155   4.262  -0.185  1.00  0.00     0.031 A 
ATOM     38  C   UNL     1      -1.337   4.309  -0.394  1.00  0.00     0.074 A 
ATOM     39  C   UNL     1       0.727   5.073   0.728  1.00  0.00     0.049 A 
ATOM     40  N   UNL     1      -2.209   5.175   0.056  1.00  0.00    -0.248 NA
ATOM     41  C   UNL     1      -1.919   3.253  -1.235  1.00  0.00     0.031 C 
ATOM     42  C   UNL     1       2.155   5.105   1.057  1.00  0.00     0.029 A 
ATOM     43  N   UNL     1       0.179   6.024   1.553  1.00  0.00    -0.354 N 
ATOM     44  C   UNL     1      -3.432   4.807  -0.497  1.00  0.00     0.074 A 
ATOM     45  C   UNL     1      -3.185   3.638  -1.315  1.00  0.00     0.031 C 
ATOM     46  C   UNL     1       2.361   5.994   2.039  1.00  0.00     0.029 A 
ATOM     47  C   UNL     1       1.103   6.663   2.347  1.00  0.00     0.049 A 
ATOM     48  H   UNL     1      -0.783   6.228   1.574  1.00  0.00     0.167 HD
ATOM     49  C   UNL     1      -4.644   5.396  -0.339  1.00  0.00     0.034 A 
ATOM     50  C   UNL     1       0.968   7.702   3.193  1.00  0.00     0.034 A 
ATOM     51  C   UNL     1      -4.883   6.530   0.523  1.00  0.00     0.049 A 
ATOM     52  C   UNL     1      -0.386   8.341   3.348  1.00  0.00     0.074 A 
ATOM     53  C   UNL     1      -6.075   7.189   0.774  1.00  0.00     0.029 A 
ATOM     54  N   UNL     1      -3.913   7.167   1.287  1.00  0.00    -0.354 N 
ATOM     55  N   UNL     1      -1.517   8.029   2.760  1.00  0.00    -0.248 NA
ATOM     56  C   UNL     1      -0.474   9.480   4.269  1.00  0.00     0.031 C 
ATOM     57  C   UNL     1      -5.817   8.253   1.646  1.00  0.00     0.029 A 
ATOM     58  C   UNL     1      -4.476   8.222   1.992  1.00  0.00     0.049 A 
ATOM     59  H   UNL     1      -2.964   6.908   1.324  1.00  0.00     0.167 HD
ATOM     60  C   UNL     1      -2.452   8.943   3.234  1.00  0.00     0.074 A 
ATOM     61  C   UNL     1      -1.760   9.789   4.186  1.00  0.00     0.031 C 
ATOM     62  C   UNL     1      -3.762   9.081   2.905  1.00  0.00     0.034 A 
BRANCH  49  63
ATOM     63  C   UNL     1      -5.790   4.867  -1.168  1.00  0.00     0.023 A 
ATOM     64  C   UNL     1      -6.327   3.583  -0.977  1.00  0.00     0.031 A 
ATOM     65  C   UNL     1      -6.342   5.667  -2.186  1.00  0.00     0.131 A 
ATOM     66  C   UNL     1      -7.342   3.115  -1.828  1.00  0.00     0.055 A 
ATOM     67  C   UNL     1      -7.399   5.223  -2.983  1.00  0.00     0.041 A 
ATOM     68  F   UNL     1      -5.856   6.894  -2.429  1.00  0.00    -0.206 F 
ATOM     69  C   UNL     1      -7.897   3.935  -2.814  1.00  0.00     0.022 A 
BRANCH  66  70
ATOM     70  S   UNL     1      -7.846   1.377  -1.710  1.00  0.00     0.124 S 
ATOM     71  O   UNL     1      -6.589   0.686  -1.986  1.00  0.00    -0.237 OA
ATOM     72  O   UNL     1      -8.340   1.284  -0.341  1.00  0.00    -0.237 OA
ATOM     73  O   UNL     1      -8.864   1.243  -2.751  1.00  0.00    -0.744 OA
ENDBRANCH  66  70
ENDBRANCH  49  63
BRANCH  50  74
ATOM     74  C   UNL     1       2.158   8.255   3.900  1.00  0.00     0.023 A 
ATOM     75  C   UNL     1       2.271   8.185   5.297  1.00  0.00     0.031 A 
ATOM     76  C   UNL     1       3.191   8.885   3.183  1.00  0.00     0.131 A 
ATOM     77  C   UNL     1       3.379   8.762   5.936  1.00  0.00     0.055 A 
ATOM     78  C   UNL     1       4.315   9.412   3.818  1.00  0.00     0.041 A 
ATOM     79  F   UNL     1       3.130   8.977   1.844  1.00  0.00    -0.206 F 
ATOM     80  C   UNL     1       4.409   9.361   5.205  1.00  0.00     0.022 A 
BRANCH  77  81
ATOM     81  S   UNL     1       3.429   8.774   7.749  1.00  0.00     0.124 S 
ATOM     82  O   UNL     1       2.212   9.509   8.076  1.00  0.00    -0.237 OA
ATOM     83  O   UNL     1       3.421   7.349   8.062  1.00  0.00    -0.237 OA
ATOM     84  O   UNL     1       4.679   9.469   8.050  1.00  0.00    -0.744 OA
ENDBRANCH  77  81
ENDBRANCH  50  74
BRANCH  62  85
ATOM     85  C   UNL     1      -4.512  10.190   3.597  1.00  0.00     0.023 A 
ATOM     86  C   UNL     1      -4.224  11.541   3.332  1.00  0.00     0.031 A 
ATOM     87  C   UNL     1      -5.483   9.896   4.569  1.00  0.00     0.131 A 
ATOM     88  C   UNL     1      -4.854  12.548   4.077  1.00  0.00     0.055 A 
ATOM     89  C   UNL     1      -6.147  10.904   5.269  1.00  0.00     0.041 A 
ATOM     90  F   UNL     1      -5.793   8.623   4.862  1.00  0.00    -0.206 F 
ATOM     91  C   UNL     1      -5.822  12.238   5.036  1.00  0.00     0.022 A 
BRANCH  88  92
ATOM     92  S   UNL     1      -4.311  14.264   3.854  1.00  0.00     0.124 S 
ATOM     93  O   UNL     1      -2.882  14.171   4.141  1.00  0.00    -0.237 OA
ATOM     94  O   UNL     1      -4.667  14.525   2.463  1.00  0.00    -0.237 OA
ATOM     95  O   UNL     1      -5.094  15.003   4.843  1.00  0.00    -0.744 OA
ENDBRANCH  88  92
ENDBRANCH  62  85
ENDBRANCH  36  37
ENDBRANCH  29  31
ENDBRANCH  28  29
ENDBRANCH   1  28
TORSDOF 18
