REMARK SMILES CCOc1ccc(-c2ccc(C(=O)OCCOC(=O)c3ccc(-c4c5nc(c(-c6cc(S(=O)(=O)[O-])ccc6F)c6ccc([nH]6)c(-c6cc(S(=O)(=O)[O-])ccc6F)c6nc(c(-c7cc(S(=O)(=O)[O-])ccc7F)c7ccc4[nH]7)C=C6)C=C5)cc3)cn2)c(C)c1
REMARK SMILES IDX 15 1 14 2 12 3 13 4 11 5 8 6 9 7 84 8 10 9 83 10 7 11 4 12
REMARK SMILES IDX 5 13 87 14 6 15 85 16 86 17 3 18 2 19 1 20 16 21 17 22 18 23
REMARK SMILES IDX 19 24 20 25 21 26 82 27 22 28 81 29 23 30 24 31 25 32 75 33
REMARK SMILES IDX 26 34 80 35 74 36 76 37 27 38 79 39 73 40 72 41 28 43 60 44
REMARK SMILES IDX 40 45 59 46 41 47 44 48 58 49 77 50 42 51 43 52 57 54 78 55
REMARK SMILES IDX 45 56 29 57 30 58 38 59 31 60 37 61 39 62 36 63 32 64 33 65
REMARK SMILES IDX 34 66 35 67 61 68 62 69 70 70 63 71 69 72 71 73 68 74 64 75
REMARK SMILES IDX 65 76 66 77 67 78 46 79 47 80 55 81 48 82 54 83 56 84 53 85
REMARK SMILES IDX 49 86 50 87 51 88 52 89
REMARK H PARENT 76 42 44 53
REMARK Flexibility Score: inf
ROOT
ATOM      1  C   UNL     1      12.620  -3.195  -0.162  1.00  0.00     0.275 C 
ENDROOT
BRANCH   1   2
ATOM      2  O   UNL     1      11.251  -2.780  -0.076  1.00  0.00    -0.458 OA
BRANCH   2   3
ATOM      3  C   UNL     1      10.394  -3.823  -0.146  1.00  0.00     0.339 C 
ATOM      4  O   UNL     1      10.695  -4.978  -0.411  1.00  0.00    -0.246 OA
BRANCH   3   5
ATOM      5  C   UNL     1       8.995  -3.429   0.086  1.00  0.00     0.078 A 
ATOM      6  C   UNL     1       6.350  -3.000   0.747  1.00  0.00     0.070 A 
ATOM      7  C   UNL     1       6.679  -3.991  -0.177  1.00  0.00     0.030 A 
ATOM      8  N   UNL     1       7.290  -2.158   1.245  1.00  0.00    -0.255 NA
ATOM      9  C   UNL     1       8.011  -4.228  -0.484  1.00  0.00     0.019 A 
ATOM     10  C   UNL     1       8.588  -2.382   0.897  1.00  0.00     0.127 A 
BRANCH   6  11
ATOM     11  C   UNL     1       4.945  -2.768   1.138  1.00  0.00     0.003 A 
ATOM     12  C   UNL     1       2.195  -2.215   1.293  1.00  0.00     0.119 A 
ATOM     13  C   UNL     1       3.110  -1.172   1.316  1.00  0.00     0.047 A 
ATOM     14  C   UNL     1       2.637  -3.530   1.385  1.00  0.00     0.050 A 
ATOM     15  C   UNL     1       4.471  -1.446   1.210  1.00  0.00     0.014 A 
ATOM     16  C   UNL     1       4.015  -3.816   1.366  1.00  0.00    -0.038 A 
ATOM     17  C   UNL     1       4.438  -5.248   1.590  1.00  0.00     0.045 C 
BRANCH  12  18
ATOM     18  O   UNL     1       0.852  -1.966   1.245  1.00  0.00    -0.494 OA
BRANCH  18  19
ATOM     19  C   UNL     1       0.444  -1.511  -0.057  1.00  0.00     0.226 C 
ATOM     20  C   UNL     1       0.532   0.003  -0.185  1.00  0.00     0.049 C 
ENDBRANCH  18  19
ENDBRANCH  12  18
ENDBRANCH   6  11
ENDBRANCH   3   5
ENDBRANCH   2   3
ENDBRANCH   1   2
BRANCH   1  21
ATOM     21  C   UNL     1      13.589  -2.111   0.325  1.00  0.00     0.275 C 
BRANCH  21  22
ATOM     22  O   UNL     1      13.052  -1.053   1.172  1.00  0.00    -0.458 OA
BRANCH  22  23
ATOM     23  C   UNL     1      12.150  -1.153   2.188  1.00  0.00     0.338 C 
ATOM     24  O   UNL     1      11.346  -0.248   2.411  1.00  0.00    -0.246 OA
BRANCH  23  25
ATOM     25  C   UNL     1      12.010  -2.455   2.868  1.00  0.00     0.060 A 
ATOM     26  C   UNL     1      10.754  -2.859   3.360  1.00  0.00     0.016 A 
ATOM     27  C   UNL     1      13.082  -3.330   2.881  1.00  0.00     0.016 A 
ATOM     28  C   UNL     1      10.544  -4.178   3.739  1.00  0.00     0.010 A 
ATOM     29  C   UNL     1      12.832  -4.664   3.041  1.00  0.00     0.010 A 
ATOM     30  C   UNL     1      11.591  -5.072   3.543  1.00  0.00    -0.014 A 
BRANCH  30  31
ATOM     31  C   UNL     1      11.626  -6.413   4.095  1.00  0.00     0.031 A 
ATOM     32  C   UNL     1      10.810  -7.484   3.521  1.00  0.00     0.074 A 
ATOM     33  C   UNL     1      12.543  -6.529   5.082  1.00  0.00     0.049 A 
ATOM     34  N   UNL     1      10.403  -8.514   4.170  1.00  0.00    -0.248 NA
ATOM     35  C   UNL     1      10.309  -7.454   2.148  1.00  0.00     0.031 C 
ATOM     36  C   UNL     1      13.120  -7.668   5.763  1.00  0.00     0.029 A 
ATOM     37  N   UNL     1      13.041  -5.443   5.801  1.00  0.00    -0.354 N 
ATOM     38  C   UNL     1       9.978  -9.437   3.234  1.00  0.00     0.074 A 
ATOM     39  C   UNL     1       9.747  -8.665   2.041  1.00  0.00     0.031 C 
ATOM     40  C   UNL     1      13.619  -7.245   6.947  1.00  0.00     0.029 A 
ATOM     41  C   UNL     1      13.255  -5.840   7.109  1.00  0.00     0.049 A 
ATOM     42  H   UNL     1      13.212  -4.543   5.439  1.00  0.00     0.167 HD
ATOM     43  C   UNL     1      10.107 -10.762   3.536  1.00  0.00     0.034 A 
ATOM     44  C   UNL     1      12.396  -5.316   8.037  1.00  0.00     0.034 A 
ATOM     45  C   UNL     1      10.621 -10.893   4.904  1.00  0.00     0.049 A 
ATOM     46  C   UNL     1      11.474  -6.403   8.542  1.00  0.00     0.074 A 
ATOM     47  C   UNL     1      11.902 -11.093   5.393  1.00  0.00     0.029 A 
ATOM     48  N   UNL     1       9.864 -10.408   5.963  1.00  0.00    -0.354 N 
ATOM     49  N   UNL     1      11.107  -7.449   7.846  1.00  0.00    -0.248 NA
ATOM     50  C   UNL     1      11.006  -6.445   9.918  1.00  0.00     0.031 C 
ATOM     51  C   UNL     1      11.933 -10.601   6.729  1.00  0.00     0.029 A 
ATOM     52  C   UNL     1      10.671 -10.127   7.051  1.00  0.00     0.049 A 
ATOM     53  H   UNL     1       8.888 -10.281   5.942  1.00  0.00     0.167 HD
ATOM     54  C   UNL     1      10.478  -8.345   8.671  1.00  0.00     0.074 A 
ATOM     55  C   UNL     1      10.427  -7.656   9.955  1.00  0.00     0.031 C 
ATOM     56  C   UNL     1      10.082  -9.594   8.270  1.00  0.00     0.034 A 
BRANCH  43  57
ATOM     57  C   UNL     1      10.118 -11.927   2.559  1.00  0.00     0.023 A 
ATOM     58  C   UNL     1      10.685 -13.152   2.986  1.00  0.00     0.031 A 
ATOM     59  C   UNL     1       9.661 -11.921   1.227  1.00  0.00     0.131 A 
ATOM     60  C   UNL     1      10.841 -14.248   2.116  1.00  0.00     0.055 A 
ATOM     61  C   UNL     1       9.828 -13.009   0.353  1.00  0.00     0.041 A 
ATOM     62  F   UNL     1       9.000 -10.886   0.701  1.00  0.00    -0.206 F 
ATOM     63  C   UNL     1      10.427 -14.178   0.792  1.00  0.00     0.022 A 
BRANCH  60  64
ATOM     64  S   UNL     1      11.606 -15.769   2.743  1.00  0.00     0.124 S 
ATOM     65  O   UNL     1      12.951 -15.318   3.085  1.00  0.00    -0.237 OA
ATOM     66  O   UNL     1      10.735 -16.119   3.859  1.00  0.00    -0.237 OA
ATOM     67  O   UNL     1      11.535 -16.679   1.600  1.00  0.00    -0.744 OA
ENDBRANCH  60  64
ENDBRANCH  43  57
BRANCH  44  68
ATOM     68  C   UNL     1      12.031  -3.873   7.768  1.00  0.00     0.023 A 
ATOM     69  C   UNL     1      13.096  -2.984   7.473  1.00  0.00     0.031 A 
ATOM     70  C   UNL     1      10.739  -3.432   7.450  1.00  0.00     0.131 A 
ATOM     71  C   UNL     1      12.886  -1.821   6.714  1.00  0.00     0.055 A 
ATOM     72  C   UNL     1      10.521  -2.210   6.784  1.00  0.00     0.041 A 
ATOM     73  F   UNL     1       9.672  -4.209   7.686  1.00  0.00    -0.206 F 
ATOM     74  C   UNL     1      11.598  -1.419   6.372  1.00  0.00     0.022 A 
BRANCH  71  75
ATOM     75  S   UNL     1      14.336  -1.057   5.918  1.00  0.00     0.124 S 
ATOM     76  O   UNL     1      14.924  -0.293   7.012  1.00  0.00    -0.237 OA
ATOM     77  O   UNL     1      15.097  -2.224   5.471  1.00  0.00    -0.237 OA
ATOM     78  O   UNL     1      13.766  -0.268   4.830  1.00  0.00    -0.744 OA
ENDBRANCH  71  75
ENDBRANCH  44  68
BRANCH  56  79
ATOM     79  C   UNL     1       9.146 -10.492   9.043  1.00  0.00     0.023 A 
ATOM     80  C   UNL     1       8.354 -10.022  10.092  1.00  0.00     0.031 A 
ATOM     81  C   UNL     1       8.945 -11.849   8.684  1.00  0.00     0.131 A 
ATOM     82  C   UNL     1       7.525 -10.887  10.818  1.00  0.00     0.055 A 
ATOM     83  C   UNL     1       8.017 -12.675   9.320  1.00  0.00     0.041 A 
ATOM     84  F   UNL     1       9.630 -12.436   7.692  1.00  0.00    -0.206 F 
ATOM     85  C   UNL     1       7.318 -12.203  10.418  1.00  0.00     0.022 A 
BRANCH  82  86
ATOM     86  S   UNL     1       6.836 -10.267  12.368  1.00  0.00     0.124 S 
ATOM     87  O   UNL     1       8.046  -9.999  13.142  1.00  0.00    -0.237 OA
ATOM     88  O   UNL     1       6.092  -9.089  11.934  1.00  0.00    -0.237 OA
ATOM     89  O   UNL     1       6.022 -11.379  12.851  1.00  0.00    -0.744 OA
ENDBRANCH  82  86
ENDBRANCH  56  79
ENDBRANCH  30  31
ENDBRANCH  23  25
ENDBRANCH  22  23
ENDBRANCH  21  22
ENDBRANCH   1  21
TORSDOF 17
