REMARK SMILES CC(=O)Oc1ccccc1C(=O)OCCOC(=O)c1ccc(-c2c3nc(c(-c4cc(S(=O)(=O)[O-])ccc4F)c4ccc([nH]4)c(-c4cc(S(=O)(=O)[O-])ccc4F)c4nc(c(-c5cc(S(=O)(=O)[O-])ccc5F)c5ccc2[nH]5)C=C4)C=C3)cc1
REMARK SMILES IDX 15 1 14 2 13 3 11 4 12 5 10 6 5 7 6 8 7 9 9 10 8 11 4 12
REMARK SMILES IDX 2 13 1 14 3 15 16 16 17 17 18 18 19 19 20 20 81 21 21 22
REMARK SMILES IDX 80 23 22 24 23 25 24 26 74 27 25 28 79 29 73 30 75 31 26 32
REMARK SMILES IDX 78 33 72 34 71 35 27 37 59 38 39 39 58 40 40 41 43 42 57 43
REMARK SMILES IDX 76 44 41 45 42 46 56 48 77 49 44 50 28 51 29 52 37 53 30 54
REMARK SMILES IDX 36 55 38 56 35 57 31 58 32 59 33 60 34 61 60 62 61 63 69 64
REMARK SMILES IDX 62 65 68 66 70 67 67 68 63 69 64 70 65 71 66 72 45 73 46 74
REMARK SMILES IDX 54 75 47 76 53 77 55 78 52 79 48 80 49 81 50 82 51 83
REMARK H PARENT 75 36 43 47
REMARK Flexibility Score: inf
ROOT
ATOM      1  C   UNL     1      -3.346  -0.624   0.365  1.00  0.00     0.275 C 
ENDROOT
BRANCH   1   2
ATOM      2  C   UNL     1      -2.101   0.206   0.669  1.00  0.00     0.275 C 
BRANCH   2   3
ATOM      3  O   UNL     1      -1.241  -0.452   1.622  1.00  0.00    -0.458 OA
BRANCH   3   4
ATOM      4  C   UNL     1      -1.193   0.102   2.865  1.00  0.00     0.342 C 
ATOM      5  O   UNL     1      -1.871   1.028   3.259  1.00  0.00    -0.246 OA
BRANCH   4   6
ATOM      6  C   UNL     1      -0.234  -0.626   3.740  1.00  0.00     0.102 A 
ATOM      7  C   UNL     1       0.990  -1.144   3.301  1.00  0.00     0.145 A 
ATOM      8  C   UNL     1       1.835  -1.827   4.184  1.00  0.00     0.048 A 
ATOM      9  C   UNL     1       1.461  -1.994   5.519  1.00  0.00     0.004 A 
ATOM     10  C   UNL     1      -0.574  -0.767   5.096  1.00  0.00     0.019 A 
ATOM     11  C   UNL     1       0.255  -1.469   5.973  1.00  0.00     0.001 A 
BRANCH   7  12
ATOM     12  O   UNL     1       1.407  -1.100   1.962  1.00  0.00    -0.426 OA
BRANCH  12  13
ATOM     13  C   UNL     1       1.584   0.169   1.426  1.00  0.00     0.308 C 
ATOM     14  C   UNL     1       1.736   0.052  -0.061  1.00  0.00     0.139 C 
ATOM     15  O   UNL     1       1.625   1.225   2.042  1.00  0.00    -0.252 OA
ENDBRANCH  12  13
ENDBRANCH   7  12
ENDBRANCH   4   6
ENDBRANCH   3   4
ENDBRANCH   2   3
ENDBRANCH   1   2
BRANCH   1  16
ATOM     16  O   UNL     1      -4.204  -0.674   1.516  1.00  0.00    -0.458 OA
BRANCH  16  17
ATOM     17  C   UNL     1      -4.170  -1.837   2.203  1.00  0.00     0.338 C 
ATOM     18  O   UNL     1      -3.568  -2.857   1.910  1.00  0.00    -0.246 OA
BRANCH  17  19
ATOM     19  C   UNL     1      -4.914  -1.680   3.458  1.00  0.00     0.060 A 
ATOM     20  C   UNL     1      -4.253  -1.097   4.535  1.00  0.00     0.016 A 
ATOM     21  C   UNL     1      -6.182  -2.227   3.624  1.00  0.00     0.016 A 
ATOM     22  C   UNL     1      -4.809  -1.137   5.807  1.00  0.00     0.010 A 
ATOM     23  C   UNL     1      -6.782  -2.184   4.889  1.00  0.00     0.010 A 
ATOM     24  C   UNL     1      -6.087  -1.673   6.004  1.00  0.00    -0.014 A 
BRANCH  24  25
ATOM     25  C   UNL     1      -6.661  -1.759   7.377  1.00  0.00     0.031 A 
ATOM     26  C   UNL     1      -7.050  -3.102   7.941  1.00  0.00     0.074 A 
ATOM     27  C   UNL     1      -6.814  -0.650   8.129  1.00  0.00     0.049 A 
ATOM     28  N   UNL     1      -7.747  -3.385   9.011  1.00  0.00    -0.248 NA
ATOM     29  C   UNL     1      -6.610  -4.283   7.183  1.00  0.00     0.031 C 
ATOM     30  C   UNL     1      -6.413   0.703   7.736  1.00  0.00     0.029 A 
ATOM     31  N   UNL     1      -7.342  -0.482   9.386  1.00  0.00    -0.354 N 
ATOM     32  C   UNL     1      -7.883  -4.770   9.023  1.00  0.00     0.074 A 
ATOM     33  C   UNL     1      -7.204  -5.266   7.844  1.00  0.00     0.031 C 
ATOM     34  C   UNL     1      -6.678   1.552   8.740  1.00  0.00     0.029 A 
ATOM     35  C   UNL     1      -7.363   0.829   9.805  1.00  0.00     0.049 A 
ATOM     36  H   UNL     1      -7.673  -1.229   9.936  1.00  0.00     0.167 HD
ATOM     37  C   UNL     1      -8.518  -5.550   9.934  1.00  0.00     0.034 A 
ATOM     38  C   UNL     1      -7.922   1.399  10.892  1.00  0.00     0.034 A 
ATOM     39  C   UNL     1      -9.147  -5.034  11.127  1.00  0.00     0.049 A 
ATOM     40  C   UNL     1      -8.670   0.521  11.861  1.00  0.00     0.074 A 
ATOM     41  C   UNL     1      -9.810  -5.729  12.124  1.00  0.00     0.029 A 
ATOM     42  N   UNL     1      -9.183  -3.693  11.492  1.00  0.00    -0.354 N 
ATOM     43  N   UNL     1      -8.859  -0.778  11.822  1.00  0.00    -0.248 NA
ATOM     44  C   UNL     1      -9.291   1.188  13.011  1.00  0.00     0.031 C 
ATOM     45  C   UNL     1     -10.299  -4.806  13.055  1.00  0.00     0.029 A 
ATOM     46  C   UNL     1      -9.877  -3.539  12.683  1.00  0.00     0.049 A 
ATOM     47  H   UNL     1      -8.775  -2.958  10.979  1.00  0.00     0.167 HD
ATOM     48  C   UNL     1      -9.608  -1.085  12.955  1.00  0.00     0.074 A 
ATOM     49  C   UNL     1      -9.814   0.162  13.665  1.00  0.00     0.031 C 
ATOM     50  C   UNL     1     -10.083  -2.286  13.370  1.00  0.00     0.034 A 
BRANCH  37  51
ATOM     51  C   UNL     1      -8.623  -7.029   9.635  1.00  0.00     0.023 A 
ATOM     52  C   UNL     1      -7.494  -7.862   9.553  1.00  0.00     0.031 A 
ATOM     53  C   UNL     1      -9.884  -7.607   9.395  1.00  0.00     0.131 A 
ATOM     54  C   UNL     1      -7.641  -9.205   9.166  1.00  0.00     0.055 A 
ATOM     55  C   UNL     1     -10.030  -8.963   9.092  1.00  0.00     0.041 A 
ATOM     56  F   UNL     1     -10.998  -6.860   9.436  1.00  0.00    -0.206 F 
ATOM     57  C   UNL     1      -8.903  -9.767   8.960  1.00  0.00     0.022 A 
BRANCH  54  58
ATOM     58  S   UNL     1      -6.150 -10.169   8.792  1.00  0.00     0.124 S 
ATOM     59  O   UNL     1      -5.544  -9.374   7.727  1.00  0.00    -0.237 OA
ATOM     60  O   UNL     1      -5.446 -10.169  10.069  1.00  0.00    -0.237 OA
ATOM     61  O   UNL     1      -6.677 -11.465   8.369  1.00  0.00    -0.744 OA
ENDBRANCH  54  58
ENDBRANCH  37  51
BRANCH  38  62
ATOM     62  C   UNL     1      -7.866   2.878  11.082  1.00  0.00     0.023 A 
ATOM     63  C   UNL     1      -7.220   3.445  12.191  1.00  0.00     0.031 A 
ATOM     64  C   UNL     1      -8.494   3.749  10.172  1.00  0.00     0.131 A 
ATOM     65  C   UNL     1      -7.245   4.836  12.381  1.00  0.00     0.055 A 
ATOM     66  C   UNL     1      -8.464   5.135  10.332  1.00  0.00     0.041 A 
ATOM     67  F   UNL     1      -9.135   3.262   9.097  1.00  0.00    -0.206 F 
ATOM     68  C   UNL     1      -7.847   5.686  11.449  1.00  0.00     0.022 A 
BRANCH  65  69
ATOM     69  S   UNL     1      -6.554   5.518  13.913  1.00  0.00     0.124 S 
ATOM     70  O   UNL     1      -7.340   4.825  14.928  1.00  0.00    -0.237 OA
ATOM     71  O   UNL     1      -5.151   5.131  13.812  1.00  0.00    -0.237 OA
ATOM     72  O   UNL     1      -6.813   6.952  13.795  1.00  0.00    -0.744 OA
ENDBRANCH  65  69
ENDBRANCH  38  62
BRANCH  50  73
ATOM     73  C   UNL     1     -10.831  -2.303  14.681  1.00  0.00     0.023 A 
ATOM     74  C   UNL     1     -12.081  -1.676  14.827  1.00  0.00     0.031 A 
ATOM     75  C   UNL     1     -10.270  -2.934  15.805  1.00  0.00     0.131 A 
ATOM     76  C   UNL     1     -12.701  -1.643  16.085  1.00  0.00     0.055 A 
ATOM     77  C   UNL     1     -10.920  -2.950  17.039  1.00  0.00     0.041 A 
ATOM     78  F   UNL     1      -9.077  -3.545  15.721  1.00  0.00    -0.206 F 
ATOM     79  C   UNL     1     -12.136  -2.289  17.188  1.00  0.00     0.022 A 
BRANCH  76  80
ATOM     80  S   UNL     1     -14.210  -0.656  16.287  1.00  0.00     0.124 S 
ATOM     81  O   UNL     1     -13.756   0.675  15.899  1.00  0.00    -0.237 OA
ATOM     82  O   UNL     1     -15.134  -1.308  15.365  1.00  0.00    -0.237 OA
ATOM     83  O   UNL     1     -14.535  -0.812  17.703  1.00  0.00    -0.744 OA
ENDBRANCH  76  80
ENDBRANCH  50  73
ENDBRANCH  24  25
ENDBRANCH  17  19
ENDBRANCH  16  17
ENDBRANCH   1  16
TORSDOF 16
