REMARK SMILES O=C(OCCOC(=O)c1cc(F)c(O[C@H]2CCCCNC2=O)c(F)c1)c1ccc(-c2c3nc(c(-c4cc(S(=O)(=O)[O-])ccc4F)c4ccc([nH]4)c(-c4cc(S(=O)(=O)[O-])ccc4F)c4nc(c(-c5cc(S(=O)(=O)[O-])ccc5F)c5ccc2[nH]5)C=C4)C=C3)cc1
REMARK SMILES IDX 5 1 4 2 3 3 2 4 1 5 26 6 27 7 88 8 28 9 87 10 29 11 30 12
REMARK SMILES IDX 31 13 81 14 32 15 86 16 80 17 82 18 33 19 85 20 79 21 78 22
REMARK SMILES IDX 34 24 66 25 46 26 65 27 47 28 50 29 64 30 83 31 48 32 49 33
REMARK SMILES IDX 63 35 84 36 51 37 35 38 36 39 44 40 37 41 43 42 45 43 42 44
REMARK SMILES IDX 38 45 39 46 40 47 41 48 67 49 68 50 76 51 69 52 75 53 77 54
REMARK SMILES IDX 74 55 70 56 71 57 72 58 73 59 52 60 53 61 61 62 54 63 60 64
REMARK SMILES IDX 62 65 59 66 55 67 56 68 57 69 58 70 6 71 7 72 8 73 9 74
REMARK SMILES IDX 10 75 25 76 11 77 23 78 12 79 13 80 24 81 14 82 15 83 16 84
REMARK SMILES IDX 17 85 18 86 21 88 20 89 22 90 19 92
REMARK H PARENT 82 23 50 34 20 91
REMARK Flexibility Score: 80.00
ROOT
ATOM      1  C   UNL     1       4.091  -2.146  -0.567  1.00  0.00     0.275 C 
ENDROOT
BRANCH   1   2
ATOM      2  C   UNL     1       4.284  -1.228   0.645  1.00  0.00     0.275 C 
BRANCH   2   3
ATOM      3  O   UNL     1       3.170  -0.356   0.901  1.00  0.00    -0.458 OA
BRANCH   3   4
ATOM      4  C   UNL     1       2.944   0.908   0.470  1.00  0.00     0.338 C 
ATOM      5  O   UNL     1       2.065   1.560   1.034  1.00  0.00    -0.246 OA
BRANCH   4   6
ATOM      6  C   UNL     1       3.577   1.507  -0.756  1.00  0.00     0.060 A 
ATOM      7  C   UNL     1       4.811   1.160  -1.317  1.00  0.00     0.016 A 
ATOM      8  C   UNL     1       2.840   2.520  -1.397  1.00  0.00     0.016 A 
ATOM      9  C   UNL     1       5.282   1.763  -2.493  1.00  0.00     0.010 A 
ATOM     10  C   UNL     1       3.301   3.126  -2.571  1.00  0.00     0.010 A 
ATOM     11  C   UNL     1       4.540   2.761  -3.121  1.00  0.00    -0.014 A 
BRANCH  11  12
ATOM     12  C   UNL     1       5.178   3.645  -4.133  1.00  0.00     0.031 A 
ATOM     13  C   UNL     1       5.623   4.992  -3.617  1.00  0.00     0.074 A 
ATOM     14  C   UNL     1       5.375   3.267  -5.416  1.00  0.00     0.049 A 
ATOM     15  N   UNL     1       6.023   6.047  -4.268  1.00  0.00    -0.248 NA
ATOM     16  C   UNL     1       5.608   5.165  -2.150  1.00  0.00     0.031 C 
ATOM     17  C   UNL     1       5.115   1.931  -5.957  1.00  0.00     0.029 A 
ATOM     18  N   UNL     1       5.809   3.971  -6.516  1.00  0.00    -0.354 N 
ATOM     19  C   UNL     1       6.330   6.994  -3.292  1.00  0.00     0.074 A 
ATOM     20  C   UNL     1       5.979   6.426  -2.014  1.00  0.00     0.031 C 
ATOM     21  C   UNL     1       5.327   1.930  -7.288  1.00  0.00     0.029 A 
ATOM     22  C   UNL     1       5.722   3.269  -7.710  1.00  0.00     0.049 A 
ATOM     23  H   UNL     1       6.152   4.893  -6.461  1.00  0.00     0.167 HD
ATOM     24  C   UNL     1       6.894   8.215  -3.460  1.00  0.00     0.034 A 
ATOM     25  C   UNL     1       5.876   3.695  -8.988  1.00  0.00     0.034 A 
ATOM     26  C   UNL     1       7.177   8.735  -4.773  1.00  0.00     0.049 A 
ATOM     27  C   UNL     1       6.164   5.165  -9.161  1.00  0.00     0.074 A 
ATOM     28  C   UNL     1       7.737   9.943  -5.134  1.00  0.00     0.029 A 
ATOM     29  N   UNL     1       6.886   8.056  -5.956  1.00  0.00    -0.354 N 
ATOM     30  N   UNL     1       6.367   6.080  -8.237  1.00  0.00    -0.248 NA
ATOM     31  C   UNL     1       6.220   5.667 -10.535  1.00  0.00     0.031 C 
ATOM     32  C   UNL     1       7.714  10.024  -6.532  1.00  0.00     0.029 A 
ATOM     33  C   UNL     1       7.219   8.832  -7.048  1.00  0.00     0.049 A 
ATOM     34  H   UNL     1       6.498   7.152  -6.006  1.00  0.00     0.167 HD
ATOM     35  C   UNL     1       6.659   7.254  -8.920  1.00  0.00     0.074 A 
ATOM     36  C   UNL     1       6.518   6.945 -10.334  1.00  0.00     0.031 C 
ATOM     37  C   UNL     1       7.065   8.457  -8.437  1.00  0.00     0.034 A 
BRANCH  24  38
ATOM     38  C   UNL     1       7.176   9.032  -2.216  1.00  0.00     0.023 A 
ATOM     39  C   UNL     1       8.006   8.544  -1.186  1.00  0.00     0.031 A 
ATOM     40  C   UNL     1       6.542  10.268  -2.004  1.00  0.00     0.131 A 
ATOM     41  C   UNL     1       8.090   9.225   0.039  1.00  0.00     0.055 A 
ATOM     42  C   UNL     1       6.705  10.989  -0.815  1.00  0.00     0.041 A 
ATOM     43  F   UNL     1       5.720  10.784  -2.930  1.00  0.00    -0.206 F 
ATOM     44  C   UNL     1       7.463  10.457   0.224  1.00  0.00     0.022 A 
BRANCH  41  45
ATOM     45  S   UNL     1       8.870   8.382   1.448  1.00  0.00     0.124 S 
ATOM     46  O   UNL     1       8.093   7.146   1.521  1.00  0.00    -0.237 OA
ATOM     47  O   UNL     1      10.252   8.241   1.005  1.00  0.00    -0.237 OA
ATOM     48  O   UNL     1       8.661   9.306   2.560  1.00  0.00    -0.744 OA
ENDBRANCH  41  45
ENDBRANCH  24  38
BRANCH  25  49
ATOM     49  C   UNL     1       5.592   2.804 -10.170  1.00  0.00     0.023 A 
ATOM     50  C   UNL     1       6.555   2.089 -10.892  1.00  0.00     0.031 A 
ATOM     51  C   UNL     1       4.286   2.724 -10.678  1.00  0.00     0.131 A 
ATOM     52  C   UNL     1       6.146   1.260 -11.968  1.00  0.00     0.055 A 
ATOM     53  C   UNL     1       3.856   1.773 -11.601  1.00  0.00     0.041 A 
ATOM     54  F   UNL     1       3.442   3.728 -10.458  1.00  0.00    -0.206 F 
ATOM     55  C   UNL     1       4.800   1.005 -12.242  1.00  0.00     0.022 A 
BRANCH  52  56
ATOM     56  S   UNL     1       7.359   0.760 -13.230  1.00  0.00     0.124 S 
ATOM     57  O   UNL     1       7.902   2.053 -13.635  1.00  0.00    -0.237 OA
ATOM     58  O   UNL     1       8.251  -0.111 -12.476  1.00  0.00    -0.237 OA
ATOM     59  O   UNL     1       6.542   0.092 -14.243  1.00  0.00    -0.744 OA
ENDBRANCH  52  56
ENDBRANCH  25  49
BRANCH  37  60
ATOM     60  C   UNL     1       7.540   9.456  -9.454  1.00  0.00     0.023 A 
ATOM     61  C   UNL     1       6.661  10.189 -10.262  1.00  0.00     0.031 A 
ATOM     62  C   UNL     1       8.923   9.692  -9.569  1.00  0.00     0.131 A 
ATOM     63  C   UNL     1       7.183  11.115 -11.175  1.00  0.00     0.055 A 
ATOM     64  C   UNL     1       9.430  10.653 -10.438  1.00  0.00     0.041 A 
ATOM     65  F   UNL     1       9.797   9.006  -8.815  1.00  0.00    -0.206 F 
ATOM     66  C   UNL     1       8.557  11.367 -11.253  1.00  0.00     0.022 A 
BRANCH  63  67
ATOM     67  S   UNL     1       6.045  11.949 -12.313  1.00  0.00     0.124 S 
ATOM     68  O   UNL     1       5.463  10.823 -13.037  1.00  0.00    -0.237 OA
ATOM     69  O   UNL     1       5.149  12.651 -11.401  1.00  0.00    -0.237 OA
ATOM     70  O   UNL     1       6.922  12.809 -13.105  1.00  0.00    -0.744 OA
ENDBRANCH  63  67
ENDBRANCH  37  60
ENDBRANCH  11  12
ENDBRANCH   4   6
ENDBRANCH   3   4
ENDBRANCH   2   3
ENDBRANCH   1   2
BRANCH   1  71
ATOM     71  O   UNL     1       3.498  -1.472  -1.686  1.00  0.00    -0.458 OA
BRANCH  71  72
ATOM     72  C   UNL     1       2.146  -1.567  -1.758  1.00  0.00     0.338 C 
ATOM     73  O   UNL     1       1.424  -2.267  -1.065  1.00  0.00    -0.246 OA
BRANCH  72  74
ATOM     74  C   UNL     1       1.625  -0.552  -2.693  1.00  0.00     0.066 A 
ATOM     75  C   UNL     1       2.231  -0.285  -3.920  1.00  0.00     0.059 A 
ATOM     76  C   UNL     1       0.513   0.187  -2.291  1.00  0.00     0.059 A 
ATOM     77  C   UNL     1       1.706   0.717  -4.742  1.00  0.00     0.169 A 
ATOM     78  C   UNL     1       0.020   1.188  -3.120  1.00  0.00     0.169 A 
ATOM     79  F   UNL     1       2.335   0.925  -5.904  1.00  0.00    -0.203 F 
ATOM     80  C   UNL     1       0.590   1.468  -4.364  1.00  0.00     0.191 A 
ATOM     81  F   UNL     1      -1.020   1.915  -2.684  1.00  0.00    -0.203 F 
BRANCH  80  82
ATOM     82  O   UNL     1      -0.052   2.457  -5.047  1.00  0.00    -0.474 OA
BRANCH  82  83
ATOM     83  C   UNL     1       0.378   2.923  -6.326  1.00  0.00     0.262 C 
BRANCH  83  84
ATOM     84  C   UNL     1       1.635   3.784  -6.156  1.00  0.00     0.055 C 
BRANCH  84  85
ATOM     85  C   UNL     1       1.765   4.899  -7.181  1.00  0.00     0.006 C 
BRANCH  85  86
ATOM     86  C   UNL     1       2.033   4.356  -8.562  1.00  0.00     0.021 CG0
ATOM     87  G   UNL     1       0.888   3.589  -9.203  1.00  0.00     0.000 G0
ENDBRANCH  85  86
ENDBRANCH  84  85
ENDBRANCH  83  84
BRANCH  83  88
ATOM     88  C   UNL     1       0.393   1.859  -7.451  1.00  0.00     0.261 C 
ATOM     89  N   UNL     1       0.750   2.239  -8.709  1.00  0.00    -0.353 N 
ATOM     90  O   UNL     1       0.026   0.692  -7.285  1.00  0.00    -0.271 OA
ATOM     91  H   UNL     1       0.933   1.515  -9.351  1.00  0.00     0.163 HD
BRANCH  89  92
ATOM     92  C   UNL     1       0.888   3.589  -9.203  1.00  0.00     0.116 CG0
ATOM     93  G   UNL     1       2.033   4.356  -8.562  1.00  0.00     0.000 G0
ENDBRANCH  89  92
ENDBRANCH  83  88
ENDBRANCH  82  83
ENDBRANCH  80  82
ENDBRANCH  72  74
ENDBRANCH  71  72
ENDBRANCH   1  71
TORSDOF 16
