REMARK SMILES Cc1cc(C)n(C)c(=O)c1C(=O)[NH+]1CCC2(CC1)C[NH2+][C@@H](C(=O)OCCOC(=O)c1ccc(-c3c4nc(c(-c5cc(S(=O)(=O)[O-])ccc5F)c5ccc([nH]5)c(-c5cc(S(=O)(=O)[O-])ccc5F)c5nc(c(-c6cc(S(=O)(=O)[O-])ccc6F)c6ccc3[nH]6)C=C5)C=C4)cc1)C2
REMARK SMILES IDX 26 1 25 2 24 3 22 4 23 5 21 6 13 7 14 8 18 9 15 11 17 12
REMARK SMILES IDX 16 13 19 14 93 15 20 16 11 19 12 20 10 21 1 22 2 23 3 24
REMARK SMILES IDX 4 25 8 26 5 27 6 28 9 29 7 30 27 31 28 32 29 33 30 34 31 35
REMARK SMILES IDX 92 36 32 37 91 38 33 39 34 40 35 41 85 42 36 43 90 44 84 45
REMARK SMILES IDX 86 46 37 47 89 48 83 49 82 50 38 52 70 53 50 54 69 55 51 56
REMARK SMILES IDX 54 57 68 58 87 59 52 60 53 61 67 63 88 64 55 65 39 66 40 67
REMARK SMILES IDX 48 68 41 69 47 70 49 71 46 72 42 73 43 74 44 75 45 76 71 77
REMARK SMILES IDX 72 78 80 79 73 80 79 81 81 82 78 83 74 84 75 85 76 86 77 87
REMARK SMILES IDX 56 88 57 89 65 90 58 91 64 92 66 93 63 94 59 95 60 96 61 97
REMARK SMILES IDX 62 98
REMARK H PARENT 13 10 20 17 20 18 86 51 54 62
REMARK Flexibility Score: inf
ROOT
ATOM      1  C   UNL     1       0.243   8.540  -3.230  1.00  0.00     0.275 C 
ENDROOT
BRANCH   1   2
ATOM      2  C   UNL     1       1.488   8.162  -2.425  1.00  0.00     0.274 C 
BRANCH   2   3
ATOM      3  O   UNL     1       1.267   6.923  -1.731  1.00  0.00    -0.458 OA
BRANCH   3   4
ATOM      4  C   UNL     1       1.105   7.012  -0.386  1.00  0.00     0.364 C 
ATOM      5  O   UNL     1       1.287   8.031   0.274  1.00  0.00    -0.245 OA
BRANCH   4   6
ATOM      6  C   UNL     1       0.670   5.698   0.254  1.00  0.00     0.294 C 
ATOM      7  N   UNL     1      -1.006   0.857  -0.930  1.00  0.00    -0.267 N 
ATOM      8  C   UNL     1      -1.856   1.914  -0.397  1.00  0.00     0.271 C 
ATOM      9  C   UNL     1       0.120   1.349  -1.712  1.00  0.00     0.271 C 
ATOM     10  H   UNL     1      -0.873  -0.035  -0.534  1.00  0.00     0.357 HD
ATOM     11  C   UNL     1      -1.050   2.685   0.640  1.00  0.00     0.075 C 
ATOM     12  C   UNL     1       0.980   2.368  -0.946  1.00  0.00     0.075 C 
ATOM     13  C   UNL     1       0.237   3.308   0.054  1.00  0.00     0.036 C 
ATOM     14  C   UNL     1       1.184   3.692   1.220  1.00  0.00     0.268 C 
ATOM     15  C   UNL     1      -0.066   4.676  -0.613  1.00  0.00     0.090 C 
ATOM     16  N   UNL     1       1.819   4.934   0.782  1.00  0.00    -0.334 N 
ATOM     17  H   UNL     1       2.512   4.758   0.055  1.00  0.00     0.347 HD
ATOM     18  H   UNL     1       2.329   5.418   1.520  1.00  0.00     0.347 HD
BRANCH   7  19
ATOM     19  C   UNL     1      -1.390  -0.460  -0.706  1.00  0.00     0.350 C 
ATOM     20  O   UNL     1      -2.533  -0.733  -0.327  1.00  0.00    -0.225 OA
BRANCH  19  21
ATOM     21  C   UNL     1      -0.412  -1.595  -0.765  1.00  0.00     0.147 A 
ATOM     22  C   UNL     1       1.303  -0.512   0.792  1.00  0.00     0.045 C 
ATOM     23  C   UNL     1       0.728  -1.618  -0.039  1.00  0.00    -0.027 A 
ATOM     24  C   UNL     1       1.461  -2.857   0.137  1.00  0.00     0.026 A 
ATOM     25  C   UNL     1       0.928  -4.043  -0.185  1.00  0.00     0.018 A 
ATOM     26  C   UNL     1      -0.898  -2.904  -1.343  1.00  0.00     0.267 A 
ATOM     27  C   UNL     1       1.661  -5.297   0.209  1.00  0.00     0.064 C 
ATOM     28  N   UNL     1      -0.277  -4.079  -0.876  1.00  0.00    -0.315 N 
ATOM     29  O   UNL     1      -1.793  -2.924  -2.189  1.00  0.00    -0.268 OA
ATOM     30  C   UNL     1      -0.927  -5.347  -1.179  1.00  0.00     0.153 C 
ENDBRANCH  19  21
ENDBRANCH   7  19
ENDBRANCH   4   6
ENDBRANCH   3   4
ENDBRANCH   2   3
ENDBRANCH   1   2
BRANCH   1  31
ATOM     31  O   UNL     1      -0.881   8.803  -2.368  1.00  0.00    -0.458 OA
BRANCH  31  32
ATOM     32  C   UNL     1      -1.723   7.757  -2.189  1.00  0.00     0.338 C 
ATOM     33  O   UNL     1      -1.640   6.649  -2.689  1.00  0.00    -0.246 OA
BRANCH  32  34
ATOM     34  C   UNL     1      -2.732   8.100  -1.176  1.00  0.00     0.060 A 
ATOM     35  C   UNL     1      -2.610   7.534   0.093  1.00  0.00     0.016 A 
ATOM     36  C   UNL     1      -3.844   8.877  -1.499  1.00  0.00     0.016 A 
ATOM     37  C   UNL     1      -3.607   7.718   1.044  1.00  0.00     0.010 A 
ATOM     38  C   UNL     1      -4.837   9.083  -0.534  1.00  0.00     0.010 A 
ATOM     39  C   UNL     1      -4.731   8.493   0.738  1.00  0.00    -0.014 A 
BRANCH  39  40
ATOM     40  C   UNL     1      -5.814   8.626   1.742  1.00  0.00     0.031 A 
ATOM     41  C   UNL     1      -7.116   7.906   1.537  1.00  0.00     0.074 A 
ATOM     42  C   UNL     1      -5.601   9.331   2.869  1.00  0.00     0.049 A 
ATOM     43  N   UNL     1      -8.207   7.948   2.257  1.00  0.00    -0.248 NA
ATOM     44  C   UNL     1      -7.196   7.016   0.369  1.00  0.00     0.031 C 
ATOM     45  C   UNL     1      -4.345   9.996   3.223  1.00  0.00     0.029 A 
ATOM     46  N   UNL     1      -6.425   9.585   3.936  1.00  0.00    -0.354 N 
ATOM     47  C   UNL     1      -9.108   7.097   1.629  1.00  0.00     0.074 A 
ATOM     48  C   UNL     1      -8.444   6.578   0.450  1.00  0.00     0.031 C 
ATOM     49  C   UNL     1      -4.471  10.549   4.440  1.00  0.00     0.029 A 
ATOM     50  C   UNL     1      -5.833  10.337   4.922  1.00  0.00     0.049 A 
ATOM     51  H   UNL     1      -7.352   9.260   3.989  1.00  0.00     0.167 HD
ATOM     52  C   UNL     1     -10.370   6.773   2.006  1.00  0.00     0.034 A 
ATOM     53  C   UNL     1      -6.337  10.820   6.074  1.00  0.00     0.034 A 
ATOM     54  C   UNL     1     -11.017   7.298   3.182  1.00  0.00     0.049 A 
ATOM     55  C   UNL     1      -7.780  10.556   6.406  1.00  0.00     0.074 A 
ATOM     56  C   UNL     1     -12.304   7.066   3.636  1.00  0.00     0.029 A 
ATOM     57  N   UNL     1     -10.424   8.159   4.097  1.00  0.00    -0.354 N 
ATOM     58  N   UNL     1      -8.657   9.834   5.749  1.00  0.00    -0.248 NA
ATOM     59  C   UNL     1      -8.308  11.191   7.621  1.00  0.00     0.031 C 
ATOM     60  C   UNL     1     -12.506   7.828   4.792  1.00  0.00     0.029 A 
ATOM     61  C   UNL     1     -11.326   8.487   5.096  1.00  0.00     0.049 A 
ATOM     62  H   UNL     1      -9.498   8.488   4.042  1.00  0.00     0.167 HD
ATOM     63  C   UNL     1      -9.839   9.918   6.478  1.00  0.00     0.074 A 
ATOM     64  C   UNL     1      -9.562  10.757   7.627  1.00  0.00     0.031 C 
ATOM     65  C   UNL     1     -11.042   9.347   6.221  1.00  0.00     0.034 A 
BRANCH  52  66
ATOM     66  C   UNL     1     -11.140   5.844   1.104  1.00  0.00     0.023 A 
ATOM     67  C   UNL     1     -10.770   4.497   0.947  1.00  0.00     0.031 A 
ATOM     68  C   UNL     1     -12.241   6.318   0.369  1.00  0.00     0.131 A 
ATOM     69  C   UNL     1     -11.457   3.689   0.029  1.00  0.00     0.055 A 
ATOM     70  C   UNL     1     -12.963   5.489  -0.491  1.00  0.00     0.041 A 
ATOM     71  F   UNL     1     -12.624   7.601   0.466  1.00  0.00    -0.206 F 
ATOM     72  C   UNL     1     -12.564   4.169  -0.674  1.00  0.00     0.022 A 
BRANCH  69  73
ATOM     73  S   UNL     1     -10.808   2.033  -0.322  1.00  0.00     0.124 S 
ATOM     74  O   UNL     1      -9.495   2.348  -0.879  1.00  0.00    -0.237 OA
ATOM     75  O   UNL     1     -10.813   1.407   0.995  1.00  0.00    -0.237 OA
ATOM     76  O   UNL     1     -11.770   1.484  -1.276  1.00  0.00    -0.744 OA
ENDBRANCH  69  73
ENDBRANCH  52  66
BRANCH  53  77
ATOM     77  C   UNL     1      -5.479  11.636   6.974  1.00  0.00     0.023 A 
ATOM     78  C   UNL     1      -5.063  11.136   8.218  1.00  0.00     0.031 A 
ATOM     79  C   UNL     1      -5.047  12.919   6.594  1.00  0.00     0.131 A 
ATOM     80  C   UNL     1      -4.244  11.922   9.044  1.00  0.00     0.055 A 
ATOM     81  C   UNL     1      -4.206  13.682   7.404  1.00  0.00     0.041 A 
ATOM     82  F   UNL     1      -5.415  13.435   5.411  1.00  0.00    -0.206 F 
ATOM     83  C   UNL     1      -3.802  13.184   8.639  1.00  0.00     0.022 A 
BRANCH  80  84
ATOM     84  S   UNL     1      -3.762  11.271  10.667  1.00  0.00     0.124 S 
ATOM     85  O   UNL     1      -5.042  11.239  11.365  1.00  0.00    -0.237 OA
ATOM     86  O   UNL     1      -3.185   9.976  10.320  1.00  0.00    -0.237 OA
ATOM     87  O   UNL     1      -2.806  12.261  11.159  1.00  0.00    -0.744 OA
ENDBRANCH  80  84
ENDBRANCH  53  77
BRANCH  65  88
ATOM     88  C   UNL     1     -12.148   9.596   7.211  1.00  0.00     0.023 A 
ATOM     89  C   UNL     1     -12.790  10.842   7.293  1.00  0.00     0.031 A 
ATOM     90  C   UNL     1     -12.585   8.562   8.057  1.00  0.00     0.131 A 
ATOM     91  C   UNL     1     -13.822  11.033   8.224  1.00  0.00     0.055 A 
ATOM     92  C   UNL     1     -13.640   8.744   8.951  1.00  0.00     0.041 A 
ATOM     93  F   UNL     1     -12.003   7.353   8.014  1.00  0.00    -0.206 F 
ATOM     94  C   UNL     1     -14.262   9.987   9.041  1.00  0.00     0.022 A 
BRANCH  91  95
ATOM     95  S   UNL     1     -14.568  12.679   8.378  1.00  0.00     0.124 S 
ATOM     96  O   UNL     1     -13.451  13.469   8.887  1.00  0.00    -0.237 OA
ATOM     97  O   UNL     1     -14.982  12.969   7.009  1.00  0.00    -0.237 OA
ATOM     98  O   UNL     1     -15.663  12.472   9.324  1.00  0.00    -0.744 OA
ENDBRANCH  91  95
ENDBRANCH  65  88
ENDBRANCH  39  40
ENDBRANCH  32  34
ENDBRANCH  31  32
ENDBRANCH   1  31
TORSDOF 16
