REMARK SMILES [NH3+][C@H](CSCc1ccco1)C(=O)OCCOC(=O)c1ccc(-c2c3nc(c(-c4cc(S(=O)(=O)[O-])ccc4F)c4ccc([nH]4)c(-c4cc(S(=O)(=O)[O-])ccc4F)c4nc(c(-c5cc(S(=O)(=O)[O-])ccc5F)c5ccc2[nH]5)C=C4)C=C3)cc1
REMARK SMILES IDX 14 1 13 2 11 3 12 4 2 5 1 6 3 10 4 11 5 12 6 13 7 14 10 15
REMARK SMILES IDX 8 16 9 17 15 18 16 19 17 20 18 21 19 22 20 23 81 24 21 25
REMARK SMILES IDX 80 26 22 27 23 28 24 29 74 30 25 31 79 32 73 33 75 34 26 35
REMARK SMILES IDX 78 36 72 37 71 38 27 40 59 41 39 42 58 43 40 44 43 45 57 46
REMARK SMILES IDX 76 47 41 48 42 49 56 51 77 52 44 53 28 54 29 55 37 56 30 57
REMARK SMILES IDX 36 58 38 59 35 60 31 61 32 62 33 63 34 64 60 65 61 66 69 67
REMARK SMILES IDX 62 68 68 69 70 70 67 71 63 72 64 73 65 74 66 75 45 76 46 77
REMARK SMILES IDX 54 78 47 79 53 80 55 81 52 82 48 83 49 84 50 85 51 86
REMARK H PARENT 1 7 1 8 1 9 75 39 43 50
REMARK Flexibility Score: inf
ROOT
ATOM      1  C   UNL     1      -2.834  -1.054   0.684  1.00  0.00     0.274 C 
ENDROOT
BRANCH   1   2
ATOM      2  O   UNL     1      -1.406  -0.962   0.860  1.00  0.00    -0.458 OA
BRANCH   2   3
ATOM      3  C   UNL     1      -0.654  -1.885   0.203  1.00  0.00     0.365 C 
ATOM      4  O   UNL     1      -1.131  -2.843  -0.399  1.00  0.00    -0.245 OA
BRANCH   3   5
ATOM      5  C   UNL     1       0.863  -1.605   0.277  1.00  0.00     0.301 C 
BRANCH   5   6
ATOM      6  N   UNL     1       1.568  -2.733   0.936  1.00  0.00    -0.345 N 
ATOM      7  H   UNL     1       1.226  -3.616   0.556  1.00  0.00     0.345 HD
ATOM      8  H   UNL     1       1.391  -2.704   1.941  1.00  0.00     0.345 HD
ATOM      9  H   UNL     1       2.570  -2.654   0.765  1.00  0.00     0.345 HD
ENDBRANCH   5   6
BRANCH   5  10
ATOM     10  C   UNL     1       1.269  -0.188   0.745  1.00  0.00     0.147 C 
BRANCH  10  11
ATOM     11  S   UNL     1       2.201  -0.090   2.328  1.00  0.00    -0.147 SA
BRANCH  11  12
ATOM     12  C   UNL     1       0.860  -0.352   3.520  1.00  0.00     0.145 C 
BRANCH  12  13
ATOM     13  C   UNL     1      -0.205   0.684   3.543  1.00  0.00     0.113 A 
ATOM     14  C   UNL     1      -1.521   0.641   3.961  1.00  0.00     0.046 A 
ATOM     15  O   UNL     1       0.098   1.943   3.115  1.00  0.00    -0.468 OA
ATOM     16  C   UNL     1      -2.054   1.934   3.746  1.00  0.00     0.042 A 
ATOM     17  C   UNL     1      -1.032   2.686   3.219  1.00  0.00     0.195 A 
ENDBRANCH  12  13
ENDBRANCH  11  12
ENDBRANCH  10  11
ENDBRANCH   5  10
ENDBRANCH   3   5
ENDBRANCH   2   3
ENDBRANCH   1   2
BRANCH   1  18
ATOM     18  C   UNL     1      -3.349  -0.009  -0.313  1.00  0.00     0.275 C 
BRANCH  18  19
ATOM     19  O   UNL     1      -2.966  -0.309  -1.669  1.00  0.00    -0.458 OA
BRANCH  19  20
ATOM     20  C   UNL     1      -1.776   0.209  -2.054  1.00  0.00     0.338 C 
ATOM     21  O   UNL     1      -1.023   0.893  -1.382  1.00  0.00    -0.246 OA
BRANCH  20  22
ATOM     22  C   UNL     1      -1.409  -0.295  -3.385  1.00  0.00     0.060 A 
ATOM     23  C   UNL     1      -0.263  -1.085  -3.480  1.00  0.00     0.016 A 
ATOM     24  C   UNL     1      -2.112   0.072  -4.533  1.00  0.00     0.016 A 
ATOM     25  C   UNL     1       0.204  -1.501  -4.720  1.00  0.00     0.010 A 
ATOM     26  C   UNL     1      -1.652  -0.362  -5.782  1.00  0.00     0.010 A 
ATOM     27  C   UNL     1      -0.486  -1.144  -5.882  1.00  0.00    -0.014 A 
BRANCH  27  28
ATOM     28  C   UNL     1       0.036  -1.578  -7.199  1.00  0.00     0.031 A 
ATOM     29  C   UNL     1       0.661  -0.574  -8.124  1.00  0.00     0.074 A 
ATOM     30  C   UNL     1      -0.030  -2.878  -7.543  1.00  0.00     0.049 A 
ATOM     31  N   UNL     1       1.076  -0.729  -9.354  1.00  0.00    -0.248 NA
ATOM     32  C   UNL     1       0.838   0.785  -7.593  1.00  0.00     0.031 C 
ATOM     33  C   UNL     1      -0.559  -3.947  -6.692  1.00  0.00     0.029 A 
ATOM     34  N   UNL     1       0.344  -3.522  -8.694  1.00  0.00    -0.354 N 
ATOM     35  C   UNL     1       1.540   0.518  -9.758  1.00  0.00     0.074 A 
ATOM     36  C   UNL     1       1.341   1.420  -8.642  1.00  0.00     0.031 C 
ATOM     37  C   UNL     1      -0.480  -5.112  -7.354  1.00  0.00     0.029 A 
ATOM     38  C   UNL     1       0.043  -4.864  -8.694  1.00  0.00     0.049 A 
ATOM     39  H   UNL     1       0.786  -3.068  -9.448  1.00  0.00     0.167 HD
ATOM     40  C   UNL     1       2.079   0.870 -10.951  1.00  0.00     0.034 A 
ATOM     41  C   UNL     1       0.132  -5.780  -9.678  1.00  0.00     0.034 A 
ATOM     42  C   UNL     1       2.277  -0.053 -12.043  1.00  0.00     0.049 A 
ATOM     43  C   UNL     1       0.658  -5.346 -11.022  1.00  0.00     0.074 A 
ATOM     44  C   UNL     1       2.838   0.187 -13.285  1.00  0.00     0.029 A 
ATOM     45  N   UNL     1       1.911  -1.394 -12.026  1.00  0.00    -0.354 N 
ATOM     46  N   UNL     1       1.074  -4.159 -11.400  1.00  0.00    -0.248 NA
ATOM     47  C   UNL     1       0.717  -6.369 -12.072  1.00  0.00     0.031 C 
ATOM     48  C   UNL     1       2.752  -0.989 -14.040  1.00  0.00     0.029 A 
ATOM     49  C   UNL     1       2.199  -1.983 -13.248  1.00  0.00     0.049 A 
ATOM     50  H   UNL     1       1.507  -1.858 -11.258  1.00  0.00     0.167 HD
ATOM     51  C   UNL     1       1.460  -4.298 -12.729  1.00  0.00     0.074 A 
ATOM     52  C   UNL     1       1.241  -5.687 -13.081  1.00  0.00     0.031 C 
ATOM     53  C   UNL     1       1.953  -3.365 -13.583  1.00  0.00     0.034 A 
BRANCH  40  54
ATOM     54  C   UNL     1       2.423   2.325 -11.156  1.00  0.00     0.023 A 
ATOM     55  C   UNL     1       3.442   2.962 -10.427  1.00  0.00     0.031 A 
ATOM     56  C   UNL     1       1.695   3.093 -12.082  1.00  0.00     0.131 A 
ATOM     57  C   UNL     1       3.663   4.339 -10.593  1.00  0.00     0.055 A 
ATOM     58  C   UNL     1       1.966   4.446 -12.293  1.00  0.00     0.041 A 
ATOM     59  F   UNL     1       0.696   2.543 -12.790  1.00  0.00    -0.206 F 
ATOM     60  C   UNL     1       2.947   5.080 -11.536  1.00  0.00     0.022 A 
BRANCH  57  61
ATOM     61  S   UNL     1       4.813   5.177  -9.467  1.00  0.00     0.124 S 
ATOM     62  O   UNL     1       4.208   4.900  -8.166  1.00  0.00    -0.237 OA
ATOM     63  O   UNL     1       6.074   4.501  -9.744  1.00  0.00    -0.237 OA
ATOM     64  O   UNL     1       4.748   6.575  -9.890  1.00  0.00    -0.744 OA
ENDBRANCH  57  61
ENDBRANCH  40  54
BRANCH  41  65
ATOM     65  C   UNL     1      -0.358  -7.170  -9.459  1.00  0.00     0.023 A 
ATOM     66  C   UNL     1       0.514  -8.268  -9.508  1.00  0.00     0.031 A 
ATOM     67  C   UNL     1      -1.724  -7.421  -9.231  1.00  0.00     0.131 A 
ATOM     68  C   UNL     1       0.005  -9.569  -9.367  1.00  0.00     0.055 A 
ATOM     69  C   UNL     1      -2.217  -8.712  -9.041  1.00  0.00     0.041 A 
ATOM     70  F   UNL     1      -2.601  -6.405  -9.178  1.00  0.00    -0.206 F 
ATOM     71  C   UNL     1      -1.351  -9.797  -9.120  1.00  0.00     0.022 A 
BRANCH  68  72
ATOM     72  S   UNL     1       1.132 -10.973  -9.592  1.00  0.00     0.124 S 
ATOM     73  O   UNL     1       1.644 -10.732 -10.936  1.00  0.00    -0.237 OA
ATOM     74  O   UNL     1       2.079 -10.779  -8.500  1.00  0.00    -0.237 OA
ATOM     75  O   UNL     1       0.258 -12.136  -9.457  1.00  0.00    -0.744 OA
ENDBRANCH  68  72
ENDBRANCH  41  65
BRANCH  53  76
ATOM     76  C   UNL     1       2.313  -3.838 -14.967  1.00  0.00     0.023 A 
ATOM     77  C   UNL     1       1.327  -4.207 -15.898  1.00  0.00     0.031 A 
ATOM     78  C   UNL     1       3.662  -3.930 -15.353  1.00  0.00     0.131 A 
ATOM     79  C   UNL     1       1.706  -4.695 -17.157  1.00  0.00     0.055 A 
ATOM     80  C   UNL     1       4.031  -4.369 -16.625  1.00  0.00     0.041 A 
ATOM     81  F   UNL     1       4.641  -3.591 -14.500  1.00  0.00    -0.206 F 
ATOM     82  C   UNL     1       3.051  -4.764 -17.532  1.00  0.00     0.022 A 
BRANCH  79  83
ATOM     83  S   UNL     1       0.419  -5.304 -18.281  1.00  0.00     0.124 S 
ATOM     84  O   UNL     1      -0.151  -6.409 -17.518  1.00  0.00    -0.237 OA
ATOM     85  O   UNL     1      -0.437  -4.133 -18.442  1.00  0.00    -0.237 OA
ATOM     86  O   UNL     1       1.163  -5.694 -19.477  1.00  0.00    -0.744 OA
ENDBRANCH  79  83
ENDBRANCH  53  76
ENDBRANCH  27  28
ENDBRANCH  20  22
ENDBRANCH  19  20
ENDBRANCH  18  19
ENDBRANCH   1  18
TORSDOF 19
