REMARK SMILES CN1N[C@H](C(=O)N[C@@H](CC2=c3ccccc3=NC2)C(=O)OCCOC(=O)c2ccc(-c3c4nc(c(-c5cc(S(=O)(=O)[O-])ccc5F)c5ccc([nH]5)c(-c5cc(S(=O)(=O)[O-])ccc5F)c5nc(c(-c6cc(S(=O)(=O)[O-])ccc6F)c6ccc3[nH]6)C=C5)C=C4)cc2)c2ccccc2C1=O
REMARK SMILES IDX 23 1 22 2 21 3 19 4 20 5 8 6 7 7 5 8 6 9 4 11 1 12 2 13 3 14
REMARK SMILES IDX 96 15 95 17 97 18 90 19 94 20 91 21 93 22 92 23 9 24 10 25
REMARK SMILES IDX 11 26 18 27 12 28 16 29 17 30 13 31 15 32 14 33 24 34 25 35
REMARK SMILES IDX 26 36 27 37 28 38 89 39 29 40 88 41 30 42 31 43 32 44 82 45
REMARK SMILES IDX 33 46 87 47 81 48 83 49 34 50 86 51 80 52 79 53 35 55 67 56
REMARK SMILES IDX 47 57 66 58 48 59 51 60 65 61 84 62 49 63 50 64 64 66 85 67
REMARK SMILES IDX 52 68 36 69 37 70 45 71 38 72 44 73 46 74 43 75 39 76 40 77
REMARK SMILES IDX 41 78 42 79 68 80 69 81 77 82 70 83 76 84 78 85 75 86 71 87
REMARK SMILES IDX 72 88 73 89 74 90 53 91 54 92 62 93 55 94 61 95 63 96 60 97
REMARK SMILES IDX 56 98 57 99 58 100 59 101
REMARK H PARENT 7 10 3 16 83 54 51 65
REMARK Flexibility Score: inf
ROOT
ATOM      1  C   UNL     1      -3.828  -7.870  -0.616  1.00  0.00     0.275 C 
ENDROOT
BRANCH   1   2
ATOM      2  C   UNL     1      -4.485  -6.548  -0.989  1.00  0.00     0.274 C 
BRANCH   2   3
ATOM      3  O   UNL     1      -3.513  -5.599  -1.483  1.00  0.00    -0.461 OA
BRANCH   3   4
ATOM      4  C   UNL     1      -3.571  -4.341  -0.962  1.00  0.00     0.329 C 
ATOM      5  O   UNL     1      -4.219  -4.029   0.032  1.00  0.00    -0.250 OA
BRANCH   4   6
ATOM      6  C   UNL     1      -2.868  -3.299  -1.850  1.00  0.00     0.196 C 
BRANCH   6   7
ATOM      7  N   UNL     1      -2.067  -3.865  -2.941  1.00  0.00    -0.341 N 
ATOM      8  C   UNL     1      -0.903  -3.424  -3.504  1.00  0.00     0.244 C 
ATOM      9  O   UNL     1      -0.730  -3.669  -4.705  1.00  0.00    -0.273 OA
ATOM     10  H   UNL     1      -2.425  -4.696  -3.329  1.00  0.00     0.164 HD
BRANCH   8  11
ATOM     11  C   UNL     1       0.247  -2.825  -2.648  1.00  0.00     0.195 C 
ATOM     12  C   UNL     1       0.614   0.106  -0.357  1.00  0.00     0.169 C 
ATOM     13  N   UNL     1       0.620  -1.273  -0.812  1.00  0.00    -0.276 N 
ATOM     14  N   UNL     1      -0.230  -1.645  -1.896  1.00  0.00    -0.215 NA
ATOM     15  C   UNL     1       1.207  -2.229   0.026  1.00  0.00     0.268 C 
ATOM     16  H   UNL     1      -0.293  -0.856  -2.540  1.00  0.00     0.149 HD
ATOM     17  C   UNL     1       1.351  -3.598  -0.519  1.00  0.00     0.046 A 
ATOM     18  O   UNL     1       1.611  -1.970   1.155  1.00  0.00    -0.268 OA
ATOM     19  C   UNL     1       0.882  -3.901  -1.798  1.00  0.00    -0.007 A 
ATOM     20  C   UNL     1       2.011  -4.573   0.239  1.00  0.00     0.014 A 
ATOM     21  C   UNL     1       1.103  -5.195  -2.308  1.00  0.00     0.007 A 
ATOM     22  C   UNL     1       2.178  -5.863  -0.262  1.00  0.00     0.001 A 
ATOM     23  C   UNL     1       1.726  -6.173  -1.536  1.00  0.00     0.000 A 
ENDBRANCH   8  11
ENDBRANCH   6   7
BRANCH   6  24
ATOM     24  C   UNL     1      -3.940  -2.305  -2.431  1.00  0.00     0.070 C 
BRANCH  24  25
ATOM     25  C   UNL     1      -4.914  -2.822  -3.511  1.00  0.00    -0.037 C 
ATOM     26  C   UNL     1      -4.529  -2.892  -4.797  1.00  0.00     0.001 A 
ATOM     27  C   UNL     1      -5.680  -4.076  -3.195  1.00  0.00     0.174 C 
ATOM     28  C   UNL     1      -5.170  -2.291  -5.955  1.00  0.00     0.010 A 
ATOM     29  C   UNL     1      -4.490  -4.379  -4.955  1.00  0.00     0.065 A 
ATOM     30  N   UNL     1      -5.045  -5.112  -4.040  1.00  0.00    -0.280 NA
ATOM     31  C   UNL     1      -4.967  -2.875  -7.153  1.00  0.00     0.001 A 
ATOM     32  C   UNL     1      -3.844  -4.825  -6.202  1.00  0.00     0.028 A 
ATOM     33  C   UNL     1      -4.095  -4.042  -7.266  1.00  0.00     0.002 A 
ENDBRANCH  24  25
ENDBRANCH   6  24
ENDBRANCH   4   6
ENDBRANCH   3   4
ENDBRANCH   2   3
ENDBRANCH   1   2
BRANCH   1  34
ATOM     34  O   UNL     1      -3.018  -7.666   0.549  1.00  0.00    -0.458 OA
BRANCH  34  35
ATOM     35  C   UNL     1      -1.721  -7.403   0.270  1.00  0.00     0.338 C 
ATOM     36  O   UNL     1      -1.153  -7.520  -0.799  1.00  0.00    -0.246 OA
BRANCH  35  37
ATOM     37  C   UNL     1      -1.110  -6.815   1.464  1.00  0.00     0.060 A 
ATOM     38  C   UNL     1      -0.497  -7.628   2.415  1.00  0.00     0.016 A 
ATOM     39  C   UNL     1      -1.049  -5.426   1.556  1.00  0.00     0.016 A 
ATOM     40  C   UNL     1       0.221  -7.032   3.455  1.00  0.00     0.010 A 
ATOM     41  C   UNL     1      -0.292  -4.840   2.564  1.00  0.00     0.010 A 
ATOM     42  C   UNL     1       0.369  -5.634   3.513  1.00  0.00    -0.014 A 
BRANCH  42  43
ATOM     43  C   UNL     1       1.294  -4.998   4.489  1.00  0.00     0.031 A 
ATOM     44  C   UNL     1       0.787  -4.013   5.504  1.00  0.00     0.074 A 
ATOM     45  C   UNL     1       2.620  -5.230   4.389  1.00  0.00     0.049 A 
ATOM     46  N   UNL     1       1.436  -3.449   6.490  1.00  0.00    -0.248 NA
ATOM     47  C   UNL     1      -0.619  -3.592   5.395  1.00  0.00     0.031 C 
ATOM     48  C   UNL     1       3.254  -6.067   3.370  1.00  0.00     0.029 A 
ATOM     49  N   UNL     1       3.679  -4.762   5.127  1.00  0.00    -0.354 N 
ATOM     50  C   UNL     1       0.507  -2.646   7.140  1.00  0.00     0.074 A 
ATOM     51  C   UNL     1      -0.708  -2.690   6.360  1.00  0.00     0.031 C 
ATOM     52  C   UNL     1       4.586  -6.027   3.520  1.00  0.00     0.029 A 
ATOM     53  C   UNL     1       4.904  -5.203   4.680  1.00  0.00     0.049 A 
ATOM     54  H   UNL     1       3.572  -4.167   5.904  1.00  0.00     0.167 HD
ATOM     55  C   UNL     1       0.633  -2.000   8.324  1.00  0.00     0.034 A 
ATOM     56  C   UNL     1       6.143  -5.013   5.176  1.00  0.00     0.034 A 
ATOM     57  C   UNL     1       1.859  -1.968   9.076  1.00  0.00     0.049 A 
ATOM     58  C   UNL     1       6.275  -4.317   6.507  1.00  0.00     0.074 A 
ATOM     59  C   UNL     1       2.089  -1.424  10.325  1.00  0.00     0.029 A 
ATOM     60  N   UNL     1       3.064  -2.506   8.643  1.00  0.00    -0.354 N 
ATOM     61  N   UNL     1       5.341  -3.747   7.233  1.00  0.00    -0.248 NA
ATOM     62  C   UNL     1       7.606  -4.302   7.127  1.00  0.00     0.031 C 
ATOM     63  C   UNL     1       3.440  -1.601  10.632  1.00  0.00     0.029 A 
ATOM     64  C   UNL     1       4.043  -2.305   9.599  1.00  0.00     0.049 A 
ATOM     65  H   UNL     1       3.202  -2.962   7.781  1.00  0.00     0.167 HD
ATOM     66  C   UNL     1       5.956  -3.366   8.421  1.00  0.00     0.074 A 
ATOM     67  C   UNL     1       7.344  -3.768   8.314  1.00  0.00     0.031 C 
ATOM     68  C   UNL     1       5.414  -2.751   9.503  1.00  0.00     0.034 A 
BRANCH  55  69
ATOM     69  C   UNL     1      -0.604  -1.369   8.915  1.00  0.00     0.023 A 
ATOM     70  C   UNL     1      -0.664   0.009   9.191  1.00  0.00     0.031 A 
ATOM     71  C   UNL     1      -1.708  -2.167   9.279  1.00  0.00     0.131 A 
ATOM     72  C   UNL     1      -1.806   0.543   9.806  1.00  0.00     0.055 A 
ATOM     73  C   UNL     1      -2.858  -1.623   9.849  1.00  0.00     0.041 A 
ATOM     74  F   UNL     1      -1.696  -3.491   9.054  1.00  0.00    -0.206 F 
ATOM     75  C   UNL     1      -2.907  -0.262  10.121  1.00  0.00     0.022 A 
BRANCH  72  76
ATOM     76  S   UNL     1      -1.905   2.296  10.260  1.00  0.00     0.124 S 
ATOM     77  O   UNL     1      -3.085   2.734   9.517  1.00  0.00    -0.237 OA
ATOM     78  O   UNL     1      -2.073   2.227  11.709  1.00  0.00    -0.237 OA
ATOM     79  O   UNL     1      -0.638   2.852   9.797  1.00  0.00    -0.744 OA
ENDBRANCH  72  76
ENDBRANCH  55  69
BRANCH  56  80
ATOM     80  C   UNL     1       7.303  -5.670   4.506  1.00  0.00     0.023 A 
ATOM     81  C   UNL     1       7.763  -5.251   3.243  1.00  0.00     0.031 A 
ATOM     82  C   UNL     1       7.899  -6.805   5.084  1.00  0.00     0.131 A 
ATOM     83  C   UNL     1       8.775  -5.978   2.597  1.00  0.00     0.055 A 
ATOM     84  C   UNL     1       8.935  -7.497   4.457  1.00  0.00     0.041 A 
ATOM     85  F   UNL     1       7.471  -7.258   6.273  1.00  0.00    -0.206 F 
ATOM     86  C   UNL     1       9.373  -7.088   3.203  1.00  0.00     0.022 A 
BRANCH  83  87
ATOM     87  S   UNL     1       9.309  -5.564   0.911  1.00  0.00     0.124 S 
ATOM     88  O   UNL     1      10.739  -5.335   1.091  1.00  0.00    -0.237 OA
ATOM     89  O   UNL     1       8.954  -6.779   0.180  1.00  0.00    -0.237 OA
ATOM     90  O   UNL     1       8.520  -4.383   0.579  1.00  0.00    -0.744 OA
ENDBRANCH  83  87
ENDBRANCH  56  80
BRANCH  68  91
ATOM     91  C   UNL     1       6.287  -2.494  10.706  1.00  0.00     0.023 A 
ATOM     92  C   UNL     1       5.956  -3.086  11.940  1.00  0.00     0.031 A 
ATOM     93  C   UNL     1       7.313  -1.535  10.679  1.00  0.00     0.131 A 
ATOM     94  C   UNL     1       6.606  -2.671  13.108  1.00  0.00     0.055 A 
ATOM     95  C   UNL     1       7.995  -1.163  11.838  1.00  0.00     0.041 A 
ATOM     96  F   UNL     1       7.655  -0.934   9.528  1.00  0.00    -0.206 F 
ATOM     97  C   UNL     1       7.629  -1.718  13.062  1.00  0.00     0.022 A 
BRANCH  94  98
ATOM     98  S   UNL     1       6.074  -3.265  14.737  1.00  0.00     0.124 S 
ATOM     99  O   UNL     1       7.282  -3.924  15.228  1.00  0.00    -0.237 OA
ATOM    100  O   UNL     1       5.722  -2.021  15.417  1.00  0.00    -0.237 OA
ATOM    101  O   UNL     1       4.957  -4.156  14.441  1.00  0.00    -0.744 OA
ENDBRANCH  94  98
ENDBRANCH  68  91
ENDBRANCH  42  43
ENDBRANCH  35  37
ENDBRANCH  34  35
ENDBRANCH   1  34
TORSDOF 18
