REMARK SMILES C[C@H]1CCC[C@H](C)N1C(=O)[C@H]1[C@@H](C(=O)OCCOC(=O)c2ccc(-c3c4nc(c(-c5cc(S(=O)(=O)[O-])ccc5F)c5ccc([nH]5)c(-c5cc(S(=O)(=O)[O-])ccc5F)c5nc(c(-c6cc(S(=O)(=O)[O-])ccc6F)c6ccc3[nH]6)C=C5)C=C4)cc2)[C@H]2CC[C@@H]1O2
REMARK SMILES IDX 17 1 16 2 15 3 13 4 14 5 12 6 11 7 87 8 84 9 86 10 88 11
REMARK SMILES IDX 85 12 9 13 1 14 2 15 3 16 8 17 4 18 6 19 5 20 7 21 10 22
REMARK SMILES IDX 18 23 19 24 20 25 21 26 22 27 83 28 23 29 82 30 24 31 25 32
REMARK SMILES IDX 26 33 76 34 27 35 81 36 75 37 77 38 28 39 80 40 74 41 73 42
REMARK SMILES IDX 29 44 61 45 41 46 60 47 42 48 45 49 59 50 78 51 43 52 44 53
REMARK SMILES IDX 58 55 79 56 46 57 30 58 31 59 39 60 32 61 38 62 40 63 37 64
REMARK SMILES IDX 33 65 34 66 35 67 36 68 62 69 63 70 71 71 64 72 70 73 72 74
REMARK SMILES IDX 69 75 65 76 66 77 67 78 68 79 47 80 48 81 56 82 49 83 55 84
REMARK SMILES IDX 57 85 54 86 50 87 51 88 52 89 53 90
REMARK H PARENT 77 43 45 54
REMARK Flexibility Score: inf
ROOT
ATOM      1  C   UNL     1       0.196   3.741   5.612  1.00  0.00     0.275 C 
ENDROOT
BRANCH   1   2
ATOM      2  C   UNL     1       1.083   2.538   5.279  1.00  0.00     0.274 C 
BRANCH   2   3
ATOM      3  O   UNL     1       0.426   1.569   4.430  1.00  0.00    -0.462 OA
BRANCH   3   4
ATOM      4  C   UNL     1       0.865   0.298   4.632  1.00  0.00     0.312 C 
ATOM      5  O   UNL     1       1.735  -0.003   5.447  1.00  0.00    -0.252 OA
BRANCH   4   6
ATOM      6  C   UNL     1       0.399  -0.710   3.615  1.00  0.00     0.143 C 
ATOM      7  C   UNL     1      -0.799  -0.626   2.652  1.00  0.00     0.124 C 
ATOM      8  C   UNL     1      -1.412  -2.049   2.840  1.00  0.00     0.132 C 
ATOM      9  C   UNL     1       0.248  -2.110   4.236  1.00  0.00     0.133 C 
ATOM     10  C   UNL     1      -2.110  -2.330   4.166  1.00  0.00     0.035 C 
ATOM     11  O   UNL     1      -0.200  -2.837   3.061  1.00  0.00    -0.373 OA
ATOM     12  C   UNL     1      -0.956  -2.281   5.158  1.00  0.00     0.036 C 
BRANCH   7  13
ATOM     13  C   UNL     1      -1.838   0.496   2.640  1.00  0.00     0.229 C 
ATOM     14  C   UNL     1       0.687   1.412   0.945  1.00  0.00     0.031 C 
ATOM     15  C   UNL     1      -0.460   2.332   1.352  1.00  0.00     0.082 C 
ATOM     16  C   UNL     1      -0.895   3.043   0.042  1.00  0.00     0.025 C 
ATOM     17  N   UNL     1      -1.635   1.762   2.074  1.00  0.00    -0.337 N 
ATOM     18  C   UNL     1      -2.064   4.002   0.191  1.00  0.00     0.004 C 
ATOM     19  C   UNL     1      -2.783   2.723   2.219  1.00  0.00     0.082 C 
ATOM     20  C   UNL     1      -3.220   3.291   0.870  1.00  0.00     0.025 C 
ATOM     21  C   UNL     1      -2.475   3.870   3.180  1.00  0.00     0.031 C 
ATOM     22  O   UNL     1      -2.958   0.214   3.080  1.00  0.00    -0.274 OA
ENDBRANCH   7  13
ENDBRANCH   4   6
ENDBRANCH   3   4
ENDBRANCH   2   3
ENDBRANCH   1   2
BRANCH   1  23
ATOM     23  O   UNL     1      -1.149   3.496   6.068  1.00  0.00    -0.458 OA
BRANCH  23  24
ATOM     24  C   UNL     1      -1.482   2.304   6.612  1.00  0.00     0.338 C 
ATOM     25  O   UNL     1      -0.731   1.489   7.099  1.00  0.00    -0.246 OA
BRANCH  24  26
ATOM     26  C   UNL     1      -2.915   2.042   6.320  1.00  0.00     0.060 A 
ATOM     27  C   UNL     1      -3.251   0.737   5.969  1.00  0.00     0.016 A 
ATOM     28  C   UNL     1      -3.909   3.025   6.346  1.00  0.00     0.016 A 
ATOM     29  C   UNL     1      -4.565   0.393   5.667  1.00  0.00     0.010 A 
ATOM     30  C   UNL     1      -5.246   2.673   6.104  1.00  0.00     0.010 A 
ATOM     31  C   UNL     1      -5.583   1.341   5.813  1.00  0.00    -0.014 A 
BRANCH  31  32
ATOM     32  C   UNL     1      -6.949   0.824   6.077  1.00  0.00     0.031 A 
ATOM     33  C   UNL     1      -8.049   0.818   5.065  1.00  0.00     0.074 A 
ATOM     34  C   UNL     1      -7.127   0.291   7.303  1.00  0.00     0.049 A 
ATOM     35  N   UNL     1      -9.279   0.389   5.204  1.00  0.00    -0.248 NA
ATOM     36  C   UNL     1      -7.745   1.361   3.737  1.00  0.00     0.031 C 
ATOM     37  C   UNL     1      -6.083   0.213   8.335  1.00  0.00     0.029 A 
ATOM     38  N   UNL     1      -8.209  -0.303   7.889  1.00  0.00    -0.354 N 
ATOM     39  C   UNL     1      -9.909   0.618   3.986  1.00  0.00     0.074 A 
ATOM     40  C   UNL     1      -8.919   1.236   3.123  1.00  0.00     0.031 C 
ATOM     41  C   UNL     1      -6.566  -0.420   9.408  1.00  0.00     0.029 A 
ATOM     42  C   UNL     1      -7.968  -0.724   9.175  1.00  0.00     0.049 A 
ATOM     43  H   UNL     1      -9.075  -0.419   7.435  1.00  0.00     0.167 HD
ATOM     44  C   UNL     1     -11.195   0.342   3.645  1.00  0.00     0.034 A 
ATOM     45  C   UNL     1      -8.787  -1.269  10.089  1.00  0.00     0.034 A 
ATOM     46  C   UNL     1     -12.152  -0.272   4.547  1.00  0.00     0.049 A 
ATOM     47  C   UNL     1     -10.203  -1.537   9.690  1.00  0.00     0.074 A 
ATOM     48  C   UNL     1     -13.477  -0.602   4.309  1.00  0.00     0.029 A 
ATOM     49  N   UNL     1     -11.892  -0.644   5.864  1.00  0.00    -0.354 N 
ATOM     50  N   UNL     1     -10.792  -1.289   8.543  1.00  0.00    -0.248 NA
ATOM     51  C   UNL     1     -11.057  -2.168  10.696  1.00  0.00     0.031 C 
ATOM     52  C   UNL     1     -14.032  -1.105   5.494  1.00  0.00     0.029 A 
ATOM     53  C   UNL     1     -13.037  -1.166   6.456  1.00  0.00     0.049 A 
ATOM     54  H   UNL     1     -11.021  -0.551   6.312  1.00  0.00     0.167 HD
ATOM     55  C   UNL     1     -12.096  -1.738   8.688  1.00  0.00     0.074 A 
ATOM     56  C   UNL     1     -12.189  -2.307  10.022  1.00  0.00     0.031 C 
ATOM     57  C   UNL     1     -13.125  -1.682   7.804  1.00  0.00     0.034 A 
BRANCH  44  58
ATOM     58  C   UNL     1     -11.670   0.760   2.269  1.00  0.00     0.023 A 
ATOM     59  C   UNL     1     -11.162   0.190   1.087  1.00  0.00     0.031 A 
ATOM     60  C   UNL     1     -12.671   1.742   2.142  1.00  0.00     0.131 A 
ATOM     61  C   UNL     1     -11.627   0.635  -0.164  1.00  0.00     0.055 A 
ATOM     62  C   UNL     1     -13.175   2.133   0.899  1.00  0.00     0.041 A 
ATOM     63  F   UNL     1     -13.183   2.341   3.229  1.00  0.00    -0.206 F 
ATOM     64  C   UNL     1     -12.646   1.585  -0.264  1.00  0.00     0.022 A 
BRANCH  61  65
ATOM     65  S   UNL     1     -10.808   0.036  -1.670  1.00  0.00     0.124 S 
ATOM     66  O   UNL     1      -9.424   0.442  -1.438  1.00  0.00    -0.237 OA
ATOM     67  O   UNL     1     -11.071  -1.397  -1.624  1.00  0.00    -0.237 OA
ATOM     68  O   UNL     1     -11.488   0.760  -2.742  1.00  0.00    -0.744 OA
ENDBRANCH  61  65
ENDBRANCH  44  58
BRANCH  45  69
ATOM     69  C   UNL     1      -8.274  -1.553  11.456  1.00  0.00     0.023 A 
ATOM     70  C   UNL     1      -8.153  -2.866  11.930  1.00  0.00     0.031 A 
ATOM     71  C   UNL     1      -7.852  -0.502  12.293  1.00  0.00     0.131 A 
ATOM     72  C   UNL     1      -7.637  -3.095  13.214  1.00  0.00     0.055 A 
ATOM     73  C   UNL     1      -7.291  -0.739  13.547  1.00  0.00     0.041 A 
ATOM     74  F   UNL     1      -7.935   0.773  11.879  1.00  0.00    -0.206 F 
ATOM     75  C   UNL     1      -7.189  -2.043  14.018  1.00  0.00     0.022 A 
BRANCH  72  76
ATOM     76  S   UNL     1      -7.607  -4.794  13.846  1.00  0.00     0.124 S 
ATOM     77  O   UNL     1      -9.008  -5.182  13.729  1.00  0.00    -0.237 OA
ATOM     78  O   UNL     1      -6.682  -5.444  12.925  1.00  0.00    -0.237 OA
ATOM     79  O   UNL     1      -7.116  -4.639  15.214  1.00  0.00    -0.744 OA
ENDBRANCH  72  76
ENDBRANCH  45  69
BRANCH  57  80
ATOM     80  C   UNL     1     -14.430  -2.265   8.285  1.00  0.00     0.023 A 
ATOM     81  C   UNL     1     -15.137  -1.686   9.355  1.00  0.00     0.031 A 
ATOM     82  C   UNL     1     -14.919  -3.463   7.738  1.00  0.00     0.131 A 
ATOM     83  C   UNL     1     -16.242  -2.352   9.903  1.00  0.00     0.055 A 
ATOM     84  C   UNL     1     -16.061  -4.086   8.245  1.00  0.00     0.041 A 
ATOM     85  F   UNL     1     -14.280  -4.062   6.721  1.00  0.00    -0.206 F 
ATOM     86  C   UNL     1     -16.716  -3.542   9.347  1.00  0.00     0.022 A 
BRANCH  83  87
ATOM     87  S   UNL     1     -16.959  -1.717  11.444  1.00  0.00     0.124 S 
ATOM     88  O   UNL     1     -15.804  -1.708  12.336  1.00  0.00    -0.237 OA
ATOM     89  O   UNL     1     -17.461  -0.409  11.038  1.00  0.00    -0.237 OA
ATOM     90  O   UNL     1     -17.989  -2.701  11.774  1.00  0.00    -0.744 OA
ENDBRANCH  83  87
ENDBRANCH  57  80
ENDBRANCH  31  32
ENDBRANCH  24  26
ENDBRANCH  23  24
ENDBRANCH   1  23
TORSDOF 15
