REMARK SMILES Cc1nn(-c2nc3ccccc3o2)c2c1[C@H](c1ccc(C(=O)OCCOC(=O)c3ccc(-c4c5nc(c(-c6cc(S(=O)(=O)[O-])ccc6F)c6ccc([nH]6)c(-c6cc(S(=O)(=O)[O-])ccc6F)c6nc(c(-c7cc(S(=O)(=O)[O-])ccc7F)c7ccc4[nH]7)C=C6)C=C5)cc3)cc1)CC(=O)N2
REMARK SMILES IDX 25 1 24 2 23 3 21 4 22 5 20 6 17 7 18 8 93 9 19 10 92 11
REMARK SMILES IDX 16 12 1 13 2 14 3 15 15 16 4 17 14 18 97 19 94 20 95 21
REMARK SMILES IDX 96 23 5 24 6 25 13 26 7 27 12 28 8 29 11 30 9 31 10 32 26 33
REMARK SMILES IDX 27 34 28 35 29 36 30 37 91 38 31 39 90 40 32 41 33 42 34 43
REMARK SMILES IDX 84 44 35 45 89 46 83 47 85 48 36 49 88 50 82 51 81 52 37 54
REMARK SMILES IDX 69 55 49 56 68 57 50 58 53 59 67 60 86 61 51 62 52 63 66 65
REMARK SMILES IDX 87 66 54 67 38 68 39 69 47 70 40 71 46 72 48 73 45 74 41 75
REMARK SMILES IDX 42 76 43 77 44 78 70 79 71 80 79 81 72 82 78 83 80 84 77 85
REMARK SMILES IDX 73 86 74 87 75 88 76 89 55 90 56 91 64 92 57 93 63 94 65 95
REMARK SMILES IDX 62 96 58 97 59 98 60 99 61 100
REMARK H PARENT 97 22 85 53 53 64
REMARK Flexibility Score: inf
ROOT
ATOM      1  C   UNL     1      -3.729   4.200   5.503  1.00  0.00     0.275 C 
ENDROOT
BRANCH   1   2
ATOM      2  C   UNL     1      -2.631   5.250   5.438  1.00  0.00     0.275 C 
BRANCH   2   3
ATOM      3  O   UNL     1      -1.958   5.212   4.168  1.00  0.00    -0.458 OA
BRANCH   3   4
ATOM      4  C   UNL     1      -0.889   4.377   4.083  1.00  0.00     0.338 C 
ATOM      5  O   UNL     1      -0.315   3.849   5.026  1.00  0.00    -0.246 OA
BRANCH   4   6
ATOM      6  C   UNL     1      -0.529   4.120   2.662  1.00  0.00     0.060 A 
ATOM      7  C   UNL     1       0.244   3.602  -0.032  1.00  0.00    -0.040 A 
ATOM      8  C   UNL     1       0.805   2.890   1.042  1.00  0.00     0.005 A 
ATOM      9  C   UNL     1      -0.750   4.548   0.287  1.00  0.00     0.005 A 
ATOM     10  C   UNL     1       0.405   3.122   2.367  1.00  0.00     0.016 A 
ATOM     11  C   UNL     1      -1.117   4.820   1.611  1.00  0.00     0.016 A 
BRANCH   7  12
ATOM     12  C   UNL     1       0.818   3.449  -1.443  1.00  0.00     0.064 C 
ATOM     13  C   UNL     1       0.524   0.065  -0.631  1.00  0.00     0.069 C 
ATOM     14  C   UNL     1       0.173   0.835  -1.852  1.00  0.00     0.066 A 
ATOM     15  N   UNL     1      -0.212   0.129  -2.929  1.00  0.00    -0.167 NA
ATOM     16  C   UNL     1       0.269   2.235  -2.137  1.00  0.00     0.026 A 
ATOM     17  N   UNL     1      -0.471   1.058  -3.870  1.00  0.00    -0.166 N 
ATOM     18  C   UNL     1      -0.015   2.292  -3.489  1.00  0.00     0.145 A 
ATOM     19  N   UNL     1       0.237   3.355  -4.327  1.00  0.00    -0.310 N 
ATOM     20  C   UNL     1       0.594   4.711  -2.315  1.00  0.00     0.113 C 
ATOM     21  C   UNL     1       0.764   4.509  -3.808  1.00  0.00     0.226 C 
ATOM     22  H   UNL     1       0.041   3.287  -5.289  1.00  0.00     0.171 HD
ATOM     23  O   UNL     1       1.212   5.390  -4.539  1.00  0.00    -0.275 OA
BRANCH  17  24
ATOM     24  C   UNL     1      -1.043   0.668  -5.077  1.00  0.00     0.325 A 
ATOM     25  N   UNL     1      -2.312   0.937  -5.346  1.00  0.00    -0.191 NA
ATOM     26  O   UNL     1      -0.365   0.062  -6.114  1.00  0.00    -0.422 OA
ATOM     27  C   UNL     1      -2.528   0.330  -6.552  1.00  0.00     0.111 A 
ATOM     28  C   UNL     1      -1.332  -0.153  -7.055  1.00  0.00     0.156 A 
ATOM     29  C   UNL     1      -3.704   0.141  -7.286  1.00  0.00     0.032 A 
ATOM     30  C   UNL     1      -1.188  -0.767  -8.292  1.00  0.00     0.049 A 
ATOM     31  C   UNL     1      -3.611  -0.527  -8.516  1.00  0.00     0.003 A 
ATOM     32  C   UNL     1      -2.373  -0.955  -9.015  1.00  0.00     0.004 A 
ENDBRANCH  17  24
ENDBRANCH   7  12
ENDBRANCH   4   6
ENDBRANCH   3   4
ENDBRANCH   2   3
ENDBRANCH   1   2
BRANCH   1  33
ATOM     33  O   UNL     1      -3.185   2.881   5.514  1.00  0.00    -0.458 OA
BRANCH  33  34
ATOM     34  C   UNL     1      -3.158   2.281   4.301  1.00  0.00     0.338 C 
ATOM     35  O   UNL     1      -3.155   2.823   3.210  1.00  0.00    -0.246 OA
BRANCH  34  36
ATOM     36  C   UNL     1      -3.410   0.850   4.473  1.00  0.00     0.060 A 
ATOM     37  C   UNL     1      -3.296   0.031   3.345  1.00  0.00     0.016 A 
ATOM     38  C   UNL     1      -4.057   0.425   5.641  1.00  0.00     0.016 A 
ATOM     39  C   UNL     1      -3.968  -1.174   3.337  1.00  0.00     0.010 A 
ATOM     40  C   UNL     1      -4.758  -0.752   5.615  1.00  0.00     0.010 A 
ATOM     41  C   UNL     1      -4.751  -1.509   4.445  1.00  0.00    -0.014 A 
BRANCH  41  42
ATOM     42  C   UNL     1      -5.466  -2.768   4.444  1.00  0.00     0.031 A 
ATOM     43  C   UNL     1      -4.575  -3.917   4.724  1.00  0.00     0.074 A 
ATOM     44  C   UNL     1      -6.809  -2.830   4.412  1.00  0.00     0.049 A 
ATOM     45  N   UNL     1      -4.235  -4.872   3.927  1.00  0.00    -0.248 NA
ATOM     46  C   UNL     1      -3.798  -3.882   5.978  1.00  0.00     0.031 C 
ATOM     47  C   UNL     1      -7.756  -1.714   4.464  1.00  0.00     0.029 A 
ATOM     48  N   UNL     1      -7.619  -3.921   4.467  1.00  0.00    -0.354 N 
ATOM     49  C   UNL     1      -3.412  -5.698   4.685  1.00  0.00     0.074 A 
ATOM     50  C   UNL     1      -2.966  -4.904   5.792  1.00  0.00     0.031 C 
ATOM     51  C   UNL     1      -8.982  -2.189   4.781  1.00  0.00     0.029 A 
ATOM     52  C   UNL     1      -8.928  -3.642   4.847  1.00  0.00     0.049 A 
ATOM     53  H   UNL     1      -7.306  -4.830   4.256  1.00  0.00     0.167 HD
ATOM     54  C   UNL     1      -3.436  -7.048   4.521  1.00  0.00     0.034 A 
ATOM     55  C   UNL     1      -9.860  -4.537   5.277  1.00  0.00     0.034 A 
ATOM     56  C   UNL     1      -4.017  -7.398   3.241  1.00  0.00     0.049 A 
ATOM     57  C   UNL     1      -9.408  -5.881   4.827  1.00  0.00     0.074 A 
ATOM     58  C   UNL     1      -3.741  -7.043   1.933  1.00  0.00     0.029 A 
ATOM     59  N   UNL     1      -5.299  -7.907   3.219  1.00  0.00    -0.354 N 
ATOM     60  N   UNL     1      -9.330  -6.231   3.572  1.00  0.00    -0.248 NA
ATOM     61  C   UNL     1      -8.573  -6.659   5.733  1.00  0.00     0.031 C 
ATOM     62  C   UNL     1      -5.016  -6.882   1.317  1.00  0.00     0.029 A 
ATOM     63  C   UNL     1      -5.997  -7.234   2.246  1.00  0.00     0.049 A 
ATOM     64  H   UNL     1      -5.650  -8.623   3.796  1.00  0.00     0.167 HD
ATOM     65  C   UNL     1      -8.145  -6.945   3.468  1.00  0.00     0.074 A 
ATOM     66  C   UNL     1      -7.775  -7.263   4.846  1.00  0.00     0.031 C 
ATOM     67  C   UNL     1      -7.421  -6.956   2.308  1.00  0.00     0.034 A 
BRANCH  54  68
ATOM     68  C   UNL     1      -3.327  -8.037   5.668  1.00  0.00     0.023 A 
ATOM     69  C   UNL     1      -3.432  -9.398   5.334  1.00  0.00     0.031 A 
ATOM     70  C   UNL     1      -3.420  -7.743   7.051  1.00  0.00     0.131 A 
ATOM     71  C   UNL     1      -3.752 -10.359   6.306  1.00  0.00     0.055 A 
ATOM     72  C   UNL     1      -3.667  -8.714   8.024  1.00  0.00     0.041 A 
ATOM     73  F   UNL     1      -3.364  -6.504   7.550  1.00  0.00    -0.206 F 
ATOM     74  C   UNL     1      -3.876 -10.027   7.651  1.00  0.00     0.022 A 
BRANCH  71  75
ATOM     75  S   UNL     1      -4.197 -12.018   5.743  1.00  0.00     0.124 S 
ATOM     76  O   UNL     1      -5.256 -11.722   4.785  1.00  0.00    -0.237 OA
ATOM     77  O   UNL     1      -2.934 -12.490   5.184  1.00  0.00    -0.237 OA
ATOM     78  O   UNL     1      -4.627 -12.686   6.968  1.00  0.00    -0.744 OA
ENDBRANCH  71  75
ENDBRANCH  54  68
BRANCH  55  79
ATOM     79  C   UNL     1     -10.903  -4.324   6.323  1.00  0.00     0.023 A 
ATOM     80  C   UNL     1     -12.028  -5.165   6.469  1.00  0.00     0.031 A 
ATOM     81  C   UNL     1     -10.680  -3.390   7.362  1.00  0.00     0.131 A 
ATOM     82  C   UNL     1     -12.868  -5.047   7.604  1.00  0.00     0.055 A 
ATOM     83  C   UNL     1     -11.517  -3.271   8.474  1.00  0.00     0.041 A 
ATOM     84  F   UNL     1      -9.585  -2.614   7.380  1.00  0.00    -0.206 F 
ATOM     85  C   UNL     1     -12.613  -4.106   8.604  1.00  0.00     0.022 A 
BRANCH  82  86
ATOM     86  S   UNL     1     -14.269  -6.189   7.850  1.00  0.00     0.124 S 
ATOM     87  O   UNL     1     -15.193  -5.778   6.799  1.00  0.00    -0.237 OA
ATOM     88  O   UNL     1     -13.641  -7.495   7.691  1.00  0.00    -0.237 OA
ATOM     89  O   UNL     1     -14.718  -5.891   9.211  1.00  0.00    -0.744 OA
ENDBRANCH  82  86
ENDBRANCH  55  79
BRANCH  67  90
ATOM     90  C   UNL     1      -8.075  -6.444   1.038  1.00  0.00     0.023 A 
ATOM     91  C   UNL     1      -8.626  -5.153   0.868  1.00  0.00     0.031 A 
ATOM     92  C   UNL     1      -8.020  -7.281  -0.092  1.00  0.00     0.131 A 
ATOM     93  C   UNL     1      -9.105  -4.751  -0.397  1.00  0.00     0.055 A 
ATOM     94  C   UNL     1      -8.473  -6.872  -1.345  1.00  0.00     0.041 A 
ATOM     95  F   UNL     1      -7.484  -8.510  -0.004  1.00  0.00    -0.206 F 
ATOM     96  C   UNL     1      -9.023  -5.606  -1.501  1.00  0.00     0.022 A 
BRANCH  93  97
ATOM     97  S   UNL     1      -9.866  -3.111  -0.630  1.00  0.00     0.124 S 
ATOM     98  O   UNL     1     -10.787  -2.997   0.494  1.00  0.00    -0.237 OA
ATOM     99  O   UNL     1      -8.710  -2.220  -0.604  1.00  0.00    -0.237 OA
ATOM    100  O   UNL     1     -10.516  -3.222  -1.938  1.00  0.00    -0.744 OA
ENDBRANCH  93  97
ENDBRANCH  67  90
ENDBRANCH  41  42
ENDBRANCH  34  36
ENDBRANCH  33  34
ENDBRANCH   1  33
TORSDOF 16
