REMARK SMILES CN(Cc1ccc(C(=O)OCCOC(=O)c2ccc(-c3c4nc(c(-c5cc(S(=O)(=O)[O-])ccc5F)c5ccc([nH]5)c(-c5cc(S(=O)(=O)[O-])ccc5F)c5nc(c(-c6cc(S(=O)(=O)[O-])ccc6F)c6ccc3[nH]6)C=C5)C=C4)cc2)cc1)c1ccccc1N
REMARK SMILES IDX 11 1 10 2 8 3 9 4 7 5 4 6 5 7 80 8 6 9 79 10 3 11 2 12 1 13
REMARK SMILES IDX 81 14 82 15 86 16 83 17 85 18 84 19 87 20 12 23 13 24 14 25
REMARK SMILES IDX 15 26 16 27 17 28 78 29 18 30 77 31 19 32 20 33 21 34 71 35
REMARK SMILES IDX 22 36 76 37 70 38 72 39 23 40 75 41 69 42 68 43 24 45 56 46
REMARK SMILES IDX 36 47 55 48 37 49 40 50 54 51 73 52 38 53 39 54 53 56 74 57
REMARK SMILES IDX 41 58 25 59 26 60 34 61 27 62 33 63 35 64 32 65 28 66 29 67
REMARK SMILES IDX 30 68 31 69 57 70 58 71 66 72 59 73 65 74 67 75 64 76 60 77
REMARK SMILES IDX 61 78 62 79 63 80 42 81 43 82 51 83 44 84 50 85 52 86 49 87
REMARK SMILES IDX 45 88 46 89 47 90 48 91
REMARK H PARENT 87 21 87 22 72 44 40 55
REMARK Flexibility Score: inf
ROOT
ATOM      1  C   UNL     1      -7.470   2.987   1.855  1.00  0.00     0.275 C 
ENDROOT
BRANCH   1   2
ATOM      2  O   UNL     1      -6.221   2.506   1.321  1.00  0.00    -0.458 OA
BRANCH   2   3
ATOM      3  C   UNL     1      -5.757   3.158   0.224  1.00  0.00     0.338 C 
ATOM      4  O   UNL     1      -6.314   4.077  -0.357  1.00  0.00    -0.246 OA
BRANCH   3   5
ATOM      5  C   UNL     1      -4.404   2.671  -0.147  1.00  0.00     0.060 A 
ATOM      6  C   UNL     1      -1.743   1.937  -0.711  1.00  0.00    -0.029 A 
ATOM      7  C   UNL     1      -2.241   3.181  -1.125  1.00  0.00     0.006 A 
ATOM      8  C   UNL     1      -2.617   1.038  -0.077  1.00  0.00     0.006 A 
ATOM      9  C   UNL     1      -3.564   3.538  -0.860  1.00  0.00     0.016 A 
ATOM     10  C   UNL     1      -3.935   1.406   0.218  1.00  0.00     0.016 A 
BRANCH   6  11
ATOM     11  C   UNL     1      -0.276   1.607  -0.921  1.00  0.00     0.151 C 
BRANCH  11  12
ATOM     12  N   UNL     1       0.392   1.158   0.308  1.00  0.00    -0.369 N 
ATOM     13  C   UNL     1       0.805  -0.228   0.386  1.00  0.00     0.144 C 
BRANCH  12  14
ATOM     14  C   UNL     1       0.922   2.136   1.160  1.00  0.00     0.060 A 
ATOM     15  C   UNL     1       0.039   3.084   1.724  1.00  0.00     0.028 A 
ATOM     16  C   UNL     1       2.294   2.256   1.504  1.00  0.00     0.055 A 
ATOM     17  C   UNL     1       0.471   4.129   2.543  1.00  0.00     0.002 A 
ATOM     18  C   UNL     1       2.716   3.328   2.318  1.00  0.00     0.027 A 
ATOM     19  C   UNL     1       1.817   4.257   2.835  1.00  0.00     0.002 A 
BRANCH  16  20
ATOM     20  N   UNL     1       3.300   1.456   0.958  1.00  0.00    -0.397 N 
ATOM     21  H   UNL     1       3.064   0.694   0.381  1.00  0.00     0.156 HD
ATOM     22  H   UNL     1       4.245   1.655   1.148  1.00  0.00     0.156 HD
ENDBRANCH  16  20
ENDBRANCH  12  14
ENDBRANCH  11  12
ENDBRANCH   6  11
ENDBRANCH   3   5
ENDBRANCH   2   3
ENDBRANCH   1   2
BRANCH   1  23
ATOM     23  C   UNL     1      -7.242   3.837   3.105  1.00  0.00     0.275 C 
BRANCH  23  24
ATOM     24  O   UNL     1      -6.500   5.023   2.772  1.00  0.00    -0.458 OA
BRANCH  24  25
ATOM     25  C   UNL     1      -5.298   5.147   3.382  1.00  0.00     0.338 C 
ATOM     26  O   UNL     1      -4.806   4.402   4.211  1.00  0.00    -0.246 OA
BRANCH  25  27
ATOM     27  C   UNL     1      -4.618   6.351   2.882  1.00  0.00     0.060 A 
ATOM     28  C   UNL     1      -3.988   6.303   1.640  1.00  0.00     0.016 A 
ATOM     29  C   UNL     1      -4.488   7.476   3.695  1.00  0.00     0.016 A 
ATOM     30  C   UNL     1      -3.178   7.359   1.224  1.00  0.00     0.010 A 
ATOM     31  C   UNL     1      -3.723   8.561   3.249  1.00  0.00     0.010 A 
ATOM     32  C   UNL     1      -3.031   8.502   2.024  1.00  0.00    -0.014 A 
BRANCH  32  33
ATOM     33  C   UNL     1      -2.097   9.595   1.622  1.00  0.00     0.031 A 
ATOM     34  C   UNL     1      -0.912   9.927   2.495  1.00  0.00     0.074 A 
ATOM     35  C   UNL     1      -2.286  10.282   0.477  1.00  0.00     0.049 A 
ATOM     36  N   UNL     1      -0.086  10.940   2.429  1.00  0.00    -0.248 NA
ATOM     37  C   UNL     1      -0.635   8.997   3.599  1.00  0.00     0.031 C 
ATOM     38  C   UNL     1      -3.354  10.033  -0.492  1.00  0.00     0.029 A 
ATOM     39  N   UNL     1      -1.582  11.329  -0.068  1.00  0.00    -0.354 N 
ATOM     40  C   UNL     1       0.777  10.800   3.512  1.00  0.00     0.074 A 
ATOM     41  C   UNL     1       0.358   9.610   4.226  1.00  0.00     0.031 C 
ATOM     42  C   UNL     1      -3.218  10.881  -1.523  1.00  0.00     0.029 A 
ATOM     43  C   UNL     1      -2.108  11.790  -1.253  1.00  0.00     0.049 A 
ATOM     44  H   UNL     1      -0.777  11.712   0.349  1.00  0.00     0.167 HD
ATOM     45  C   UNL     1       1.821  11.589   3.876  1.00  0.00     0.034 A 
ATOM     46  C   UNL     1      -1.769  12.850  -2.015  1.00  0.00     0.034 A 
ATOM     47  C   UNL     1       2.253  12.748   3.131  1.00  0.00     0.049 A 
ATOM     48  C   UNL     1      -0.637  13.740  -1.569  1.00  0.00     0.074 A 
ATOM     49  C   UNL     1       3.302  13.610   3.405  1.00  0.00     0.029 A 
ATOM     50  N   UNL     1       1.668  13.203   1.956  1.00  0.00    -0.354 N 
ATOM     51  N   UNL     1       0.124  13.639  -0.504  1.00  0.00    -0.248 NA
ATOM     52  C   UNL     1      -0.328  14.895  -2.423  1.00  0.00     0.031 C 
ATOM     53  C   UNL     1       3.315  14.615   2.431  1.00  0.00     0.029 A 
ATOM     54  C   UNL     1       2.320  14.343   1.507  1.00  0.00     0.049 A 
ATOM     55  H   UNL     1       0.902  12.778   1.506  1.00  0.00     0.167 HD
ATOM     56  C   UNL     1       1.012  14.709  -0.570  1.00  0.00     0.074 A 
ATOM     57  C   UNL     1       0.704  15.431  -1.787  1.00  0.00     0.031 C 
ATOM     58  C   UNL     1       1.993  15.063   0.299  1.00  0.00     0.034 A 
BRANCH  45  59
ATOM     59  C   UNL     1       2.523  11.255   5.172  1.00  0.00     0.023 A 
ATOM     60  C   UNL     1       3.230  10.054   5.353  1.00  0.00     0.031 A 
ATOM     61  C   UNL     1       2.449  12.143   6.261  1.00  0.00     0.131 A 
ATOM     62  C   UNL     1       3.764   9.738   6.612  1.00  0.00     0.055 A 
ATOM     63  C   UNL     1       3.053  11.860   7.488  1.00  0.00     0.041 A 
ATOM     64  F   UNL     1       1.772  13.298   6.157  1.00  0.00    -0.206 F 
ATOM     65  C   UNL     1       3.701  10.643   7.674  1.00  0.00     0.022 A 
BRANCH  62  66
ATOM     66  S   UNL     1       4.403   8.062   6.886  1.00  0.00     0.124 S 
ATOM     67  O   UNL     1       3.246   7.242   6.533  1.00  0.00    -0.237 OA
ATOM     68  O   UNL     1       5.532   8.002   5.965  1.00  0.00    -0.237 OA
ATOM     69  O   UNL     1       4.752   8.056   8.305  1.00  0.00    -0.744 OA
ENDBRANCH  62  66
ENDBRANCH  45  59
BRANCH  46  70
ATOM     70  C   UNL     1      -2.551  13.174  -3.244  1.00  0.00     0.023 A 
ATOM     71  C   UNL     1      -1.960  13.131  -4.516  1.00  0.00     0.031 A 
ATOM     72  C   UNL     1      -3.899  13.567  -3.155  1.00  0.00     0.131 A 
ATOM     73  C   UNL     1      -2.706  13.504  -5.646  1.00  0.00     0.055 A 
ATOM     74  C   UNL     1      -4.652  13.885  -4.286  1.00  0.00     0.041 A 
ATOM     75  F   UNL     1      -4.511  13.631  -1.962  1.00  0.00    -0.206 F 
ATOM     76  C   UNL     1      -4.052  13.864  -5.541  1.00  0.00     0.022 A 
BRANCH  73  77
ATOM     77  S   UNL     1      -1.872  13.581  -7.255  1.00  0.00     0.124 S 
ATOM     78  O   UNL     1      -0.822  14.560  -6.999  1.00  0.00    -0.237 OA
ATOM     79  O   UNL     1      -1.433  12.201  -7.436  1.00  0.00    -0.237 OA
ATOM     80  O   UNL     1      -2.928  14.021  -8.165  1.00  0.00    -0.744 OA
ENDBRANCH  73  77
ENDBRANCH  46  70
BRANCH  58  81
ATOM     81  C   UNL     1       2.829  16.264  -0.070  1.00  0.00     0.023 A 
ATOM     82  C   UNL     1       2.296  17.565  -0.072  1.00  0.00     0.031 A 
ATOM     83  C   UNL     1       4.175  16.098  -0.444  1.00  0.00     0.131 A 
ATOM     84  C   UNL     1       3.089  18.644  -0.492  1.00  0.00     0.055 A 
ATOM     85  C   UNL     1       4.974  17.182  -0.809  1.00  0.00     0.041 A 
ATOM     86  F   UNL     1       4.734  14.877  -0.460  1.00  0.00    -0.206 F 
ATOM     87  C   UNL     1       4.429  18.462  -0.848  1.00  0.00     0.022 A 
BRANCH  84  88
ATOM     88  S   UNL     1       2.324  20.281  -0.651  1.00  0.00     0.124 S 
ATOM     89  O   UNL     1       1.261  20.027  -1.618  1.00  0.00    -0.237 OA
ATOM     90  O   UNL     1       1.891  20.558   0.714  1.00  0.00    -0.237 OA
ATOM     91  O   UNL     1       3.415  21.124  -1.137  1.00  0.00    -0.744 OA
ENDBRANCH  84  88
ENDBRANCH  58  81
ENDBRANCH  32  33
ENDBRANCH  25  27
ENDBRANCH  24  25
ENDBRANCH  23  24
ENDBRANCH   1  23
TORSDOF 18
