REMARK SMILES O=C(OCCOC(=O)[C@H]1Cc2c([nH]c3ccccc23)[C@@H](c2ccc(OC(F)(F)F)cc2)[NH2+]1)c1ccc(-c2c3nc(c(-c4cc(S(=O)(=O)[O-])ccc4F)c4ccc([nH]4)c(-c4cc(S(=O)(=O)[O-])ccc4F)c4nc(c(-c5cc(S(=O)(=O)[O-])ccc5F)c5ccc2[nH]5)C=C4)C=C3)cc1
REMARK SMILES IDX 4 1 3 2 2 3 1 4 33 5 34 6 95 7 35 8 94 9 36 10 37 11 38 12
REMARK SMILES IDX 88 13 39 14 93 15 87 16 89 17 40 18 92 19 86 20 85 21 41 23
REMARK SMILES IDX 73 24 53 25 72 26 54 27 57 28 71 29 90 30 55 31 56 32 70 34
REMARK SMILES IDX 91 35 58 36 42 37 43 38 51 39 44 40 50 41 52 42 49 43 45 44
REMARK SMILES IDX 46 45 47 46 48 47 74 48 75 49 83 50 76 51 82 52 84 53 81 54
REMARK SMILES IDX 77 55 78 56 79 57 80 58 59 59 60 60 68 61 61 62 67 63 69 64
REMARK SMILES IDX 66 65 62 66 63 67 64 68 65 69 5 70 6 71 7 72 8 73 9 74 10 75
REMARK SMILES IDX 32 76 11 77 20 78 12 81 19 82 13 83 14 84 18 85 15 87 17 88
REMARK SMILES IDX 16 89 21 90 22 91 31 92 23 93 30 94 24 95 25 96 26 97 27 98
REMARK SMILES IDX 28 99 29 100
REMARK H PARENT 89 22 57 33 32 79 32 80 13 86
REMARK Flexibility Score: inf
ROOT
ATOM      1  C   UNL     1       4.207  -0.394  -1.614  1.00  0.00     0.275 C 
ENDROOT
BRANCH   1   2
ATOM      2  O   UNL     1       3.030  -0.855  -0.921  1.00  0.00    -0.458 OA
BRANCH   2   3
ATOM      3  C   UNL     1       2.709  -0.857   0.394  1.00  0.00     0.338 C 
ATOM      4  O   UNL     1       1.636  -1.365   0.724  1.00  0.00    -0.246 OA
BRANCH   3   5
ATOM      5  C   UNL     1       3.496  -0.162   1.466  1.00  0.00     0.060 A 
ATOM      6  C   UNL     1       4.813   0.288   1.365  1.00  0.00     0.016 A 
ATOM      7  C   UNL     1       2.803   0.120   2.664  1.00  0.00     0.016 A 
ATOM      8  C   UNL     1       5.391   1.070   2.365  1.00  0.00     0.010 A 
ATOM      9  C   UNL     1       3.377   0.902   3.675  1.00  0.00     0.010 A 
ATOM     10  C   UNL     1       4.678   1.385   3.522  1.00  0.00    -0.014 A 
BRANCH  10  11
ATOM     11  C   UNL     1       5.413   2.031   4.629  1.00  0.00     0.031 A 
ATOM     12  C   UNL     1       5.956   1.140   5.705  1.00  0.00     0.074 A 
ATOM     13  C   UNL     1       5.702   3.345   4.590  1.00  0.00     0.049 A 
ATOM     14  N   UNL     1       6.742   1.429   6.705  1.00  0.00    -0.248 NA
ATOM     15  C   UNL     1       5.569  -0.278   5.627  1.00  0.00     0.031 C 
ATOM     16  C   UNL     1       5.269   4.275   3.547  1.00  0.00     0.029 A 
ATOM     17  N   UNL     1       6.455   4.121   5.433  1.00  0.00    -0.354 N 
ATOM     18  C   UNL     1       6.955   0.227   7.369  1.00  0.00     0.074 A 
ATOM     19  C   UNL     1       6.171  -0.780   6.691  1.00  0.00     0.031 C 
ATOM     20  C   UNL     1       5.779   5.493   3.802  1.00  0.00     0.029 A 
ATOM     21  C   UNL     1       6.556   5.436   5.036  1.00  0.00     0.049 A 
ATOM     22  H   UNL     1       6.884   3.771   6.247  1.00  0.00     0.167 HD
ATOM     23  C   UNL     1       7.750  -0.014   8.438  1.00  0.00     0.034 A 
ATOM     24  C   UNL     1       7.204   6.468   5.614  1.00  0.00     0.034 A 
ATOM     25  C   UNL     1       8.488   1.021   9.114  1.00  0.00     0.049 A 
ATOM     26  C   UNL     1       7.979   6.196   6.879  1.00  0.00     0.074 A 
ATOM     27  C   UNL     1       9.294   0.918  10.232  1.00  0.00     0.029 A 
ATOM     28  N   UNL     1       8.488   2.361   8.742  1.00  0.00    -0.354 N 
ATOM     29  N   UNL     1       8.174   5.055   7.502  1.00  0.00    -0.248 NA
ATOM     30  C   UNL     1       8.630   7.349   7.511  1.00  0.00     0.031 C 
ATOM     31  C   UNL     1       9.714   2.207  10.582  1.00  0.00     0.029 A 
ATOM     32  C   UNL     1       9.249   3.102   9.630  1.00  0.00     0.049 A 
ATOM     33  H   UNL     1       8.016   2.730   7.960  1.00  0.00     0.167 HD
ATOM     34  C   UNL     1       9.002   5.349   8.581  1.00  0.00     0.074 A 
ATOM     35  C   UNL     1       9.278   6.771   8.512  1.00  0.00     0.031 C 
ATOM     36  C   UNL     1       9.498   4.523   9.538  1.00  0.00     0.034 A 
BRANCH  23  37
ATOM     37  C   UNL     1       7.765  -1.428   8.963  1.00  0.00     0.023 A 
ATOM     38  C   UNL     1       8.222  -2.504   8.179  1.00  0.00     0.031 A 
ATOM     39  C   UNL     1       7.210  -1.718  10.221  1.00  0.00     0.131 A 
ATOM     40  C   UNL     1       8.019  -3.822   8.617  1.00  0.00     0.055 A 
ATOM     41  C   UNL     1       7.098  -3.028  10.690  1.00  0.00     0.041 A 
ATOM     42  F   UNL     1       6.727  -0.736  10.998  1.00  0.00    -0.206 F 
ATOM     43  C   UNL     1       7.484  -4.090   9.878  1.00  0.00     0.022 A 
BRANCH  40  44
ATOM     44  S   UNL     1       8.281  -5.176   7.436  1.00  0.00     0.124 S 
ATOM     45  O   UNL     1       7.347  -4.820   6.369  1.00  0.00    -0.237 OA
ATOM     46  O   UNL     1       9.697  -5.045   7.114  1.00  0.00    -0.237 OA
ATOM     47  O   UNL     1       7.919  -6.369   8.197  1.00  0.00    -0.744 OA
ENDBRANCH  40  44
ENDBRANCH  23  37
BRANCH  24  48
ATOM     48  C   UNL     1       7.128   7.849   5.053  1.00  0.00     0.023 A 
ATOM     49  C   UNL     1       8.272   8.529   4.602  1.00  0.00     0.031 A 
ATOM     50  C   UNL     1       5.909   8.549   5.057  1.00  0.00     0.131 A 
ATOM     51  C   UNL     1       8.180   9.877   4.213  1.00  0.00     0.055 A 
ATOM     52  C   UNL     1       5.813   9.871   4.616  1.00  0.00     0.041 A 
ATOM     53  F   UNL     1       4.795   7.961   5.517  1.00  0.00    -0.206 F 
ATOM     54  C   UNL     1       6.954  10.546   4.198  1.00  0.00     0.022 A 
BRANCH  51  55
ATOM     55  S   UNL     1       9.704  10.786   3.831  1.00  0.00     0.124 S 
ATOM     56  O   UNL     1      10.435  10.678   5.088  1.00  0.00    -0.237 OA
ATOM     57  O   UNL     1      10.240  10.023   2.709  1.00  0.00    -0.237 OA
ATOM     58  O   UNL     1       9.228  12.127   3.498  1.00  0.00    -0.744 OA
ENDBRANCH  51  55
ENDBRANCH  24  48
BRANCH  36  59
ATOM     59  C   UNL     1      10.434   5.138  10.547  1.00  0.00     0.023 A 
ATOM     60  C   UNL     1      10.002   6.113  11.462  1.00  0.00     0.031 A 
ATOM     61  C   UNL     1      11.786   4.750  10.579  1.00  0.00     0.131 A 
ATOM     62  C   UNL     1      10.929   6.717  12.324  1.00  0.00     0.055 A 
ATOM     63  C   UNL     1      12.686   5.300  11.490  1.00  0.00     0.041 A 
ATOM     64  F   UNL     1      12.252   3.827   9.723  1.00  0.00    -0.206 F 
ATOM     65  C   UNL     1      12.262   6.301  12.359  1.00  0.00     0.022 A 
BRANCH  62  66
ATOM     66  S   UNL     1      10.392   8.138  13.314  1.00  0.00     0.124 S 
ATOM     67  O   UNL     1       9.921   9.061  12.287  1.00  0.00    -0.237 OA
ATOM     68  O   UNL     1       9.363   7.553  14.166  1.00  0.00    -0.237 OA
ATOM     69  O   UNL     1      11.611   8.551  14.007  1.00  0.00    -0.744 OA
ENDBRANCH  62  66
ENDBRANCH  36  59
ENDBRANCH  10  11
ENDBRANCH   3   5
ENDBRANCH   2   3
ENDBRANCH   1   2
BRANCH   1  70
ATOM     70  C   UNL     1       4.196   1.102  -1.949  1.00  0.00     0.274 C 
BRANCH  70  71
ATOM     71  O   UNL     1       3.813   1.921  -0.834  1.00  0.00    -0.458 OA
BRANCH  71  72
ATOM     72  C   UNL     1       2.502   2.310  -0.799  1.00  0.00     0.365 C 
ATOM     73  O   UNL     1       1.704   2.124  -1.712  1.00  0.00    -0.245 OA
BRANCH  72  74
ATOM     74  C   UNL     1       2.168   2.927   0.563  1.00  0.00     0.298 C 
ATOM     75  C   UNL     1       2.397   4.448   0.530  1.00  0.00     0.115 C 
ATOM     76  N   UNL     1       0.777   2.566   0.949  1.00  0.00    -0.323 N 
ATOM     77  C   UNL     1       1.896   5.031   1.806  1.00  0.00    -0.006 A 
ATOM     78  C   UNL     1       0.393   2.998   2.306  1.00  0.00     0.262 C 
ATOM     79  H   UNL     1       0.685   1.551   0.898  1.00  0.00     0.347 HD
ATOM     80  H   UNL     1       0.158   3.052   0.300  1.00  0.00     0.347 HD
ATOM     81  C   UNL     1       1.005   4.336   2.603  1.00  0.00     0.083 A 
ATOM     82  C   UNL     1       2.126   6.292   2.409  1.00  0.00     0.003 A 
ATOM     83  N   UNL     1       0.792   5.080   3.735  1.00  0.00    -0.353 N 
ATOM     84  C   UNL     1       1.385   6.317   3.593  1.00  0.00     0.046 A 
ATOM     85  C   UNL     1       2.878   7.425   2.053  1.00  0.00     0.010 A 
ATOM     86  H   UNL     1       0.293   4.777   4.527  1.00  0.00     0.166 HD
ATOM     87  C   UNL     1       1.327   7.443   4.421  1.00  0.00     0.026 A 
ATOM     88  C   UNL     1       2.821   8.562   2.864  1.00  0.00     0.001 A 
ATOM     89  C   UNL     1       2.049   8.572   4.025  1.00  0.00     0.002 A 
BRANCH  78  90
ATOM     90  C   UNL     1      -1.134   2.970   2.377  1.00  0.00     0.016 A 
ATOM     91  C   UNL     1      -1.915   4.128   2.242  1.00  0.00     0.014 A 
ATOM     92  C   UNL     1      -1.801   1.735   2.462  1.00  0.00     0.014 A 
ATOM     93  C   UNL     1      -3.308   4.054   2.200  1.00  0.00     0.047 A 
ATOM     94  C   UNL     1      -3.198   1.659   2.387  1.00  0.00     0.047 A 
ATOM     95  C   UNL     1      -3.956   2.820   2.239  1.00  0.00     0.129 A 
BRANCH  95  96
ATOM     96  O   UNL     1      -5.313   2.895   2.121  1.00  0.00    -0.406 OA
BRANCH  96  97
ATOM     97  C   UNL     1      -5.994   1.710   1.751  1.00  0.00     0.573 C 
ATOM     98  F   UNL     1      -5.462   1.148   0.645  1.00  0.00    -0.132 F 
ATOM     99  F   UNL     1      -5.993   0.815   2.761  1.00  0.00    -0.132 F 
ATOM    100  F   UNL     1      -7.282   2.025   1.477  1.00  0.00    -0.132 F 
ENDBRANCH  96  97
ENDBRANCH  95  96
ENDBRANCH  78  90
ENDBRANCH  72  74
ENDBRANCH  71  72
ENDBRANCH  70  71
ENDBRANCH   1  70
TORSDOF 17
