REMARK SMILES CN1CC[N@H+](CC(=O)OCCOC(=O)c2ccc(-c3c4nc(c(-c5cc(S(=O)(=O)[O-])ccc5F)c5ccc([nH]5)c(-c5cc(S(=O)(=O)[O-])ccc5F)c5nc(c(-c6cc(S(=O)(=O)[O-])ccc6F)c6ccc3[nH]6)C=C5)C=C4)cc2)C(C)(C)C1=O
REMARK SMILES IDX 11 1 10 2 9 3 7 4 8 5 6 6 5 7 1 8 2 9 3 10 81 11 4 12 78 13
REMARK SMILES IDX 82 14 79 15 80 16 12 18 13 19 14 20 15 21 16 22 77 23 17 24
REMARK SMILES IDX 76 25 18 26 19 27 20 28 70 29 21 30 75 31 69 32 71 33 22 34
REMARK SMILES IDX 74 35 68 36 67 37 23 39 55 40 35 41 54 42 36 43 39 44 53 45
REMARK SMILES IDX 72 46 37 47 38 48 52 50 73 51 40 52 24 53 25 54 33 55 26 56
REMARK SMILES IDX 32 57 34 58 31 59 27 60 28 61 29 62 30 63 56 64 57 65 65 66
REMARK SMILES IDX 58 67 64 68 66 69 63 70 59 71 60 72 61 73 62 74 41 75 42 76
REMARK SMILES IDX 50 77 43 78 49 79 51 80 48 81 44 82 45 83 46 84 47 85
REMARK H PARENT 5 17 71 38 39 49
REMARK Flexibility Score: inf
ROOT
ATOM      1  C   UNL     1      -2.766   0.268  -1.017  1.00  0.00     0.275 C 
ENDROOT
BRANCH   1   2
ATOM      2  C   UNL     1      -2.602  -1.066  -1.736  1.00  0.00     0.274 C 
BRANCH   2   3
ATOM      3  O   UNL     1      -1.413  -1.055  -2.550  1.00  0.00    -0.458 OA
BRANCH   3   4
ATOM      4  C   UNL     1      -1.587  -0.925  -3.887  1.00  0.00     0.361 C 
ATOM      5  O   UNL     1      -2.682  -0.809  -4.430  1.00  0.00    -0.245 OA
BRANCH   4   6
ATOM      6  C   UNL     1      -0.295  -0.969  -4.702  1.00  0.00     0.387 C 
BRANCH   6   7
ATOM      7  N   UNL     1       0.991  -0.864  -3.989  1.00  0.00    -0.312 N 
ATOM      8  C   UNL     1       1.329   0.014   0.200  1.00  0.00     0.147 C 
ATOM      9  N   UNL     1       1.433  -0.361  -1.196  1.00  0.00    -0.335 N 
ATOM     10  C   UNL     1       1.917   0.639  -2.134  1.00  0.00     0.180 C 
ATOM     11  C   UNL     1       1.197  -1.668  -1.606  1.00  0.00     0.283 C 
ATOM     12  C   UNL     1       1.308   0.496  -3.537  1.00  0.00     0.285 C 
ATOM     13  C   UNL     1       1.448  -1.974  -3.119  1.00  0.00     0.172 C 
ATOM     14  O   UNL     1       0.867  -2.552  -0.811  1.00  0.00    -0.268 OA
ATOM     15  C   UNL     1       2.967  -2.157  -3.336  1.00  0.00     0.090 C 
ATOM     16  C   UNL     1       0.804  -3.334  -3.473  1.00  0.00     0.090 C 
ATOM     17  H   UNL     1       1.637  -1.063  -4.752  1.00  0.00     0.349 HD
ENDBRANCH   6   7
ENDBRANCH   4   6
ENDBRANCH   3   4
ENDBRANCH   2   3
ENDBRANCH   1   2
BRANCH   1  18
ATOM     18  O   UNL     1      -2.869   1.324  -1.986  1.00  0.00    -0.458 OA
BRANCH  18  19
ATOM     19  C   UNL     1      -1.833   2.191  -2.012  1.00  0.00     0.338 C 
ATOM     20  O   UNL     1      -0.874   2.239  -1.263  1.00  0.00    -0.246 OA
BRANCH  19  21
ATOM     21  C   UNL     1      -2.028   3.148  -3.106  1.00  0.00     0.060 A 
ATOM     22  C   UNL     1      -1.940   2.732  -4.438  1.00  0.00     0.016 A 
ATOM     23  C   UNL     1      -2.223   4.490  -2.784  1.00  0.00     0.016 A 
ATOM     24  C   UNL     1      -2.042   3.671  -5.460  1.00  0.00     0.010 A 
ATOM     25  C   UNL     1      -2.382   5.418  -3.810  1.00  0.00     0.010 A 
ATOM     26  C   UNL     1      -2.297   5.014  -5.152  1.00  0.00    -0.014 A 
BRANCH  26  27
ATOM     27  C   UNL     1      -2.581   5.999  -6.220  1.00  0.00     0.031 A 
ATOM     28  C   UNL     1      -1.633   7.129  -6.483  1.00  0.00     0.074 A 
ATOM     29  C   UNL     1      -3.751   5.904  -6.880  1.00  0.00     0.049 A 
ATOM     30  N   UNL     1      -1.809   8.200  -7.209  1.00  0.00    -0.248 NA
ATOM     31  C   UNL     1      -0.317   7.045  -5.833  1.00  0.00     0.031 C 
ATOM     32  C   UNL     1      -4.727   4.824  -6.711  1.00  0.00     0.029 A 
ATOM     33  N   UNL     1      -4.334   6.740  -7.795  1.00  0.00    -0.354 N 
ATOM     34  C   UNL     1      -0.633   8.934  -7.095  1.00  0.00     0.074 A 
ATOM     35  C   UNL     1       0.241   8.188  -6.212  1.00  0.00     0.031 C 
ATOM     36  C   UNL     1      -5.794   5.071  -7.484  1.00  0.00     0.029 A 
ATOM     37  C   UNL     1      -5.610   6.360  -8.139  1.00  0.00     0.049 A 
ATOM     38  H   UNL     1      -3.885   7.532  -8.169  1.00  0.00     0.167 HD
ATOM     39  C   UNL     1      -0.326  10.121  -7.674  1.00  0.00     0.034 A 
ATOM     40  C   UNL     1      -6.553   7.007  -8.849  1.00  0.00     0.034 A 
ATOM     41  C   UNL     1      -1.232  10.843  -8.537  1.00  0.00     0.049 A 
ATOM     42  C   UNL     1      -6.228   8.369  -9.394  1.00  0.00     0.074 A 
ATOM     43  C   UNL     1      -1.021  12.031  -9.214  1.00  0.00     0.029 A 
ATOM     44  N   UNL     1      -2.534  10.450  -8.828  1.00  0.00    -0.354 N 
ATOM     45  N   UNL     1      -5.114   9.057  -9.280  1.00  0.00    -0.248 NA
ATOM     46  C   UNL     1      -7.287   9.048 -10.149  1.00  0.00     0.031 C 
ATOM     47  C   UNL     1      -2.213  12.390  -9.856  1.00  0.00     0.029 A 
ATOM     48  C   UNL     1      -3.151  11.393  -9.634  1.00  0.00     0.049 A 
ATOM     49  H   UNL     1      -2.956   9.620  -8.507  1.00  0.00     0.167 HD
ATOM     50  C   UNL     1      -5.338  10.251  -9.954  1.00  0.00     0.074 A 
ATOM     51  C   UNL     1      -6.685  10.178 -10.489  1.00  0.00     0.031 C 
ATOM     52  C   UNL     1      -4.509  11.313 -10.119  1.00  0.00     0.034 A 
BRANCH  39  53
ATOM     53  C   UNL     1       1.013  10.733  -7.343  1.00  0.00     0.023 A 
ATOM     54  C   UNL     1       2.223  10.130  -7.730  1.00  0.00     0.031 A 
ATOM     55  C   UNL     1       1.081  11.931  -6.610  1.00  0.00     0.131 A 
ATOM     56  C   UNL     1       3.446  10.694  -7.331  1.00  0.00     0.055 A 
ATOM     57  C   UNL     1       2.300  12.523  -6.274  1.00  0.00     0.041 A 
ATOM     58  F   UNL     1      -0.040  12.541  -6.194  1.00  0.00    -0.206 F 
ATOM     59  C   UNL     1       3.493  11.898  -6.624  1.00  0.00     0.022 A 
BRANCH  56  60
ATOM     60  S   UNL     1       4.974   9.766  -7.642  1.00  0.00     0.124 S 
ATOM     61  O   UNL     1       4.711   8.515  -6.935  1.00  0.00    -0.237 OA
ATOM     62  O   UNL     1       5.003   9.684  -9.097  1.00  0.00    -0.237 OA
ATOM     63  O   UNL     1       6.012  10.603  -7.043  1.00  0.00    -0.744 OA
ENDBRANCH  56  60
ENDBRANCH  39  53
BRANCH  40  64
ATOM     64  C   UNL     1      -7.907   6.410  -9.009  1.00  0.00     0.023 A 
ATOM     65  C   UNL     1      -8.372   6.000 -10.266  1.00  0.00     0.031 A 
ATOM     66  C   UNL     1      -8.756   6.240  -7.900  1.00  0.00     0.131 A 
ATOM     67  C   UNL     1      -9.661   5.460 -10.389  1.00  0.00     0.055 A 
ATOM     68  C   UNL     1     -10.019   5.660  -8.020  1.00  0.00     0.041 A 
ATOM     69  F   UNL     1      -8.355   6.613  -6.673  1.00  0.00    -0.206 F 
ATOM     70  C   UNL     1     -10.482   5.273  -9.273  1.00  0.00     0.022 A 
BRANCH  67  71
ATOM     71  S   UNL     1     -10.277   5.055 -12.046  1.00  0.00     0.124 S 
ATOM     72  O   UNL     1     -10.174   6.342 -12.725  1.00  0.00    -0.237 OA
ATOM     73  O   UNL     1      -9.335   4.026 -12.475  1.00  0.00    -0.237 OA
ATOM     74  O   UNL     1     -11.639   4.587 -11.798  1.00  0.00    -0.744 OA
ENDBRANCH  67  71
ENDBRANCH  40  64
BRANCH  52  75
ATOM     75  C   UNL     1      -5.054  12.467 -10.918  1.00  0.00     0.023 A 
ATOM     76  C   UNL     1      -6.071  13.291 -10.407  1.00  0.00     0.031 A 
ATOM     77  C   UNL     1      -4.577  12.722 -12.215  1.00  0.00     0.131 A 
ATOM     78  C   UNL     1      -6.615  14.304 -11.209  1.00  0.00     0.055 A 
ATOM     79  C   UNL     1      -5.085  13.765 -12.989  1.00  0.00     0.041 A 
ATOM     80  F   UNL     1      -3.610  11.959 -12.749  1.00  0.00    -0.206 F 
ATOM     81  C   UNL     1      -6.118  14.556 -12.491  1.00  0.00     0.022 A 
BRANCH  78  82
ATOM     82  S   UNL     1      -8.034  15.243 -10.583  1.00  0.00     0.124 S 
ATOM     83  O   UNL     1      -9.049  14.203 -10.447  1.00  0.00    -0.237 OA
ATOM     84  O   UNL     1      -7.519  15.799  -9.336  1.00  0.00    -0.237 OA
ATOM     85  O   UNL     1      -8.288  16.224 -11.637  1.00  0.00    -0.744 OA
ENDBRANCH  78  82
ENDBRANCH  52  75
ENDBRANCH  26  27
ENDBRANCH  19  21
ENDBRANCH  18  19
ENDBRANCH   1  18
TORSDOF 15
