REMARK SMILES C[C@H]1CC[C@@H](Nc2cncc(C(=O)OCCOC(=O)c3ccc(-c4c5nc(c(-c6cc(S(=O)(=O)[O-])ccc6F)c6ccc([nH]6)c(-c6cc(S(=O)(=O)[O-])ccc6F)c6nc(c(-c7cc(S(=O)(=O)[O-])ccc7F)c7ccc4[nH]7)C=C6)C=C5)cc3)n2)[C@H](C)C1
REMARK SMILES IDX 16 1 15 2 14 3 12 4 13 5 11 6 7 7 8 8 83 9 9 10 10 11 6 12
REMARK SMILES IDX 5 14 1 15 2 16 3 17 86 18 4 19 84 20 85 21 17 22 18 23 19 24
REMARK SMILES IDX 20 25 21 26 82 27 22 28 81 29 23 30 24 31 25 32 75 33 26 34
REMARK SMILES IDX 80 35 74 36 76 37 27 38 79 39 73 40 72 41 28 43 60 44 40 45
REMARK SMILES IDX 59 46 41 47 44 48 58 49 77 50 42 51 43 52 57 54 78 55 45 56
REMARK SMILES IDX 29 57 30 58 38 59 31 60 37 61 39 62 36 63 32 64 33 65 34 66
REMARK SMILES IDX 35 67 61 68 62 69 70 70 63 71 69 72 71 73 68 74 64 75 65 76
REMARK SMILES IDX 66 77 67 78 46 79 47 80 55 81 48 82 54 83 56 84 53 85 49 86
REMARK SMILES IDX 50 87 51 88 52 89
REMARK H PARENT 6 13 76 42 44 53
REMARK Flexibility Score: inf
ROOT
ATOM      1  C   UNL     1       2.113   1.724  -8.277  1.00  0.00     0.275 C 
ENDROOT
BRANCH   1   2
ATOM      2  C   UNL     1       1.813   3.184  -7.938  1.00  0.00     0.275 C 
BRANCH   2   3
ATOM      3  O   UNL     1       1.310   3.336  -6.596  1.00  0.00    -0.457 OA
BRANCH   3   4
ATOM      4  C   UNL     1      -0.042   3.442  -6.492  1.00  0.00     0.358 C 
ATOM      5  O   UNL     1      -0.833   3.384  -7.420  1.00  0.00    -0.244 OA
BRANCH   4   6
ATOM      6  C   UNL     1      -0.485   3.605  -5.084  1.00  0.00     0.169 A 
ATOM      7  C   UNL     1      -0.061   4.009  -2.858  1.00  0.00     0.145 A 
ATOM      8  C   UNL     1      -1.419   3.810  -2.602  1.00  0.00     0.157 A 
ATOM      9  N   UNL     1       0.417   3.943  -4.120  1.00  0.00    -0.221 NA
ATOM     10  N   UNL     1      -2.330   3.497  -3.555  1.00  0.00    -0.258 NA
ATOM     11  C   UNL     1      -1.828   3.393  -4.804  1.00  0.00     0.147 A 
BRANCH   7  12
ATOM     12  N   UNL     1       0.860   4.325  -1.881  1.00  0.00    -0.366 N 
ATOM     13  H   UNL     1       1.208   5.246  -1.856  1.00  0.00     0.162 HD
BRANCH  12  14
ATOM     14  C   UNL     1       1.357   3.372  -0.869  1.00  0.00     0.083 C 
ATOM     15  C   UNL     1       0.094  -0.677  -2.029  1.00  0.00     0.007 C 
ATOM     16  C   UNL     1       0.785   0.447  -1.252  1.00  0.00    -0.014 C 
ATOM     17  C   UNL     1       1.735   1.208  -2.180  1.00  0.00     0.005 C 
ATOM     18  C   UNL     1      -0.265   1.369  -0.619  1.00  0.00     0.008 C 
ATOM     19  C   UNL     1       2.376   2.402  -1.486  1.00  0.00     0.025 C 
ATOM     20  C   UNL     1       0.296   2.664   0.002  1.00  0.00     0.008 C 
ATOM     21  C   UNL     1       0.884   2.345   1.390  1.00  0.00     0.010 C 
ENDBRANCH  12  14
ENDBRANCH   7  12
ENDBRANCH   4   6
ENDBRANCH   3   4
ENDBRANCH   2   3
ENDBRANCH   1   2
BRANCH   1  22
ATOM     22  O   UNL     1       0.915   0.929  -8.232  1.00  0.00    -0.458 OA
BRANCH  22  23
ATOM     23  C   UNL     1       0.885  -0.024  -7.272  1.00  0.00     0.338 C 
ATOM     24  O   UNL     1       1.767  -0.305  -6.477  1.00  0.00    -0.246 OA
BRANCH  23  25
ATOM     25  C   UNL     1      -0.427  -0.687  -7.276  1.00  0.00     0.060 A 
ATOM     26  C   UNL     1      -1.468  -0.113  -6.548  1.00  0.00     0.016 A 
ATOM     27  C   UNL     1      -0.590  -1.935  -7.879  1.00  0.00     0.016 A 
ATOM     28  C   UNL     1      -2.671  -0.800  -6.391  1.00  0.00     0.010 A 
ATOM     29  C   UNL     1      -1.814  -2.605  -7.754  1.00  0.00     0.010 A 
ATOM     30  C   UNL     1      -2.859  -2.057  -6.988  1.00  0.00    -0.014 A 
BRANCH  30  31
ATOM     31  C   UNL     1      -4.120  -2.818  -6.749  1.00  0.00     0.031 A 
ATOM     32  C   UNL     1      -4.083  -4.119  -5.987  1.00  0.00     0.074 A 
ATOM     33  C   UNL     1      -5.302  -2.334  -7.183  1.00  0.00     0.049 A 
ATOM     34  N   UNL     1      -5.040  -4.988  -5.781  1.00  0.00    -0.248 NA
ATOM     35  C   UNL     1      -2.794  -4.495  -5.386  1.00  0.00     0.031 C 
ATOM     36  C   UNL     1      -5.487  -1.065  -7.889  1.00  0.00     0.029 A 
ATOM     37  N   UNL     1      -6.574  -2.846  -7.087  1.00  0.00    -0.354 N 
ATOM     38  C   UNL     1      -4.461  -6.035  -5.069  1.00  0.00     0.074 A 
ATOM     39  C   UNL     1      -3.066  -5.691  -4.884  1.00  0.00     0.031 C 
ATOM     40  C   UNL     1      -6.794  -0.885  -8.135  1.00  0.00     0.029 A 
ATOM     41  C   UNL     1      -7.535  -2.057  -7.677  1.00  0.00     0.049 A 
ATOM     42  H   UNL     1      -6.778  -3.699  -6.639  1.00  0.00     0.167 HD
ATOM     43  C   UNL     1      -5.039  -7.175  -4.616  1.00  0.00     0.034 A 
ATOM     44  C   UNL     1      -8.855  -2.266  -7.863  1.00  0.00     0.034 A 
ATOM     45  C   UNL     1      -6.441  -7.484  -4.764  1.00  0.00     0.049 A 
ATOM     46  C   UNL     1      -9.465  -3.557  -7.377  1.00  0.00     0.074 A 
ATOM     47  C   UNL     1      -7.129  -8.601  -4.317  1.00  0.00     0.029 A 
ATOM     48  N   UNL     1      -7.373  -6.675  -5.399  1.00  0.00    -0.354 N 
ATOM     49  N   UNL     1      -8.892  -4.556  -6.747  1.00  0.00    -0.248 NA
ATOM     50  C   UNL     1     -10.898  -3.752  -7.636  1.00  0.00     0.031 C 
ATOM     51  C   UNL     1      -8.462  -8.492  -4.729  1.00  0.00     0.029 A 
ATOM     52  C   UNL     1      -8.622  -7.279  -5.376  1.00  0.00     0.049 A 
ATOM     53  H   UNL     1      -7.177  -5.801  -5.806  1.00  0.00     0.167 HD
ATOM     54  C   UNL     1      -9.900  -5.490  -6.522  1.00  0.00     0.074 A 
ATOM     55  C   UNL     1     -11.120  -4.924  -7.061  1.00  0.00     0.031 C 
ATOM     56  C   UNL     1      -9.826  -6.707  -5.928  1.00  0.00     0.034 A 
BRANCH  43  57
ATOM     57  C   UNL     1      -4.144  -8.206  -3.971  1.00  0.00     0.023 A 
ATOM     58  C   UNL     1      -3.521  -7.989  -2.731  1.00  0.00     0.031 A 
ATOM     59  C   UNL     1      -3.918  -9.434  -4.619  1.00  0.00     0.131 A 
ATOM     60  C   UNL     1      -2.661  -8.966  -2.203  1.00  0.00     0.055 A 
ATOM     61  C   UNL     1      -3.116 -10.428  -4.057  1.00  0.00     0.041 A 
ATOM     62  F   UNL     1      -4.473  -9.687  -5.815  1.00  0.00    -0.206 F 
ATOM     63  C   UNL     1      -2.474 -10.193  -2.846  1.00  0.00     0.022 A 
BRANCH  60  64
ATOM     64  S   UNL     1      -1.707  -8.574  -0.711  1.00  0.00     0.124 S 
ATOM     65  O   UNL     1      -0.908  -7.437  -1.161  1.00  0.00    -0.237 OA
ATOM     66  O   UNL     1      -2.750  -8.276   0.264  1.00  0.00    -0.237 OA
ATOM     67  O   UNL     1      -0.948  -9.798  -0.457  1.00  0.00    -0.744 OA
ENDBRANCH  60  64
ENDBRANCH  43  57
BRANCH  44  68
ATOM     68  C   UNL     1      -9.686  -1.270  -8.603  1.00  0.00     0.023 A 
ATOM     69  C   UNL     1     -10.770  -0.625  -7.987  1.00  0.00     0.031 A 
ATOM     70  C   UNL     1      -9.446  -1.000  -9.963  1.00  0.00     0.131 A 
ATOM     71  C   UNL     1     -11.601   0.221  -8.740  1.00  0.00     0.055 A 
ATOM     72  C   UNL     1     -10.238  -0.113 -10.691  1.00  0.00     0.041 A 
ATOM     73  F   UNL     1      -8.428  -1.596 -10.605  1.00  0.00    -0.206 F 
ATOM     74  C   UNL     1     -11.333   0.493 -10.083  1.00  0.00     0.022 A 
BRANCH  71  75
ATOM     75  S   UNL     1     -13.104   0.879  -7.966  1.00  0.00     0.124 S 
ATOM     76  O   UNL     1     -13.772  -0.341  -7.526  1.00  0.00    -0.237 OA
ATOM     77  O   UNL     1     -12.556   1.727  -6.913  1.00  0.00    -0.237 OA
ATOM     78  O   UNL     1     -13.764   1.592  -9.058  1.00  0.00    -0.744 OA
ENDBRANCH  71  75
ENDBRANCH  44  68
BRANCH  56  79
ATOM     79  C   UNL     1     -11.114  -7.480  -5.798  1.00  0.00     0.023 A 
ATOM     80  C   UNL     1     -11.769  -8.016  -6.921  1.00  0.00     0.031 A 
ATOM     81  C   UNL     1     -11.707  -7.660  -4.535  1.00  0.00     0.131 A 
ATOM     82  C   UNL     1     -13.007  -8.659  -6.766  1.00  0.00     0.055 A 
ATOM     83  C   UNL     1     -12.912  -8.346  -4.382  1.00  0.00     0.041 A 
ATOM     84  F   UNL     1     -11.123  -7.167  -3.431  1.00  0.00    -0.206 F 
ATOM     85  C   UNL     1     -13.575  -8.838  -5.502  1.00  0.00     0.022 A 
BRANCH  82  86
ATOM     86  S   UNL     1     -13.907  -9.185  -8.250  1.00  0.00     0.124 S 
ATOM     87  O   UNL     1     -14.080  -7.925  -8.965  1.00  0.00    -0.237 OA
ATOM     88  O   UNL     1     -12.983 -10.140  -8.855  1.00  0.00    -0.237 OA
ATOM     89  O   UNL     1     -15.137  -9.769  -7.717  1.00  0.00    -0.744 OA
ENDBRANCH  82  86
ENDBRANCH  56  79
ENDBRANCH  30  31
ENDBRANCH  23  25
ENDBRANCH  22  23
ENDBRANCH   1  22
TORSDOF 16
