REMARK SMILES Cc1cc(C)cc(CSc2cc(C(=O)OCCOC(=O)c3ccc(-c4c5nc(c(-c6cc(S(=O)(=O)[O-])ccc6F)c6ccc([nH]6)c(-c6cc(S(=O)(=O)[O-])ccc6F)c6nc(c(-c7cc(S(=O)(=O)[O-])ccc7F)c7ccc4[nH]7)C=C6)C=C5)cc3)cc(Cl)n2)c1
REMARK SMILES IDX 16 1 15 2 13 3 14 4 12 5 10 6 11 7 87 8 85 9 84 10 86 11
REMARK SMILES IDX 9 12 8 13 7 14 1 15 2 16 3 17 88 18 4 19 5 20 6 21 17 22
REMARK SMILES IDX 18 23 19 24 20 25 21 26 22 27 83 28 23 29 82 30 24 31 25 32
REMARK SMILES IDX 26 33 76 34 27 35 81 36 75 37 77 38 28 39 80 40 74 41 73 42
REMARK SMILES IDX 29 44 61 45 41 46 60 47 42 48 45 49 59 50 78 51 43 52 44 53
REMARK SMILES IDX 58 55 79 56 46 57 30 58 31 59 39 60 32 61 38 62 40 63 37 64
REMARK SMILES IDX 33 65 34 66 35 67 36 68 62 69 63 70 71 71 64 72 70 73 72 74
REMARK SMILES IDX 69 75 65 76 66 77 67 78 68 79 47 80 48 81 56 82 49 83 55 84
REMARK SMILES IDX 57 85 54 86 50 87 51 88 52 89 53 90
REMARK H PARENT 77 43 45 54
REMARK Flexibility Score: inf
ROOT
ATOM      1  C   UNL     1       3.096  -4.760   7.678  1.00  0.00     0.275 C 
ENDROOT
BRANCH   1   2
ATOM      2  O   UNL     1       2.362  -3.829   6.857  1.00  0.00    -0.458 OA
BRANCH   2   3
ATOM      3  C   UNL     1       2.524  -3.958   5.517  1.00  0.00     0.338 C 
ATOM      4  O   UNL     1       3.265  -4.731   4.940  1.00  0.00    -0.246 OA
BRANCH   3   5
ATOM      5  C   UNL     1       1.561  -3.089   4.808  1.00  0.00     0.065 A 
ATOM      6  C   UNL     1      -0.044  -2.846   3.057  1.00  0.00     0.099 A 
ATOM      7  C   UNL     1       0.962  -3.584   3.650  1.00  0.00     0.051 A 
ATOM      8  N   UNL     1      -0.393  -1.619   3.488  1.00  0.00    -0.230 NA
ATOM      9  C   UNL     1       0.268  -1.136   4.558  1.00  0.00     0.131 A 
ATOM     10  C   UNL     1       1.225  -1.826   5.274  1.00  0.00     0.056 A 
ATOM     11  Cl  UNL     1      -0.165   0.465   5.000  1.00  0.00    -0.062 Cl
BRANCH   6  12
ATOM     12  S   UNL     1      -1.030  -3.605   1.786  1.00  0.00    -0.102 SA
BRANCH  12  13
ATOM     13  C   UNL     1      -0.093  -3.108   0.306  1.00  0.00     0.112 C 
BRANCH  13  14
ATOM     14  C   UNL     1      -0.047  -1.615   0.107  1.00  0.00    -0.037 A 
ATOM     15  C   UNL     1       2.535   1.183  -0.035  1.00  0.00     0.044 C 
ATOM     16  C   UNL     1       1.225   0.455  -0.043  1.00  0.00    -0.051 A 
ATOM     17  C   UNL     1       0.025   1.174  -0.127  1.00  0.00     0.006 A 
ATOM     18  C   UNL     1       1.180  -0.939   0.078  1.00  0.00     0.008 A 
ATOM     19  C   UNL     1      -1.210   0.515  -0.115  1.00  0.00    -0.051 A 
ATOM     20  C   UNL     1      -2.489   1.295  -0.155  1.00  0.00     0.044 C 
ATOM     21  C   UNL     1      -1.235  -0.879  -0.017  1.00  0.00     0.008 A 
ENDBRANCH  13  14
ENDBRANCH  12  13
ENDBRANCH   6  12
ENDBRANCH   3   5
ENDBRANCH   2   3
ENDBRANCH   1   2
BRANCH   1  22
ATOM     22  C   UNL     1       2.181  -5.856   8.227  1.00  0.00     0.275 C 
BRANCH  22  23
ATOM     23  O   UNL     1       1.770  -6.750   7.177  1.00  0.00    -0.458 OA
BRANCH  23  24
ATOM     24  C   UNL     1       0.499  -6.586   6.745  1.00  0.00     0.338 C 
ATOM     25  O   UNL     1      -0.322  -5.782   7.152  1.00  0.00    -0.246 OA
BRANCH  24  26
ATOM     26  C   UNL     1       0.242  -7.497   5.621  1.00  0.00     0.060 A 
ATOM     27  C   UNL     1       0.703  -7.137   4.359  1.00  0.00     0.016 A 
ATOM     28  C   UNL     1      -0.562  -8.623   5.779  1.00  0.00     0.016 A 
ATOM     29  C   UNL     1       0.276  -7.829   3.229  1.00  0.00     0.010 A 
ATOM     30  C   UNL     1      -0.896  -9.386   4.653  1.00  0.00     0.010 A 
ATOM     31  C   UNL     1      -0.511  -8.979   3.360  1.00  0.00    -0.014 A 
BRANCH  31  32
ATOM     32  C   UNL     1      -0.957  -9.752   2.163  1.00  0.00     0.031 A 
ATOM     33  C   UNL     1      -2.427  -9.996   1.939  1.00  0.00     0.074 A 
ATOM     34  C   UNL     1      -0.060 -10.257   1.290  1.00  0.00     0.049 A 
ATOM     35  N   UNL     1      -3.017 -10.865   1.160  1.00  0.00    -0.248 NA
ATOM     36  C   UNL     1      -3.353  -9.161   2.718  1.00  0.00     0.031 C 
ATOM     37  C   UNL     1       1.387 -10.035   1.332  1.00  0.00     0.029 A 
ATOM     38  N   UNL     1      -0.234 -11.077   0.200  1.00  0.00    -0.354 N 
ATOM     39  C   UNL     1      -4.381 -10.728   1.401  1.00  0.00     0.074 A 
ATOM     40  C   UNL     1      -4.526  -9.692   2.403  1.00  0.00     0.031 C 
ATOM     41  C   UNL     1       1.964 -10.686   0.311  1.00  0.00     0.029 A 
ATOM     42  C   UNL     1       0.949 -11.462  -0.391  1.00  0.00     0.049 A 
ATOM     43  H   UNL     1      -1.118 -11.361  -0.127  1.00  0.00     0.167 HD
ATOM     44  C   UNL     1      -5.410 -11.413   0.842  1.00  0.00     0.034 A 
ATOM     45  C   UNL     1       1.204 -12.387  -1.338  1.00  0.00     0.034 A 
ATOM     46  C   UNL     1      -5.240 -12.410  -0.189  1.00  0.00     0.049 A 
ATOM     47  C   UNL     1       0.057 -13.185  -1.901  1.00  0.00     0.074 A 
ATOM     48  C   UNL     1      -6.208 -13.165  -0.830  1.00  0.00     0.029 A 
ATOM     49  N   UNL     1      -4.021 -12.783  -0.739  1.00  0.00    -0.354 N 
ATOM     50  N   UNL     1      -1.219 -13.118  -1.600  1.00  0.00    -0.248 NA
ATOM     51  C   UNL     1       0.384 -14.195  -2.917  1.00  0.00     0.031 C 
ATOM     52  C   UNL     1      -5.570 -14.032  -1.723  1.00  0.00     0.029 A 
ATOM     53  C   UNL     1      -4.210 -13.768  -1.695  1.00  0.00     0.049 A 
ATOM     54  H   UNL     1      -3.148 -12.404  -0.486  1.00  0.00     0.167 HD
ATOM     55  C   UNL     1      -1.850 -14.055  -2.412  1.00  0.00     0.074 A 
ATOM     56  C   UNL     1      -0.816 -14.674  -3.215  1.00  0.00     0.031 C 
ATOM     57  C   UNL     1      -3.167 -14.369  -2.491  1.00  0.00     0.034 A 
BRANCH  44  58
ATOM     58  C   UNL     1      -6.798 -11.160   1.386  1.00  0.00     0.023 A 
ATOM     59  C   UNL     1      -7.439  -9.916   1.262  1.00  0.00     0.031 A 
ATOM     60  C   UNL     1      -7.481 -12.186   2.067  1.00  0.00     0.131 A 
ATOM     61  C   UNL     1      -8.687  -9.709   1.871  1.00  0.00     0.055 A 
ATOM     62  C   UNL     1      -8.757 -11.997   2.600  1.00  0.00     0.041 A 
ATOM     63  F   UNL     1      -6.912 -13.390   2.236  1.00  0.00    -0.206 F 
ATOM     64  C   UNL     1      -9.361 -10.748   2.518  1.00  0.00     0.022 A 
BRANCH  61  65
ATOM     65  S   UNL     1      -9.356  -8.024   1.930  1.00  0.00     0.124 S 
ATOM     66  O   UNL     1      -8.298  -7.312   2.642  1.00  0.00    -0.237 OA
ATOM     67  O   UNL     1      -9.509  -7.696   0.517  1.00  0.00    -0.237 OA
ATOM     68  O   UNL     1     -10.605  -8.176   2.674  1.00  0.00    -0.744 OA
ENDBRANCH  61  65
ENDBRANCH  44  58
BRANCH  45  69
ATOM     69  C   UNL     1       2.609 -12.669  -1.753  1.00  0.00     0.023 A 
ATOM     70  C   UNL     1       3.042 -12.426  -3.065  1.00  0.00     0.031 A 
ATOM     71  C   UNL     1       3.537 -13.210  -0.842  1.00  0.00     0.131 A 
ATOM     72  C   UNL     1       4.357 -12.750  -3.438  1.00  0.00     0.055 A 
ATOM     73  C   UNL     1       4.858 -13.478  -1.203  1.00  0.00     0.041 A 
ATOM     74  F   UNL     1       3.175 -13.466   0.425  1.00  0.00    -0.206 F 
ATOM     75  C   UNL     1       5.271 -13.257  -2.512  1.00  0.00     0.022 A 
BRANCH  72  76
ATOM     76  S   UNL     1       4.837 -12.568  -5.177  1.00  0.00     0.124 S 
ATOM     77  O   UNL     1       3.873 -13.436  -5.843  1.00  0.00    -0.237 OA
ATOM     78  O   UNL     1       4.665 -11.134  -5.390  1.00  0.00    -0.237 OA
ATOM     79  O   UNL     1       6.220 -13.038  -5.199  1.00  0.00    -0.744 OA
ENDBRANCH  72  76
ENDBRANCH  45  69
BRANCH  57  80
ATOM     80  C   UNL     1      -3.572 -15.374  -3.538  1.00  0.00     0.023 A 
ATOM     81  C   UNL     1      -3.274 -16.741  -3.412  1.00  0.00     0.031 A 
ATOM     82  C   UNL     1      -4.286 -14.948  -4.672  1.00  0.00     0.131 A 
ATOM     83  C   UNL     1      -3.663 -17.633  -4.424  1.00  0.00     0.055 A 
ATOM     84  C   UNL     1      -4.711 -15.845  -5.651  1.00  0.00     0.041 A 
ATOM     85  F   UNL     1      -4.593 -13.651  -4.837  1.00  0.00    -0.206 F 
ATOM     86  C   UNL     1      -4.393 -17.195  -5.534  1.00  0.00     0.022 A 
BRANCH  83  87
ATOM     87  S   UNL     1      -3.164 -19.372  -4.298  1.00  0.00     0.124 S 
ATOM     88  O   UNL     1      -1.709 -19.273  -4.349  1.00  0.00    -0.237 OA
ATOM     89  O   UNL     1      -3.732 -19.770  -3.015  1.00  0.00    -0.237 OA
ATOM     90  O   UNL     1      -3.784 -19.993  -5.467  1.00  0.00    -0.744 OA
ENDBRANCH  83  87
ENDBRANCH  57  80
ENDBRANCH  31  32
ENDBRANCH  24  26
ENDBRANCH  23  24
ENDBRANCH  22  23
ENDBRANCH   1  22
TORSDOF 17
