REMARK SMILES C[C@@H](C(=O)OCCOC(=O)c1ccc(-c2c3nc(c(-c4cc(S(=O)(=O)[O-])ccc4F)c4ccc([nH]4)c(-c4cc(S(=O)(=O)[O-])ccc4F)c4nc(c(-c5cc(S(=O)(=O)[O-])ccc5F)c5ccc2[nH]5)C=C4)C=C3)cc1)[N@@H+](C)Cc1ccc(-c2ccccc2)cc1
REMARK SMILES IDX 6 1 5 2 3 3 4 4 2 5 1 6 74 7 75 8 76 10 77 11 78 12 88 13
REMARK SMILES IDX 79 14 87 15 80 16 81 17 82 18 86 19 83 20 85 21 84 22 7 23
REMARK SMILES IDX 8 24 9 25 10 26 11 27 12 28 73 29 13 30 72 31 14 32 15 33
REMARK SMILES IDX 16 34 66 35 17 36 71 37 65 38 67 39 18 40 70 41 64 42 63 43
REMARK SMILES IDX 19 45 51 46 31 47 50 48 32 49 35 50 49 51 68 52 33 53 34 54
REMARK SMILES IDX 48 56 69 57 36 58 20 59 21 60 29 61 22 62 28 63 30 64 27 65
REMARK SMILES IDX 23 66 24 67 25 68 26 69 52 70 53 71 61 72 54 73 60 74 62 75
REMARK SMILES IDX 59 76 55 77 56 78 57 79 58 80 37 81 38 82 46 83 39 84 45 85
REMARK SMILES IDX 47 86 44 87 40 88 41 89 42 90 43 91
REMARK H PARENT 74 9 67 44 35 55
REMARK Flexibility Score: inf
ROOT
ATOM      1  C   UNL     1       3.373  -1.406   3.169  1.00  0.00     0.274 C 
ENDROOT
BRANCH   1   2
ATOM      2  O   UNL     1       2.764  -1.007   1.926  1.00  0.00    -0.458 OA
BRANCH   2   3
ATOM      3  C   UNL     1       2.006  -1.931   1.273  1.00  0.00     0.364 C 
ATOM      4  O   UNL     1       1.883  -3.101   1.627  1.00  0.00    -0.245 OA
BRANCH   3   5
ATOM      5  C   UNL     1       1.319  -1.351   0.023  1.00  0.00     0.292 C 
ATOM      6  C   UNL     1       1.966  -0.055  -0.472  1.00  0.00     0.088 C 
BRANCH   5   7
ATOM      7  N   UNL     1      -0.144  -1.211   0.139  1.00  0.00    -0.322 N 
ATOM      8  C   UNL     1      -0.907  -2.444   0.241  1.00  0.00     0.333 C 
ATOM      9  H   UNL     1      -0.352  -0.919  -0.816  1.00  0.00     0.348 HD
BRANCH   7  10
ATOM     10  C   UNL     1      -0.676  -0.046   0.835  1.00  0.00     0.299 C 
BRANCH  10  11
ATOM     11  C   UNL     1      -0.375   0.103   2.314  1.00  0.00     0.006 A 
ATOM     12  C   UNL     1      -0.151  -1.354   3.410  1.00  0.00     0.010 A 
ATOM     13  C   UNL     1      -0.593   1.761   3.063  1.00  0.00     0.010 A 
ATOM     14  C   UNL     1      -0.197  -1.166   5.212  1.00  0.00     0.009 A 
ATOM     15  C   UNL     1      -0.347   1.967   4.867  1.00  0.00     0.009 A 
ATOM     16  C   UNL     1      -0.161   0.496   5.943  1.00  0.00    -0.018 A 
BRANCH  16  17
ATOM     17  C   UNL     1       0.184   0.558   7.377  1.00  0.00    -0.018 A 
ATOM     18  C   UNL     1       1.262  -0.220   7.845  1.00  0.00     0.009 A 
ATOM     19  C   UNL     1      -0.557   1.273   8.320  1.00  0.00     0.009 A 
ATOM     20  C   UNL     1       1.576  -0.310   9.201  1.00  0.00     0.001 A 
ATOM     21  C   UNL     1      -0.253   1.175   9.686  1.00  0.00     0.001 A 
ATOM     22  C   UNL     1       0.808   0.382  10.126  1.00  0.00     0.000 A 
ENDBRANCH  16  17
ENDBRANCH  10  11
ENDBRANCH   7  10
ENDBRANCH   5   7
ENDBRANCH   3   5
ENDBRANCH   2   3
ENDBRANCH   1   2
BRANCH   1  23
ATOM     23  C   UNL     1       3.098  -0.369   4.254  1.00  0.00     0.275 C 
BRANCH  23  24
ATOM     24  O   UNL     1       1.710  -0.478   4.657  1.00  0.00    -0.458 OA
BRANCH  24  25
ATOM     25  C   UNL     1       0.667   0.402   4.048  1.00  0.00     0.338 C 
ATOM     26  O   UNL     1       1.409   1.239   3.449  1.00  0.00    -0.246 OA
BRANCH  25  27
ATOM     27  C   UNL     1      -1.465   0.197   4.201  1.00  0.00     0.060 A 
ATOM     28  C   UNL     1      -2.411  -0.612   3.326  1.00  0.00     0.016 A 
ATOM     29  C   UNL     1      -2.499   0.932   5.047  1.00  0.00     0.016 A 
ATOM     30  C   UNL     1      -3.774  -0.449   3.063  1.00  0.00     0.010 A 
ATOM     31  C   UNL     1      -3.919   1.003   4.900  1.00  0.00     0.010 A 
ATOM     32  C   UNL     1      -4.547   0.347   3.866  1.00  0.00    -0.014 A 
BRANCH  32  33
ATOM     33  C   UNL     1      -6.000   0.330   3.645  1.00  0.00     0.031 A 
ATOM     34  C   UNL     1      -6.705   1.553   3.157  1.00  0.00     0.074 A 
ATOM     35  C   UNL     1      -6.621  -0.857   3.784  1.00  0.00     0.049 A 
ATOM     36  N   UNL     1      -7.986   1.757   3.019  1.00  0.00    -0.248 NA
ATOM     37  C   UNL     1      -5.865   2.698   2.776  1.00  0.00     0.031 C 
ATOM     38  C   UNL     1      -5.950  -2.115   4.150  1.00  0.00     0.029 A 
ATOM     39  N   UNL     1      -7.922  -1.226   3.602  1.00  0.00    -0.354 N 
ATOM     40  C   UNL     1      -8.117   3.070   2.582  1.00  0.00     0.074 A 
ATOM     41  C   UNL     1      -6.778   3.610   2.466  1.00  0.00     0.031 C 
ATOM     42  C   UNL     1      -6.831  -3.118   4.104  1.00  0.00     0.029 A 
ATOM     43  C   UNL     1      -8.148  -2.556   3.869  1.00  0.00     0.049 A 
ATOM     44  H   UNL     1      -8.627  -0.603   3.310  1.00  0.00     0.167 HD
ATOM     45  C   UNL     1      -9.267   3.745   2.334  1.00  0.00     0.034 A 
ATOM     46  C   UNL     1      -9.304  -3.227   4.000  1.00  0.00     0.034 A 
ATOM     47  C   UNL     1     -10.568   3.131   2.485  1.00  0.00     0.049 A 
ATOM     48  C   UNL     1     -10.563  -2.435   3.810  1.00  0.00     0.074 A 
ATOM     49  C   UNL     1     -11.821   3.695   2.336  1.00  0.00     0.029 A 
ATOM     50  N   UNL     1     -10.775   1.794   2.825  1.00  0.00    -0.354 N 
ATOM     51  N   UNL     1     -10.693  -1.162   3.504  1.00  0.00    -0.248 NA
ATOM     52  C   UNL     1     -11.824  -3.151   3.996  1.00  0.00     0.031 C 
ATOM     53  C   UNL     1     -12.778   2.722   2.651  1.00  0.00     0.029 A 
ATOM     54  C   UNL     1     -12.131   1.523   2.914  1.00  0.00     0.049 A 
ATOM     55  H   UNL     1     -10.059   1.136   2.979  1.00  0.00     0.167 HD
ATOM     56  C   UNL     1     -12.057  -0.923   3.453  1.00  0.00     0.074 A 
ATOM     57  C   UNL     1     -12.702  -2.196   3.729  1.00  0.00     0.031 C 
ATOM     58  C   UNL     1     -12.722   0.236   3.209  1.00  0.00     0.034 A 
BRANCH  45  59
ATOM     59  C   UNL     1      -9.156   5.215   1.998  1.00  0.00     0.023 A 
ATOM     60  C   UNL     1      -8.498   5.678   0.844  1.00  0.00     0.031 A 
ATOM     61  C   UNL     1      -9.665   6.180   2.888  1.00  0.00     0.131 A 
ATOM     62  C   UNL     1      -8.298   7.057   0.653  1.00  0.00     0.055 A 
ATOM     63  C   UNL     1      -9.535   7.551   2.651  1.00  0.00     0.041 A 
ATOM     64  F   UNL     1     -10.279   5.808   4.022  1.00  0.00    -0.206 F 
ATOM     65  C   UNL     1      -8.833   7.997   1.536  1.00  0.00     0.022 A 
BRANCH  62  66
ATOM     66  S   UNL     1      -7.193   7.601  -0.680  1.00  0.00     0.124 S 
ATOM     67  O   UNL     1      -5.940   6.948  -0.309  1.00  0.00    -0.237 OA
ATOM     68  O   UNL     1      -7.855   7.083  -1.871  1.00  0.00    -0.237 OA
ATOM     69  O   UNL     1      -7.190   9.057  -0.552  1.00  0.00    -0.744 OA
ENDBRANCH  62  66
ENDBRANCH  45  59
BRANCH  46  70
ATOM     70  C   UNL     1      -9.300  -4.656   4.425  1.00  0.00     0.023 A 
ATOM     71  C   UNL     1      -9.846  -5.659   3.613  1.00  0.00     0.031 A 
ATOM     72  C   UNL     1      -8.733  -5.045   5.656  1.00  0.00     0.131 A 
ATOM     73  C   UNL     1      -9.835  -6.994   4.049  1.00  0.00     0.055 A 
ATOM     74  C   UNL     1      -8.664  -6.380   6.054  1.00  0.00     0.041 A 
ATOM     75  F   UNL     1      -8.196  -4.129   6.479  1.00  0.00    -0.206 F 
ATOM     76  C   UNL     1      -9.230  -7.364   5.253  1.00  0.00     0.022 A 
BRANCH  73  77
ATOM     77  S   UNL     1     -10.701  -8.237   3.054  1.00  0.00     0.124 S 
ATOM     78  O   UNL     1     -12.038  -7.663   2.958  1.00  0.00    -0.237 OA
ATOM     79  O   UNL     1      -9.914  -8.241   1.825  1.00  0.00    -0.237 OA
ATOM     80  O   UNL     1     -10.599  -9.450   3.862  1.00  0.00    -0.744 OA
ENDBRANCH  73  77
ENDBRANCH  46  70
BRANCH  58  81
ATOM     81  C   UNL     1     -14.223   0.135   3.195  1.00  0.00     0.023 A 
ATOM     82  C   UNL     1     -14.949  -0.150   4.363  1.00  0.00     0.031 A 
ATOM     83  C   UNL     1     -14.926   0.284   1.988  1.00  0.00     0.131 A 
ATOM     84  C   UNL     1     -16.332  -0.351   4.286  1.00  0.00     0.055 A 
ATOM     85  C   UNL     1     -16.312   0.156   1.931  1.00  0.00     0.041 A 
ATOM     86  F   UNL     1     -14.274   0.549   0.845  1.00  0.00    -0.206 F 
ATOM     87  C   UNL     1     -17.021  -0.179   3.082  1.00  0.00     0.022 A 
BRANCH  84  88
ATOM     88  S   UNL     1     -17.200  -0.958   5.756  1.00  0.00     0.124 S 
ATOM     89  O   UNL     1     -16.514  -2.220   6.011  1.00  0.00    -0.237 OA
ATOM     90  O   UNL     1     -16.956   0.107   6.725  1.00  0.00    -0.237 OA
ATOM     91  O   UNL     1     -18.585  -1.083   5.308  1.00  0.00    -0.744 OA
ENDBRANCH  84  88
ENDBRANCH  58  81
ENDBRANCH  32  33
ENDBRANCH  25  27
ENDBRANCH  24  25
ENDBRANCH  23  24
ENDBRANCH   1  23
TORSDOF 18
