REMARK SMILES CC(C)C[C@@H](C[NH3+])C(=O)N1CCOC[C@H]1C(=O)OCCOC(=O)c1ccc(-c2c3nc(c(-c4cc(S(=O)(=O)[O-])ccc4F)c4ccc([nH]4)c(-c4cc(S(=O)(=O)[O-])ccc4F)c4nc(c(-c5cc(S(=O)(=O)[O-])ccc5F)c5ccc2[nH]5)C=C4)C=C3)cc1
REMARK SMILES IDX 19 1 18 2 16 3 17 4 15 5 10 6 11 7 12 8 14 9 13 10 8 11 9 12
REMARK SMILES IDX 5 13 4 14 2 15 1 16 3 17 6 18 7 19 20 23 21 24 22 25 23 26
REMARK SMILES IDX 24 27 25 28 86 29 26 30 85 31 27 32 28 33 29 34 79 35 30 36
REMARK SMILES IDX 84 37 78 38 80 39 31 40 83 41 77 42 76 43 32 45 64 46 44 47
REMARK SMILES IDX 63 48 45 49 48 50 62 51 81 52 46 53 47 54 61 56 82 57 49 58
REMARK SMILES IDX 33 59 34 60 42 61 35 62 41 63 43 64 40 65 36 66 37 67 38 68
REMARK SMILES IDX 39 69 65 70 66 71 74 72 67 73 73 74 75 75 72 76 68 77 69 78
REMARK SMILES IDX 70 79 71 80 50 81 51 82 59 83 52 84 58 85 60 86 57 87 53 88
REMARK SMILES IDX 54 89 55 90 56 91
REMARK H PARENT 7 20 7 21 7 22 80 44 48 55
REMARK Flexibility Score: inf
ROOT
ATOM      1  C   UNL     1      -7.556   1.541  -3.196  1.00  0.00     0.274 C 
ENDROOT
BRANCH   1   2
ATOM      2  O   UNL     1      -6.238   1.897  -2.738  1.00  0.00    -0.460 OA
BRANCH   2   3
ATOM      3  C   UNL     1      -6.117   3.044  -2.020  1.00  0.00     0.331 C 
ATOM      4  O   UNL     1      -7.056   3.794  -1.764  1.00  0.00    -0.250 OA
BRANCH   3   5
ATOM      5  C   UNL     1      -4.664   3.391  -1.654  1.00  0.00     0.221 C 
ATOM      6  N   UNL     1      -3.603   2.360  -1.755  1.00  0.00    -0.324 N 
ATOM      7  C   UNL     1      -3.246   2.009  -3.124  1.00  0.00     0.149 C 
ATOM      8  C   UNL     1      -2.891   3.261  -3.925  1.00  0.00     0.181 C 
ATOM      9  C   UNL     1      -4.252   4.602  -2.514  1.00  0.00     0.197 C 
ATOM     10  O   UNL     1      -3.958   4.224  -3.875  1.00  0.00    -0.377 OA
BRANCH   6  11
ATOM     11  C   UNL     1      -3.025   1.919  -0.582  1.00  0.00     0.232 C 
ATOM     12  O   UNL     1      -3.686   1.946   0.466  1.00  0.00    -0.274 OA
BRANCH  11  13
ATOM     13  C   UNL     1      -1.509   1.682  -0.426  1.00  0.00     0.134 C 
BRANCH  13  14
ATOM     14  C   UNL     1      -0.738   0.876  -1.475  1.00  0.00     0.022 C 
BRANCH  14  15
ATOM     15  C   UNL     1       0.751   0.590  -1.169  1.00  0.00    -0.016 C 
ATOM     16  C   UNL     1       0.991  -0.120   0.162  1.00  0.00     0.007 C 
ATOM     17  C   UNL     1       1.349  -0.237  -2.312  1.00  0.00     0.007 C 
ENDBRANCH  14  15
ENDBRANCH  13  14
BRANCH  13  18
ATOM     18  C   UNL     1      -0.873   3.041  -0.064  1.00  0.00     0.272 C 
BRANCH  18  19
ATOM     19  N   UNL     1      -0.597   3.905  -1.216  1.00  0.00    -0.357 N 
ATOM     20  H   UNL     1       0.081   3.449  -1.828  1.00  0.00     0.344 HD
ATOM     21  H   UNL     1      -0.218   4.794  -0.892  1.00  0.00     0.344 HD
ATOM     22  H   UNL     1      -1.461   4.072  -1.732  1.00  0.00     0.344 HD
ENDBRANCH  18  19
ENDBRANCH  13  18
ENDBRANCH  11  13
ENDBRANCH   6  11
ENDBRANCH   3   5
ENDBRANCH   2   3
ENDBRANCH   1   2
BRANCH   1  23
ATOM     23  C   UNL     1      -8.014   0.241  -2.537  1.00  0.00     0.275 C 
BRANCH  23  24
ATOM     24  O   UNL     1      -8.206   0.436  -1.127  1.00  0.00    -0.458 OA
BRANCH  24  25
ATOM     25  C   UNL     1      -7.113   0.173  -0.369  1.00  0.00     0.338 C 
ATOM     26  O   UNL     1      -6.059  -0.306  -0.743  1.00  0.00    -0.246 OA
BRANCH  25  27
ATOM     27  C   UNL     1      -7.359   0.676   0.991  1.00  0.00     0.060 A 
ATOM     28  C   UNL     1      -6.629   1.781   1.426  1.00  0.00     0.016 A 
ATOM     29  C   UNL     1      -8.247   0.031   1.850  1.00  0.00     0.016 A 
ATOM     30  C   UNL     1      -6.734   2.219   2.741  1.00  0.00     0.010 A 
ATOM     31  C   UNL     1      -8.378   0.491   3.164  1.00  0.00     0.010 A 
ATOM     32  C   UNL     1      -7.603   1.572   3.625  1.00  0.00    -0.014 A 
BRANCH  32  33
ATOM     33  C   UNL     1      -7.633   1.981   5.050  1.00  0.00     0.031 A 
ATOM     34  C   UNL     1      -7.030   1.081   6.090  1.00  0.00     0.074 A 
ATOM     35  C   UNL     1      -8.160   3.169   5.400  1.00  0.00     0.049 A 
ATOM     36  N   UNL     1      -7.026   1.200   7.393  1.00  0.00    -0.248 NA
ATOM     37  C   UNL     1      -6.344  -0.121   5.593  1.00  0.00     0.031 C 
ATOM     38  C   UNL     1      -8.712   4.154   4.467  1.00  0.00     0.029 A 
ATOM     39  N   UNL     1      -8.311   3.754   6.631  1.00  0.00    -0.354 N 
ATOM     40  C   UNL     1      -6.356   0.081   7.875  1.00  0.00     0.074 A 
ATOM     41  C   UNL     1      -6.000  -0.721   6.722  1.00  0.00     0.031 C 
ATOM     42  C   UNL     1      -9.130   5.225   5.160  1.00  0.00     0.029 A 
ATOM     43  C   UNL     1      -8.930   4.981   6.585  1.00  0.00     0.049 A 
ATOM     44  H   UNL     1      -8.005   3.336   7.468  1.00  0.00     0.167 HD
ATOM     45  C   UNL     1      -6.063  -0.242   9.159  1.00  0.00     0.034 A 
ATOM     46  C   UNL     1      -9.317   5.800   7.583  1.00  0.00     0.034 A 
ATOM     47  C   UNL     1      -6.426   0.576  10.293  1.00  0.00     0.049 A 
ATOM     48  C   UNL     1      -9.052   5.383   9.007  1.00  0.00     0.074 A 
ATOM     49  C   UNL     1      -6.196   0.344  11.638  1.00  0.00     0.029 A 
ATOM     50  N   UNL     1      -7.101   1.790  10.213  1.00  0.00    -0.354 N 
ATOM     51  N   UNL     1      -8.459   4.300   9.456  1.00  0.00    -0.248 NA
ATOM     52  C   UNL     1      -9.508   6.300  10.059  1.00  0.00     0.031 C 
ATOM     53  C   UNL     1      -6.781   1.383  12.372  1.00  0.00     0.029 A 
ATOM     54  C   UNL     1      -7.314   2.304  11.484  1.00  0.00     0.049 A 
ATOM     55  H   UNL     1      -7.385   2.222   9.376  1.00  0.00     0.167 HD
ATOM     56  C   UNL     1      -8.448   4.420  10.842  1.00  0.00     0.074 A 
ATOM     57  C   UNL     1      -9.079   5.687  11.152  1.00  0.00     0.031 C 
ATOM     58  C   UNL     1      -7.958   3.564  11.776  1.00  0.00     0.034 A 
BRANCH  45  59
ATOM     59  C   UNL     1      -5.372  -1.565   9.396  1.00  0.00     0.023 A 
ATOM     60  C   UNL     1      -4.079  -1.828   8.909  1.00  0.00     0.031 A 
ATOM     61  C   UNL     1      -6.040  -2.598  10.078  1.00  0.00     0.131 A 
ATOM     62  C   UNL     1      -3.528  -3.112   9.041  1.00  0.00     0.055 A 
ATOM     63  C   UNL     1      -5.453  -3.850  10.277  1.00  0.00     0.041 A 
ATOM     64  F   UNL     1      -7.284  -2.416  10.547  1.00  0.00    -0.206 F 
ATOM     65  C   UNL     1      -4.197  -4.118   9.743  1.00  0.00     0.022 A 
BRANCH  62  66
ATOM     66  S   UNL     1      -1.991  -3.496   8.156  1.00  0.00     0.124 S 
ATOM     67  O   UNL     1      -2.371  -3.227   6.772  1.00  0.00    -0.237 OA
ATOM     68  O   UNL     1      -1.041  -2.564   8.752  1.00  0.00    -0.237 OA
ATOM     69  O   UNL     1      -1.759  -4.906   8.467  1.00  0.00    -0.744 OA
ENDBRANCH  62  66
ENDBRANCH  45  59
BRANCH  46  70
ATOM     70  C   UNL     1     -10.033   7.072   7.281  1.00  0.00     0.023 A 
ATOM     71  C   UNL     1      -9.472   8.317   7.609  1.00  0.00     0.031 A 
ATOM     72  C   UNL     1     -11.314   7.059   6.700  1.00  0.00     0.131 A 
ATOM     73  C   UNL     1     -10.206   9.494   7.390  1.00  0.00     0.055 A 
ATOM     74  C   UNL     1     -12.017   8.235   6.436  1.00  0.00     0.041 A 
ATOM     75  F   UNL     1     -11.898   5.896   6.369  1.00  0.00    -0.206 F 
ATOM     76  C   UNL     1     -11.468   9.462   6.793  1.00  0.00     0.022 A 
BRANCH  73  77
ATOM     77  S   UNL     1      -9.518  11.068   7.972  1.00  0.00     0.124 S 
ATOM     78  O   UNL     1      -9.356  10.813   9.399  1.00  0.00    -0.237 OA
ATOM     79  O   UNL     1      -8.287  11.168   7.194  1.00  0.00    -0.237 OA
ATOM     80  O   UNL     1     -10.552  12.040   7.626  1.00  0.00    -0.744 OA
ENDBRANCH  73  77
ENDBRANCH  46  70
BRANCH  58  81
ATOM     81  C   UNL     1      -8.048   4.007  13.216  1.00  0.00     0.023 A 
ATOM     82  C   UNL     1      -9.283   4.137  13.876  1.00  0.00     0.031 A 
ATOM     83  C   UNL     1      -6.880   4.333  13.927  1.00  0.00     0.131 A 
ATOM     84  C   UNL     1      -9.326   4.640  15.185  1.00  0.00     0.055 A 
ATOM     85  C   UNL     1      -6.925   4.777  15.249  1.00  0.00     0.041 A 
ATOM     86  F   UNL     1      -5.674   4.229  13.346  1.00  0.00    -0.206 F 
ATOM     87  C   UNL     1      -8.154   4.947  15.881  1.00  0.00     0.022 A 
BRANCH  84  88
ATOM     88  S   UNL     1     -10.942   4.984  15.935  1.00  0.00     0.124 S 
ATOM     89  O   UNL     1     -11.527   5.921  14.981  1.00  0.00    -0.237 OA
ATOM     90  O   UNL     1     -11.552   3.659  15.983  1.00  0.00    -0.237 OA
ATOM     91  O   UNL     1     -10.602   5.556  17.236  1.00  0.00    -0.744 OA
ENDBRANCH  84  88
ENDBRANCH  58  81
ENDBRANCH  32  33
ENDBRANCH  25  27
ENDBRANCH  24  25
ENDBRANCH  23  24
ENDBRANCH   1  23
TORSDOF 20
