REMARK SMILES CSc1ccc(CNc2ccc(N3CCOCC3)c(C(=O)OCCOC(=O)c3ccc(-c4c5nc(c(-c6cc(S(=O)(=O)[O-])ccc6F)c6ccc([nH]6)c(-c6cc(S(=O)(=O)[O-])ccc6F)c6nc(c(-c7cc(S(=O)(=O)[O-])ccc7F)c7ccc4[nH]7)C=C6)C=C5)cc3)c2)cc1
REMARK SMILES IDX 23 1 22 2 20 3 21 4 19 5 9 6 10 7 91 8 11 9 12 10 8 11 7 13
REMARK SMILES IDX 6 14 3 15 4 16 93 17 5 18 92 19 2 20 1 21 13 22 14 23 18 24
REMARK SMILES IDX 15 25 17 26 16 27 24 28 25 29 26 30 27 31 28 32 29 33 90 34
REMARK SMILES IDX 30 35 89 36 31 37 32 38 33 39 83 40 34 41 88 42 82 43 84 44
REMARK SMILES IDX 35 45 87 46 81 47 80 48 36 50 68 51 48 52 67 53 49 54 52 55
REMARK SMILES IDX 66 56 85 57 50 58 51 59 65 61 86 62 53 63 37 64 38 65 46 66
REMARK SMILES IDX 39 67 45 68 47 69 44 70 40 71 41 72 42 73 43 74 69 75 70 76
REMARK SMILES IDX 78 77 71 78 77 79 79 80 76 81 72 82 73 83 74 84 75 85 54 86
REMARK SMILES IDX 55 87 63 88 56 89 62 90 64 91 61 92 57 93 58 94 59 95 60 96
REMARK H PARENT 8 12 84 49 52 60
REMARK Flexibility Score: inf
ROOT
ATOM      1  C   UNL     1       4.910  10.403  -5.770  1.00  0.00     0.275 C 
ENDROOT
BRANCH   1   2
ATOM      2  O   UNL     1       5.034   9.889  -4.428  1.00  0.00    -0.458 OA
BRANCH   2   3
ATOM      3  C   UNL     1       5.851   8.814  -4.268  1.00  0.00     0.340 C 
ATOM      4  O   UNL     1       6.373   8.173  -5.166  1.00  0.00    -0.246 OA
BRANCH   3   5
ATOM      5  C   UNL     1       5.844   8.406  -2.848  1.00  0.00     0.085 A 
ATOM      6  C   UNL     1       4.369   7.210  -1.309  1.00  0.00     0.035 A 
ATOM      7  C   UNL     1       5.464   7.070  -0.455  1.00  0.00     0.028 A 
ATOM      8  C   UNL     1       4.572   7.942  -2.469  1.00  0.00     0.043 A 
ATOM      9  C   UNL     1       6.731   7.593  -0.787  1.00  0.00     0.029 A 
ATOM     10  C   UNL     1       6.970   8.243  -2.008  1.00  0.00     0.052 A 
BRANCH   6  11
ATOM     11  N   UNL     1       3.184   6.543  -1.064  1.00  0.00    -0.381 N 
ATOM     12  H   UNL     1       2.992   6.254  -0.143  1.00  0.00     0.160 HD
BRANCH  11  13
ATOM     13  C   UNL     1       2.207   6.249  -2.100  1.00  0.00     0.148 C 
BRANCH  13  14
ATOM     14  C   UNL     1       1.741   4.819  -1.984  1.00  0.00    -0.029 A 
ATOM     15  C   UNL     1       0.900   2.145  -1.806  1.00  0.00     0.007 A 
ATOM     16  C   UNL     1       2.248   2.442  -2.016  1.00  0.00     0.015 A 
ATOM     17  C   UNL     1      -0.030   3.184  -1.719  1.00  0.00     0.015 A 
ATOM     18  C   UNL     1       2.666   3.769  -2.106  1.00  0.00     0.007 A 
ATOM     19  C   UNL     1       0.387   4.514  -1.806  1.00  0.00     0.007 A 
BRANCH  15  20
ATOM     20  S   UNL     1       0.352   0.457  -1.643  1.00  0.00    -0.130 SA
ATOM     21  C   UNL     1       1.093   0.089  -0.030  1.00  0.00     0.091 C 
ENDBRANCH  15  20
ENDBRANCH  13  14
ENDBRANCH  11  13
ENDBRANCH   6  11
BRANCH  10  22
ATOM     22  N   UNL     1       8.306   8.483  -2.351  1.00  0.00    -0.366 N 
ATOM     23  C   UNL     1       9.102  10.166  -2.127  1.00  0.00     0.145 C 
ATOM     24  C   UNL     1       8.892   7.379  -3.521  1.00  0.00     0.145 C 
ATOM     25  C   UNL     1      10.472  10.737  -3.766  1.00  0.00     0.181 C 
ATOM     26  C   UNL     1      10.003   7.910  -4.885  1.00  0.00     0.181 C 
ATOM     27  O   UNL     1      10.741   9.426  -5.019  1.00  0.00    -0.378 OA
ENDBRANCH  10  22
ENDBRANCH   3   5
ENDBRANCH   2   3
ENDBRANCH   1   2
BRANCH   1  28
ATOM     28  C   UNL     1       5.516  11.799  -5.816  1.00  0.00     0.275 C 
BRANCH  28  29
ATOM     29  O   UNL     1       6.899  11.674  -5.456  1.00  0.00    -0.458 OA
BRANCH  29  30
ATOM     30  C   UNL     1       7.138  11.965  -4.164  1.00  0.00     0.338 C 
ATOM     31  O   UNL     1       6.418  12.558  -3.379  1.00  0.00    -0.246 OA
BRANCH  30  32
ATOM     32  C   UNL     1       8.424  11.422  -3.752  1.00  0.00     0.060 A 
ATOM     33  C   UNL     1       8.903   9.746  -3.970  1.00  0.00     0.016 A 
ATOM     34  C   UNL     1       9.358  12.370  -2.672  1.00  0.00     0.016 A 
ATOM     35  C   UNL     1      10.415   9.060  -2.916  1.00  0.00     0.010 A 
ATOM     36  C   UNL     1      10.715  11.779  -1.801  1.00  0.00     0.010 A 
ATOM     37  C   UNL     1      11.304  10.156  -1.856  1.00  0.00    -0.014 A 
BRANCH  37  38
ATOM     38  C   UNL     1      12.582   9.774  -1.167  1.00  0.00     0.031 A 
ATOM     39  C   UNL     1      12.920  10.293   0.213  1.00  0.00     0.074 A 
ATOM     40  C   UNL     1      13.503   9.025  -1.812  1.00  0.00     0.049 A 
ATOM     41  N   UNL     1      14.054  10.233   0.869  1.00  0.00    -0.248 NA
ATOM     42  C   UNL     1      11.872  11.036   0.922  1.00  0.00     0.031 C 
ATOM     43  C   UNL     1      13.393   8.548  -3.186  1.00  0.00     0.029 A 
ATOM     44  N   UNL     1      14.715   8.514  -1.408  1.00  0.00    -0.354 N 
ATOM     45  C   UNL     1      13.878  10.998   2.021  1.00  0.00     0.074 A 
ATOM     46  C   UNL     1      12.543  11.551   1.941  1.00  0.00     0.031 C 
ATOM     47  C   UNL     1      14.381   7.692  -3.458  1.00  0.00     0.029 A 
ATOM     48  C   UNL     1      15.306   7.686  -2.341  1.00  0.00     0.049 A 
ATOM     49  H   UNL     1      15.122   8.719  -0.535  1.00  0.00     0.167 HD
ATOM     50  C   UNL     1      14.740  11.202   3.053  1.00  0.00     0.034 A 
ATOM     51  C   UNL     1      16.480   7.027  -2.340  1.00  0.00     0.034 A 
ATOM     52  C   UNL     1      16.038  10.568   3.145  1.00  0.00     0.049 A 
ATOM     53  C   UNL     1      17.400   7.230  -1.176  1.00  0.00     0.074 A 
ATOM     54  C   UNL     1      16.959  10.630   4.177  1.00  0.00     0.029 A 
ATOM     55  N   UNL     1      16.596   9.745   2.172  1.00  0.00    -0.354 N 
ATOM     56  N   UNL     1      17.221   7.971  -0.108  1.00  0.00    -0.248 NA
ATOM     57  C   UNL     1      18.690   6.537  -1.231  1.00  0.00     0.031 C 
ATOM     58  C   UNL     1      18.095   9.902   3.802  1.00  0.00     0.029 A 
ATOM     59  C   UNL     1      17.856   9.317   2.569  1.00  0.00     0.049 A 
ATOM     60  H   UNL     1      16.160   9.501   1.323  1.00  0.00     0.167 HD
ATOM     61  C   UNL     1      18.382   7.836   0.641  1.00  0.00     0.074 A 
ATOM     62  C   UNL     1      19.237   6.915  -0.085  1.00  0.00     0.031 C 
ATOM     63  C   UNL     1      18.711   8.425   1.819  1.00  0.00     0.034 A 
BRANCH  50  64
ATOM     64  C   UNL     1      14.321  12.176   4.140  1.00  0.00     0.023 A 
ATOM     65  C   UNL     1      13.151  11.997   4.902  1.00  0.00     0.031 A 
ATOM     66  C   UNL     1      15.079  13.337   4.386  1.00  0.00     0.131 A 
ATOM     67  C   UNL     1      12.716  13.006   5.776  1.00  0.00     0.055 A 
ATOM     68  C   UNL     1      14.695  14.289   5.335  1.00  0.00     0.041 A 
ATOM     69  F   UNL     1      16.200  13.582   3.689  1.00  0.00    -0.206 F 
ATOM     70  C   UNL     1      13.494  14.139   6.019  1.00  0.00     0.022 A 
BRANCH  67  71
ATOM     71  S   UNL     1      11.027  12.909   6.434  1.00  0.00     0.124 S 
ATOM     72  O   UNL     1      10.239  12.808   5.208  1.00  0.00    -0.237 OA
ATOM     73  O   UNL     1      11.080  11.709   7.260  1.00  0.00    -0.237 OA
ATOM     74  O   UNL     1      10.870  14.165   7.164  1.00  0.00    -0.744 OA
ENDBRANCH  67  71
ENDBRANCH  50  64
BRANCH  51  75
ATOM     75  C   UNL     1      16.851   6.150  -3.491  1.00  0.00     0.023 A 
ATOM     76  C   UNL     1      16.972   4.761  -3.326  1.00  0.00     0.031 A 
ATOM     77  C   UNL     1      17.046   6.677  -4.782  1.00  0.00     0.131 A 
ATOM     78  C   UNL     1      17.277   3.948  -4.430  1.00  0.00     0.055 A 
ATOM     79  C   UNL     1      17.289   5.859  -5.887  1.00  0.00     0.041 A 
ATOM     80  F   UNL     1      16.945   7.998  -4.998  1.00  0.00    -0.206 F 
ATOM     81  C   UNL     1      17.411   4.485  -5.713  1.00  0.00     0.022 A 
BRANCH  78  82
ATOM     82  S   UNL     1      17.538   2.173  -4.162  1.00  0.00     0.124 S 
ATOM     83  O   UNL     1      18.655   2.174  -3.224  1.00  0.00    -0.237 OA
ATOM     84  O   UNL     1      16.248   1.752  -3.624  1.00  0.00    -0.237 OA
ATOM     85  O   UNL     1      17.846   1.668  -5.499  1.00  0.00    -0.744 OA
ENDBRANCH  78  82
ENDBRANCH  51  75
BRANCH  63  86
ATOM     86  C   UNL     1      20.052   8.051   2.395  1.00  0.00     0.023 A 
ATOM     87  C   UNL     1      21.253   8.414   1.759  1.00  0.00     0.031 A 
ATOM     88  C   UNL     1      20.128   7.269   3.560  1.00  0.00     0.131 A 
ATOM     89  C   UNL     1      22.474   7.932   2.250  1.00  0.00     0.055 A 
ATOM     90  C   UNL     1      21.351   6.850   4.083  1.00  0.00     0.041 A 
ATOM     91  F   UNL     1      19.012   6.887   4.201  1.00  0.00    -0.206 F 
ATOM     92  C   UNL     1      22.533   7.167   3.418  1.00  0.00     0.022 A 
BRANCH  89  93
ATOM     93  S   UNL     1      23.974   8.211   1.270  1.00  0.00     0.124 S 
ATOM     94  O   UNL     1      23.633   7.567   0.006  1.00  0.00    -0.237 OA
ATOM     95  O   UNL     1      24.062   9.668   1.241  1.00  0.00    -0.237 OA
ATOM     96  O   UNL     1      25.019   7.543   2.044  1.00  0.00    -0.744 OA
ENDBRANCH  89  93
ENDBRANCH  63  86
ENDBRANCH  37  38
ENDBRANCH  30  32
ENDBRANCH  29  30
ENDBRANCH  28  29
ENDBRANCH   1  28
TORSDOF 19
