REMARK SMILES NS(=O)(=O)c1ccc(N2N=C(C(=O)OCCOC(=O)c3ccc(-c4c5nc(c(-c6cc(S(=O)(=O)[O-])ccc6F)c6ccc([nH]6)c(-c6cc(S(=O)(=O)[O-])ccc6F)c6nc(c(-c7cc(S(=O)(=O)[O-])ccc7F)c7ccc4[nH]7)C=C6)C=C5)cc3)C[C@H]2c2cccs2)cc1
REMARK SMILES IDX 15 1 14 2 12 3 13 4 11 5 9 6 10 7 84 8 83 9 8 10 5 11 6 12
REMARK SMILES IDX 91 13 7 14 90 15 2 16 3 17 4 18 1 19 85 22 86 23 89 24 87 25
REMARK SMILES IDX 88 26 16 27 17 28 18 29 19 30 20 31 21 32 82 33 22 34 81 35
REMARK SMILES IDX 23 36 24 37 25 38 75 39 26 40 80 41 74 42 76 43 27 44 79 45
REMARK SMILES IDX 73 46 72 47 28 49 60 50 40 51 59 52 41 53 44 54 58 55 77 56
REMARK SMILES IDX 42 57 43 58 57 60 78 61 45 62 29 63 30 64 38 65 31 66 37 67
REMARK SMILES IDX 39 68 36 69 32 70 33 71 34 72 35 73 61 74 62 75 70 76 63 77
REMARK SMILES IDX 69 78 71 79 68 80 64 81 65 82 66 83 67 84 46 85 47 86 55 87
REMARK SMILES IDX 48 88 54 89 56 90 53 91 49 92 50 93 51 94 52 95
REMARK H PARENT 1 20 1 21 76 48 44 59
REMARK Flexibility Score: inf
ROOT
ATOM      1  C   UNL     1       3.644  -8.297   7.991  1.00  0.00     0.275 C 
ENDROOT
BRANCH   1   2
ATOM      2  O   UNL     1       2.822  -7.118   7.881  1.00  0.00    -0.458 OA
BRANCH   2   3
ATOM      3  C   UNL     1       3.469  -5.997   7.503  1.00  0.00     0.354 C 
ATOM      4  O   UNL     1       4.673  -5.846   7.400  1.00  0.00    -0.245 OA
BRANCH   3   5
ATOM      5  C   UNL     1       2.487  -4.918   7.103  1.00  0.00     0.148 C 
ATOM      6  N   UNL     1       1.667  -3.258   6.086  1.00  0.00    -0.256 N 
ATOM      7  N   UNL     1       2.740  -4.077   6.146  1.00  0.00    -0.169 NA
ATOM      8  C   UNL     1       0.788  -3.378   7.253  1.00  0.00     0.154 C 
ATOM      9  C   UNL     1       1.136  -4.802   7.730  1.00  0.00     0.099 C 
BRANCH   6  10
ATOM     10  C   UNL     1       1.473  -2.413   5.007  1.00  0.00     0.060 A 
ATOM     11  C   UNL     1       0.937  -0.658   2.871  1.00  0.00     0.082 A 
ATOM     12  C   UNL     1       0.712  -2.027   2.715  1.00  0.00     0.024 A 
ATOM     13  C   UNL     1       1.478  -0.165   4.058  1.00  0.00     0.024 A 
ATOM     14  C   UNL     1       0.988  -2.897   3.781  1.00  0.00     0.029 A 
ATOM     15  C   UNL     1       1.749  -1.044   5.109  1.00  0.00     0.029 A 
BRANCH  11  16
ATOM     16  S   UNL     1       0.508   0.476   1.579  1.00  0.00     0.238 S 
ATOM     17  O   UNL     1       1.202   1.725   1.812  1.00  0.00    -0.207 OA
ATOM     18  O   UNL     1      -0.923   0.423   1.401  1.00  0.00    -0.207 OA
BRANCH  16  19
ATOM     19  N   UNL     1       1.210  -0.191   0.218  1.00  0.00    -0.225 NA
ATOM     20  H   UNL     1       1.015   0.400  -0.590  1.00  0.00     0.137 HD
ATOM     21  H   UNL     1       0.826  -1.123   0.059  1.00  0.00     0.137 HD
ENDBRANCH  16  19
ENDBRANCH  11  16
ENDBRANCH   6  10
BRANCH   8  22
ATOM     22  C   UNL     1       0.999  -2.282   8.294  1.00  0.00     0.030 A 
ATOM     23  C   UNL     1       0.502  -0.989   8.236  1.00  0.00     0.017 A 
ATOM     24  S   UNL     1       1.987  -2.482   9.686  1.00  0.00    -0.147 S 
ATOM     25  C   UNL     1       0.970  -0.165   9.298  1.00  0.00     0.012 A 
ATOM     26  C   UNL     1       1.765  -0.863  10.175  1.00  0.00     0.065 A 
ENDBRANCH   8  22
ENDBRANCH   3   5
ENDBRANCH   2   3
ENDBRANCH   1   2
BRANCH   1  27
ATOM     27  C   UNL     1       3.402  -9.247   6.813  1.00  0.00     0.275 C 
BRANCH  27  28
ATOM     28  O   UNL     1       3.873  -8.695   5.570  1.00  0.00    -0.458 OA
BRANCH  28  29
ATOM     29  C   UNL     1       2.970  -7.937   4.904  1.00  0.00     0.338 C 
ATOM     30  O   UNL     1       1.827  -7.687   5.250  1.00  0.00    -0.246 OA
BRANCH  29  31
ATOM     31  C   UNL     1       3.606  -7.335   3.725  1.00  0.00     0.060 A 
ATOM     32  C   UNL     1       3.882  -5.971   3.756  1.00  0.00     0.016 A 
ATOM     33  C   UNL     1       3.838  -8.073   2.567  1.00  0.00     0.016 A 
ATOM     34  C   UNL     1       4.332  -5.310   2.622  1.00  0.00     0.010 A 
ATOM     35  C   UNL     1       4.350  -7.421   1.440  1.00  0.00     0.010 A 
ATOM     36  C   UNL     1       4.585  -6.032   1.455  1.00  0.00    -0.014 A 
BRANCH  36  37
ATOM     37  C   UNL     1       5.071  -5.332   0.241  1.00  0.00     0.031 A 
ATOM     38  C   UNL     1       4.205  -5.290  -0.984  1.00  0.00     0.074 A 
ATOM     39  C   UNL     1       6.285  -4.749   0.241  1.00  0.00     0.049 A 
ATOM     40  N   UNL     1       4.506  -4.915  -2.198  1.00  0.00    -0.248 NA
ATOM     41  C   UNL     1       2.816  -5.747  -0.818  1.00  0.00     0.031 C 
ATOM     42  C   UNL     1       7.178  -4.657   1.398  1.00  0.00     0.029 A 
ATOM     43  N   UNL     1       6.984  -4.135  -0.767  1.00  0.00    -0.354 N 
ATOM     44  C   UNL     1       3.358  -5.125  -2.954  1.00  0.00     0.074 A 
ATOM     45  C   UNL     1       2.362  -5.680  -2.061  1.00  0.00     0.031 C 
ATOM     46  C   UNL     1       8.307  -4.030   1.033  1.00  0.00     0.029 A 
ATOM     47  C   UNL     1       8.254  -3.753  -0.398  1.00  0.00     0.049 A 
ATOM     48  H   UNL     1       6.615  -3.984  -1.667  1.00  0.00     0.167 HD
ATOM     49  C   UNL     1       3.164  -4.877  -4.272  1.00  0.00     0.034 A 
ATOM     50  C   UNL     1       9.278  -3.287  -1.140  1.00  0.00     0.034 A 
ATOM     51  C   UNL     1       4.176  -4.313  -5.133  1.00  0.00     0.049 A 
ATOM     52  C   UNL     1       9.071  -3.114  -2.624  1.00  0.00     0.074 A 
ATOM     53  C   UNL     1       4.089  -4.006  -6.479  1.00  0.00     0.029 A 
ATOM     54  N   UNL     1       5.465  -3.978  -4.733  1.00  0.00    -0.354 N 
ATOM     55  N   UNL     1       7.995  -3.347  -3.340  1.00  0.00    -0.248 NA
ATOM     56  C   UNL     1      10.215  -2.621  -3.401  1.00  0.00     0.031 C 
ATOM     57  C   UNL     1       5.344  -3.564  -6.910  1.00  0.00     0.029 A 
ATOM     58  C   UNL     1       6.190  -3.503  -5.814  1.00  0.00     0.049 A 
ATOM     59  H   UNL     1       5.811  -4.065  -3.815  1.00  0.00     0.167 HD
ATOM     60  C   UNL     1       8.323  -2.992  -4.645  1.00  0.00     0.074 A 
ATOM     61  C   UNL     1       9.694  -2.526  -4.615  1.00  0.00     0.031 C 
ATOM     62  C   UNL     1       7.558  -3.039  -5.765  1.00  0.00     0.034 A 
BRANCH  49  63
ATOM     63  C   UNL     1       1.836  -5.272  -4.870  1.00  0.00     0.023 A 
ATOM     64  C   UNL     1       0.629  -4.683  -4.458  1.00  0.00     0.031 A 
ATOM     65  C   UNL     1       1.774  -6.275  -5.855  1.00  0.00     0.131 A 
ATOM     66  C   UNL     1      -0.590  -5.151  -4.972  1.00  0.00     0.055 A 
ATOM     67  C   UNL     1       0.565  -6.676  -6.426  1.00  0.00     0.041 A 
ATOM     68  F   UNL     1       2.891  -6.892  -6.273  1.00  0.00    -0.206 F 
ATOM     69  C   UNL     1      -0.629  -6.124  -5.973  1.00  0.00     0.022 A 
BRANCH  66  70
ATOM     70  S   UNL     1      -2.128  -4.571  -4.206  1.00  0.00     0.124 S 
ATOM     71  O   UNL     1      -1.940  -4.988  -2.818  1.00  0.00    -0.237 OA
ATOM     72  O   UNL     1      -2.079  -3.135  -4.451  1.00  0.00    -0.237 OA
ATOM     73  O   UNL     1      -3.167  -5.296  -4.933  1.00  0.00    -0.744 OA
ENDBRANCH  66  70
ENDBRANCH  49  63
BRANCH  50  74
ATOM     74  C   UNL     1      10.604  -3.017  -0.513  1.00  0.00     0.023 A 
ATOM     75  C   UNL     1      11.163  -1.730  -0.525  1.00  0.00     0.031 A 
ATOM     76  C   UNL     1      11.358  -4.055   0.068  1.00  0.00     0.131 A 
ATOM     77  C   UNL     1      12.454  -1.523  -0.015  1.00  0.00     0.055 A 
ATOM     78  C   UNL     1      12.614  -3.831   0.634  1.00  0.00     0.041 A 
ATOM     79  F   UNL     1      10.878  -5.309   0.101  1.00  0.00    -0.206 F 
ATOM     80  C   UNL     1      13.175  -2.560   0.581  1.00  0.00     0.022 A 
BRANCH  77  81
ATOM     81  S   UNL     1      13.223   0.104  -0.241  1.00  0.00     0.124 S 
ATOM     82  O   UNL     1      13.175   0.254  -1.691  1.00  0.00    -0.237 OA
ATOM     83  O   UNL     1      12.332   0.970   0.524  1.00  0.00    -0.237 OA
ATOM     84  O   UNL     1      14.559  -0.070   0.324  1.00  0.00    -0.744 OA
ENDBRANCH  77  81
ENDBRANCH  50  74
BRANCH  62  85
ATOM     85  C   UNL     1       8.165  -2.507  -7.039  1.00  0.00     0.023 A 
ATOM     86  C   UNL     1       9.232  -3.153  -7.685  1.00  0.00     0.031 A 
ATOM     87  C   UNL     1       7.644  -1.338  -7.625  1.00  0.00     0.131 A 
ATOM     88  C   UNL     1       9.771  -2.604  -8.859  1.00  0.00     0.055 A 
ATOM     89  C   UNL     1       8.143  -0.832  -8.825  1.00  0.00     0.041 A 
ATOM     90  F   UNL     1       6.627  -0.679  -7.047  1.00  0.00    -0.206 F 
ATOM     91  C   UNL     1       9.219  -1.460  -9.444  1.00  0.00     0.022 A 
BRANCH  88  92
ATOM     92  S   UNL     1      11.253  -3.362  -9.578  1.00  0.00     0.124 S 
ATOM     93  O   UNL     1      12.218  -3.232  -8.491  1.00  0.00    -0.237 OA
ATOM     94  O   UNL     1      10.801  -4.719  -9.870  1.00  0.00    -0.237 OA
ATOM     95  O   UNL     1      11.526  -2.535 -10.752  1.00  0.00    -0.744 OA
ENDBRANCH  88  92
ENDBRANCH  62  85
ENDBRANCH  36  37
ENDBRANCH  29  31
ENDBRANCH  28  29
ENDBRANCH  27  28
ENDBRANCH   1  27
TORSDOF 18
