REMARK SMILES C#CCN(CC(=O)OCCOC(=O)c1ccc(-c2c3nc(c(-c4cc(S(=O)(=O)[O-])ccc4F)c4ccc([nH]4)c(-c4cc(S(=O)(=O)[O-])ccc4F)c4nc(c(-c5cc(S(=O)(=O)[O-])ccc5F)c5ccc2[nH]5)C=C4)C=C3)cc1)C(=O)CCc1ccc(Cl)cc1Cl
REMARK SMILES IDX 9 1 8 2 6 3 7 4 5 5 4 6 3 7 2 8 1 9 77 10 78 11 79 12 80 13
REMARK SMILES IDX 81 14 82 15 87 16 83 17 86 18 88 19 84 20 85 21 10 22 11 23
REMARK SMILES IDX 12 24 13 25 14 26 15 27 76 28 16 29 75 30 17 31 18 32 19 33
REMARK SMILES IDX 69 34 20 35 74 36 68 37 70 38 21 39 73 40 67 41 66 42 22 44
REMARK SMILES IDX 54 45 34 46 53 47 35 48 38 49 52 50 71 51 36 52 37 53 51 55
REMARK SMILES IDX 72 56 39 57 23 58 24 59 32 60 25 61 31 62 33 63 30 64 26 65
REMARK SMILES IDX 27 66 28 67 29 68 55 69 56 70 64 71 57 72 63 73 65 74 62 75
REMARK SMILES IDX 58 76 59 77 60 78 61 79 40 80 41 81 49 82 42 83 48 84 50 85
REMARK SMILES IDX 47 86 43 87 44 88 45 89 46 90
REMARK H PARENT 70 43 38 54
REMARK Flexibility Score: inf
ROOT
ATOM      1  C   UNL     1      -6.305  -0.142  -2.010  1.00  0.00     0.274 C 
ENDROOT
BRANCH   1   2
ATOM      2  O   UNL     1      -4.932  -0.392  -1.629  1.00  0.00    -0.461 OA
BRANCH   2   3
ATOM      3  C   UNL     1      -4.729  -1.544  -0.939  1.00  0.00     0.325 C 
ATOM      4  O   UNL     1      -5.623  -2.315  -0.600  1.00  0.00    -0.250 OA
BRANCH   3   5
ATOM      5  C   UNL     1      -3.263  -1.872  -0.651  1.00  0.00     0.243 C 
BRANCH   5   6
ATOM      6  N   UNL     1      -2.199  -0.915  -0.973  1.00  0.00    -0.320 N 
BRANCH   6   7
ATOM      7  C   UNL     1      -1.754   0.018   0.069  1.00  0.00     0.210 C 
BRANCH   7   8
ATOM      8  C   UNL     1      -0.234   0.018   0.069  1.00  0.00    -0.085 C 
ATOM      9  C   UNL     1       1.070   0.018   0.069  1.00  0.00     0.006 C 
ENDBRANCH   7   8
ENDBRANCH   6   7
BRANCH   6  10
ATOM     10  C   UNL     1      -1.603  -0.802  -2.225  1.00  0.00     0.224 C 
ATOM     11  O   UNL     1      -1.171   0.277  -2.638  1.00  0.00    -0.275 OA
BRANCH  10  12
ATOM     12  C   UNL     1      -1.348  -2.075  -3.022  1.00  0.00     0.105 C 
BRANCH  12  13
ATOM     13  C   UNL     1      -0.137  -2.897  -2.523  1.00  0.00     0.047 C 
BRANCH  13  14
ATOM     14  C   UNL     1      -0.471  -3.886  -1.415  1.00  0.00    -0.029 A 
ATOM     15  C   UNL     1      -0.530  -3.432  -0.091  1.00  0.00     0.007 A 
ATOM     16  C   UNL     1      -0.797  -5.231  -1.638  1.00  0.00     0.045 A 
ATOM     17  C   UNL     1      -1.093  -4.201   0.927  1.00  0.00     0.021 A 
ATOM     18  C   UNL     1      -1.371  -6.013  -0.627  1.00  0.00     0.041 A 
ATOM     19  Cl  UNL     1      -0.420  -6.010  -3.122  1.00  0.00    -0.084 Cl
ATOM     20  C   UNL     1      -1.556  -5.476   0.641  1.00  0.00     0.042 A 
ATOM     21  Cl  UNL     1      -2.341  -6.383   1.870  1.00  0.00    -0.084 Cl
ENDBRANCH  13  14
ENDBRANCH  12  13
ENDBRANCH  10  12
ENDBRANCH   6  10
ENDBRANCH   5   6
ENDBRANCH   3   5
ENDBRANCH   2   3
ENDBRANCH   1   2
BRANCH   1  22
ATOM     22  C   UNL     1      -6.511  -0.348  -3.509  1.00  0.00     0.275 C 
BRANCH  22  23
ATOM     23  O   UNL     1      -5.996  -1.631  -3.902  1.00  0.00    -0.458 OA
BRANCH  23  24
ATOM     24  C   UNL     1      -5.050  -1.602  -4.873  1.00  0.00     0.338 C 
ATOM     25  O   UNL     1      -4.662  -0.622  -5.484  1.00  0.00    -0.246 OA
BRANCH  24  26
ATOM     26  C   UNL     1      -4.509  -2.958  -5.107  1.00  0.00     0.060 A 
ATOM     27  C   UNL     1      -4.296  -3.835  -4.048  1.00  0.00     0.016 A 
ATOM     28  C   UNL     1      -4.088  -3.309  -6.393  1.00  0.00     0.016 A 
ATOM     29  C   UNL     1      -3.567  -5.006  -4.264  1.00  0.00     0.010 A 
ATOM     30  C   UNL     1      -3.456  -4.540  -6.618  1.00  0.00     0.010 A 
ATOM     31  C   UNL     1      -3.149  -5.398  -5.551  1.00  0.00    -0.014 A 
BRANCH  31  32
ATOM     32  C   UNL     1      -2.393  -6.677  -5.773  1.00  0.00     0.031 A 
ATOM     33  C   UNL     1      -1.082  -6.696  -6.539  1.00  0.00     0.074 A 
ATOM     34  C   UNL     1      -2.838  -7.839  -5.246  1.00  0.00     0.049 A 
ATOM     35  N   UNL     1      -0.404  -7.721  -6.996  1.00  0.00    -0.248 NA
ATOM     36  C   UNL     1      -0.455  -5.396  -6.830  1.00  0.00     0.031 C 
ATOM     37  C   UNL     1      -4.038  -7.993  -4.421  1.00  0.00     0.029 A 
ATOM     38  N   UNL     1      -2.322  -9.114  -5.305  1.00  0.00    -0.354 N 
ATOM     39  C   UNL     1       0.690  -7.192  -7.678  1.00  0.00     0.074 A 
ATOM     40  C   UNL     1       0.590  -5.752  -7.567  1.00  0.00     0.031 C 
ATOM     41  C   UNL     1      -4.127  -9.260  -3.996  1.00  0.00     0.029 A 
ATOM     42  C   UNL     1      -3.081 -10.047  -4.636  1.00  0.00     0.049 A 
ATOM     43  H   UNL     1      -1.490  -9.336  -5.781  1.00  0.00     0.167 HD
ATOM     44  C   UNL     1       1.678  -7.846  -8.341  1.00  0.00     0.034 A 
ATOM     45  C   UNL     1      -3.010 -11.393  -4.593  1.00  0.00     0.034 A 
ATOM     46  C   UNL     1       1.815  -9.284  -8.390  1.00  0.00     0.049 A 
ATOM     47  C   UNL     1      -1.960 -12.098  -5.405  1.00  0.00     0.074 A 
ATOM     48  C   UNL     1       2.800 -10.035  -9.012  1.00  0.00     0.029 A 
ATOM     49  N   UNL     1       0.953 -10.190  -7.790  1.00  0.00    -0.354 N 
ATOM     50  N   UNL     1      -1.006 -11.585  -6.143  1.00  0.00    -0.248 NA
ATOM     51  C   UNL     1      -2.004 -13.566  -5.407  1.00  0.00     0.031 C 
ATOM     52  C   UNL     1       2.497 -11.391  -8.843  1.00  0.00     0.029 A 
ATOM     53  C   UNL     1       1.360 -11.489  -8.060  1.00  0.00     0.049 A 
ATOM     54  H   UNL     1       0.166  -9.947  -7.250  1.00  0.00     0.167 HD
ATOM     55  C   UNL     1      -0.346 -12.669  -6.711  1.00  0.00     0.074 A 
ATOM     56  C   UNL     1      -0.984 -13.864  -6.198  1.00  0.00     0.031 C 
ATOM     57  C   UNL     1       0.689 -12.675  -7.588  1.00  0.00     0.034 A 
BRANCH  44  58
ATOM     58  C   UNL     1       2.660  -7.025  -9.144  1.00  0.00     0.023 A 
ATOM     59  C   UNL     1       3.644  -6.219  -8.549  1.00  0.00     0.031 A 
ATOM     60  C   UNL     1       2.625  -7.095 -10.550  1.00  0.00     0.131 A 
ATOM     61  C   UNL     1       4.533  -5.492  -9.359  1.00  0.00     0.055 A 
ATOM     62  C   UNL     1       3.545  -6.414 -11.348  1.00  0.00     0.041 A 
ATOM     63  F   UNL     1       1.696  -7.839 -11.173  1.00  0.00    -0.206 F 
ATOM     64  C   UNL     1       4.503  -5.601 -10.753  1.00  0.00     0.022 A 
BRANCH  61  65
ATOM     65  S   UNL     1       5.683  -4.327  -8.575  1.00  0.00     0.124 S 
ATOM     66  O   UNL     1       4.769  -3.448  -7.849  1.00  0.00    -0.237 OA
ATOM     67  O   UNL     1       6.511  -5.205  -7.756  1.00  0.00    -0.237 OA
ATOM     68  O   UNL     1       6.366  -3.704  -9.707  1.00  0.00    -0.744 OA
ENDBRANCH  61  65
ENDBRANCH  44  58
BRANCH  45  69
ATOM     69  C   UNL     1      -4.051 -12.171  -3.860  1.00  0.00     0.023 A 
ATOM     70  C   UNL     1      -3.718 -12.988  -2.770  1.00  0.00     0.031 A 
ATOM     71  C   UNL     1      -5.397 -12.131  -4.270  1.00  0.00     0.131 A 
ATOM     72  C   UNL     1      -4.717 -13.747  -2.140  1.00  0.00     0.055 A 
ATOM     73  C   UNL     1      -6.395 -12.838  -3.602  1.00  0.00     0.041 A 
ATOM     74  F   UNL     1      -5.767 -11.375  -5.317  1.00  0.00    -0.206 F 
ATOM     75  C   UNL     1      -6.055 -13.662  -2.535  1.00  0.00     0.022 A 
BRANCH  72  76
ATOM     76  S   UNL     1      -4.232 -14.918  -0.842  1.00  0.00     0.124 S 
ATOM     77  O   UNL     1      -3.288 -15.774  -1.551  1.00  0.00    -0.237 OA
ATOM     78  O   UNL     1      -3.662 -14.031   0.167  1.00  0.00    -0.237 OA
ATOM     79  O   UNL     1      -5.493 -15.554  -0.469  1.00  0.00    -0.744 OA
ENDBRANCH  72  76
ENDBRANCH  45  69
BRANCH  57  80
ATOM     80  C   UNL     1       1.179 -14.025  -8.043  1.00  0.00     0.023 A 
ATOM     81  C   UNL     1       0.391 -14.843  -8.874  1.00  0.00     0.031 A 
ATOM     82  C   UNL     1       2.419 -14.522  -7.607  1.00  0.00     0.131 A 
ATOM     83  C   UNL     1       0.827 -16.136  -9.198  1.00  0.00     0.055 A 
ATOM     84  C   UNL     1       2.871 -15.790  -7.975  1.00  0.00     0.041 A 
ATOM     85  F   UNL     1       3.207 -13.785  -6.808  1.00  0.00    -0.206 F 
ATOM     86  C   UNL     1       2.067 -16.610  -8.764  1.00  0.00     0.022 A 
BRANCH  83  87
ATOM     87  S   UNL     1      -0.291 -17.227 -10.121  1.00  0.00     0.124 S 
ATOM     88  O   UNL     1      -1.444 -17.306  -9.229  1.00  0.00    -0.237 OA
ATOM     89  O   UNL     1      -0.495 -16.488 -11.363  1.00  0.00    -0.237 OA
ATOM     90  O   UNL     1       0.473 -18.466 -10.257  1.00  0.00    -0.744 OA
ENDBRANCH  83  87
ENDBRANCH  57  80
ENDBRANCH  31  32
ENDBRANCH  24  26
ENDBRANCH  23  24
ENDBRANCH  22  23
ENDBRANCH   1  22
TORSDOF 21
