REMARK SMILES Cc1ccc(-c2nc(NC(=O)[C@H]3[C@@H](C(=O)OCCOC(=O)c4ccc(-c5c6nc(c(-c7cc(S(=O)(=O)[O-])ccc7F)c7ccc([nH]7)c(-c7cc(S(=O)(=O)[O-])ccc7F)c7nc(c(-c8cc(S(=O)(=O)[O-])ccc8F)c8ccc5[nH]8)C=C7)C=C6)cc4)[C@@H]4CC[C@H]3O4)sc2C)cc1
REMARK SMILES IDX 17 1 16 2 14 3 15 4 13 5 12 6 88 7 85 8 87 9 89 10 86 11
REMARK SMILES IDX 10 12 9 13 11 15 8 16 6 17 7 18 91 19 90 20 92 21 5 22 1 23
REMARK SMILES IDX 2 24 3 25 94 26 4 27 93 28 18 29 19 30 20 31 21 32 22 33
REMARK SMILES IDX 23 34 84 35 24 36 83 37 25 38 26 39 27 40 77 41 28 42 82 43
REMARK SMILES IDX 76 44 78 45 29 46 81 47 75 48 74 49 30 51 62 52 42 53 61 54
REMARK SMILES IDX 43 55 46 56 60 57 79 58 44 59 45 60 59 62 80 63 47 64 31 65
REMARK SMILES IDX 32 66 40 67 33 68 39 69 41 70 38 71 34 72 35 73 36 74 37 75
REMARK SMILES IDX 63 76 64 77 72 78 65 79 71 80 73 81 70 82 66 83 67 84 68 85
REMARK SMILES IDX 69 86 48 87 49 88 57 89 50 90 56 91 58 92 55 93 51 94 52 95
REMARK SMILES IDX 53 96 54 97
REMARK H PARENT 9 14 78 50 46 61
REMARK Flexibility Score: inf
ROOT
ATOM      1  C   UNL     1      -4.937   1.236  -2.218  1.00  0.00     0.274 C 
ENDROOT
BRANCH   1   2
ATOM      2  O   UNL     1      -4.949   0.321  -0.732  1.00  0.00    -0.462 OA
BRANCH   2   3
ATOM      3  C   UNL     1      -5.782   0.195   0.469  1.00  0.00     0.312 C 
ATOM      4  O   UNL     1      -5.561   0.818   1.503  1.00  0.00    -0.252 OA
BRANCH   3   5
ATOM      5  C   UNL     1      -6.909  -0.992   0.466  1.00  0.00     0.143 C 
ATOM      6  C   UNL     1      -6.989  -1.450  -0.943  1.00  0.00     0.124 C 
ATOM      7  C   UNL     1      -8.404  -1.927  -1.196  1.00  0.00     0.132 C 
ATOM      8  C   UNL     1      -8.488  -0.935   0.738  1.00  0.00     0.133 C 
ATOM      9  C   UNL     1      -8.826  -3.058  -0.269  1.00  0.00     0.035 C 
ATOM     10  O   UNL     1      -9.086  -0.806  -0.605  1.00  0.00    -0.373 OA
ATOM     11  C   UNL     1      -9.191  -2.275   0.989  1.00  0.00     0.036 C 
BRANCH   6  12
ATOM     12  C   UNL     1      -6.843  -0.259  -1.843  1.00  0.00     0.232 C 
ATOM     13  N   UNL     1      -7.107   1.101  -1.250  1.00  0.00    -0.302 N 
ATOM     14  H   UNL     1      -7.956   1.018  -0.759  1.00  0.00     0.172 HD
ATOM     15  O   UNL     1      -6.612  -0.612  -3.002  1.00  0.00    -0.274 OA
BRANCH  13  16
ATOM     16  C   UNL     1      -6.642   2.605  -1.056  1.00  0.00     0.190 A 
ATOM     17  C   UNL     1      -6.607   4.671  -0.113  1.00  0.00     0.086 A 
ATOM     18  N   UNL     1      -6.112   3.304  -0.036  1.00  0.00    -0.220 NA
ATOM     19  C   UNL     1      -7.750   4.705  -0.896  1.00  0.00     0.031 A 
ATOM     20  S   UNL     1      -7.217   3.820  -2.205  1.00  0.00    -0.101 S 
ATOM     21  C   UNL     1      -8.955   5.517  -1.092  1.00  0.00     0.059 C 
BRANCH  17  22
ATOM     22  C   UNL     1      -6.108   5.966   0.405  1.00  0.00     0.001 A 
ATOM     23  C   UNL     1      -6.157  10.053   1.867  1.00  0.00     0.044 C 
ATOM     24  C   UNL     1      -5.936   8.663   1.337  1.00  0.00    -0.051 A 
ATOM     25  C   UNL     1      -6.234   8.406   0.007  1.00  0.00     0.004 A 
ATOM     26  C   UNL     1      -5.592   7.574   2.159  1.00  0.00     0.004 A 
ATOM     27  C   UNL     1      -6.268   7.089  -0.451  1.00  0.00     0.010 A 
ATOM     28  C   UNL     1      -5.683   6.228   1.702  1.00  0.00     0.010 A 
ENDBRANCH  17  22
ENDBRANCH  13  16
ENDBRANCH   6  12
ENDBRANCH   3   5
ENDBRANCH   2   3
ENDBRANCH   1   2
BRANCH   1  29
ATOM     29  C   UNL     1      -6.313   1.592  -3.478  1.00  0.00     0.275 C 
BRANCH  29  30
ATOM     30  O   UNL     1      -8.131   1.617  -3.264  1.00  0.00    -0.458 OA
BRANCH  30  31
ATOM     31  C   UNL     1      -9.508   1.839  -2.623  1.00  0.00     0.338 C 
ATOM     32  O   UNL     1     -10.473   1.715  -3.380  1.00  0.00    -0.246 OA
BRANCH  31  33
ATOM     33  C   UNL     1      -9.919   2.214  -1.039  1.00  0.00     0.060 A 
ATOM     34  C   UNL     1     -11.085   2.786  -0.496  1.00  0.00     0.016 A 
ATOM     35  C   UNL     1      -9.098   1.941   0.020  1.00  0.00     0.016 A 
ATOM     36  C   UNL     1     -11.186   3.190   0.939  1.00  0.00     0.010 A 
ATOM     37  C   UNL     1      -9.033   2.465   1.285  1.00  0.00     0.010 A 
ATOM     38  C   UNL     1     -10.096   3.079   1.828  1.00  0.00    -0.014 A 
BRANCH  38  39
ATOM     39  C   UNL     1      -9.650   3.699   3.103  1.00  0.00     0.031 A 
ATOM     40  C   UNL     1      -8.945   2.971   4.236  1.00  0.00     0.074 A 
ATOM     41  C   UNL     1      -9.204   4.963   2.892  1.00  0.00     0.049 A 
ATOM     42  N   UNL     1      -8.718   3.484   5.402  1.00  0.00    -0.248 NA
ATOM     43  C   UNL     1      -8.293   1.659   4.115  1.00  0.00     0.031 C 
ATOM     44  C   UNL     1      -8.307   5.830   3.641  1.00  0.00     0.029 A 
ATOM     45  N   UNL     1      -9.517   5.755   1.789  1.00  0.00    -0.354 N 
ATOM     46  C   UNL     1      -7.644   2.814   5.981  1.00  0.00     0.074 A 
ATOM     47  C   UNL     1      -7.480   1.631   5.178  1.00  0.00     0.031 C 
ATOM     48  C   UNL     1      -8.488   7.100   3.220  1.00  0.00     0.029 A 
ATOM     49  C   UNL     1      -9.508   7.093   2.177  1.00  0.00     0.049 A 
ATOM     50  H   UNL     1      -9.713   5.422   0.883  1.00  0.00     0.167 HD
ATOM     51  C   UNL     1      -6.884   3.407   6.960  1.00  0.00     0.034 A 
ATOM     52  C   UNL     1     -10.708   7.733   2.198  1.00  0.00     0.034 A 
ATOM     53  C   UNL     1      -7.253   4.833   7.090  1.00  0.00     0.049 A 
ATOM     54  C   UNL     1     -11.134   7.777   3.660  1.00  0.00     0.074 A 
ATOM     55  C   UNL     1      -6.575   6.024   6.882  1.00  0.00     0.029 A 
ATOM     56  N   UNL     1      -8.603   5.189   7.182  1.00  0.00    -0.354 N 
ATOM     57  N   UNL     1     -10.632   6.982   4.579  1.00  0.00    -0.248 NA
ATOM     58  C   UNL     1     -11.936   8.838   4.250  1.00  0.00     0.031 C 
ATOM     59  C   UNL     1      -7.548   7.063   6.718  1.00  0.00     0.029 A 
ATOM     60  C   UNL     1      -8.818   6.516   6.856  1.00  0.00     0.049 A 
ATOM     61  H   UNL     1      -9.318   4.566   7.447  1.00  0.00     0.167 HD
ATOM     62  C   UNL     1     -10.812   7.517   5.818  1.00  0.00     0.074 A 
ATOM     63  C   UNL     1     -11.712   8.638   5.564  1.00  0.00     0.031 C 
ATOM     64  C   UNL     1     -10.163   7.090   6.951  1.00  0.00     0.034 A 
BRANCH  51  65
ATOM     65  C   UNL     1      -5.635   2.794   7.630  1.00  0.00     0.023 A 
ATOM     66  C   UNL     1      -4.726   3.600   8.362  1.00  0.00     0.031 A 
ATOM     67  C   UNL     1      -5.316   1.415   7.646  1.00  0.00     0.131 A 
ATOM     68  C   UNL     1      -3.554   3.067   8.960  1.00  0.00     0.055 A 
ATOM     69  C   UNL     1      -4.125   0.893   8.188  1.00  0.00     0.041 A 
ATOM     70  F   UNL     1      -6.179   0.486   7.214  1.00  0.00    -0.206 F 
ATOM     71  C   UNL     1      -3.230   1.721   8.841  1.00  0.00     0.022 A 
BRANCH  68  72
ATOM     72  S   UNL     1      -2.479   4.136   9.972  1.00  0.00     0.124 S 
ATOM     73  O   UNL     1      -1.935   5.056   8.979  1.00  0.00    -0.237 OA
ATOM     74  O   UNL     1      -3.416   4.703  10.935  1.00  0.00    -0.237 OA
ATOM     75  O   UNL     1      -1.508   3.202  10.544  1.00  0.00    -0.744 OA
ENDBRANCH  68  72
ENDBRANCH  51  65
BRANCH  52  76
ATOM     76  C   UNL     1     -11.466   7.570   0.894  1.00  0.00     0.023 A 
ATOM     77  C   UNL     1     -10.867   8.110  -0.289  1.00  0.00     0.031 A 
ATOM     78  C   UNL     1     -12.491   6.635   0.684  1.00  0.00     0.131 A 
ATOM     79  C   UNL     1     -11.212   7.653  -1.588  1.00  0.00     0.055 A 
ATOM     80  C   UNL     1     -12.845   6.191  -0.612  1.00  0.00     0.041 A 
ATOM     81  F   UNL     1     -13.098   6.043   1.723  1.00  0.00    -0.206 F 
ATOM     82  C   UNL     1     -12.186   6.670  -1.748  1.00  0.00     0.022 A 
BRANCH  79  83
ATOM     83  S   UNL     1     -10.178   8.093  -3.059  1.00  0.00     0.124 S 
ATOM     84  O   UNL     1     -10.956   9.094  -3.715  1.00  0.00    -0.237 OA
ATOM     85  O   UNL     1      -8.913   8.542  -2.448  1.00  0.00    -0.237 OA
ATOM     86  O   UNL     1     -10.057   6.809  -3.773  1.00  0.00    -0.744 OA
ENDBRANCH  79  83
ENDBRANCH  52  76
BRANCH  64  87
ATOM     87  C   UNL     1     -10.764   7.222   8.328  1.00  0.00     0.023 A 
ATOM     88  C   UNL     1     -12.086   7.631   8.510  1.00  0.00     0.031 A 
ATOM     89  C   UNL     1     -10.086   6.793   9.496  1.00  0.00     0.131 A 
ATOM     90  C   UNL     1     -12.650   7.709   9.786  1.00  0.00     0.055 A 
ATOM     91  C   UNL     1     -10.692   6.753  10.751  1.00  0.00     0.041 A 
ATOM     92  F   UNL     1      -8.814   6.370   9.477  1.00  0.00    -0.206 F 
ATOM     93  C   UNL     1     -11.979   7.237  10.908  1.00  0.00     0.022 A 
BRANCH  90  94
ATOM     94  S   UNL     1     -14.239   8.549   9.924  1.00  0.00     0.124 S 
ATOM     95  O   UNL     1     -13.912   9.882   9.422  1.00  0.00    -0.237 OA
ATOM     96  O   UNL     1     -15.097   7.744   9.061  1.00  0.00    -0.237 OA
ATOM     97  O   UNL     1     -14.540   8.477  11.351  1.00  0.00    -0.744 OA
ENDBRANCH  90  94
ENDBRANCH  64  87
ENDBRANCH  38  39
ENDBRANCH  31  33
ENDBRANCH  30  31
ENDBRANCH  29  30
ENDBRANCH   1  29
TORSDOF 17
