REMARK SMILES C[NH2+]C[C@H](C)C(=O)NC[C@](C)(O)C(=O)OCCOC(=O)c1ccc(-c2c3nc(c(-c4cc(S(=O)(=O)[O-])ccc4F)c4ccc([nH]4)c(-c4cc(S(=O)(=O)[O-])ccc4F)c4nc(c(-c5cc(S(=O)(=O)[O-])ccc5F)c5ccc2[nH]5)C=C4)C=C3)cc1
REMARK SMILES IDX 16 1 15 2 13 3 14 4 10 5 11 6 9 7 8 8 6 9 7 10 4 12 5 13
REMARK SMILES IDX 3 14 2 15 1 16 12 19 17 21 18 22 19 23 20 24 21 25 22 26
REMARK SMILES IDX 83 27 23 28 82 29 24 30 25 31 26 32 76 33 27 34 81 35 75 36
REMARK SMILES IDX 77 37 28 38 80 39 74 40 73 41 29 43 61 44 41 45 60 46 42 47
REMARK SMILES IDX 45 48 59 49 78 50 43 51 44 52 58 54 79 55 46 56 30 57 31 58
REMARK SMILES IDX 39 59 32 60 38 61 40 62 37 63 33 64 34 65 35 66 36 67 62 68
REMARK SMILES IDX 63 69 71 70 64 71 70 72 72 73 69 74 65 75 66 76 67 77 68 78
REMARK SMILES IDX 47 79 48 80 56 81 49 82 55 83 57 84 54 85 50 86 51 87 52 88
REMARK SMILES IDX 53 89
REMARK H PARENT 8 11 2 17 2 18 12 20 77 42 45 53
REMARK Flexibility Score: inf
ROOT
ATOM      1  C   UNL     1      -2.345   2.872   4.122  1.00  0.00     0.274 C 
ENDROOT
BRANCH   1   2
ATOM      2  O   UNL     1      -2.568   1.551   4.656  1.00  0.00    -0.460 OA
BRANCH   2   3
ATOM      3  C   UNL     1      -3.340   0.746   3.873  1.00  0.00     0.339 C 
ATOM      4  O   UNL     1      -3.754   1.073   2.765  1.00  0.00    -0.249 OA
BRANCH   3   5
ATOM      5  C   UNL     1      -3.670  -0.608   4.549  1.00  0.00     0.176 C 
ATOM      6  C   UNL     1      -2.951  -1.769   3.866  1.00  0.00     0.057 C 
BRANCH   5   7
ATOM      7  C   UNL     1      -5.201  -0.826   4.481  1.00  0.00     0.162 C 
BRANCH   7   8
ATOM      8  N   UNL     1      -5.793  -0.557   3.174  1.00  0.00    -0.352 N 
ATOM      9  C   UNL     1      -6.729  -1.174   2.422  1.00  0.00     0.228 C 
ATOM     10  O   UNL     1      -7.063  -0.606   1.377  1.00  0.00    -0.275 OA
ATOM     11  H   UNL     1      -5.430   0.253   2.748  1.00  0.00     0.163 HD
BRANCH   9  12
ATOM     12  C   UNL     1      -7.333  -2.516   2.781  1.00  0.00     0.130 C 
ATOM     13  C   UNL     1      -6.309  -3.621   2.510  1.00  0.00     0.024 C 
BRANCH  12  14
ATOM     14  C   UNL     1      -7.983  -2.660   4.167  1.00  0.00     0.273 C 
BRANCH  14  15
ATOM     15  N   UNL     1      -8.515  -1.475   4.847  1.00  0.00    -0.348 N 
ATOM     16  C   UNL     1      -9.530  -0.759   4.089  1.00  0.00     0.330 C 
ATOM     17  H   UNL     1      -8.927  -1.771   5.732  1.00  0.00     0.346 HD
ATOM     18  H   UNL     1      -7.734  -0.832   4.972  1.00  0.00     0.346 HD
ENDBRANCH  14  15
ENDBRANCH  12  14
ENDBRANCH   9  12
ENDBRANCH   7   8
ENDBRANCH   5   7
BRANCH   5  19
ATOM     19  O   UNL     1      -3.287  -0.626   5.931  1.00  0.00    -0.377 OA
ATOM     20  H   UNL     1      -2.329  -0.492   6.002  1.00  0.00     0.212 HD
ENDBRANCH   5  19
ENDBRANCH   3   5
ENDBRANCH   2   3
ENDBRANCH   1   2
BRANCH   1  21
ATOM     21  C   UNL     1      -0.992   2.994   3.421  1.00  0.00     0.275 C 
BRANCH  21  22
ATOM     22  O   UNL     1      -0.885   2.101   2.300  1.00  0.00    -0.458 OA
BRANCH  22  23
ATOM     23  C   UNL     1      -0.232   0.943   2.559  1.00  0.00     0.338 C 
ATOM     24  O   UNL     1       0.247   0.591   3.623  1.00  0.00    -0.246 OA
BRANCH  23  25
ATOM     25  C   UNL     1      -0.226   0.089   1.363  1.00  0.00     0.060 A 
ATOM     26  C   UNL     1      -1.371  -0.639   1.052  1.00  0.00     0.016 A 
ATOM     27  C   UNL     1       0.952  -0.114   0.647  1.00  0.00     0.016 A 
ATOM     28  C   UNL     1      -1.322  -1.645   0.092  1.00  0.00     0.010 A 
ATOM     29  C   UNL     1       0.968  -1.051  -0.393  1.00  0.00     0.010 A 
ATOM     30  C   UNL     1      -0.161  -1.847  -0.664  1.00  0.00    -0.014 A 
BRANCH  30  31
ATOM     31  C   UNL     1      -0.121  -2.895  -1.722  1.00  0.00     0.031 A 
ATOM     32  C   UNL     1       0.901  -3.997  -1.654  1.00  0.00     0.074 A 
ATOM     33  C   UNL     1      -1.002  -2.864  -2.743  1.00  0.00     0.049 A 
ATOM     34  N   UNL     1       1.260  -4.854  -2.574  1.00  0.00    -0.248 NA
ATOM     35  C   UNL     1       1.622  -4.144  -0.381  1.00  0.00     0.031 C 
ATOM     36  C   UNL     1      -2.094  -1.899  -2.894  1.00  0.00     0.029 A 
ATOM     37  N   UNL     1      -1.119  -3.667  -3.850  1.00  0.00    -0.354 N 
ATOM     38  C   UNL     1       2.287  -5.607  -2.014  1.00  0.00     0.074 A 
ATOM     39  C   UNL     1       2.493  -5.099  -0.673  1.00  0.00     0.031 C 
ATOM     40  C   UNL     1      -2.786  -2.186  -4.006  1.00  0.00     0.029 A 
ATOM     41  C   UNL     1      -2.124  -3.279  -4.706  1.00  0.00     0.049 A 
ATOM     42  H   UNL     1      -0.539  -4.446  -4.016  1.00  0.00     0.167 HD
ATOM     43  C   UNL     1       2.993  -6.622  -2.574  1.00  0.00     0.034 A 
ATOM     44  C   UNL     1      -2.439  -3.704  -5.945  1.00  0.00     0.034 A 
ATOM     45  C   UNL     1       2.745  -7.135  -3.901  1.00  0.00     0.049 A 
ATOM     46  C   UNL     1      -1.584  -4.762  -6.585  1.00  0.00     0.074 A 
ATOM     47  C   UNL     1       3.386  -8.166  -4.565  1.00  0.00     0.029 A 
ATOM     48  N   UNL     1       1.770  -6.654  -4.767  1.00  0.00    -0.354 N 
ATOM     49  N   UNL     1      -0.553  -5.402  -6.085  1.00  0.00    -0.248 NA
ATOM     50  C   UNL     1      -1.913  -5.130  -7.968  1.00  0.00     0.031 C 
ATOM     51  C   UNL     1       2.838  -8.271  -5.850  1.00  0.00     0.029 A 
ATOM     52  C   UNL     1       1.814  -7.345  -5.968  1.00  0.00     0.049 A 
ATOM     53  H   UNL     1       1.139  -5.928  -4.557  1.00  0.00     0.167 HD
ATOM     54  C   UNL     1      -0.108  -6.248  -7.095  1.00  0.00     0.074 A 
ATOM     55  C   UNL     1      -0.996  -6.052  -8.223  1.00  0.00     0.031 C 
ATOM     56  C   UNL     1       0.942  -7.108  -7.093  1.00  0.00     0.034 A 
BRANCH  43  57
ATOM     57  C   UNL     1       4.144  -7.188  -1.777  1.00  0.00     0.023 A 
ATOM     58  C   UNL     1       3.951  -7.881  -0.570  1.00  0.00     0.031 A 
ATOM     59  C   UNL     1       5.466  -6.990  -2.218  1.00  0.00     0.131 A 
ATOM     60  C   UNL     1       5.060  -8.286   0.190  1.00  0.00     0.055 A 
ATOM     61  C   UNL     1       6.563  -7.461  -1.495  1.00  0.00     0.041 A 
ATOM     62  F   UNL     1       5.713  -6.316  -3.352  1.00  0.00    -0.206 F 
ATOM     63  C   UNL     1       6.365  -8.100  -0.275  1.00  0.00     0.022 A 
BRANCH  60  64
ATOM     64  S   UNL     1       4.779  -8.929   1.863  1.00  0.00     0.124 S 
ATOM     65  O   UNL     1       4.057  -7.823   2.488  1.00  0.00    -0.237 OA
ATOM     66  O   UNL     1       4.004 -10.138   1.609  1.00  0.00    -0.237 OA
ATOM     67  O   UNL     1       6.130  -9.150   2.377  1.00  0.00    -0.744 OA
ENDBRANCH  60  64
ENDBRANCH  43  57
BRANCH  44  68
ATOM     68  C   UNL     1      -3.546  -3.053  -6.701  1.00  0.00     0.023 A 
ATOM     69  C   UNL     1      -4.701  -3.767  -7.053  1.00  0.00     0.031 A 
ATOM     70  C   UNL     1      -3.454  -1.706  -7.097  1.00  0.00     0.131 A 
ATOM     71  C   UNL     1      -5.711  -3.135  -7.797  1.00  0.00     0.055 A 
ATOM     72  C   UNL     1      -4.481  -1.069  -7.792  1.00  0.00     0.041 A 
ATOM     73  F   UNL     1      -2.366  -0.981  -6.789  1.00  0.00    -0.206 F 
ATOM     74  C   UNL     1      -5.616  -1.787  -8.154  1.00  0.00     0.022 A 
BRANCH  71  75
ATOM     75  S   UNL     1      -7.132  -4.119  -8.347  1.00  0.00     0.124 S 
ATOM     76  O   UNL     1      -6.487  -5.140  -9.165  1.00  0.00    -0.237 OA
ATOM     77  O   UNL     1      -7.697  -4.574  -7.081  1.00  0.00    -0.237 OA
ATOM     78  O   UNL     1      -7.949  -3.156  -9.081  1.00  0.00    -0.744 OA
ENDBRANCH  71  75
ENDBRANCH  44  68
BRANCH  56  79
ATOM     79  C   UNL     1       1.162  -7.901  -8.352  1.00  0.00     0.023 A 
ATOM     80  C   UNL     1       1.654  -7.295  -9.521  1.00  0.00     0.031 A 
ATOM     81  C   UNL     1       0.853  -9.271  -8.390  1.00  0.00     0.131 A 
ATOM     82  C   UNL     1       1.782  -8.050 -10.696  1.00  0.00     0.055 A 
ATOM     83  C   UNL     1       1.026 -10.028  -9.549  1.00  0.00     0.041 A 
ATOM     84  F   UNL     1       0.377  -9.894  -7.300  1.00  0.00    -0.206 F 
ATOM     85  C   UNL     1       1.484  -9.416 -10.713  1.00  0.00     0.022 A 
BRANCH  82  86
ATOM     86  S   UNL     1       2.287  -7.211 -12.222  1.00  0.00     0.124 S 
ATOM     87  O   UNL     1       1.185  -6.279 -12.434  1.00  0.00    -0.237 OA
ATOM     88  O   UNL     1       3.564  -6.614 -11.846  1.00  0.00    -0.237 OA
ATOM     89  O   UNL     1       2.377  -8.297 -13.197  1.00  0.00    -0.744 OA
ENDBRANCH  82  86
ENDBRANCH  56  79
ENDBRANCH  30  31
ENDBRANCH  23  25
ENDBRANCH  22  23
ENDBRANCH  21  22
ENDBRANCH   1  21
TORSDOF 20
