REMARK SMILES CCCCCCNC(=O)Oc1cccc(-c2ccc([C@@H](C)C(=O)OCCOC(=O)c3ccc(-c4c5nc(c(-c6cc(S(=O)(=O)[O-])ccc6F)c6ccc([nH]6)c(-c6cc(S(=O)(=O)[O-])ccc6F)c6nc(c(-c7cc(S(=O)(=O)[O-])ccc7F)c7ccc4[nH]7)C=C6)C=C5)cc3)cc2O)c1
REMARK SMILES IDX 20 1 21 2 19 3 16 4 17 5 94 6 18 7 93 8 15 9 11 10 12 11
REMARK SMILES IDX 96 12 13 13 14 14 10 15 8 16 7 17 9 19 6 20 5 21 4 22 3 23
REMARK SMILES IDX 2 24 1 25 95 26 22 28 23 29 24 30 25 31 26 32 27 33 28 34
REMARK SMILES IDX 29 35 30 36 31 37 92 38 32 39 91 40 33 41 34 42 35 43 85 44
REMARK SMILES IDX 36 45 90 46 84 47 86 48 37 49 89 50 83 51 82 52 38 54 70 55
REMARK SMILES IDX 50 56 69 57 51 58 54 59 68 60 87 61 52 62 53 63 67 65 88 66
REMARK SMILES IDX 55 67 39 68 40 69 48 70 41 71 47 72 49 73 46 74 42 75 43 76
REMARK SMILES IDX 44 77 45 78 71 79 72 80 80 81 73 82 79 83 81 84 78 85 74 86
REMARK SMILES IDX 75 87 76 88 77 89 56 90 57 91 65 92 58 93 64 94 66 95 63 96
REMARK SMILES IDX 59 97 60 98 61 99 62 100
REMARK H PARENT 7 18 95 27 86 53 54 64
REMARK Flexibility Score: inf
ROOT
ATOM      1  C   UNL     1      -4.859   1.018 -13.951  1.00  0.00     0.126 C 
ATOM      2  C   UNL     1      -6.071   1.414 -14.791  1.00  0.00     0.025 C 
ENDROOT
BRANCH   1   3
ATOM      3  C   UNL     1      -4.959   1.527 -12.521  1.00  0.00    -0.030 A 
ATOM      4  C   UNL     1      -5.131   2.418  -9.817  1.00  0.00     0.024 A 
ATOM      5  C   UNL     1      -5.134   3.325 -10.891  1.00  0.00     0.013 A 
ATOM      6  C   UNL     1      -5.052   1.054 -10.131  1.00  0.00     0.123 A 
ATOM      7  C   UNL     1      -5.061   2.890 -12.219  1.00  0.00     0.005 A 
ATOM      8  C   UNL     1      -4.961   0.615 -11.455  1.00  0.00     0.051 A 
BRANCH   4   9
ATOM      9  C   UNL     1      -5.235   2.933  -8.440  1.00  0.00    -0.011 A 
ATOM     10  C   UNL     1      -4.364   3.201  -6.194  1.00  0.00     0.133 A 
ATOM     11  C   UNL     1      -5.491   3.927  -5.814  1.00  0.00     0.047 A 
ATOM     12  C   UNL     1      -4.228   2.699  -7.490  1.00  0.00     0.056 A 
ATOM     13  C   UNL     1      -6.490   4.176  -6.749  1.00  0.00     0.004 A 
ATOM     14  C   UNL     1      -6.363   3.680  -8.049  1.00  0.00     0.009 A 
BRANCH  10  15
ATOM     15  O   UNL     1      -3.445   2.890  -5.178  1.00  0.00    -0.410 OA
BRANCH  15  16
ATOM     16  C   UNL     1      -2.109   3.204  -5.379  1.00  0.00     0.412 C 
ATOM     17  N   UNL     1      -1.307   2.822  -4.337  1.00  0.00    -0.321 N 
ATOM     18  H   UNL     1      -0.343   2.992  -4.439  1.00  0.00     0.167 HD
ATOM     19  O   UNL     1      -1.644   3.790  -6.349  1.00  0.00    -0.224 OA
BRANCH  17  20
ATOM     20  C   UNL     1      -1.727   2.194  -3.099  1.00  0.00     0.119 C 
BRANCH  20  21
ATOM     21  C   UNL     1      -1.088   0.822  -2.891  1.00  0.00     0.021 C 
BRANCH  21  22
ATOM     22  C   UNL     1       0.440   0.828  -2.765  1.00  0.00     0.002 C 
BRANCH  22  23
ATOM     23  C   UNL     1       1.014   1.701  -1.644  1.00  0.00    -0.000 C 
BRANCH  23  24
ATOM     24  C   UNL     1       0.527   1.369  -0.231  1.00  0.00    -0.003 C 
ATOM     25  C   UNL     1       0.908  -0.031   0.225  1.00  0.00     0.004 C 
ENDBRANCH  23  24
ENDBRANCH  22  23
ENDBRANCH  21  22
ENDBRANCH  20  21
ENDBRANCH  17  20
ENDBRANCH  15  16
ENDBRANCH  10  15
ENDBRANCH   4   9
BRANCH   6  26
ATOM     26  O   UNL     1      -5.092   0.060  -9.190  1.00  0.00    -0.507 OA
ATOM     27  H   UNL     1      -5.153   0.279  -8.280  1.00  0.00     0.293 HD
ENDBRANCH   6  26
ENDBRANCH   1   3
BRANCH   1  28
ATOM     28  C   UNL     1      -3.576   1.364 -14.700  1.00  0.00     0.313 C 
ATOM     29  O   UNL     1      -3.164   0.688 -15.637  1.00  0.00    -0.252 OA
BRANCH  28  30
ATOM     30  O   UNL     1      -2.981   2.508 -14.270  1.00  0.00    -0.462 OA
BRANCH  30  31
ATOM     31  C   UNL     1      -1.725   2.859 -14.880  1.00  0.00     0.274 C 
BRANCH  31  32
ATOM     32  C   UNL     1      -0.552   2.522 -13.959  1.00  0.00     0.275 C 
BRANCH  32  33
ATOM     33  O   UNL     1      -0.393   1.099 -13.824  1.00  0.00    -0.458 OA
BRANCH  33  34
ATOM     34  C   UNL     1      -0.951   0.563 -12.712  1.00  0.00     0.338 C 
ATOM     35  O   UNL     1      -1.512   1.156 -11.810  1.00  0.00    -0.246 OA
BRANCH  34  36
ATOM     36  C   UNL     1      -0.875  -0.902 -12.795  1.00  0.00     0.060 A 
ATOM     37  C   UNL     1      -2.054  -1.616 -13.015  1.00  0.00     0.016 A 
ATOM     38  C   UNL     1       0.332  -1.570 -12.586  1.00  0.00     0.016 A 
ATOM     39  C   UNL     1      -2.038  -3.008 -13.020  1.00  0.00     0.010 A 
ATOM     40  C   UNL     1       0.350  -2.968 -12.601  1.00  0.00     0.010 A 
ATOM     41  C   UNL     1      -0.836  -3.696 -12.807  1.00  0.00    -0.014 A 
BRANCH  41  42
ATOM     42  C   UNL     1      -0.835  -5.178 -12.753  1.00  0.00     0.031 A 
ATOM     43  C   UNL     1      -0.671  -5.875 -11.433  1.00  0.00     0.074 A 
ATOM     44  C   UNL     1      -0.996  -5.890 -13.884  1.00  0.00     0.049 A 
ATOM     45  N   UNL     1      -0.554  -7.153 -11.178  1.00  0.00    -0.248 NA
ATOM     46  C   UNL     1      -0.627  -5.015 -10.242  1.00  0.00     0.031 C 
ATOM     47  C   UNL     1      -1.211  -5.319 -15.215  1.00  0.00     0.029 A 
ATOM     48  N   UNL     1      -0.999  -7.245 -14.098  1.00  0.00    -0.354 N 
ATOM     49  C   UNL     1      -0.405  -7.252  -9.799  1.00  0.00     0.074 A 
ATOM     50  C   UNL     1      -0.420  -5.900  -9.278  1.00  0.00     0.031 C 
ATOM     51  C   UNL     1      -1.326  -6.317 -16.106  1.00  0.00     0.029 A 
ATOM     52  C   UNL     1      -1.139  -7.593 -15.421  1.00  0.00     0.049 A 
ATOM     53  H   UNL     1      -0.910  -7.905 -13.373  1.00  0.00     0.167 HD
ATOM     54  C   UNL     1      -0.272  -8.370  -9.041  1.00  0.00     0.034 A 
ATOM     55  C   UNL     1      -1.088  -8.801 -16.018  1.00  0.00     0.034 A 
ATOM     56  C   UNL     1      -0.260  -9.709  -9.583  1.00  0.00     0.049 A 
ATOM     57  C   UNL     1      -0.862 -10.023 -15.165  1.00  0.00     0.074 A 
ATOM     58  C   UNL     1      -0.143 -10.912  -8.909  1.00  0.00     0.029 A 
ATOM     59  N   UNL     1      -0.359 -10.021 -10.934  1.00  0.00    -0.354 N 
ATOM     60  N   UNL     1      -0.705 -10.104 -13.863  1.00  0.00    -0.248 NA
ATOM     61  C   UNL     1      -0.806 -11.315 -15.860  1.00  0.00     0.031 C 
ATOM     62  C   UNL     1      -0.108 -11.945  -9.855  1.00  0.00     0.029 A 
ATOM     63  C   UNL     1      -0.274 -11.394 -11.115  1.00  0.00     0.049 A 
ATOM     64  H   UNL     1      -0.473  -9.363 -11.657  1.00  0.00     0.167 HD
ATOM     65  C   UNL     1      -0.553 -11.459 -13.583  1.00  0.00     0.074 A 
ATOM     66  C   UNL     1      -0.651 -12.158 -14.849  1.00  0.00     0.031 C 
ATOM     67  C   UNL     1      -0.356 -12.072 -12.388  1.00  0.00     0.034 A 
BRANCH  54  68
ATOM     68  C   UNL     1      -0.066  -8.179  -7.557  1.00  0.00     0.023 A 
ATOM     69  C   UNL     1      -1.055  -7.614  -6.732  1.00  0.00     0.031 A 
ATOM     70  C   UNL     1       1.158  -8.538  -6.965  1.00  0.00     0.131 A 
ATOM     71  C   UNL     1      -0.778  -7.360  -5.380  1.00  0.00     0.055 A 
ATOM     72  C   UNL     1       1.401  -8.352  -5.602  1.00  0.00     0.041 A 
ATOM     73  F   UNL     1       2.149  -9.061  -7.705  1.00  0.00    -0.206 F 
ATOM     74  C   UNL     1       0.435  -7.747  -4.804  1.00  0.00     0.022 A 
BRANCH  71  75
ATOM     75  S   UNL     1      -1.969  -6.393  -4.411  1.00  0.00     0.124 S 
ATOM     76  O   UNL     1      -2.030  -5.147  -5.172  1.00  0.00    -0.237 OA
ATOM     77  O   UNL     1      -3.164  -7.228  -4.454  1.00  0.00    -0.237 OA
ATOM     78  O   UNL     1      -1.335  -6.279  -3.099  1.00  0.00    -0.744 OA
ENDBRANCH  71  75
ENDBRANCH  54  68
BRANCH  55  79
ATOM     79  C   UNL     1      -1.196  -8.913 -17.500  1.00  0.00     0.023 A 
ATOM     80  C   UNL     1      -2.274  -9.580 -18.103  1.00  0.00     0.031 A 
ATOM     81  C   UNL     1      -0.197  -8.381 -18.336  1.00  0.00     0.131 A 
ATOM     82  C   UNL     1      -2.310  -9.729 -19.498  1.00  0.00     0.055 A 
ATOM     83  C   UNL     1      -0.263  -8.489 -19.725  1.00  0.00     0.041 A 
ATOM     84  F   UNL     1       0.856  -7.736 -17.809  1.00  0.00    -0.206 F 
ATOM     85  C   UNL     1      -1.319  -9.177 -20.314  1.00  0.00     0.022 A 
BRANCH  82  86
ATOM     86  S   UNL     1      -3.637 -10.723 -20.233  1.00  0.00     0.124 S 
ATOM     87  O   UNL     1      -3.442 -12.012 -19.578  1.00  0.00    -0.237 OA
ATOM     88  O   UNL     1      -4.828  -9.977 -19.841  1.00  0.00    -0.237 OA
ATOM     89  O   UNL     1      -3.331 -10.697 -21.662  1.00  0.00    -0.744 OA
ENDBRANCH  82  86
ENDBRANCH  55  79
BRANCH  67  90
ATOM     90  C   UNL     1      -0.275 -13.578 -12.401  1.00  0.00     0.023 A 
ATOM     91  C   UNL     1       0.815 -14.256 -12.974  1.00  0.00     0.031 A 
ATOM     92  C   UNL     1      -1.313 -14.344 -11.841  1.00  0.00     0.131 A 
ATOM     93  C   UNL     1       0.820 -15.658 -13.018  1.00  0.00     0.055 A 
ATOM     94  C   UNL     1      -1.278 -15.739 -11.841  1.00  0.00     0.041 A 
ATOM     95  F   UNL     1      -2.378 -13.747 -11.283  1.00  0.00    -0.206 F 
ATOM     96  C   UNL     1      -0.213 -16.404 -12.441  1.00  0.00     0.022 A 
BRANCH  93  97
ATOM     97  S   UNL     1       2.159 -16.500 -13.906  1.00  0.00     0.124 S 
ATOM     98  O   UNL     1       2.004 -15.975 -15.258  1.00  0.00    -0.237 OA
ATOM     99  O   UNL     1       3.344 -16.055 -13.180  1.00  0.00    -0.237 OA
ATOM    100  O   UNL     1       1.836 -17.918 -13.751  1.00  0.00    -0.744 OA
ENDBRANCH  93  97
ENDBRANCH  67  90
ENDBRANCH  41  42
ENDBRANCH  34  36
ENDBRANCH  33  34
ENDBRANCH  32  33
ENDBRANCH  31  32
ENDBRANCH  30  31
ENDBRANCH  28  30
ENDBRANCH   1  28
TORSDOF 24
