REMARK SMILES CC[NH2+][C@]1(C(=O)OCCOC(=O)c2ccc(-c3c4nc(c(-c5cc(S(=O)(=O)[O-])ccc5F)c5ccc([nH]5)c(-c5cc(S(=O)(=O)[O-])ccc5F)c5nc(c(-c6cc(S(=O)(=O)[O-])ccc6F)c6ccc3[nH]6)C=C5)C=C4)cc2)CCC[C@@H]1CCSc1ccc(C)cc1
REMARK SMILES IDX 8 1 7 2 5 3 6 4 4 5 76 6 79 7 77 8 78 9 3 10 2 13 1 14 80 15
REMARK SMILES IDX 81 16 82 17 83 18 84 19 89 20 85 21 88 22 86 23 87 24 9 25
REMARK SMILES IDX 10 26 11 27 12 28 13 29 14 30 75 31 15 32 74 33 16 34 17 35
REMARK SMILES IDX 18 36 68 37 19 38 73 39 67 40 69 41 20 42 72 43 66 44 65 45
REMARK SMILES IDX 21 47 53 48 33 49 52 50 34 51 37 52 51 53 70 54 35 55 36 56
REMARK SMILES IDX 50 58 71 59 38 60 22 61 23 62 31 63 24 64 30 65 32 66 29 67
REMARK SMILES IDX 25 68 26 69 27 70 28 71 54 72 55 73 63 74 56 75 62 76 64 77
REMARK SMILES IDX 61 78 57 79 58 80 59 81 60 82 39 83 40 84 48 85 41 86 47 87
REMARK SMILES IDX 49 88 46 89 42 90 43 91 44 92 45 93
REMARK H PARENT 3 11 3 12 69 46 37 57
REMARK Flexibility Score: inf
ROOT
ATOM      1  C   UNL     1       1.536   1.437  -1.751  1.00  0.00     0.274 C 
ENDROOT
BRANCH   1   2
ATOM      2  O   UNL     1       1.307   2.624  -0.918  1.00  0.00    -0.457 OA
BRANCH   2   3
ATOM      3  C   UNL     1       0.385   3.558  -1.255  1.00  0.00     0.368 C 
ATOM      4  O   UNL     1      -0.153   3.479  -2.366  1.00  0.00    -0.245 OA
BRANCH   3   5
ATOM      5  C   UNL     1      -0.140   4.688  -0.152  1.00  0.00     0.197 C 
ATOM      6  C   UNL     1      -0.053   6.029  -0.921  1.00  0.00     0.081 C 
ATOM      7  C   UNL     1      -1.630   4.443  -0.103  1.00  0.00     0.063 C 
ATOM      8  C   UNL     1      -1.225   6.851  -0.386  1.00  0.00     0.008 C 
ATOM      9  C   UNL     1      -2.249   5.827   0.155  1.00  0.00     0.011 C 
BRANCH   5  10
ATOM     10  N   UNL     1       0.401   5.125   1.245  1.00  0.00    -0.332 N 
ATOM     11  H   UNL     1       1.415   5.104   1.139  1.00  0.00     0.347 HD
ATOM     12  H   UNL     1      -0.175   5.959   1.361  1.00  0.00     0.347 HD
BRANCH  10  13
ATOM     13  C   UNL     1       0.161   4.528   2.575  1.00  0.00     0.257 C 
ATOM     14  C   UNL     1      -0.166   5.368   3.804  1.00  0.00     0.071 C 
ENDBRANCH  10  13
ENDBRANCH   5  10
BRANCH   7  15
ATOM     15  C   UNL     1      -1.926   3.251   0.804  1.00  0.00     0.022 C 
BRANCH  15  16
ATOM     16  C   UNL     1      -0.807   2.117   0.891  1.00  0.00     0.075 C 
BRANCH  16  17
ATOM     17  S   UNL     1       0.957   1.868   1.923  1.00  0.00    -0.126 SA
BRANCH  17  18
ATOM     18  C   UNL     1       2.566   2.698   1.468  1.00  0.00     0.007 A 
ATOM     19  C   UNL     1       3.694   2.145   2.090  1.00  0.00     0.015 A 
ATOM     20  C   UNL     1       2.874   3.821   0.678  1.00  0.00     0.015 A 
ATOM     21  C   UNL     1       5.004   2.649   1.881  1.00  0.00     0.004 A 
ATOM     22  C   UNL     1       4.160   4.317   0.426  1.00  0.00     0.004 A 
ATOM     23  C   UNL     1       5.249   3.726   1.025  1.00  0.00    -0.051 A 
ATOM     24  C   UNL     1       6.621   4.257   0.752  1.00  0.00     0.044 C 
ENDBRANCH  17  18
ENDBRANCH  16  17
ENDBRANCH  15  16
ENDBRANCH   7  15
ENDBRANCH   3   5
ENDBRANCH   2   3
ENDBRANCH   1   2
BRANCH   1  25
ATOM     25  C   UNL     1       2.671   0.528  -1.197  1.00  0.00     0.275 C 
BRANCH  25  26
ATOM     26  O   UNL     1       2.318  -0.044   0.086  1.00  0.00    -0.458 OA
BRANCH  26  27
ATOM     27  C   UNL     1       1.877  -1.327   0.166  1.00  0.00     0.338 C 
ATOM     28  O   UNL     1       1.944  -2.173  -0.689  1.00  0.00    -0.246 OA
BRANCH  27  29
ATOM     29  C   UNL     1       0.992  -1.407   1.363  1.00  0.00     0.060 A 
ATOM     30  C   UNL     1      -0.319  -1.014   1.135  1.00  0.00     0.016 A 
ATOM     31  C   UNL     1       1.374  -1.765   2.663  1.00  0.00     0.016 A 
ATOM     32  C   UNL     1      -1.217  -0.914   2.199  1.00  0.00     0.010 A 
ATOM     33  C   UNL     1       0.402  -1.827   3.702  1.00  0.00     0.010 A 
ATOM     34  C   UNL     1      -0.931  -1.455   3.463  1.00  0.00    -0.014 A 
BRANCH  34  35
ATOM     35  C   UNL     1      -2.114  -1.849   4.313  1.00  0.00     0.031 A 
ATOM     36  C   UNL     1      -2.332  -1.457   5.755  1.00  0.00     0.074 A 
ATOM     37  C   UNL     1      -3.087  -2.568   3.698  1.00  0.00     0.049 A 
ATOM     38  N   UNL     1      -3.251  -1.898   6.585  1.00  0.00    -0.248 NA
ATOM     39  C   UNL     1      -1.437  -0.454   6.345  1.00  0.00     0.031 C 
ATOM     40  C   UNL     1      -3.051  -2.998   2.293  1.00  0.00     0.029 A 
ATOM     41  N   UNL     1      -4.309  -3.029   4.128  1.00  0.00    -0.354 N 
ATOM     42  C   UNL     1      -3.024  -1.269   7.806  1.00  0.00     0.074 A 
ATOM     43  C   UNL     1      -1.889  -0.388   7.597  1.00  0.00     0.031 C 
ATOM     44  C   UNL     1      -4.232  -3.500   1.940  1.00  0.00     0.029 A 
ATOM     45  C   UNL     1      -5.005  -3.704   3.148  1.00  0.00     0.049 A 
ATOM     46  H   UNL     1      -4.652  -2.891   5.040  1.00  0.00     0.167 HD
ATOM     47  C   UNL     1      -3.689  -1.438   8.982  1.00  0.00     0.034 A 
ATOM     48  C   UNL     1      -6.065  -4.530   3.193  1.00  0.00     0.034 A 
ATOM     49  C   UNL     1      -4.837  -2.313   9.157  1.00  0.00     0.049 A 
ATOM     50  C   UNL     1      -6.679  -4.817   4.520  1.00  0.00     0.074 A 
ATOM     51  C   UNL     1      -5.582  -2.543  10.306  1.00  0.00     0.029 A 
ATOM     52  N   UNL     1      -5.404  -3.110   8.168  1.00  0.00    -0.354 N 
ATOM     53  N   UNL     1      -6.375  -4.307   5.688  1.00  0.00    -0.248 NA
ATOM     54  C   UNL     1      -7.748  -5.818   4.542  1.00  0.00     0.031 C 
ATOM     55  C   UNL     1      -6.539  -3.529  10.032  1.00  0.00     0.029 A 
ATOM     56  C   UNL     1      -6.451  -3.862   8.692  1.00  0.00     0.049 A 
ATOM     57  H   UNL     1      -5.107  -3.137   7.230  1.00  0.00     0.167 HD
ATOM     58  C   UNL     1      -7.209  -4.942   6.596  1.00  0.00     0.074 A 
ATOM     59  C   UNL     1      -8.054  -5.838   5.830  1.00  0.00     0.031 C 
ATOM     60  C   UNL     1      -7.258  -4.797   7.943  1.00  0.00     0.034 A 
BRANCH  47  61
ATOM     61  C   UNL     1      -3.156  -0.742  10.220  1.00  0.00     0.023 A 
ATOM     62  C   UNL     1      -3.220   0.649  10.404  1.00  0.00     0.031 A 
ATOM     63  C   UNL     1      -2.623  -1.517  11.270  1.00  0.00     0.131 A 
ATOM     64  C   UNL     1      -2.732   1.222  11.595  1.00  0.00     0.055 A 
ATOM     65  C   UNL     1      -2.194  -0.949  12.472  1.00  0.00     0.041 A 
ATOM     66  F   UNL     1      -2.525  -2.851  11.151  1.00  0.00    -0.206 F 
ATOM     67  C   UNL     1      -2.240   0.431  12.636  1.00  0.00     0.022 A 
BRANCH  64  68
ATOM     68  S   UNL     1      -2.655   3.031  11.736  1.00  0.00     0.124 S 
ATOM     69  O   UNL     1      -1.866   3.390  10.561  1.00  0.00    -0.237 OA
ATOM     70  O   UNL     1      -4.063   3.410  11.702  1.00  0.00    -0.237 OA
ATOM     71  O   UNL     1      -1.983   3.249  13.016  1.00  0.00    -0.744 OA
ENDBRANCH  64  68
ENDBRANCH  47  61
BRANCH  48  72
ATOM     72  C   UNL     1      -6.460  -5.281   1.966  1.00  0.00     0.023 A 
ATOM     73  C   UNL     1      -7.713  -5.099   1.371  1.00  0.00     0.031 A 
ATOM     74  C   UNL     1      -5.555  -6.173   1.351  1.00  0.00     0.131 A 
ATOM     75  C   UNL     1      -8.027  -5.800   0.195  1.00  0.00     0.055 A 
ATOM     76  C   UNL     1      -5.844  -6.806   0.145  1.00  0.00     0.041 A 
ATOM     77  F   UNL     1      -4.343  -6.391   1.887  1.00  0.00    -0.206 F 
ATOM     78  C   UNL     1      -7.092  -6.626  -0.436  1.00  0.00     0.022 A 
BRANCH  75  79
ATOM     79  S   UNL     1      -9.708  -5.669  -0.466  1.00  0.00     0.124 S 
ATOM     80  O   UNL     1     -10.509  -6.118   0.667  1.00  0.00    -0.237 OA
ATOM     81  O   UNL     1      -9.796  -4.250  -0.793  1.00  0.00    -0.237 OA
ATOM     82  O   UNL     1      -9.692  -6.572  -1.615  1.00  0.00    -0.744 OA
ENDBRANCH  75  79
ENDBRANCH  48  72
BRANCH  60  83
ATOM     83  C   UNL     1      -8.290  -5.635   8.652  1.00  0.00     0.023 A 
ATOM     84  C   UNL     1      -8.177  -7.036   8.706  1.00  0.00     0.031 A 
ATOM     85  C   UNL     1      -9.445  -5.041   9.185  1.00  0.00     0.131 A 
ATOM     86  C   UNL     1      -9.236  -7.802   9.213  1.00  0.00     0.055 A 
ATOM     87  C   UNL     1     -10.469  -5.806   9.746  1.00  0.00     0.041 A 
ATOM     88  F   UNL     1      -9.611  -3.709   9.144  1.00  0.00    -0.206 F 
ATOM     89  C   UNL     1     -10.375  -7.195   9.748  1.00  0.00     0.022 A 
BRANCH  86  90
ATOM     90  S   UNL     1      -9.158  -9.608   9.055  1.00  0.00     0.124 S 
ATOM     91  O   UNL     1      -9.091  -9.781   7.607  1.00  0.00    -0.237 OA
ATOM     92  O   UNL     1      -7.942  -9.935   9.793  1.00  0.00    -0.237 OA
ATOM     93  O   UNL     1     -10.400 -10.061   9.677  1.00  0.00    -0.744 OA
ENDBRANCH  86  90
ENDBRANCH  60  83
ENDBRANCH  34  35
ENDBRANCH  27  29
ENDBRANCH  26  27
ENDBRANCH  25  26
ENDBRANCH   1  25
TORSDOF 20
