REMARK SMILES CCC(CC)(NC(=O)NC[C@H](C)[NH+]1CCCCC1)C(=O)OCCOC(=O)c1ccc(-c2c3nc(c(-c4cc(S(=O)(=O)[O-])ccc4F)c4ccc([nH]4)c(-c4cc(S(=O)(=O)[O-])ccc4F)c4nc(c(-c5cc(S(=O)(=O)[O-])ccc5F)c5ccc2[nH]5)C=C4)C=C3)cc1
REMARK SMILES IDX 22 1 21 2 19 3 20 4 3 5 2 6 1 7 4 8 5 9 6 10 7 11 8 13 9 14
REMARK SMILES IDX 10 16 11 17 12 18 13 19 14 20 18 21 15 23 17 24 16 25 23 26
REMARK SMILES IDX 24 27 25 28 26 29 27 30 28 31 89 32 29 33 88 34 30 35 31 36
REMARK SMILES IDX 32 37 82 38 33 39 87 40 81 41 83 42 34 43 86 44 80 45 79 46
REMARK SMILES IDX 35 48 67 49 47 50 66 51 48 52 51 53 65 54 84 55 49 56 50 57
REMARK SMILES IDX 64 59 85 60 52 61 36 62 37 63 45 64 38 65 44 66 46 67 43 68
REMARK SMILES IDX 39 69 40 70 41 71 42 72 68 73 69 74 77 75 70 76 76 77 78 78
REMARK SMILES IDX 75 79 71 80 72 81 73 82 74 83 53 84 54 85 62 86 55 87 61 88
REMARK SMILES IDX 63 89 60 90 56 91 57 92 58 93 59 94
REMARK H PARENT 6 12 9 15 13 22 83 47 51 58
REMARK Flexibility Score: inf
ROOT
ATOM      1  C   UNL     1       5.681  -5.004  -2.480  1.00  0.00     0.274 C 
ENDROOT
BRANCH   1   2
ATOM      2  O   UNL     1       6.464  -3.917  -3.043  1.00  0.00    -0.460 OA
BRANCH   2   3
ATOM      3  C   UNL     1       7.312  -3.249  -2.196  1.00  0.00     0.332 C 
ATOM      4  O   UNL     1       7.576  -3.664  -1.072  1.00  0.00    -0.249 OA
BRANCH   3   5
ATOM      5  C   UNL     1       7.838  -1.867  -2.782  1.00  0.00     0.139 C 
BRANCH   5   6
ATOM      6  C   UNL     1       9.386  -2.015  -2.960  1.00  0.00     0.037 C 
ATOM      7  C   UNL     1      10.177  -2.352  -1.691  1.00  0.00     0.007 C 
ENDBRANCH   5   6
BRANCH   5   8
ATOM      8  C   UNL     1       7.584  -0.677  -1.815  1.00  0.00     0.037 C 
ATOM      9  C   UNL     1       8.419   0.587  -2.029  1.00  0.00     0.007 C 
ENDBRANCH   5   8
BRANCH   5  10
ATOM     10  N   UNL     1       7.221  -1.526  -4.109  1.00  0.00    -0.322 N 
ATOM     11  C   UNL     1       6.049  -0.988  -4.513  1.00  0.00     0.315 C 
ATOM     12  H   UNL     1       7.812  -1.748  -4.865  1.00  0.00     0.166 HD
ATOM     13  O   UNL     1       5.999  -0.492  -5.641  1.00  0.00    -0.249 OA
ATOM     14  N   UNL     1       4.927  -0.925  -3.753  1.00  0.00    -0.332 N 
ATOM     15  H   UNL     1       4.355  -0.133  -3.875  1.00  0.00     0.165 HD
BRANCH  14  16
ATOM     16  C   UNL     1       4.485  -1.899  -2.782  1.00  0.00     0.182 C 
BRANCH  16  17
ATOM     17  C   UNL     1       3.373  -1.635  -1.719  1.00  0.00     0.200 C 
ATOM     18  C   UNL     1       2.414  -0.527  -2.145  1.00  0.00     0.077 C 
BRANCH  17  19
ATOM     19  N   UNL     1       3.800  -1.550  -0.274  1.00  0.00    -0.331 N 
ATOM     20  C   UNL     1       4.590  -2.723   0.148  1.00  0.00     0.262 C 
ATOM     21  C   UNL     1       4.431  -0.274   0.075  1.00  0.00     0.262 C 
ATOM     22  H   UNL     1       2.940  -1.574   0.274  1.00  0.00     0.348 HD
ATOM     23  C   UNL     1       5.215  -2.690   1.539  1.00  0.00     0.062 C 
ATOM     24  C   UNL     1       5.049  -0.220   1.476  1.00  0.00     0.062 C 
ATOM     25  C   UNL     1       5.970  -1.395   1.764  1.00  0.00     0.012 C 
ENDBRANCH  17  19
ENDBRANCH  16  17
ENDBRANCH  14  16
ENDBRANCH   5  10
ENDBRANCH   3   5
ENDBRANCH   2   3
ENDBRANCH   1   2
BRANCH   1  26
ATOM     26  C   UNL     1       4.921  -5.770  -3.575  1.00  0.00     0.275 C 
BRANCH  26  27
ATOM     27  O   UNL     1       5.840  -6.597  -4.295  1.00  0.00    -0.458 OA
BRANCH  27  28
ATOM     28  C   UNL     1       6.562  -5.900  -5.210  1.00  0.00     0.338 C 
ATOM     29  O   UNL     1       6.198  -4.933  -5.847  1.00  0.00    -0.246 OA
BRANCH  28  30
ATOM     30  C   UNL     1       7.963  -6.263  -4.947  1.00  0.00     0.060 A 
ATOM     31  C   UNL     1       8.803  -5.218  -4.561  1.00  0.00     0.016 A 
ATOM     32  C   UNL     1       8.414  -7.579  -4.952  1.00  0.00     0.016 A 
ATOM     33  C   UNL     1      10.094  -5.475  -4.132  1.00  0.00     0.010 A 
ATOM     34  C   UNL     1       9.733  -7.836  -4.580  1.00  0.00     0.010 A 
ATOM     35  C   UNL     1      10.573  -6.782  -4.174  1.00  0.00    -0.014 A 
BRANCH  35  36
ATOM     36  C   UNL     1      12.025  -6.996  -4.045  1.00  0.00     0.031 A 
ATOM     37  C   UNL     1      12.799  -7.135  -5.321  1.00  0.00     0.074 A 
ATOM     38  C   UNL     1      12.629  -6.993  -2.845  1.00  0.00     0.049 A 
ATOM     39  N   UNL     1      14.019  -7.548  -5.512  1.00  0.00    -0.248 NA
ATOM     40  C   UNL     1      12.084  -6.761  -6.554  1.00  0.00     0.031 C 
ATOM     41  C   UNL     1      11.977  -6.703  -1.567  1.00  0.00     0.029 A 
ATOM     42  N   UNL     1      13.931  -7.251  -2.507  1.00  0.00    -0.354 N 
ATOM     43  C   UNL     1      14.206  -7.525  -6.889  1.00  0.00     0.074 A 
ATOM     44  C   UNL     1      12.974  -7.063  -7.485  1.00  0.00     0.031 C 
ATOM     45  C   UNL     1      12.880  -6.829  -0.580  1.00  0.00     0.029 A 
ATOM     46  C   UNL     1      14.146  -7.282  -1.148  1.00  0.00     0.049 A 
ATOM     47  H   UNL     1      14.643  -7.400  -3.171  1.00  0.00     0.167 HD
ATOM     48  C   UNL     1      15.314  -7.876  -7.582  1.00  0.00     0.034 A 
ATOM     49  C   UNL     1      15.228  -7.696  -0.460  1.00  0.00     0.034 A 
ATOM     50  C   UNL     1      16.517  -8.335  -6.937  1.00  0.00     0.049 A 
ATOM     51  C   UNL     1      16.413  -8.200  -1.255  1.00  0.00     0.074 A 
ATOM     52  C   UNL     1      17.693  -8.777  -7.509  1.00  0.00     0.029 A 
ATOM     53  N   UNL     1      16.690  -8.405  -5.558  1.00  0.00    -0.354 N 
ATOM     54  N   UNL     1      16.564  -8.272  -2.561  1.00  0.00    -0.248 NA
ATOM     55  C   UNL     1      17.567  -8.682  -0.490  1.00  0.00     0.031 C 
ATOM     56  C   UNL     1      18.551  -9.177  -6.479  1.00  0.00     0.029 A 
ATOM     57  C   UNL     1      17.946  -8.903  -5.261  1.00  0.00     0.049 A 
ATOM     58  H   UNL     1      16.017  -8.138  -4.891  1.00  0.00     0.167 HD
ATOM     59  C   UNL     1      17.843  -8.781  -2.770  1.00  0.00     0.074 A 
ATOM     60  C   UNL     1      18.426  -8.969  -1.456  1.00  0.00     0.031 C 
ATOM     61  C   UNL     1      18.484  -9.076  -3.932  1.00  0.00     0.034 A 
BRANCH  48  62
ATOM     62  C   UNL     1      15.225  -7.858  -9.087  1.00  0.00     0.023 A 
ATOM     63  C   UNL     1      15.024  -6.670  -9.810  1.00  0.00     0.031 A 
ATOM     64  C   UNL     1      15.285  -9.065  -9.807  1.00  0.00     0.131 A 
ATOM     65  C   UNL     1      14.827  -6.721 -11.199  1.00  0.00     0.055 A 
ATOM     66  C   UNL     1      15.168  -9.100 -11.198  1.00  0.00     0.041 A 
ATOM     67  F   UNL     1      15.437 -10.235  -9.168  1.00  0.00    -0.206 F 
ATOM     68  C   UNL     1      14.925  -7.924 -11.901  1.00  0.00     0.022 A 
BRANCH  65  69
ATOM     69  S   UNL     1      14.305  -5.212 -12.060  1.00  0.00     0.124 S 
ATOM     70  O   UNL     1      13.026  -4.932 -11.411  1.00  0.00    -0.237 OA
ATOM     71  O   UNL     1      15.390  -4.285 -11.760  1.00  0.00    -0.237 OA
ATOM     72  O   UNL     1      14.209  -5.630 -13.457  1.00  0.00    -0.744 OA
ENDBRANCH  65  69
ENDBRANCH  48  62
BRANCH  49  73
ATOM     73  C   UNL     1      15.226  -7.748   1.034  1.00  0.00     0.023 A 
ATOM     74  C   UNL     1      16.189  -7.059   1.788  1.00  0.00     0.031 A 
ATOM     75  C   UNL     1      14.310  -8.558   1.733  1.00  0.00     0.131 A 
ATOM     76  C   UNL     1      16.255  -7.238   3.180  1.00  0.00     0.055 A 
ATOM     77  C   UNL     1      14.335  -8.678   3.124  1.00  0.00     0.041 A 
ATOM     78  F   UNL     1      13.373  -9.255   1.071  1.00  0.00    -0.206 F 
ATOM     79  C   UNL     1      15.324  -8.030   3.855  1.00  0.00     0.022 A 
BRANCH  76  80
ATOM     80  S   UNL     1      17.657  -6.522   4.082  1.00  0.00     0.124 S 
ATOM     81  O   UNL     1      18.792  -7.092   3.365  1.00  0.00    -0.237 OA
ATOM     82  O   UNL     1      17.435  -5.092   3.898  1.00  0.00    -0.237 OA
ATOM     83  O   UNL     1      17.470  -7.011   5.446  1.00  0.00    -0.744 OA
ENDBRANCH  76  80
ENDBRANCH  49  73
BRANCH  61  84
ATOM     84  C   UNL     1      19.901  -9.579  -3.811  1.00  0.00     0.023 A 
ATOM     85  C   UNL     1      20.196 -10.810  -3.203  1.00  0.00     0.031 A 
ATOM     86  C   UNL     1      20.969  -8.800  -4.289  1.00  0.00     0.131 A 
ATOM     87  C   UNL     1      21.531 -11.189  -3.015  1.00  0.00     0.055 A 
ATOM     88  C   UNL     1      22.293  -9.221  -4.171  1.00  0.00     0.041 A 
ATOM     89  F   UNL     1      20.742  -7.614  -4.878  1.00  0.00    -0.206 F 
ATOM     90  C   UNL     1      22.581 -10.414  -3.514  1.00  0.00     0.022 A 
BRANCH  87  91
ATOM     91  S   UNL     1      21.879 -12.645  -1.993  1.00  0.00     0.124 S 
ATOM     92  O   UNL     1      21.226 -12.294  -0.736  1.00  0.00    -0.237 OA
ATOM     93  O   UNL     1      21.255 -13.720  -2.757  1.00  0.00    -0.237 OA
ATOM     94  O   UNL     1      23.340 -12.687  -1.943  1.00  0.00    -0.744 OA
ENDBRANCH  87  91
ENDBRANCH  61  84
ENDBRANCH  35  36
ENDBRANCH  28  30
ENDBRANCH  27  28
ENDBRANCH  26  27
ENDBRANCH   1  26
TORSDOF 20
