REMARK SMILES CCCC1CN(c2ccc(C(=O)NCC(=O)OCCOC(=O)c3ccc(-c4c5nc(c(-c6cc(S(=O)(=O)[O-])ccc6F)c6ccc([nH]6)c(-c6cc(S(=O)(=O)[O-])ccc6F)c6nc(c(-c7cc(S(=O)(=O)[O-])ccc7F)c7ccc4[nH]7)C=C6)C=C5)cc3)cc2)C1
REMARK SMILES IDX 18 1 17 2 15 3 16 4 14 5 13 6 11 7 12 8 10 10 7 11 8 12
REMARK SMILES IDX 87 13 9 14 86 15 6 16 4 17 5 18 88 19 3 20 2 21 1 22 19 23
REMARK SMILES IDX 20 24 21 25 22 26 23 27 24 28 85 29 25 30 84 31 26 32 27 33
REMARK SMILES IDX 28 34 78 35 29 36 83 37 77 38 79 39 30 40 82 41 76 42 75 43
REMARK SMILES IDX 31 45 63 46 43 47 62 48 44 49 47 50 61 51 80 52 45 53 46 54
REMARK SMILES IDX 60 56 81 57 48 58 32 59 33 60 41 61 34 62 40 63 42 64 39 65
REMARK SMILES IDX 35 66 36 67 37 68 38 69 64 70 65 71 73 72 66 73 72 74 74 75
REMARK SMILES IDX 71 76 67 77 68 78 69 79 70 80 49 81 50 82 58 83 51 84 57 85
REMARK SMILES IDX 59 86 56 87 52 88 53 89 54 90 55 91
REMARK H PARENT 13 9 79 44 47 55
REMARK Flexibility Score: inf
ROOT
ATOM      1  C   UNL     1      -3.330  -0.631  10.558  1.00  0.00     0.274 C 
ENDROOT
BRANCH   1   2
ATOM      2  O   UNL     1      -2.057  -0.093  10.159  1.00  0.00    -0.461 OA
BRANCH   2   3
ATOM      3  C   UNL     1      -2.077   0.892   9.219  1.00  0.00     0.325 C 
ATOM      4  O   UNL     1      -3.074   1.240   8.598  1.00  0.00    -0.250 OA
BRANCH   3   5
ATOM      5  C   UNL     1      -0.729   1.612   9.106  1.00  0.00     0.239 C 
BRANCH   5   6
ATOM      6  N   UNL     1       0.375   0.890   9.710  1.00  0.00    -0.341 N 
ATOM      7  C   UNL     1       1.331   0.093   9.147  1.00  0.00     0.251 C 
ATOM      8  O   UNL     1       2.209  -0.384   9.864  1.00  0.00    -0.269 OA
ATOM      9  H   UNL     1       0.446   0.990  10.687  1.00  0.00     0.164 HD
BRANCH   7  10
ATOM     10  C   UNL     1       1.363  -0.187   7.687  1.00  0.00     0.039 A 
ATOM     11  C   UNL     1       1.589  -0.778   4.943  1.00  0.00     0.037 A 
ATOM     12  C   UNL     1       2.732  -0.616   5.730  1.00  0.00     0.027 A 
ATOM     13  C   UNL     1       0.332  -0.661   5.542  1.00  0.00     0.027 A 
ATOM     14  C   UNL     1       2.622  -0.315   7.089  1.00  0.00     0.016 A 
ATOM     15  C   UNL     1       0.219  -0.397   6.911  1.00  0.00     0.016 A 
BRANCH  11  16
ATOM     16  N   UNL     1       1.737  -1.088   3.579  1.00  0.00    -0.371 N 
ATOM     17  C   UNL     1       0.717  -1.765   1.885  1.00  0.00     0.028 C 
ATOM     18  C   UNL     1       1.510  -2.397   3.034  1.00  0.00     0.122 C 
ATOM     19  C   UNL     1       1.088  -0.410   2.494  1.00  0.00     0.122 C 
BRANCH  17  20
ATOM     20  C   UNL     1       1.236  -2.119   0.495  1.00  0.00     0.007 C 
BRANCH  20  21
ATOM     21  C   UNL     1       0.455  -1.417  -0.616  1.00  0.00    -0.003 C 
ATOM     22  C   UNL     1       0.786   0.061  -0.756  1.00  0.00     0.004 C 
ENDBRANCH  20  21
ENDBRANCH  17  20
ENDBRANCH  11  16
ENDBRANCH   7  10
ENDBRANCH   5   6
ENDBRANCH   3   5
ENDBRANCH   2   3
ENDBRANCH   1   2
BRANCH   1  23
ATOM     23  C   UNL     1      -3.795  -0.005  11.877  1.00  0.00     0.275 C 
BRANCH  23  24
ATOM     24  O   UNL     1      -4.181   1.373  11.708  1.00  0.00    -0.458 OA
BRANCH  24  25
ATOM     25  C   UNL     1      -3.191   2.275  11.881  1.00  0.00     0.338 C 
ATOM     26  O   UNL     1      -2.022   2.044  12.176  1.00  0.00    -0.246 OA
BRANCH  25  27
ATOM     27  C   UNL     1      -3.663   3.614  11.514  1.00  0.00     0.060 A 
ATOM     28  C   UNL     1      -3.261   4.141  10.285  1.00  0.00     0.016 A 
ATOM     29  C   UNL     1      -4.401   4.388  12.409  1.00  0.00     0.016 A 
ATOM     30  C   UNL     1      -3.551   5.458   9.960  1.00  0.00     0.010 A 
ATOM     31  C   UNL     1      -4.734   5.701  12.060  1.00  0.00     0.010 A 
ATOM     32  C   UNL     1      -4.296   6.249  10.840  1.00  0.00    -0.014 A 
BRANCH  32  33
ATOM     33  C   UNL     1      -4.582   7.657  10.476  1.00  0.00     0.031 A 
ATOM     34  C   UNL     1      -3.949   8.775  11.250  1.00  0.00     0.074 A 
ATOM     35  C   UNL     1      -5.377   7.919   9.421  1.00  0.00     0.049 A 
ATOM     36  N   UNL     1      -4.152  10.063  11.160  1.00  0.00    -0.248 NA
ATOM     37  C   UNL     1      -2.961   8.389  12.268  1.00  0.00     0.031 C 
ATOM     38  C   UNL     1      -6.000   6.907   8.562  1.00  0.00     0.029 A 
ATOM     39  N   UNL     1      -5.793   9.110   8.886  1.00  0.00    -0.354 N 
ATOM     40  C   UNL     1      -3.347  10.644  12.134  1.00  0.00     0.074 A 
ATOM     41  C   UNL     1      -2.663   9.561  12.811  1.00  0.00     0.031 C 
ATOM     42  C   UNL     1      -6.704   7.522   7.600  1.00  0.00     0.029 A 
ATOM     43  C   UNL     1      -6.643   8.963   7.815  1.00  0.00     0.049 A 
ATOM     44  H   UNL     1      -5.510   9.986   9.234  1.00  0.00     0.167 HD
ATOM     45  C   UNL     1      -3.199  11.959  12.432  1.00  0.00     0.034 A 
ATOM     46  C   UNL     1      -7.332   9.883   7.114  1.00  0.00     0.034 A 
ATOM     47  C   UNL     1      -3.880  13.019  11.727  1.00  0.00     0.049 A 
ATOM     48  C   UNL     1      -7.194  11.331   7.497  1.00  0.00     0.074 A 
ATOM     49  C   UNL     1      -3.799  14.386  11.932  1.00  0.00     0.029 A 
ATOM     50  N   UNL     1      -4.773  12.830  10.678  1.00  0.00    -0.354 N 
ATOM     51  N   UNL     1      -6.468  11.866   8.451  1.00  0.00    -0.248 NA
ATOM     52  C   UNL     1      -7.976  12.296   6.716  1.00  0.00     0.031 C 
ATOM     53  C   UNL     1      -4.684  15.016  11.049  1.00  0.00     0.029 A 
ATOM     54  C   UNL     1      -5.271  14.050  10.247  1.00  0.00     0.049 A 
ATOM     55  H   UNL     1      -5.016  11.956  10.297  1.00  0.00     0.167 HD
ATOM     56  C   UNL     1      -6.704  13.234   8.384  1.00  0.00     0.074 A 
ATOM     57  C   UNL     1      -7.621  13.442   7.280  1.00  0.00     0.031 C 
ATOM     58  C   UNL     1      -6.210  14.230   9.164  1.00  0.00     0.034 A 
BRANCH  45  59
ATOM     59  C   UNL     1      -2.324  12.303  13.613  1.00  0.00     0.023 A 
ATOM     60  C   UNL     1      -0.943  12.045  13.621  1.00  0.00     0.031 A 
ATOM     61  C   UNL     1      -2.898  12.850  14.775  1.00  0.00     0.131 A 
ATOM     62  C   UNL     1      -0.197  12.262  14.791  1.00  0.00     0.055 A 
ATOM     63  C   UNL     1      -2.136  13.135  15.910  1.00  0.00     0.041 A 
ATOM     64  F   UNL     1      -4.216  13.097  14.835  1.00  0.00    -0.206 F 
ATOM     65  C   UNL     1      -0.780  12.825  15.928  1.00  0.00     0.022 A 
BRANCH  62  66
ATOM     66  S   UNL     1       1.512  11.655  14.856  1.00  0.00     0.124 S 
ATOM     67  O   UNL     1       1.332  10.233  14.571  1.00  0.00    -0.237 OA
ATOM     68  O   UNL     1       2.164  12.439  13.815  1.00  0.00    -0.237 OA
ATOM     69  O   UNL     1       1.932  11.960  16.223  1.00  0.00    -0.744 OA
ENDBRANCH  62  66
ENDBRANCH  45  59
BRANCH  46  70
ATOM     70  C   UNL     1      -8.265   9.453   6.037  1.00  0.00     0.023 A 
ATOM     71  C   UNL     1      -8.023   9.769   4.692  1.00  0.00     0.031 A 
ATOM     72  C   UNL     1      -9.425   8.719   6.346  1.00  0.00     0.131 A 
ATOM     73  C   UNL     1      -8.939   9.369   3.706  1.00  0.00     0.055 A 
ATOM     74  C   UNL     1     -10.310   8.286   5.359  1.00  0.00     0.041 A 
ATOM     75  F   UNL     1      -9.699   8.388   7.619  1.00  0.00    -0.206 F 
ATOM     76  C   UNL     1     -10.073   8.618   4.029  1.00  0.00     0.022 A 
BRANCH  73  77
ATOM     77  S   UNL     1      -8.654   9.884   1.991  1.00  0.00     0.124 S 
ATOM     78  O   UNL     1      -8.671  11.337   2.108  1.00  0.00    -0.237 OA
ATOM     79  O   UNL     1      -7.357   9.278   1.704  1.00  0.00    -0.237 OA
ATOM     80  O   UNL     1      -9.783   9.302   1.268  1.00  0.00    -0.744 OA
ENDBRANCH  73  77
ENDBRANCH  46  70
BRANCH  58  81
ATOM     81  C   UNL     1      -6.652  15.629   8.824  1.00  0.00     0.023 A 
ATOM     82  C   UNL     1      -7.975  16.053   9.041  1.00  0.00     0.031 A 
ATOM     83  C   UNL     1      -5.748  16.537   8.248  1.00  0.00     0.131 A 
ATOM     84  C   UNL     1      -8.371  17.335   8.634  1.00  0.00     0.055 A 
ATOM     85  C   UNL     1      -6.135  17.830   7.893  1.00  0.00     0.041 A 
ATOM     86  F   UNL     1      -4.474  16.180   8.017  1.00  0.00    -0.206 F 
ATOM     87  C   UNL     1      -7.456  18.231   8.074  1.00  0.00     0.022 A 
BRANCH  84  88
ATOM     88  S   UNL     1     -10.122  17.789   8.768  1.00  0.00     0.124 S 
ATOM     89  O   UNL     1     -10.762  16.780   7.930  1.00  0.00    -0.237 OA
ATOM     90  O   UNL     1     -10.366  17.675  10.202  1.00  0.00    -0.237 OA
ATOM     91  O   UNL     1     -10.164  19.151   8.239  1.00  0.00    -0.744 OA
ENDBRANCH  84  88
ENDBRANCH  58  81
ENDBRANCH  32  33
ENDBRANCH  25  27
ENDBRANCH  24  25
ENDBRANCH  23  24
ENDBRANCH   1  23
TORSDOF 19
