REMARK SMILES Cc1ccc(C)c(N2C(=O)C[C@@H](SCC(=O)OCCOC(=O)c3ccc(-c4c5nc(c(-c6cc(S(=O)(=O)[O-])ccc6F)c6ccc([nH]6)c(-c6cc(S(=O)(=O)[O-])ccc6F)c6nc(c(-c7cc(S(=O)(=O)[O-])ccc7F)c7ccc4[nH]7)C=C6)C=C5)cc3)C2=O)c1
REMARK SMILES IDX 18 1 17 2 15 3 16 4 14 5 13 6 12 7 8 8 9 9 86 10 10 11 11 12
REMARK SMILES IDX 87 13 7 14 1 15 2 16 3 17 88 18 4 19 5 20 6 21 19 22 20 23
REMARK SMILES IDX 21 24 22 25 23 26 24 27 85 28 25 29 84 30 26 31 27 32 28 33
REMARK SMILES IDX 78 34 29 35 83 36 77 37 79 38 30 39 82 40 76 41 75 42 31 44
REMARK SMILES IDX 63 45 43 46 62 47 44 48 47 49 61 50 80 51 45 52 46 53 60 55
REMARK SMILES IDX 81 56 48 57 32 58 33 59 41 60 34 61 40 62 42 63 39 64 35 65
REMARK SMILES IDX 36 66 37 67 38 68 64 69 65 70 73 71 66 72 72 73 74 74 71 75
REMARK SMILES IDX 67 76 68 77 69 78 70 79 49 80 50 81 58 82 51 83 57 84 59 85
REMARK SMILES IDX 56 86 52 87 53 88 54 89 55 90
REMARK H PARENT 79 43 47 54
REMARK Flexibility Score: inf
ROOT
ATOM      1  C   UNL     1      -4.528   6.205   3.352  1.00  0.00     0.274 C 
ENDROOT
BRANCH   1   2
ATOM      2  O   UNL     1      -4.735   5.183   2.375  1.00  0.00    -0.461 OA
BRANCH   2   3
ATOM      3  C   UNL     1      -5.850   5.271   1.611  1.00  0.00     0.316 C 
ATOM      4  O   UNL     1      -6.834   5.931   1.911  1.00  0.00    -0.251 OA
BRANCH   3   5
ATOM      5  C   UNL     1      -5.677   4.618   0.259  1.00  0.00     0.192 C 
BRANCH   5   6
ATOM      6  S   UNL     1      -4.650   3.121   0.248  1.00  0.00    -0.136 SA
BRANCH   6   7
ATOM      7  C   UNL     1      -2.962   3.819   0.522  1.00  0.00     0.146 C 
ATOM      8  N   UNL     1      -1.333   2.270  -0.062  1.00  0.00    -0.249 N 
ATOM      9  C   UNL     1      -1.316   3.183  -1.084  1.00  0.00     0.235 C 
ATOM     10  C   UNL     1      -2.105   2.673   0.995  1.00  0.00     0.247 C 
ATOM     11  O   UNL     1      -0.643   3.156  -2.105  1.00  0.00    -0.274 OA
ATOM     12  C   UNL     1      -2.261   4.298  -0.738  1.00  0.00     0.125 C 
ATOM     13  O   UNL     1      -2.124   2.212   2.130  1.00  0.00    -0.273 OA
BRANCH   8  14
ATOM     14  C   UNL     1      -0.616   1.064  -0.062  1.00  0.00     0.055 A 
ATOM     15  C   UNL     1       3.027  -0.049  -0.062  1.00  0.00     0.044 C 
ATOM     16  C   UNL     1       1.529  -0.080  -0.057  1.00  0.00    -0.049 A 
ATOM     17  C   UNL     1       0.860  -1.304   0.030  1.00  0.00     0.004 A 
ATOM     18  C   UNL     1       0.784   1.103  -0.125  1.00  0.00     0.030 A 
ATOM     19  C   UNL     1      -0.534  -1.349   0.061  1.00  0.00     0.006 A 
ATOM     20  C   UNL     1      -1.290  -0.171   0.012  1.00  0.00    -0.027 A 
ATOM     21  C   UNL     1      -2.788  -0.303  -0.001  1.00  0.00     0.046 C 
ENDBRANCH   8  14
ENDBRANCH   6   7
ENDBRANCH   5   6
ENDBRANCH   3   5
ENDBRANCH   2   3
ENDBRANCH   1   2
BRANCH   1  22
ATOM     22  C   UNL     1      -3.162   6.849   3.086  1.00  0.00     0.275 C 
BRANCH  22  23
ATOM     23  O   UNL     1      -2.802   7.101   1.685  1.00  0.00    -0.458 OA
BRANCH  23  24
ATOM     24  C   UNL     1      -3.516   7.639   0.656  1.00  0.00     0.338 C 
ATOM     25  O   UNL     1      -3.270   7.330  -0.493  1.00  0.00    -0.246 OA
BRANCH  24  26
ATOM     26  C   UNL     1      -4.652   8.529   0.968  1.00  0.00     0.060 A 
ATOM     27  C   UNL     1      -5.770   8.557   0.117  1.00  0.00     0.016 A 
ATOM     28  C   UNL     1      -4.655   9.243   2.153  1.00  0.00     0.016 A 
ATOM     29  C   UNL     1      -6.955   9.148   0.560  1.00  0.00     0.010 A 
ATOM     30  C   UNL     1      -5.855   9.698   2.643  1.00  0.00     0.010 A 
ATOM     31  C   UNL     1      -7.012   9.658   1.860  1.00  0.00    -0.014 A 
BRANCH  31  32
ATOM     32  C   UNL     1      -8.285   9.973   2.517  1.00  0.00     0.031 A 
ATOM     33  C   UNL     1      -9.307   8.886   2.510  1.00  0.00     0.074 A 
ATOM     34  C   UNL     1      -8.415  11.030   3.349  1.00  0.00     0.049 A 
ATOM     35  N   UNL     1     -10.409   8.845   1.836  1.00  0.00    -0.248 NA
ATOM     36  C   UNL     1      -9.029   7.639   3.236  1.00  0.00     0.031 C 
ATOM     37  C   UNL     1      -7.416  12.065   3.648  1.00  0.00     0.029 A 
ATOM     38  N   UNL     1      -9.427  11.338   4.208  1.00  0.00    -0.354 N 
ATOM     39  C   UNL     1     -11.091   7.704   2.262  1.00  0.00     0.074 A 
ATOM     40  C   UNL     1     -10.103   6.904   2.932  1.00  0.00     0.031 C 
ATOM     41  C   UNL     1      -7.763  12.731   4.771  1.00  0.00     0.029 A 
ATOM     42  C   UNL     1      -9.105  12.322   5.140  1.00  0.00     0.049 A 
ATOM     43  H   UNL     1     -10.309  10.902   4.173  1.00  0.00     0.167 HD
ATOM     44  C   UNL     1     -12.457   7.659   2.254  1.00  0.00     0.034 A 
ATOM     45  C   UNL     1      -9.904  12.855   6.098  1.00  0.00     0.034 A 
ATOM     46  C   UNL     1     -12.981   8.815   1.553  1.00  0.00     0.049 A 
ATOM     47  C   UNL     1     -11.288  12.687   5.612  1.00  0.00     0.074 A 
ATOM     48  C   UNL     1     -12.924   9.303   0.265  1.00  0.00     0.029 A 
ATOM     49  N   UNL     1     -13.357   9.875   2.348  1.00  0.00    -0.354 N 
ATOM     50  N   UNL     1     -11.721  13.260   4.522  1.00  0.00    -0.248 NA
ATOM     51  C   UNL     1     -12.066  11.541   6.053  1.00  0.00     0.031 C 
ATOM     52  C   UNL     1     -12.820  10.720   0.415  1.00  0.00     0.029 A 
ATOM     53  C   UNL     1     -12.918  11.038   1.773  1.00  0.00     0.049 A 
ATOM     54  H   UNL     1     -13.860   9.807   3.192  1.00  0.00     0.167 HD
ATOM     55  C   UNL     1     -12.489  12.292   3.898  1.00  0.00     0.074 A 
ATOM     56  C   UNL     1     -12.804  11.335   4.957  1.00  0.00     0.031 C 
ATOM     57  C   UNL     1     -12.549  12.222   2.533  1.00  0.00     0.034 A 
BRANCH  44  58
ATOM     58  C   UNL     1     -13.358   6.878   3.205  1.00  0.00     0.023 A 
ATOM     59  C   UNL     1     -14.749   7.115   3.101  1.00  0.00     0.031 A 
ATOM     60  C   UNL     1     -12.956   6.174   4.358  1.00  0.00     0.131 A 
ATOM     61  C   UNL     1     -15.629   6.807   4.153  1.00  0.00     0.055 A 
ATOM     62  C   UNL     1     -13.846   5.815   5.380  1.00  0.00     0.041 A 
ATOM     63  F   UNL     1     -11.683   5.853   4.606  1.00  0.00    -0.206 F 
ATOM     64  C   UNL     1     -15.183   6.166   5.301  1.00  0.00     0.022 A 
BRANCH  61  65
ATOM     65  S   UNL     1     -17.329   7.432   4.068  1.00  0.00     0.124 S 
ATOM     66  O   UNL     1     -17.106   8.858   3.856  1.00  0.00    -0.237 OA
ATOM     67  O   UNL     1     -17.869   6.686   2.936  1.00  0.00    -0.237 OA
ATOM     68  O   UNL     1     -17.886   7.076   5.371  1.00  0.00    -0.744 OA
ENDBRANCH  61  65
ENDBRANCH  44  58
BRANCH  45  69
ATOM     69  C   UNL     1      -9.541  13.254   7.480  1.00  0.00     0.023 A 
ATOM     70  C   UNL     1     -10.248  14.225   8.218  1.00  0.00     0.031 A 
ATOM     71  C   UNL     1      -8.611  12.462   8.188  1.00  0.00     0.131 A 
ATOM     72  C   UNL     1     -10.025  14.360   9.609  1.00  0.00     0.055 A 
ATOM     73  C   UNL     1      -8.402  12.592   9.563  1.00  0.00     0.041 A 
ATOM     74  F   UNL     1      -7.941  11.472   7.575  1.00  0.00    -0.206 F 
ATOM     75  C   UNL     1      -9.118  13.537  10.283  1.00  0.00     0.022 A 
BRANCH  72  76
ATOM     76  S   UNL     1     -10.978  15.569  10.586  1.00  0.00     0.124 S 
ATOM     77  O   UNL     1     -10.545  16.841  10.019  1.00  0.00    -0.237 OA
ATOM     78  O   UNL     1     -12.355  15.172  10.315  1.00  0.00    -0.237 OA
ATOM     79  O   UNL     1     -10.532  15.328  11.959  1.00  0.00    -0.744 OA
ENDBRANCH  72  76
ENDBRANCH  45  69
BRANCH  57  80
ATOM     80  C   UNL     1     -12.034  13.415   1.746  1.00  0.00     0.023 A 
ATOM     81  C   UNL     1     -10.710  13.911   1.786  1.00  0.00     0.031 A 
ATOM     82  C   UNL     1     -12.924  14.019   0.842  1.00  0.00     0.131 A 
ATOM     83  C   UNL     1     -10.325  14.979   0.951  1.00  0.00     0.055 A 
ATOM     84  C   UNL     1     -12.536  15.060   0.001  1.00  0.00     0.041 A 
ATOM     85  F   UNL     1     -14.189  13.579   0.737  1.00  0.00    -0.206 F 
ATOM     86  C   UNL     1     -11.236  15.550   0.058  1.00  0.00     0.022 A 
BRANCH  83  87
ATOM     87  S   UNL     1      -8.636  15.664   1.029  1.00  0.00     0.124 S 
ATOM     88  O   UNL     1      -8.404  15.853   2.456  1.00  0.00    -0.237 OA
ATOM     89  O   UNL     1      -7.838  14.621   0.389  1.00  0.00    -0.237 OA
ATOM     90  O   UNL     1      -8.737  16.906   0.260  1.00  0.00    -0.744 OA
ENDBRANCH  83  87
ENDBRANCH  57  80
ENDBRANCH  31  32
ENDBRANCH  24  26
ENDBRANCH  23  24
ENDBRANCH  22  23
ENDBRANCH   1  22
TORSDOF 17
