REMARK SMILES O=C(OCCOC(=O)[C@@H]1CCCN1S(=O)(=O)c1ccc2c3c(cccc13)C(=O)N2)c1ccc(-c2c3nc(c(-c4cc(S(=O)(=O)[O-])ccc4F)c4ccc([nH]4)c(-c4cc(S(=O)(=O)[O-])ccc4F)c4nc(c(-c5cc(S(=O)(=O)[O-])ccc5F)c5ccc2[nH]5)C=C4)C=C3)cc1
REMARK SMILES IDX 4 1 3 2 2 3 1 4 30 5 31 6 92 7 32 8 91 9 33 10 34 11 35 12
REMARK SMILES IDX 85 13 36 14 90 15 84 16 86 17 37 18 89 19 83 20 82 21 38 23
REMARK SMILES IDX 70 24 50 25 69 26 51 27 54 28 68 29 87 30 52 31 53 32 67 34
REMARK SMILES IDX 88 35 55 36 39 37 40 38 48 39 41 40 47 41 49 42 46 43 42 44
REMARK SMILES IDX 43 45 44 46 45 47 71 48 72 49 80 50 73 51 79 52 81 53 78 54
REMARK SMILES IDX 74 55 75 56 76 57 77 58 56 59 57 60 65 61 58 62 64 63 66 64
REMARK SMILES IDX 63 65 59 66 60 67 61 68 62 69 5 70 6 71 7 72 8 73 9 74 10 75
REMARK SMILES IDX 13 76 11 77 12 78 14 79 15 80 16 81 17 82 18 83 26 84 19 85
REMARK SMILES IDX 21 86 25 87 20 88 22 89 24 90 29 91 23 92 27 93 28 95
REMARK H PARENT 86 22 54 33 29 94
REMARK Flexibility Score: inf
ROOT
ATOM      1  C   UNL     1       4.824  -1.303   0.227  1.00  0.00     0.275 C 
ENDROOT
BRANCH   1   2
ATOM      2  O   UNL     1       4.049  -0.438   1.084  1.00  0.00    -0.458 OA
BRANCH   2   3
ATOM      3  C   UNL     1       4.025   0.920   1.142  1.00  0.00     0.338 C 
ATOM      4  O   UNL     1       3.473   1.495   2.073  1.00  0.00    -0.246 OA
BRANCH   3   5
ATOM      5  C   UNL     1       4.519   1.693  -0.018  1.00  0.00     0.060 A 
ATOM      6  C   UNL     1       5.674   1.330  -0.713  1.00  0.00     0.016 A 
ATOM      7  C   UNL     1       3.770   2.793  -0.453  1.00  0.00     0.016 A 
ATOM      8  C   UNL     1       5.952   1.872  -1.956  1.00  0.00     0.010 A 
ATOM      9  C   UNL     1       4.108   3.425  -1.652  1.00  0.00     0.010 A 
ATOM     10  C   UNL     1       5.179   2.933  -2.425  1.00  0.00    -0.014 A 
BRANCH  10  11
ATOM     11  C   UNL     1       5.802   3.784  -3.448  1.00  0.00     0.031 A 
ATOM     12  C   UNL     1       6.666   4.863  -2.872  1.00  0.00     0.074 A 
ATOM     13  C   UNL     1       5.709   3.561  -4.772  1.00  0.00     0.049 A 
ATOM     14  N   UNL     1       7.401   5.743  -3.480  1.00  0.00    -0.248 NA
ATOM     15  C   UNL     1       6.727   4.939  -1.395  1.00  0.00     0.031 C 
ATOM     16  C   UNL     1       5.003   2.458  -5.420  1.00  0.00     0.029 A 
ATOM     17  N   UNL     1       6.227   4.270  -5.824  1.00  0.00    -0.354 N 
ATOM     18  C   UNL     1       8.008   6.461  -2.461  1.00  0.00     0.074 A 
ATOM     19  C   UNL     1       7.501   5.986  -1.204  1.00  0.00     0.031 C 
ATOM     20  C   UNL     1       5.055   2.611  -6.754  1.00  0.00     0.029 A 
ATOM     21  C   UNL     1       5.851   3.792  -7.059  1.00  0.00     0.049 A 
ATOM     22  H   UNL     1       6.816   5.051  -5.708  1.00  0.00     0.167 HD
ATOM     23  C   UNL     1       8.956   7.409  -2.565  1.00  0.00     0.034 A 
ATOM     24  C   UNL     1       6.146   4.245  -8.294  1.00  0.00     0.034 A 
ATOM     25  C   UNL     1       9.433   7.872  -3.826  1.00  0.00     0.049 A 
ATOM     26  C   UNL     1       7.124   5.386  -8.398  1.00  0.00     0.074 A 
ATOM     27  C   UNL     1      10.362   8.856  -4.075  1.00  0.00     0.029 A 
ATOM     28  N   UNL     1       8.998   7.383  -5.050  1.00  0.00    -0.354 N 
ATOM     29  N   UNL     1       7.732   6.030  -7.428  1.00  0.00    -0.248 NA
ATOM     30  C   UNL     1       7.492   5.842  -9.744  1.00  0.00     0.031 C 
ATOM     31  C   UNL     1      10.442   9.008  -5.457  1.00  0.00     0.029 A 
ATOM     32  C   UNL     1       9.624   8.064  -6.068  1.00  0.00     0.049 A 
ATOM     33  H   UNL     1       8.342   6.659  -5.171  1.00  0.00     0.167 HD
ATOM     34  C   UNL     1       8.586   6.936  -8.043  1.00  0.00     0.074 A 
ATOM     35  C   UNL     1       8.412   6.762  -9.472  1.00  0.00     0.031 C 
ATOM     36  C   UNL     1       9.443   7.823  -7.481  1.00  0.00     0.034 A 
BRANCH  23  37
ATOM     37  C   UNL     1       9.458   8.011  -1.291  1.00  0.00     0.023 A 
ATOM     38  C   UNL     1       9.128   9.339  -0.990  1.00  0.00     0.031 A 
ATOM     39  C   UNL     1      10.206   7.269  -0.357  1.00  0.00     0.131 A 
ATOM     40  C   UNL     1       9.551   9.895   0.219  1.00  0.00     0.055 A 
ATOM     41  C   UNL     1      10.586   7.815   0.867  1.00  0.00     0.041 A 
ATOM     42  F   UNL     1      10.504   5.980  -0.590  1.00  0.00    -0.206 F 
ATOM     43  C   UNL     1      10.262   9.137   1.157  1.00  0.00     0.022 A 
BRANCH  40  44
ATOM     44  S   UNL     1       9.178  11.620   0.614  1.00  0.00     0.124 S 
ATOM     45  O   UNL     1       8.590  11.507   1.948  1.00  0.00    -0.237 OA
ATOM     46  O   UNL     1      10.502  12.231   0.563  1.00  0.00    -0.237 OA
ATOM     47  O   UNL     1       8.250  12.027  -0.436  1.00  0.00    -0.744 OA
ENDBRANCH  40  44
ENDBRANCH  23  37
BRANCH  24  48
ATOM     48  C   UNL     1       5.581   3.554  -9.489  1.00  0.00     0.023 A 
ATOM     49  C   UNL     1       4.199   3.580  -9.753  1.00  0.00     0.031 A 
ATOM     50  C   UNL     1       6.397   2.780 -10.331  1.00  0.00     0.131 A 
ATOM     51  C   UNL     1       3.672   2.816 -10.805  1.00  0.00     0.055 A 
ATOM     52  C   UNL     1       5.874   2.057 -11.406  1.00  0.00     0.041 A 
ATOM     53  F   UNL     1       7.718   2.708 -10.109  1.00  0.00    -0.206 F 
ATOM     54  C   UNL     1       4.503   2.066 -11.643  1.00  0.00     0.022 A 
BRANCH  51  55
ATOM     55  S   UNL     1       1.881   2.719 -11.082  1.00  0.00     0.124 S 
ATOM     56  O   UNL     1       1.771   2.995 -12.511  1.00  0.00    -0.237 OA
ATOM     57  O   UNL     1       1.598   1.342 -10.682  1.00  0.00    -0.237 OA
ATOM     58  O   UNL     1       1.342   3.748 -10.200  1.00  0.00    -0.744 OA
ENDBRANCH  51  55
ENDBRANCH  24  48
BRANCH  36  59
ATOM     59  C   UNL     1      10.304   8.671  -8.373  1.00  0.00     0.023 A 
ATOM     60  C   UNL     1      11.701   8.522  -8.294  1.00  0.00     0.031 A 
ATOM     61  C   UNL     1       9.773   9.788  -9.033  1.00  0.00     0.131 A 
ATOM     62  C   UNL     1      12.526   9.538  -8.779  1.00  0.00     0.055 A 
ATOM     63  C   UNL     1      10.605  10.769  -9.569  1.00  0.00     0.041 A 
ATOM     64  F   UNL     1       8.445   9.966  -9.111  1.00  0.00    -0.206 F 
ATOM     65  C   UNL     1      11.987  10.659  -9.418  1.00  0.00     0.022 A 
BRANCH  62  66
ATOM     66  S   UNL     1      14.311   9.505  -8.460  1.00  0.00     0.124 S 
ATOM     67  O   UNL     1      14.861   9.645  -9.806  1.00  0.00    -0.237 OA
ATOM     68  O   UNL     1      14.485  10.663  -7.588  1.00  0.00    -0.237 OA
ATOM     69  O   UNL     1      14.533   8.206  -7.833  1.00  0.00    -0.744 OA
ENDBRANCH  62  66
ENDBRANCH  36  59
ENDBRANCH  10  11
ENDBRANCH   3   5
ENDBRANCH   2   3
ENDBRANCH   1   2
BRANCH   1  70
ATOM     70  C   UNL     1       4.393  -1.488  -1.250  1.00  0.00     0.274 C 
BRANCH  70  71
ATOM     71  O   UNL     1       3.469  -0.509  -1.772  1.00  0.00    -0.461 OA
BRANCH  71  72
ATOM     72  C   UNL     1       2.505  -0.971  -2.632  1.00  0.00     0.324 C 
ATOM     73  O   UNL     1       2.363  -2.160  -2.904  1.00  0.00    -0.250 OA
BRANCH  72  74
ATOM     74  C   UNL     1       1.629   0.112  -3.238  1.00  0.00     0.183 C 
ATOM     75  C   UNL     1       2.208   1.500  -3.172  1.00  0.00     0.034 C 
ATOM     76  N   UNL     1       0.186   0.361  -2.899  1.00  0.00    -0.184 NA
ATOM     77  C   UNL     1       1.197   2.374  -3.872  1.00  0.00     0.019 C 
ATOM     78  C   UNL     1      -0.130   1.650  -3.655  1.00  0.00     0.103 C 
BRANCH  76  79
ATOM     79  S   UNL     1      -0.319   0.477  -1.255  1.00  0.00     0.244 S 
ATOM     80  O   UNL     1       0.576   1.390  -0.575  1.00  0.00    -0.207 OA
ATOM     81  O   UNL     1      -1.738   0.765  -1.273  1.00  0.00    -0.207 OA
BRANCH  79  82
ATOM     82  C   UNL     1      -0.077  -1.130  -0.540  1.00  0.00     0.090 A 
ATOM     83  C   UNL     1       1.206  -1.386  -0.007  1.00  0.00     0.024 A 
ATOM     84  C   UNL     1      -1.105  -2.095  -0.376  1.00  0.00     0.005 A 
ATOM     85  C   UNL     1       1.604  -2.650   0.452  1.00  0.00     0.028 A 
ATOM     86  C   UNL     1      -0.671  -3.306   0.091  1.00  0.00     0.019 A 
ATOM     87  C   UNL     1      -2.509  -2.022  -0.553  1.00  0.00     0.010 A 
ATOM     88  C   UNL     1       0.624  -3.608   0.440  1.00  0.00     0.050 A 
ATOM     89  C   UNL     1      -1.447  -4.419   0.365  1.00  0.00     0.050 A 
ATOM     90  C   UNL     1      -3.343  -3.111  -0.222  1.00  0.00     0.002 A 
ATOM     91  N   UNL     1       0.665  -4.928   0.835  1.00  0.00    -0.321 N 
ATOM     92  C   UNL     1      -2.828  -4.336   0.234  1.00  0.00     0.014 A 
ATOM     93  C   UNL     1      -0.607  -5.514   0.822  1.00  0.00     0.256 C 
ATOM     94  H   UNL     1       1.489  -5.401   1.094  1.00  0.00     0.170 HD
ATOM     95  O   UNL     1      -0.843  -6.662   1.149  1.00  0.00    -0.269 OA
ENDBRANCH  79  82
ENDBRANCH  76  79
ENDBRANCH  72  74
ENDBRANCH  71  72
ENDBRANCH  70  71
ENDBRANCH   1  70
TORSDOF 16
