REMARK SMILES COc1cnc(F)c(C(=O)OCCOC(=O)c2ccc(-c3c4nc(c(-c5cc(S(=O)(=O)[O-])ccc5F)c5ccc([nH]5)c(-c5cc(S(=O)(=O)[O-])ccc5F)c5nc(c(-c6cc(S(=O)(=O)[O-])ccc6F)c6ccc3[nH]6)C=C5)C=C4)cc2)c1
REMARK SMILES IDX 13 1 12 2 11 3 9 4 10 5 8 6 3 7 4 8 80 9 5 10 6 11 7 12 2 13
REMARK SMILES IDX 1 14 14 15 15 16 16 17 17 18 18 19 79 20 19 21 78 22 20 23
REMARK SMILES IDX 21 24 22 25 72 26 23 27 77 28 71 29 73 30 24 31 76 32 70 33
REMARK SMILES IDX 69 34 25 36 57 37 37 38 56 39 38 40 41 41 55 42 74 43 39 44
REMARK SMILES IDX 40 45 54 47 75 48 42 49 26 50 27 51 35 52 28 53 34 54 36 55
REMARK SMILES IDX 33 56 29 57 30 58 31 59 32 60 58 61 59 62 67 63 60 64 66 65
REMARK SMILES IDX 68 66 65 67 61 68 62 69 63 70 64 71 43 72 44 73 52 74 45 75
REMARK SMILES IDX 51 76 53 77 50 78 46 79 47 80 48 81 49 82
REMARK H PARENT 73 35 41 46
REMARK Flexibility Score: inf
ROOT
ATOM      1  C   UNL     1       6.037  -3.370  -4.657  1.00  0.00     0.275 C 
ENDROOT
BRANCH   1   2
ATOM      2  C   UNL     1       5.465  -4.567  -3.896  1.00  0.00     0.275 C 
BRANCH   2   3
ATOM      3  O   UNL     1       4.065  -4.384  -3.600  1.00  0.00    -0.458 OA
BRANCH   3   4
ATOM      4  C   UNL     1       3.748  -4.138  -2.308  1.00  0.00     0.343 C 
ATOM      5  O   UNL     1       4.532  -4.013  -1.380  1.00  0.00    -0.246 OA
BRANCH   4   6
ATOM      6  C   UNL     1       2.305  -3.916  -2.144  1.00  0.00     0.118 A 
ATOM      7  C   UNL     1       0.484  -2.727  -1.097  1.00  0.00     0.138 A 
ATOM      8  C   UNL     1      -0.373  -3.570  -1.794  1.00  0.00     0.160 A 
ATOM      9  C   UNL     1       1.848  -2.940  -1.248  1.00  0.00     0.068 A 
ATOM     10  N   UNL     1       0.032  -4.554  -2.636  1.00  0.00    -0.224 NA
ATOM     11  C   UNL     1       1.369  -4.695  -2.801  1.00  0.00     0.227 A 
ATOM     12  F   UNL     1       1.768  -5.700  -3.597  1.00  0.00    -0.184 F 
BRANCH   7  13
ATOM     13  O   UNL     1      -0.087  -1.794  -0.283  1.00  0.00    -0.495 OA
ATOM     14  C   UNL     1       0.674  -0.606  -0.063  1.00  0.00     0.278 C 
ENDBRANCH   7  13
ENDBRANCH   4   6
ENDBRANCH   3   4
ENDBRANCH   2   3
ENDBRANCH   1   2
BRANCH   1  15
ATOM     15  O   UNL     1       6.120  -2.215  -3.802  1.00  0.00    -0.458 OA
BRANCH  15  16
ATOM     16  C   UNL     1       5.143  -1.298  -3.986  1.00  0.00     0.338 C 
ATOM     17  O   UNL     1       4.242  -1.330  -4.807  1.00  0.00    -0.246 OA
BRANCH  16  18
ATOM     18  C   UNL     1       5.231  -0.257  -2.952  1.00  0.00     0.060 A 
ATOM     19  C   UNL     1       4.613  -0.509  -1.733  1.00  0.00     0.016 A 
ATOM     20  C   UNL     1       5.742   1.008  -3.230  1.00  0.00     0.016 A 
ATOM     21  C   UNL     1       4.396   0.526  -0.830  1.00  0.00     0.010 A 
ATOM     22  C   UNL     1       5.612   2.026  -2.273  1.00  0.00     0.010 A 
ATOM     23  C   UNL     1       4.895   1.812  -1.079  1.00  0.00    -0.014 A 
BRANCH  23  24
ATOM     24  C   UNL     1       4.598   2.927  -0.126  1.00  0.00     0.031 A 
ATOM     25  C   UNL     1       3.878   4.166  -0.607  1.00  0.00     0.074 A 
ATOM     26  C   UNL     1       4.910   2.816   1.184  1.00  0.00     0.049 A 
ATOM     27  N   UNL     1       3.662   5.296   0.019  1.00  0.00    -0.248 NA
ATOM     28  C   UNL     1       3.340   4.131  -1.975  1.00  0.00     0.031 C 
ATOM     29  C   UNL     1       5.549   1.653   1.807  1.00  0.00     0.029 A 
ATOM     30  N   UNL     1       4.716   3.681   2.235  1.00  0.00    -0.354 N 
ATOM     31  C   UNL     1       3.007   6.122  -0.892  1.00  0.00     0.074 A 
ATOM     32  C   UNL     1       2.879   5.366  -2.120  1.00  0.00     0.031 C 
ATOM     33  C   UNL     1       5.640   1.854   3.130  1.00  0.00     0.029 A 
ATOM     34  C   UNL     1       5.173   3.199   3.442  1.00  0.00     0.049 A 
ATOM     35  H   UNL     1       4.290   4.563   2.134  1.00  0.00     0.167 HD
ATOM     36  C   UNL     1       2.553   7.389  -0.720  1.00  0.00     0.034 A 
ATOM     37  C   UNL     1       5.253   3.784   4.656  1.00  0.00     0.034 A 
ATOM     38  C   UNL     1       2.648   8.120   0.522  1.00  0.00     0.049 A 
ATOM     39  C   UNL     1       4.788   5.211   4.806  1.00  0.00     0.074 A 
ATOM     40  C   UNL     1       2.256   9.421   0.792  1.00  0.00     0.029 A 
ATOM     41  N   UNL     1       3.150   7.607   1.710  1.00  0.00    -0.354 N 
ATOM     42  N   UNL     1       4.262   6.009   3.904  1.00  0.00    -0.248 NA
ATOM     43  C   UNL     1       4.933   5.819   6.135  1.00  0.00     0.031 C 
ATOM     44  C   UNL     1       2.562   9.708   2.126  1.00  0.00     0.029 A 
ATOM     45  C   UNL     1       3.079   8.565   2.711  1.00  0.00     0.049 A 
ATOM     46  H   UNL     1       3.505   6.696   1.826  1.00  0.00     0.167 HD
ATOM     47  C   UNL     1       3.988   7.201   4.570  1.00  0.00     0.074 A 
ATOM     48  C   UNL     1       4.380   7.007   5.950  1.00  0.00     0.031 C 
ATOM     49  C   UNL     1       3.465   8.355   4.085  1.00  0.00     0.034 A 
BRANCH  36  50
ATOM     50  C   UNL     1       1.954   8.087  -1.919  1.00  0.00     0.023 A 
ATOM     51  C   UNL     1       0.749   7.662  -2.504  1.00  0.00     0.031 A 
ATOM     52  C   UNL     1       2.605   9.198  -2.487  1.00  0.00     0.131 A 
ATOM     53  C   UNL     1       0.263   8.308  -3.652  1.00  0.00     0.055 A 
ATOM     54  C   UNL     1       2.077   9.883  -3.583  1.00  0.00     0.041 A 
ATOM     55  F   UNL     1       3.770   9.637  -1.984  1.00  0.00    -0.206 F 
ATOM     56  C   UNL     1       0.904   9.431  -4.180  1.00  0.00     0.022 A 
BRANCH  53  57
ATOM     57  S   UNL     1      -1.158   7.587  -4.519  1.00  0.00     0.124 S 
ATOM     58  O   UNL     1      -0.638   6.274  -4.892  1.00  0.00    -0.237 OA
ATOM     59  O   UNL     1      -2.193   7.596  -3.492  1.00  0.00    -0.237 OA
ATOM     60  O   UNL     1      -1.379   8.503  -5.636  1.00  0.00    -0.744 OA
ENDBRANCH  53  57
ENDBRANCH  36  50
BRANCH  37  61
ATOM     61  C   UNL     1       5.858   3.063   5.817  1.00  0.00     0.023 A 
ATOM     62  C   UNL     1       5.128   2.845   6.997  1.00  0.00     0.031 A 
ATOM     63  C   UNL     1       7.205   2.657   5.798  1.00  0.00     0.131 A 
ATOM     64  C   UNL     1       5.763   2.301   8.125  1.00  0.00     0.055 A 
ATOM     65  C   UNL     1       7.811   2.046   6.897  1.00  0.00     0.041 A 
ATOM     66  F   UNL     1       7.958   2.847   4.702  1.00  0.00    -0.206 F 
ATOM     67  C   UNL     1       7.094   1.884   8.077  1.00  0.00     0.022 A 
BRANCH  64  68
ATOM     68  S   UNL     1       4.862   2.275   9.700  1.00  0.00     0.124 S 
ATOM     69  O   UNL     1       4.476   3.674   9.843  1.00  0.00    -0.237 OA
ATOM     70  O   UNL     1       3.782   1.337   9.413  1.00  0.00    -0.237 OA
ATOM     71  O   UNL     1       5.862   1.801  10.654  1.00  0.00    -0.744 OA
ENDBRANCH  64  68
ENDBRANCH  37  61
BRANCH  49  72
ATOM     72  C   UNL     1       3.224   9.465   5.080  1.00  0.00     0.023 A 
ATOM     73  C   UNL     1       4.283  10.114   5.739  1.00  0.00     0.031 A 
ATOM     74  C   UNL     1       1.910   9.847   5.403  1.00  0.00     0.131 A 
ATOM     75  C   UNL     1       4.008  11.056   6.742  1.00  0.00     0.055 A 
ATOM     76  C   UNL     1       1.644  10.831   6.355  1.00  0.00     0.041 A 
ATOM     77  F   UNL     1       0.861   9.260   4.804  1.00  0.00    -0.206 F 
ATOM     78  C   UNL     1       2.696  11.429   7.044  1.00  0.00     0.022 A 
BRANCH  75  79
ATOM     79  S   UNL     1       5.386  11.704   7.728  1.00  0.00     0.124 S 
ATOM     80  O   UNL     1       5.985  10.482   8.253  1.00  0.00    -0.237 OA
ATOM     81  O   UNL     1       6.172  12.421   6.730  1.00  0.00    -0.237 OA
ATOM     82  O   UNL     1       4.728  12.550   8.723  1.00  0.00    -0.744 OA
ENDBRANCH  75  79
ENDBRANCH  49  72
ENDBRANCH  23  24
ENDBRANCH  16  18
ENDBRANCH  15  16
ENDBRANCH   1  15
TORSDOF 15
