REMARK SMILES O=C(OCCOC(=O)c1ccc(S(=O)(=O)NCC[NH+]2CCCC2)c(F)c1)c1ccc(-c2c3nc(c(-c4cc(S(=O)(=O)[O-])ccc4F)c4ccc([nH]4)c(-c4cc(S(=O)(=O)[O-])ccc4F)c4nc(c(-c5cc(S(=O)(=O)[O-])ccc5F)c5ccc2[nH]5)C=C4)C=C3)cc1
REMARK SMILES IDX 5 1 4 2 3 3 2 4 1 5 27 6 28 7 89 8 29 9 88 10 30 11 31 12
REMARK SMILES IDX 32 13 82 14 33 15 87 16 81 17 83 18 34 19 86 20 80 21 79 22
REMARK SMILES IDX 35 24 67 25 47 26 66 27 48 28 51 29 65 30 84 31 49 32 50 33
REMARK SMILES IDX 64 35 85 36 52 37 36 38 37 39 45 40 38 41 44 42 46 43 43 44
REMARK SMILES IDX 39 45 40 46 41 47 42 48 68 49 69 50 77 51 70 52 76 53 78 54
REMARK SMILES IDX 75 55 71 56 72 57 73 58 74 59 53 60 54 61 62 62 55 63 61 64
REMARK SMILES IDX 63 65 60 66 56 67 57 68 58 69 59 70 6 71 7 72 8 73 9 74
REMARK SMILES IDX 10 75 26 76 11 77 24 78 12 79 25 80 13 81 14 82 15 83 16 84
REMARK SMILES IDX 17 86 18 87 19 88 20 89 23 90 21 92 22 93
REMARK H PARENT 83 23 51 34 16 85 19 91
REMARK Flexibility Score: inf
ROOT
ATOM      1  C   UNL     1       3.853   2.129  -1.060  1.00  0.00     0.275 C 
ENDROOT
BRANCH   1   2
ATOM      2  C   UNL     1       4.082   0.689  -1.525  1.00  0.00     0.275 C 
BRANCH   2   3
ATOM      3  O   UNL     1       3.046  -0.238  -1.156  1.00  0.00    -0.458 OA
BRANCH   3   4
ATOM      4  C   UNL     1       2.892  -0.977  -0.032  1.00  0.00     0.338 C 
ATOM      5  O   UNL     1       2.003  -1.828  -0.010  1.00  0.00    -0.246 OA
BRANCH   4   6
ATOM      6  C   UNL     1       3.644  -0.732   1.240  1.00  0.00     0.060 A 
ATOM      7  C   UNL     1       4.947  -0.240   1.346  1.00  0.00     0.016 A 
ATOM      8  C   UNL     1       2.970  -1.062   2.432  1.00  0.00     0.016 A 
ATOM      9  C   UNL     1       5.534  -0.009   2.594  1.00  0.00     0.010 A 
ATOM     10  C   UNL     1       3.554  -0.836   3.681  1.00  0.00     0.010 A 
ATOM     11  C   UNL     1       4.841  -0.303   3.768  1.00  0.00    -0.014 A 
BRANCH  11  12
ATOM     12  C   UNL     1       5.519  -0.180   5.077  1.00  0.00     0.031 A 
ATOM     13  C   UNL     1       6.053  -1.419   5.727  1.00  0.00     0.074 A 
ATOM     14  C   UNL     1       5.694   1.027   5.645  1.00  0.00     0.049 A 
ATOM     15  N   UNL     1       6.697  -1.545   6.855  1.00  0.00    -0.248 NA
ATOM     16  C   UNL     1       5.863  -2.682   4.993  1.00  0.00     0.031 C 
ATOM     17  C   UNL     1       5.292   2.300   5.053  1.00  0.00     0.029 A 
ATOM     18  N   UNL     1       6.244   1.382   6.849  1.00  0.00    -0.354 N 
ATOM     19  C   UNL     1       7.044  -2.887   6.938  1.00  0.00     0.074 A 
ATOM     20  C   UNL     1       6.467  -3.550   5.790  1.00  0.00     0.031 C 
ATOM     21  C   UNL     1       5.538   3.292   5.924  1.00  0.00     0.029 A 
ATOM     22  C   UNL     1       6.131   2.724   7.130  1.00  0.00     0.049 A 
ATOM     23  H   UNL     1       6.678   0.739   7.455  1.00  0.00     0.167 HD
ATOM     24  C   UNL     1       7.813  -3.497   7.869  1.00  0.00     0.034 A 
ATOM     25  C   UNL     1       6.461   3.412   8.239  1.00  0.00     0.034 A 
ATOM     26  C   UNL     1       8.348  -2.825   9.022  1.00  0.00     0.049 A 
ATOM     27  C   UNL     1       7.156   2.679   9.354  1.00  0.00     0.074 A 
ATOM     28  C   UNL     1       9.124  -3.345  10.041  1.00  0.00     0.029 A 
ATOM     29  N   UNL     1       8.146  -1.482   9.316  1.00  0.00    -0.354 N 
ATOM     30  N   UNL     1       7.486   1.409   9.419  1.00  0.00    -0.248 NA
ATOM     31  C   UNL     1       7.554   3.469  10.525  1.00  0.00     0.031 C 
ATOM     32  C   UNL     1       9.342  -2.330  10.980  1.00  0.00     0.029 A 
ATOM     33  C   UNL     1       8.753  -1.163  10.517  1.00  0.00     0.049 A 
ATOM     34  H   UNL     1       7.643  -0.850   8.752  1.00  0.00     0.167 HD
ATOM     35  C   UNL     1       8.171   1.256  10.617  1.00  0.00     0.074 A 
ATOM     36  C   UNL     1       8.191   2.560  11.253  1.00  0.00     0.031 C 
ATOM     37  C   UNL     1       8.751   0.143  11.133  1.00  0.00     0.034 A 
BRANCH  24  38
ATOM     38  C   UNL     1       8.088  -4.962   7.668  1.00  0.00     0.023 A 
ATOM     39  C   UNL     1       8.898  -5.410   6.610  1.00  0.00     0.031 A 
ATOM     40  C   UNL     1       7.501  -5.920   8.509  1.00  0.00     0.131 A 
ATOM     41  C   UNL     1       9.054  -6.785   6.386  1.00  0.00     0.055 A 
ATOM     42  C   UNL     1       7.711  -7.287   8.318  1.00  0.00     0.041 A 
ATOM     43  F   UNL     1       6.697  -5.543   9.516  1.00  0.00    -0.206 F 
ATOM     44  C   UNL     1       8.483  -7.727   7.246  1.00  0.00     0.022 A 
BRANCH  41  45
ATOM     45  S   UNL     1       9.935  -7.331   4.897  1.00  0.00     0.124 S 
ATOM     46  O   UNL     1       9.032  -6.882   3.840  1.00  0.00    -0.237 OA
ATOM     47  O   UNL     1      11.204  -6.619   4.997  1.00  0.00    -0.237 OA
ATOM     48  O   UNL     1      10.021  -8.781   5.063  1.00  0.00    -0.744 OA
ENDBRANCH  41  45
ENDBRANCH  24  38
BRANCH  25  49
ATOM     49  C   UNL     1       6.131   4.859   8.343  1.00  0.00     0.023 A 
ATOM     50  C   UNL     1       7.125   5.846   8.274  1.00  0.00     0.031 A 
ATOM     51  C   UNL     1       4.796   5.273   8.499  1.00  0.00     0.131 A 
ATOM     52  C   UNL     1       6.770   7.202   8.376  1.00  0.00     0.055 A 
ATOM     53  C   UNL     1       4.445   6.622   8.578  1.00  0.00     0.041 A 
ATOM     54  F   UNL     1       3.808   4.366   8.556  1.00  0.00    -0.206 F 
ATOM     55  C   UNL     1       5.437   7.596   8.521  1.00  0.00     0.022 A 
BRANCH  52  56
ATOM     56  S   UNL     1       8.082   8.454   8.322  1.00  0.00     0.124 S 
ATOM     57  O   UNL     1       8.859   8.125   9.511  1.00  0.00    -0.237 OA
ATOM     58  O   UNL     1       8.718   8.171   7.039  1.00  0.00    -0.237 OA
ATOM     59  O   UNL     1       7.350   9.718   8.383  1.00  0.00    -0.744 OA
ENDBRANCH  52  56
ENDBRANCH  25  49
BRANCH  37  60
ATOM     60  C   UNL     1       9.493   0.295  12.430  1.00  0.00     0.023 A 
ATOM     61  C   UNL     1       8.813   0.454  13.647  1.00  0.00     0.031 A 
ATOM     62  C   UNL     1      10.897   0.224  12.449  1.00  0.00     0.131 A 
ATOM     63  C   UNL     1       9.543   0.560  14.839  1.00  0.00     0.055 A 
ATOM     64  C   UNL     1      11.616   0.285  13.642  1.00  0.00     0.041 A 
ATOM     65  F   UNL     1      11.588   0.069  11.308  1.00  0.00    -0.206 F 
ATOM     66  C   UNL     1      10.938   0.457  14.846  1.00  0.00     0.022 A 
BRANCH  63  67
ATOM     67  S   UNL     1       8.646   0.854  16.386  1.00  0.00     0.124 S 
ATOM     68  O   UNL     1       8.122   2.200  16.177  1.00  0.00    -0.237 OA
ATOM     69  O   UNL     1       7.659  -0.221  16.389  1.00  0.00    -0.237 OA
ATOM     70  O   UNL     1       9.683   0.742  17.410  1.00  0.00    -0.744 OA
ENDBRANCH  63  67
ENDBRANCH  37  60
ENDBRANCH  11  12
ENDBRANCH   4   6
ENDBRANCH   3   4
ENDBRANCH   2   3
ENDBRANCH   1   2
BRANCH   1  71
ATOM     71  O   UNL     1       3.369   2.226   0.286  1.00  0.00    -0.458 OA
BRANCH  71  72
ATOM     72  C   UNL     1       2.020   2.334   0.412  1.00  0.00     0.338 C 
ATOM     73  O   UNL     1       1.199   2.382  -0.487  1.00  0.00    -0.246 OA
BRANCH  72  74
ATOM     74  C   UNL     1       1.659   2.250   1.842  1.00  0.00     0.063 A 
ATOM     75  C   UNL     1       2.330   3.006   2.804  1.00  0.00     0.017 A 
ATOM     76  C   UNL     1       0.646   1.363   2.227  1.00  0.00     0.056 A 
ATOM     77  C   UNL     1       2.016   2.830   4.153  1.00  0.00     0.026 A 
ATOM     78  C   UNL     1       0.359   1.173   3.581  1.00  0.00     0.144 A 
ATOM     79  C   UNL     1       1.054   1.884   4.545  1.00  0.00     0.118 A 
ATOM     80  F   UNL     1      -0.575   0.268   3.898  1.00  0.00    -0.205 F 
BRANCH  79  81
ATOM     81  S   UNL     1       0.870   1.623   6.278  1.00  0.00     0.243 S 
ATOM     82  O   UNL     1       2.192   1.363   6.791  1.00  0.00    -0.207 OA
ATOM     83  O   UNL     1       0.070   2.730   6.759  1.00  0.00    -0.207 OA
BRANCH  81  84
ATOM     84  N   UNL     1      -0.059   0.261   6.542  1.00  0.00    -0.205 NA
ATOM     85  H   UNL     1      -0.830   0.309   5.877  1.00  0.00     0.141 HD
BRANCH  84  86
ATOM     86  C   UNL     1       0.491  -1.096   6.432  1.00  0.00     0.160 C 
BRANCH  86  87
ATOM     87  C   UNL     1       1.490  -1.529   7.530  1.00  0.00     0.278 C 
BRANCH  87  88
ATOM     88  N   UNL     1       0.931  -1.580   8.902  1.00  0.00    -0.334 N 
ATOM     89  C   UNL     1       1.046  -0.284   9.602  1.00  0.00     0.262 C 
ATOM     90  C   UNL     1       1.739  -2.493   9.750  1.00  0.00     0.262 C 
ATOM     91  H   UNL     1      -0.041  -1.869   8.786  1.00  0.00     0.348 HD
ATOM     92  C   UNL     1       2.463  -0.223  10.139  1.00  0.00     0.067 C 
ATOM     93  C   UNL     1       2.743  -1.657  10.539  1.00  0.00     0.067 C 
ENDBRANCH  87  88
ENDBRANCH  86  87
ENDBRANCH  84  86
ENDBRANCH  81  84
ENDBRANCH  79  81
ENDBRANCH  72  74
ENDBRANCH  71  72
ENDBRANCH   1  71
TORSDOF 19
