REMARK SMILES O=C(OCCOC(=O)[C@H]1CC2(CC[NH+](C(=O)C3CC3)CC2)CN1C(=O)CCn1cccn1)c1ccc(-c2c3nc(c(-c4cc(S(=O)(=O)[O-])ccc4F)c4ccc([nH]4)c(-c4cc(S(=O)(=O)[O-])ccc4F)c4nc(c(-c5cc(S(=O)(=O)[O-])ccc5F)c5ccc2[nH]5)C=C4)C=C3)cc1
REMARK SMILES IDX 5 1 4 2 3 3 2 4 1 5 33 6 34 7 95 8 35 9 94 10 36 11 37 12
REMARK SMILES IDX 38 13 88 14 39 15 93 16 87 17 89 18 40 19 92 20 86 21 85 22
REMARK SMILES IDX 41 24 73 25 53 26 72 27 54 28 57 29 71 30 90 31 55 32 56 33
REMARK SMILES IDX 70 35 91 36 58 37 42 38 43 39 51 40 44 41 50 42 52 43 49 44
REMARK SMILES IDX 45 45 46 46 47 47 48 48 74 49 75 50 83 51 76 52 82 53 84 54
REMARK SMILES IDX 81 55 77 56 78 57 79 58 80 59 59 60 60 61 68 62 61 63 67 64
REMARK SMILES IDX 69 65 66 66 62 67 63 68 64 69 65 70 6 71 7 72 8 73 9 74
REMARK SMILES IDX 10 75 23 76 11 77 22 78 12 79 21 80 13 81 20 82 14 83 24 85
REMARK SMILES IDX 25 86 26 87 27 88 28 89 29 90 32 91 30 92 31 93 15 94 16 95
REMARK SMILES IDX 17 96 18 97 19 98
REMARK H PARENT 89 23 57 34 14 84
REMARK Flexibility Score: inf
ROOT
ATOM      1  C   UNL     1       4.007  -4.610  -4.168  1.00  0.00     0.274 C 
ENDROOT
BRANCH   1   2
ATOM      2  C   UNL     1       5.455  -3.921  -5.030  1.00  0.00     0.275 C 
BRANCH   2   3
ATOM      3  O   UNL     1       6.043  -2.449  -4.696  1.00  0.00    -0.458 OA
BRANCH   3   4
ATOM      4  C   UNL     1       5.213  -1.017  -4.380  1.00  0.00     0.338 C 
ATOM      5  O   UNL     1       6.147  -0.177  -4.398  1.00  0.00    -0.246 OA
BRANCH   4   6
ATOM      6  C   UNL     1       2.990  -1.080  -4.127  1.00  0.00     0.060 A 
ATOM      7  C   UNL     1       1.997  -2.158  -4.633  1.00  0.00     0.016 A 
ATOM      8  C   UNL     1       1.928  -0.032  -3.885  1.00  0.00     0.016 A 
ATOM      9  C   UNL     1       0.790  -2.039  -5.382  1.00  0.00     0.010 A 
ATOM     10  C   UNL     1       0.598   0.076  -4.504  1.00  0.00     0.010 A 
ATOM     11  C   UNL     1       0.057  -0.885  -5.361  1.00  0.00    -0.014 A 
BRANCH  11  12
ATOM     12  C   UNL     1      -1.367  -0.867  -5.882  1.00  0.00     0.031 A 
ATOM     13  C   UNL     1      -2.275  -2.031  -5.335  1.00  0.00     0.074 A 
ATOM     14  C   UNL     1      -1.854   0.256  -6.524  1.00  0.00     0.049 A 
ATOM     15  N   UNL     1      -3.549  -2.209  -5.508  1.00  0.00    -0.248 NA
ATOM     16  C   UNL     1      -1.760  -3.062  -4.386  1.00  0.00     0.031 C 
ATOM     17  C   UNL     1      -1.083   1.427  -6.978  1.00  0.00     0.029 A 
ATOM     18  N   UNL     1      -3.135   0.687  -6.843  1.00  0.00    -0.354 N 
ATOM     19  C   UNL     1      -3.989  -3.202  -4.614  1.00  0.00     0.074 A 
ATOM     20  C   UNL     1      -2.849  -3.662  -3.892  1.00  0.00     0.031 C 
ATOM     21  C   UNL     1      -1.898   2.488  -7.228  1.00  0.00     0.029 A 
ATOM     22  C   UNL     1      -3.292   2.087  -7.098  1.00  0.00     0.049 A 
ATOM     23  H   UNL     1      -3.894   0.063  -6.891  1.00  0.00     0.167 HD
ATOM     24  C   UNL     1      -5.167  -3.876  -4.714  1.00  0.00     0.034 A 
ATOM     25  C   UNL     1      -4.450   2.847  -7.226  1.00  0.00     0.034 A 
ATOM     26  C   UNL     1      -5.518  -3.947  -6.102  1.00  0.00     0.049 A 
ATOM     27  C   UNL     1      -5.528   1.870  -7.477  1.00  0.00     0.074 A 
ATOM     28  C   UNL     1      -4.987  -4.706  -7.118  1.00  0.00     0.029 A 
ATOM     29  N   UNL     1      -6.085  -2.828  -6.667  1.00  0.00    -0.354 N 
ATOM     30  N   UNL     1      -5.538   1.080  -8.511  1.00  0.00    -0.248 NA
ATOM     31  C   UNL     1      -6.364   1.455  -6.365  1.00  0.00     0.031 C 
ATOM     32  C   UNL     1      -4.817  -3.784  -8.181  1.00  0.00     0.029 A 
ATOM     33  C   UNL     1      -5.473  -2.587  -7.875  1.00  0.00     0.049 A 
ATOM     34  H   UNL     1      -6.809  -2.289  -6.271  1.00  0.00     0.167 HD
ATOM     35  C   UNL     1      -5.952  -0.136  -8.005  1.00  0.00     0.074 A 
ATOM     36  C   UNL     1      -6.579   0.184  -6.722  1.00  0.00     0.031 C 
ATOM     37  C   UNL     1      -5.454  -1.291  -8.537  1.00  0.00     0.034 A 
BRANCH  24  38
ATOM     38  C   UNL     1      -6.206  -3.897  -3.611  1.00  0.00     0.023 A 
ATOM     39  C   UNL     1      -7.514  -4.249  -3.984  1.00  0.00     0.031 A 
ATOM     40  C   UNL     1      -6.065  -3.333  -2.330  1.00  0.00     0.131 A 
ATOM     41  C   UNL     1      -8.623  -3.834  -3.230  1.00  0.00     0.055 A 
ATOM     42  C   UNL     1      -7.173  -2.877  -1.593  1.00  0.00     0.041 A 
ATOM     43  F   UNL     1      -4.855  -3.167  -1.774  1.00  0.00    -0.206 F 
ATOM     44  C   UNL     1      -8.464  -3.086  -2.068  1.00  0.00     0.022 A 
BRANCH  41  45
ATOM     45  S   UNL     1     -10.269  -4.215  -3.881  1.00  0.00     0.124 S 
ATOM     46  O   UNL     1     -10.203  -3.632  -5.217  1.00  0.00    -0.237 OA
ATOM     47  O   UNL     1     -10.278  -5.674  -3.818  1.00  0.00    -0.237 OA
ATOM     48  O   UNL     1     -11.169  -3.545  -2.947  1.00  0.00    -0.744 OA
ENDBRANCH  41  45
ENDBRANCH  24  38
BRANCH  25  49
ATOM     49  C   UNL     1      -4.833   4.306  -6.901  1.00  0.00     0.023 A 
ATOM     50  C   UNL     1      -5.995   5.021  -7.381  1.00  0.00     0.031 A 
ATOM     51  C   UNL     1      -4.179   4.919  -5.816  1.00  0.00     0.131 A 
ATOM     52  C   UNL     1      -6.424   6.256  -6.777  1.00  0.00     0.055 A 
ATOM     53  C   UNL     1      -4.624   6.109  -5.210  1.00  0.00     0.041 A 
ATOM     54  F   UNL     1      -3.122   4.328  -5.240  1.00  0.00    -0.206 F 
ATOM     55  C   UNL     1      -5.747   6.775  -5.677  1.00  0.00     0.022 A 
BRANCH  52  56
ATOM     56  S   UNL     1      -7.895   7.234  -7.346  1.00  0.00     0.124 S 
ATOM     57  O   UNL     1      -7.507   7.649  -8.689  1.00  0.00    -0.237 OA
ATOM     58  O   UNL     1      -8.986   6.271  -7.253  1.00  0.00    -0.237 OA
ATOM     59  O   UNL     1      -7.979   8.333  -6.380  1.00  0.00    -0.744 OA
ENDBRANCH  52  56
ENDBRANCH  25  49
BRANCH  37  60
ATOM     60  C   UNL     1      -4.726  -1.212  -9.881  1.00  0.00     0.023 A 
ATOM     61  C   UNL     1      -3.608  -0.403 -10.215  1.00  0.00     0.031 A 
ATOM     62  C   UNL     1      -5.180  -2.107 -10.865  1.00  0.00     0.131 A 
ATOM     63  C   UNL     1      -3.011  -0.509 -11.492  1.00  0.00     0.055 A 
ATOM     64  C   UNL     1      -4.558  -2.245 -12.101  1.00  0.00     0.041 A 
ATOM     65  F   UNL     1      -6.233  -2.906 -10.624  1.00  0.00    -0.206 F 
ATOM     66  C   UNL     1      -3.478  -1.438 -12.425  1.00  0.00     0.022 A 
BRANCH  63  67
ATOM     67  S   UNL     1      -1.656   0.604 -12.012  1.00  0.00     0.124 S 
ATOM     68  O   UNL     1      -2.115   1.922 -11.593  1.00  0.00    -0.237 OA
ATOM     69  O   UNL     1      -0.506   0.066 -11.288  1.00  0.00    -0.237 OA
ATOM     70  O   UNL     1      -1.600   0.412 -13.463  1.00  0.00    -0.744 OA
ENDBRANCH  63  67
ENDBRANCH  37  60
ENDBRANCH  11  12
ENDBRANCH   4   6
ENDBRANCH   3   4
ENDBRANCH   2   3
ENDBRANCH   1   2
BRANCH   1  71
ATOM     71  O   UNL     1       3.008  -3.869  -2.871  1.00  0.00    -0.461 OA
BRANCH  71  72
ATOM     72  C   UNL     1       3.119  -2.857  -1.668  1.00  0.00     0.328 C 
ATOM     73  O   UNL     1       4.105  -2.318  -1.127  1.00  0.00    -0.250 OA
BRANCH  72  74
ATOM     74  C   UNL     1       2.109  -2.805  -0.679  1.00  0.00     0.195 C 
ATOM     75  C   UNL     1       1.065  -1.831  -1.045  1.00  0.00     0.046 C 
ATOM     76  N   UNL     1       1.684  -4.104  -0.589  1.00  0.00    -0.328 N 
ATOM     77  C   UNL     1      -0.156  -2.387  -0.335  1.00  0.00     0.001 C 
ATOM     78  C   UNL     1       0.326  -3.931   0.039  1.00  0.00     0.128 C 
ATOM     79  C   UNL     1      -1.302  -2.469  -1.327  1.00  0.00     0.071 C 
ATOM     80  C   UNL     1      -0.613  -1.333   0.725  1.00  0.00     0.071 C 
ATOM     81  C   UNL     1      -1.671  -1.125  -1.962  1.00  0.00     0.270 C 
ATOM     82  C   UNL     1      -1.118   0.025   0.091  1.00  0.00     0.270 C 
ATOM     83  N   UNL     1      -2.093  -0.155  -0.990  1.00  0.00    -0.272 N 
ATOM     84  H   UNL     1      -2.675   0.397  -1.560  1.00  0.00     0.356 HD
BRANCH  76  85
ATOM     85  C   UNL     1       2.708  -5.114  -0.705  1.00  0.00     0.225 C 
ATOM     86  O   UNL     1       2.440  -6.279  -0.386  1.00  0.00    -0.275 OA
BRANCH  85  87
ATOM     87  C   UNL     1       4.428  -4.767  -1.292  1.00  0.00     0.124 C 
BRANCH  87  88
ATOM     88  C   UNL     1       5.258  -3.519  -2.461  1.00  0.00     0.154 C 
BRANCH  88  89
ATOM     89  N   UNL     1       4.361  -2.308  -3.479  1.00  0.00    -0.272 N 
ATOM     90  C   UNL     1       4.092  -2.047  -5.392  1.00  0.00     0.108 A 
ATOM     91  N   UNL     1       4.361  -0.590  -2.741  1.00  0.00    -0.182 NA
ATOM     92  C   UNL     1       3.976  -0.277  -5.682  1.00  0.00     0.042 A 
ATOM     93  C   UNL     1       4.180   0.572  -3.960  1.00  0.00     0.135 A 
ENDBRANCH  88  89
ENDBRANCH  87  88
ENDBRANCH  85  87
ENDBRANCH  76  85
BRANCH  83  94
ATOM     94  C   UNL     1      -3.155   0.764  -1.140  1.00  0.00     0.315 C 
ATOM     95  O   UNL     1      -3.347   1.618  -0.273  1.00  0.00    -0.231 OA
BRANCH  94  96
ATOM     96  C   UNL     1      -4.125   0.811  -2.298  1.00  0.00     0.119 C 
ATOM     97  C   UNL     1      -3.795   0.536  -3.732  1.00  0.00     0.019 C 
ATOM     98  C   UNL     1      -4.704  -0.391  -2.986  1.00  0.00     0.019 C 
ENDBRANCH  94  96
ENDBRANCH  83  94
ENDBRANCH  72  74
ENDBRANCH  71  72
ENDBRANCH   1  71
TORSDOF 20
