REMARK SMILES O=C(OCCOC(=O)[C@@H]1CCCN1C(=O)OCc1ccc(/N=N/c2ccccc2)cc1)c1ccc(-c2c3nc(c(-c4cc(S(=O)(=O)[O-])ccc4F)c4ccc([nH]4)c(-c4cc(S(=O)(=O)[O-])ccc4F)c4nc(c(-c5cc(S(=O)(=O)[O-])ccc5F)c5ccc2[nH]5)C=C4)C=C3)cc1
REMARK SMILES IDX 6 1 5 2 4 3 3 4 2 5 1 6 32 7 33 8 94 9 34 10 93 11 35 12
REMARK SMILES IDX 36 13 37 14 87 15 38 16 92 17 86 18 88 19 39 20 91 21 85 22
REMARK SMILES IDX 84 23 40 25 72 26 52 27 71 28 53 29 56 30 70 31 89 32 54 33
REMARK SMILES IDX 55 34 69 36 90 37 57 38 41 39 42 40 50 41 43 42 49 43 51 44
REMARK SMILES IDX 48 45 44 46 45 47 46 48 47 49 73 50 74 51 82 52 75 53 81 54
REMARK SMILES IDX 83 55 80 56 76 57 77 58 78 59 79 60 58 61 59 62 67 63 60 64
REMARK SMILES IDX 66 65 68 66 65 67 61 68 62 69 63 70 64 71 7 72 8 73 9 74
REMARK SMILES IDX 10 75 13 76 11 77 12 78 14 79 15 80 16 81 17 82 18 83 19 84
REMARK SMILES IDX 31 85 20 86 30 87 21 88 22 89 23 90 24 91 25 92 29 93 26 94
REMARK SMILES IDX 28 95 27 96
REMARK H PARENT 88 24 56 35
REMARK Flexibility Score: inf
ROOT
ATOM      1  O   UNL     1       3.878   2.413  -0.703  1.00  0.00    -0.461 OA
ENDROOT
BRANCH   1   2
ATOM      2  C   UNL     1       3.935   1.725  -1.969  1.00  0.00     0.274 C 
BRANCH   2   3
ATOM      3  C   UNL     1       3.635   0.214  -1.846  1.00  0.00     0.275 C 
BRANCH   3   4
ATOM      4  O   UNL     1       2.281  -0.051  -1.419  1.00  0.00    -0.458 OA
BRANCH   4   5
ATOM      5  C   UNL     1       1.835  -0.338  -0.173  1.00  0.00     0.338 C 
ATOM      6  O   UNL     1       0.725  -0.836  -0.012  1.00  0.00    -0.246 OA
BRANCH   5   7
ATOM      7  C   UNL     1       2.584   0.058   1.049  1.00  0.00     0.060 A 
ATOM      8  C   UNL     1       4.313   0.748   1.056  1.00  0.00     0.016 A 
ATOM      9  C   UNL     1       1.790  -0.280   2.669  1.00  0.00     0.016 A 
ATOM     10  C   UNL     1       5.185   1.046   2.593  1.00  0.00     0.010 A 
ATOM     11  C   UNL     1       2.702   0.041   4.232  1.00  0.00     0.010 A 
ATOM     12  C   UNL     1       4.419   0.710   4.173  1.00  0.00    -0.014 A 
BRANCH  12  13
ATOM     13  C   UNL     1       5.317   1.031   5.340  1.00  0.00     0.031 A 
ATOM     14  C   UNL     1       5.958  -0.042   6.181  1.00  0.00     0.074 A 
ATOM     15  C   UNL     1       5.732   2.310   5.505  1.00  0.00     0.049 A 
ATOM     16  N   UNL     1       6.729   0.078   7.236  1.00  0.00    -0.248 NA
ATOM     17  C   UNL     1       5.767  -1.427   5.761  1.00  0.00     0.031 C 
ATOM     18  C   UNL     1       5.439   3.417   4.595  1.00  0.00     0.029 A 
ATOM     19  N   UNL     1       6.482   2.919   6.483  1.00  0.00    -0.354 N 
ATOM     20  C   UNL     1       7.112  -1.220   7.580  1.00  0.00     0.074 A 
ATOM     21  C   UNL     1       6.446  -2.107   6.665  1.00  0.00     0.031 C 
ATOM     22  C   UNL     1       5.889   4.572   5.097  1.00  0.00     0.029 A 
ATOM     23  C   UNL     1       6.520   4.296   6.372  1.00  0.00     0.049 A 
ATOM     24  H   UNL     1       6.948   2.422   7.194  1.00  0.00     0.167 HD
ATOM     25  C   UNL     1       7.960  -1.640   8.550  1.00  0.00     0.034 A 
ATOM     26  C   UNL     1       6.986   5.242   7.208  1.00  0.00     0.034 A 
ATOM     27  C   UNL     1       8.593  -0.734   9.473  1.00  0.00     0.049 A 
ATOM     28  C   UNL     1       7.710   4.769   8.433  1.00  0.00     0.074 A 
ATOM     29  C   UNL     1       9.381  -1.019  10.573  1.00  0.00     0.029 A 
ATOM     30  N   UNL     1       8.490   0.652   9.404  1.00  0.00    -0.354 N 
ATOM     31  N   UNL     1       7.974   3.536   8.797  1.00  0.00    -0.248 NA
ATOM     32  C   UNL     1       8.233   5.798   9.334  1.00  0.00     0.031 C 
ATOM     33  C   UNL     1       9.680   0.188  11.215  1.00  0.00     0.029 A 
ATOM     34  C   UNL     1       9.163   1.234  10.465  1.00  0.00     0.049 A 
ATOM     35  H   UNL     1       8.008   1.147   8.703  1.00  0.00     0.167 HD
ATOM     36  C   UNL     1       8.746   3.639   9.945  1.00  0.00     0.074 A 
ATOM     37  C   UNL     1       8.901   5.059  10.207  1.00  0.00     0.031 C 
ATOM     38  C   UNL     1       9.290   2.654  10.703  1.00  0.00     0.034 A 
BRANCH  25  39
ATOM     39  C   UNL     1       8.122  -3.139   8.711  1.00  0.00     0.023 A 
ATOM     40  C   UNL     1       8.661  -3.956   7.694  1.00  0.00     0.031 A 
ATOM     41  C   UNL     1       7.592  -3.776   9.848  1.00  0.00     0.131 A 
ATOM     42  C   UNL     1       8.555  -5.355   7.789  1.00  0.00     0.055 A 
ATOM     43  C   UNL     1       7.575  -5.167   9.976  1.00  0.00     0.041 A 
ATOM     44  F   UNL     1       7.036  -3.059  10.837  1.00  0.00    -0.206 F 
ATOM     45  C   UNL     1       8.037  -5.965   8.935  1.00  0.00     0.022 A 
BRANCH  42  46
ATOM     46  S   UNL     1       8.918  -6.375   6.328  1.00  0.00     0.124 S 
ATOM     47  O   UNL     1       7.918  -5.900   5.374  1.00  0.00    -0.237 OA
ATOM     48  O   UNL     1      10.302  -6.029   6.028  1.00  0.00    -0.237 OA
ATOM     49  O   UNL     1       8.708  -7.742   6.800  1.00  0.00    -0.744 OA
ENDBRANCH  42  46
ENDBRANCH  25  39
BRANCH  26  50
ATOM     50  C   UNL     1       6.753   6.695   6.938  1.00  0.00     0.023 A 
ATOM     51  C   UNL     1       7.814   7.593   6.751  1.00  0.00     0.031 A 
ATOM     52  C   UNL     1       5.443   7.217   6.904  1.00  0.00     0.131 A 
ATOM     53  C   UNL     1       7.555   8.965   6.588  1.00  0.00     0.055 A 
ATOM     54  C   UNL     1       5.189   8.575   6.694  1.00  0.00     0.041 A 
ATOM     55  F   UNL     1       4.384   6.409   7.069  1.00  0.00    -0.206 F 
ATOM     56  C   UNL     1       6.250   9.461   6.549  1.00  0.00     0.022 A 
BRANCH  53  57
ATOM     57  S   UNL     1       8.958  10.114   6.514  1.00  0.00     0.124 S 
ATOM     58  O   UNL     1       9.668   9.799   7.748  1.00  0.00    -0.237 OA
ATOM     59  O   UNL     1       9.613   9.708   5.274  1.00  0.00    -0.237 OA
ATOM     60  O   UNL     1       8.321  11.429   6.478  1.00  0.00    -0.744 OA
ENDBRANCH  53  57
ENDBRANCH  26  50
BRANCH  38  61
ATOM     61  C   UNL     1      10.148   3.097  11.855  1.00  0.00     0.023 A 
ATOM     62  C   UNL     1       9.609   3.799  12.944  1.00  0.00     0.031 A 
ATOM     63  C   UNL     1      11.529   2.833  11.846  1.00  0.00     0.131 A 
ATOM     64  C   UNL     1      10.459   4.280  13.946  1.00  0.00     0.055 A 
ATOM     65  C   UNL     1      12.357   3.241  12.889  1.00  0.00     0.041 A 
ATOM     66  F   UNL     1      12.093   2.174  10.820  1.00  0.00    -0.206 F 
ATOM     67  C   UNL     1      11.825   3.984  13.939  1.00  0.00     0.022 A 
BRANCH  64  68
ATOM     68  S   UNL     1       9.772   5.407  15.186  1.00  0.00     0.124 S 
ATOM     69  O   UNL     1       9.269   6.497  14.355  1.00  0.00    -0.237 OA
ATOM     70  O   UNL     1       8.759   4.580  15.834  1.00  0.00    -0.237 OA
ATOM     71  O   UNL     1      10.925   5.742  16.019  1.00  0.00    -0.744 OA
ENDBRANCH  64  68
ENDBRANCH  38  61
ENDBRANCH  12  13
ENDBRANCH   5   7
ENDBRANCH   4   5
ENDBRANCH   3   4
ENDBRANCH   2   3
ENDBRANCH   1   2
BRANCH   1  72
ATOM     72  C   UNL     1       2.640   2.620  -0.204  1.00  0.00     0.329 C 
ATOM     73  O   UNL     1       1.709   3.012  -0.902  1.00  0.00    -0.250 OA
BRANCH  72  74
ATOM     74  C   UNL     1       2.482   2.380   1.351  1.00  0.00     0.198 C 
ATOM     75  C   UNL     1       2.779   3.768   1.931  1.00  0.00     0.039 C 
ATOM     76  N   UNL     1       3.103   1.311   2.590  1.00  0.00    -0.294 N 
ATOM     77  C   UNL     1       2.313   3.725   3.354  1.00  0.00     0.024 C 
ATOM     78  C   UNL     1       2.459   2.286   3.832  1.00  0.00     0.124 C 
BRANCH  76  79
ATOM     79  C   UNL     1       3.813  -0.548   2.570  1.00  0.00     0.410 C 
ATOM     80  O   UNL     1       4.003  -1.403   3.475  1.00  0.00    -0.224 OA
BRANCH  79  81
ATOM     81  O   UNL     1       4.183  -1.356   1.312  1.00  0.00    -0.445 OA
BRANCH  81  82
ATOM     82  C   UNL     1       4.720  -2.697   1.451  1.00  0.00     0.270 C 
BRANCH  82  83
ATOM     83  C   UNL     1       6.190  -2.663   1.773  1.00  0.00    -0.010 A 
ATOM     84  C   UNL     1       6.809  -3.749   2.397  1.00  0.00     0.009 A 
ATOM     85  C   UNL     1       6.964  -1.539   1.474  1.00  0.00     0.009 A 
ATOM     86  C   UNL     1       8.146  -3.660   2.804  1.00  0.00     0.031 A 
ATOM     87  C   UNL     1       8.273  -1.433   1.921  1.00  0.00     0.031 A 
ATOM     88  C   UNL     1       8.880  -2.486   2.611  1.00  0.00     0.086 A 
BRANCH  88  89
ATOM     89  N   UNL     1      10.220  -2.437   3.035  1.00  0.00    -0.151 NA
ATOM     90  N   UNL     1      10.607  -1.263   3.220  1.00  0.00    -0.151 NA
BRANCH  90  91
ATOM     91  C   UNL     1      11.999  -1.182   3.373  1.00  0.00     0.086 A 
ATOM     92  C   UNL     1      12.521  -0.194   4.213  1.00  0.00     0.030 A 
ATOM     93  C   UNL     1      12.888  -1.990   2.647  1.00  0.00     0.030 A 
ATOM     94  C   UNL     1      13.901  -0.032   4.346  1.00  0.00     0.002 A 
ATOM     95  C   UNL     1      14.267  -1.834   2.781  1.00  0.00     0.002 A 
ATOM     96  C   UNL     1      14.772  -0.855   3.632  1.00  0.00     0.000 A 
ENDBRANCH  90  91
ENDBRANCH  88  89
ENDBRANCH  82  83
ENDBRANCH  81  82
ENDBRANCH  79  81
ENDBRANCH  76  79
ENDBRANCH  72  74
ENDBRANCH   1  72
TORSDOF 20
