REMARK SMILES Cc1cc(NC(=O)c2ccc(Br)cc2N)ccc1C(=O)OCCOC(=O)c1ccc(-c2c3nc(c(-c4cc(S(=O)(=O)[O-])ccc4F)c4ccc([nH]4)c(-c4cc(S(=O)(=O)[O-])ccc4F)c4nc(c(-c5cc(S(=O)(=O)[O-])ccc5F)c5ccc2[nH]5)C=C4)C=C3)cc1
REMARK SMILES IDX 22 1 21 2 19 3 20 4 18 5 1 6 2 7 3 8 4 9 17 10 16 11 5 12
REMARK SMILES IDX 6 13 7 15 8 16 9 17 14 18 10 19 13 20 11 21 12 22 15 23
REMARK SMILES IDX 23 26 24 27 25 28 26 29 27 30 28 31 89 32 29 33 88 34 30 35
REMARK SMILES IDX 31 36 32 37 82 38 33 39 87 40 81 41 83 42 34 43 86 44 80 45
REMARK SMILES IDX 79 46 35 48 67 49 47 50 66 51 48 52 51 53 65 54 84 55 49 56
REMARK SMILES IDX 50 57 64 59 85 60 52 61 36 62 37 63 45 64 38 65 44 66 46 67
REMARK SMILES IDX 43 68 39 69 40 70 41 71 42 72 68 73 69 74 77 75 70 76 76 77
REMARK SMILES IDX 78 78 75 79 71 80 72 81 73 82 74 83 53 84 54 85 62 86 55 87
REMARK SMILES IDX 61 88 63 89 60 90 56 91 57 92 58 93 59 94
REMARK H PARENT 5 14 15 24 15 25 83 47 51 58
REMARK Flexibility Score: inf
ROOT
ATOM      1  C   UNL     1       3.241   2.867  -2.169  1.00  0.00     0.275 C 
ENDROOT
BRANCH   1   2
ATOM      2  O   UNL     1       2.186   1.898  -2.251  1.00  0.00    -0.458 OA
BRANCH   2   3
ATOM      3  C   UNL     1       2.046   1.197  -1.101  1.00  0.00     0.338 C 
ATOM      4  O   UNL     1       2.719   1.326  -0.091  1.00  0.00    -0.246 OA
BRANCH   3   5
ATOM      5  C   UNL     1       1.097   0.083  -1.213  1.00  0.00     0.063 A 
ATOM      6  C   UNL     1       3.046  -1.527  -0.794  1.00  0.00     0.045 C 
ATOM      7  C   UNL     1       1.588  -1.206  -0.976  1.00  0.00    -0.035 A 
ATOM      8  C   UNL     1       0.672  -2.246  -0.812  1.00  0.00     0.030 A 
ATOM      9  C   UNL     1      -0.701  -2.007  -0.763  1.00  0.00     0.041 A 
ATOM     10  C   UNL     1      -0.281   0.307  -1.338  1.00  0.00     0.018 A 
ATOM     11  C   UNL     1      -1.183  -0.741  -1.101  1.00  0.00     0.027 A 
BRANCH   9  12
ATOM     12  N   UNL     1      -1.607  -3.001  -0.350  1.00  0.00    -0.322 N 
ATOM     13  C   UNL     1      -1.367  -4.126   0.424  1.00  0.00     0.257 C 
ATOM     14  H   UNL     1      -2.537  -2.882  -0.652  1.00  0.00     0.170 HD
ATOM     15  O   UNL     1      -2.159  -5.068   0.406  1.00  0.00    -0.269 OA
BRANCH  13  16
ATOM     16  C   UNL     1      -0.171  -4.205   1.313  1.00  0.00     0.063 A 
ATOM     17  C   UNL     1       0.641  -5.346   1.174  1.00  0.00     0.017 A 
ATOM     18  C   UNL     1       0.178  -3.186   2.228  1.00  0.00     0.045 A 
ATOM     19  C   UNL     1       1.817  -5.467   1.915  1.00  0.00     0.016 A 
ATOM     20  C   UNL     1       1.347  -3.347   2.988  1.00  0.00     0.042 A 
ATOM     21  C   UNL     1       2.166  -4.464   2.816  1.00  0.00     0.020 A 
ATOM     22  Br  UNL     1       3.760  -4.623   3.821  1.00  0.00    -0.051 Br
BRANCH  18  23
ATOM     23  N   UNL     1      -0.638  -2.094   2.507  1.00  0.00    -0.398 N 
ATOM     24  H   UNL     1      -1.466  -1.954   1.992  1.00  0.00     0.156 HD
ATOM     25  H   UNL     1      -0.388  -1.462   3.219  1.00  0.00     0.156 HD
ENDBRANCH  18  23
ENDBRANCH  13  16
ENDBRANCH   9  12
ENDBRANCH   3   5
ENDBRANCH   2   3
ENDBRANCH   1   2
BRANCH   1  26
ATOM     26  C   UNL     1       2.946   4.162  -2.936  1.00  0.00     0.275 C 
BRANCH  26  27
ATOM     27  O   UNL     1       1.618   4.751  -2.924  1.00  0.00    -0.458 OA
BRANCH  27  28
ATOM     28  C   UNL     1       0.587   4.287  -2.175  1.00  0.00     0.338 C 
ATOM     29  O   UNL     1      -0.414   3.781  -2.677  1.00  0.00    -0.246 OA
BRANCH  28  30
ATOM     30  C   UNL     1       0.823   4.286  -0.715  1.00  0.00     0.060 A 
ATOM     31  C   UNL     1       0.009   3.483   0.104  1.00  0.00     0.016 A 
ATOM     32  C   UNL     1       1.969   4.888  -0.207  1.00  0.00     0.016 A 
ATOM     33  C   UNL     1       0.416   3.166   1.392  1.00  0.00     0.010 A 
ATOM     34  C   UNL     1       2.461   4.446   0.992  1.00  0.00     0.010 A 
ATOM     35  C   UNL     1       1.664   3.626   1.804  1.00  0.00    -0.014 A 
BRANCH  35  36
ATOM     36  C   UNL     1       2.083   3.643   3.193  1.00  0.00     0.031 A 
ATOM     37  C   UNL     1       2.671   2.457   3.832  1.00  0.00     0.074 A 
ATOM     38  C   UNL     1       1.929   4.881   3.712  1.00  0.00     0.049 A 
ATOM     39  N   UNL     1       2.579   2.182   5.085  1.00  0.00    -0.248 NA
ATOM     40  C   UNL     1       3.367   1.405   3.092  1.00  0.00     0.031 C 
ATOM     41  C   UNL     1       2.390   5.504   4.934  1.00  0.00     0.029 A 
ATOM     42  N   UNL     1       1.087   5.849   3.168  1.00  0.00    -0.354 N 
ATOM     43  C   UNL     1       3.515   1.197   5.353  1.00  0.00     0.074 A 
ATOM     44  C   UNL     1       3.814   0.613   4.074  1.00  0.00     0.031 C 
ATOM     45  C   UNL     1       1.605   6.578   5.182  1.00  0.00     0.029 A 
ATOM     46  C   UNL     1       0.532   6.594   4.185  1.00  0.00     0.049 A 
ATOM     47  H   UNL     1       0.914   5.980   2.208  1.00  0.00     0.167 HD
ATOM     48  C   UNL     1       4.101   1.171   6.586  1.00  0.00     0.034 A 
ATOM     49  C   UNL     1      -0.798   6.386   4.430  1.00  0.00     0.034 A 
ATOM     50  C   UNL     1       3.546   2.257   7.391  1.00  0.00     0.049 A 
ATOM     51  C   UNL     1      -0.946   5.661   5.747  1.00  0.00     0.074 A 
ATOM     52  C   UNL     1       3.997   3.546   7.617  1.00  0.00     0.029 A 
ATOM     53  N   UNL     1       2.201   2.236   7.729  1.00  0.00    -0.354 N 
ATOM     54  N   UNL     1      -0.115   4.755   6.197  1.00  0.00    -0.248 NA
ATOM     55  C   UNL     1      -1.966   6.043   6.712  1.00  0.00     0.031 C 
ATOM     56  C   UNL     1       2.871   4.332   7.982  1.00  0.00     0.029 A 
ATOM     57  C   UNL     1       1.751   3.516   7.983  1.00  0.00     0.049 A 
ATOM     58  H   UNL     1       1.647   1.424   7.780  1.00  0.00     0.167 HD
ATOM     59  C   UNL     1      -0.394   4.524   7.520  1.00  0.00     0.074 A 
ATOM     60  C   UNL     1      -1.573   5.340   7.785  1.00  0.00     0.031 C 
ATOM     61  C   UNL     1       0.365   3.739   8.345  1.00  0.00     0.034 A 
BRANCH  48  62
ATOM     62  C   UNL     1       5.382   0.461   6.983  1.00  0.00     0.023 A 
ATOM     63  C   UNL     1       6.084   0.939   8.115  1.00  0.00     0.031 A 
ATOM     64  C   UNL     1       5.986  -0.629   6.327  1.00  0.00     0.131 A 
ATOM     65  C   UNL     1       7.330   0.413   8.502  1.00  0.00     0.055 A 
ATOM     66  C   UNL     1       7.239  -1.145   6.701  1.00  0.00     0.041 A 
ATOM     67  F   UNL     1       5.384  -1.273   5.321  1.00  0.00    -0.206 F 
ATOM     68  C   UNL     1       7.923  -0.620   7.788  1.00  0.00     0.022 A 
BRANCH  65  69
ATOM     69  S   UNL     1       8.163   1.114   9.954  1.00  0.00     0.124 S 
ATOM     70  O   UNL     1       8.380   2.498   9.546  1.00  0.00    -0.237 OA
ATOM     71  O   UNL     1       7.183   0.897  11.011  1.00  0.00    -0.237 OA
ATOM     72  O   UNL     1       9.380   0.309  10.068  1.00  0.00    -0.744 OA
ENDBRANCH  65  69
ENDBRANCH  48  62
BRANCH  49  73
ATOM     73  C   UNL     1      -1.653   6.180   3.200  1.00  0.00     0.023 A 
ATOM     74  C   UNL     1      -1.484   7.081   2.119  1.00  0.00     0.031 A 
ATOM     75  C   UNL     1      -2.420   5.035   2.944  1.00  0.00     0.131 A 
ATOM     76  C   UNL     1      -1.932   6.769   0.824  1.00  0.00     0.055 A 
ATOM     77  C   UNL     1      -2.931   4.757   1.659  1.00  0.00     0.041 A 
ATOM     78  F   UNL     1      -2.631   4.120   3.900  1.00  0.00    -0.206 F 
ATOM     79  C   UNL     1      -2.659   5.606   0.585  1.00  0.00     0.022 A 
BRANCH  76  80
ATOM     80  S   UNL     1      -1.323   7.773  -0.567  1.00  0.00     0.124 S 
ATOM     81  O   UNL     1      -2.234   8.912  -0.545  1.00  0.00    -0.237 OA
ATOM     82  O   UNL     1       0.058   8.051  -0.173  1.00  0.00    -0.237 OA
ATOM     83  O   UNL     1      -1.456   6.883  -1.715  1.00  0.00    -0.744 OA
ENDBRANCH  76  80
ENDBRANCH  49  73
BRANCH  61  84
ATOM     84  C   UNL     1      -0.124   3.181   9.656  1.00  0.00     0.023 A 
ATOM     85  C   UNL     1      -1.483   3.151   9.975  1.00  0.00     0.031 A 
ATOM     86  C   UNL     1       0.743   2.562  10.588  1.00  0.00     0.131 A 
ATOM     87  C   UNL     1      -1.922   2.688  11.217  1.00  0.00     0.055 A 
ATOM     88  C   UNL     1       0.284   1.968  11.765  1.00  0.00     0.041 A 
ATOM     89  F   UNL     1       2.068   2.493  10.395  1.00  0.00    -0.206 F 
ATOM     90  C   UNL     1      -1.056   2.059  12.104  1.00  0.00     0.022 A 
BRANCH  87  91
ATOM     91  S   UNL     1      -3.624   3.078  11.678  1.00  0.00     0.124 S 
ATOM     92  O   UNL     1      -3.607   4.539  11.654  1.00  0.00    -0.237 OA
ATOM     93  O   UNL     1      -4.393   2.439  10.616  1.00  0.00    -0.237 OA
ATOM     94  O   UNL     1      -3.765   2.479  13.002  1.00  0.00    -0.744 OA
ENDBRANCH  87  91
ENDBRANCH  61  84
ENDBRANCH  35  36
ENDBRANCH  28  30
ENDBRANCH  27  28
ENDBRANCH  26  27
ENDBRANCH   1  26
TORSDOF 17
