REMARK SMILES C[C@@H]1C[N@@H+]([C@@H]2CC[C@]([NH2+]C3CC3)(C(=O)OCCOC(=O)c3ccc(-c4c5nc(c(-c6cc(S(=O)(=O)[O-])ccc6F)c6ccc([nH]6)c(-c6cc(S(=O)(=O)[O-])ccc6F)c6nc(c(-c7cc(S(=O)(=O)[O-])ccc7F)c7ccc4[nH]7)C=C6)C=C5)cc3)C2)CC(C)(C)O1
REMARK SMILES IDX 17 1 16 2 15 3 13 4 14 5 8 6 5 7 6 8 84 9 7 10 4 11 1 12
REMARK SMILES IDX 2 13 3 14 89 15 86 16 85 17 87 19 88 20 9 21 10 24 11 25
REMARK SMILES IDX 12 26 18 27 19 28 20 29 21 30 22 31 83 32 23 33 82 34 24 35
REMARK SMILES IDX 25 36 26 37 76 38 27 39 81 40 75 41 77 42 28 43 80 44 74 45
REMARK SMILES IDX 73 46 29 48 61 49 41 50 60 51 42 52 45 53 59 54 78 55 43 56
REMARK SMILES IDX 44 57 58 59 79 60 46 61 30 62 31 63 39 64 32 65 38 66 40 67
REMARK SMILES IDX 37 68 33 69 34 70 35 71 36 72 62 73 63 74 71 75 64 76 70 77
REMARK SMILES IDX 72 78 69 79 65 80 66 81 67 82 68 83 47 84 48 85 56 86 49 87
REMARK SMILES IDX 55 88 57 89 54 90 50 91 51 92 52 93 53 94
REMARK H PARENT 4 18 9 22 9 23 77 47 45 58
REMARK Flexibility Score: inf
ROOT
ATOM      1  C   UNL     1      -7.303  -0.190   0.995  1.00  0.00     0.275 C 
ENDROOT
BRANCH   1   2
ATOM      2  C   UNL     1      -6.141  -1.109   0.618  1.00  0.00     0.274 C 
BRANCH   2   3
ATOM      3  O   UNL     1      -5.094  -0.351  -0.023  1.00  0.00    -0.457 OA
BRANCH   3   4
ATOM      4  C   UNL     1      -5.117  -0.375  -1.390  1.00  0.00     0.368 C 
ATOM      5  O   UNL     1      -5.888  -1.070  -2.047  1.00  0.00    -0.245 OA
BRANCH   4   6
ATOM      6  C   UNL     1      -4.128   0.649  -2.024  1.00  0.00     0.200 C 
ATOM      7  C   UNL     1      -1.998   1.690  -1.548  1.00  0.00     0.191 C 
ATOM      8  C   UNL     1      -3.063   2.612  -0.954  1.00  0.00     0.072 C 
ATOM      9  C   UNL     1      -2.688   0.325  -1.593  1.00  0.00     0.146 C 
ATOM     10  C   UNL     1      -4.398   2.075  -1.476  1.00  0.00     0.087 C 
BRANCH   7  11
ATOM     11  N   UNL     1      -0.673   1.676  -0.928  1.00  0.00    -0.328 N 
ATOM     12  C   UNL     1       1.408  -0.112   0.584  1.00  0.00     0.045 C 
ATOM     13  C   UNL     1       0.814   1.232   0.999  1.00  0.00     0.171 C 
ATOM     14  C   UNL     1      -0.640   1.412   0.519  1.00  0.00     0.294 C 
ATOM     15  O   UNL     1       1.662   2.336   0.641  1.00  0.00    -0.361 OA
ATOM     16  C   UNL     1       1.532   2.835  -0.707  1.00  0.00     0.112 C 
ATOM     17  C   UNL     1       0.051   2.943  -1.156  1.00  0.00     0.297 C 
ATOM     18  H   UNL     1      -0.223   0.887  -1.391  1.00  0.00     0.348 HD
ATOM     19  C   UNL     1       2.353   1.987  -1.688  1.00  0.00     0.048 C 
ATOM     20  C   UNL     1       2.142   4.245  -0.675  1.00  0.00     0.048 C 
ENDBRANCH   7  11
BRANCH   6  21
ATOM     21  N   UNL     1      -4.303   0.543  -3.496  1.00  0.00    -0.329 N 
ATOM     22  H   UNL     1      -5.304   0.610  -3.679  1.00  0.00     0.347 HD
ATOM     23  H   UNL     1      -3.842  -0.339  -3.723  1.00  0.00     0.347 HD
BRANCH  21  24
ATOM     24  C   UNL     1      -3.648   1.500  -4.381  1.00  0.00     0.183 C 
ATOM     25  C   UNL     1      -2.606   0.985  -5.334  1.00  0.00     0.071 C 
ATOM     26  C   UNL     1      -3.941   1.425  -5.855  1.00  0.00     0.071 C 
ENDBRANCH  21  24
ENDBRANCH   6  21
ENDBRANCH   4   6
ENDBRANCH   3   4
ENDBRANCH   2   3
ENDBRANCH   1   2
BRANCH   1  27
ATOM     27  O   UNL     1      -7.773   0.481  -0.184  1.00  0.00    -0.458 OA
BRANCH  27  28
ATOM     28  C   UNL     1      -8.261   1.731   0.003  1.00  0.00     0.338 C 
ATOM     29  O   UNL     1      -8.449   2.282   1.073  1.00  0.00    -0.246 OA
BRANCH  28  30
ATOM     30  C   UNL     1      -8.525   2.362  -1.313  1.00  0.00     0.060 A 
ATOM     31  C   UNL     1      -7.698   2.106  -2.408  1.00  0.00     0.016 A 
ATOM     32  C   UNL     1      -9.565   3.281  -1.440  1.00  0.00     0.016 A 
ATOM     33  C   UNL     1      -7.849   2.814  -3.599  1.00  0.00     0.010 A 
ATOM     34  C   UNL     1      -9.782   3.916  -2.669  1.00  0.00     0.010 A 
ATOM     35  C   UNL     1      -8.911   3.710  -3.756  1.00  0.00    -0.014 A 
BRANCH  35  36
ATOM     36  C   UNL     1      -9.101   4.461  -5.029  1.00  0.00     0.031 A 
ATOM     37  C   UNL     1      -9.120   5.967  -5.008  1.00  0.00     0.074 A 
ATOM     38  C   UNL     1      -9.269   3.811  -6.199  1.00  0.00     0.049 A 
ATOM     39  N   UNL     1      -9.521   6.807  -5.927  1.00  0.00    -0.248 NA
ATOM     40  C   UNL     1      -8.640   6.607  -3.774  1.00  0.00     0.031 C 
ATOM     41  C   UNL     1      -9.203   2.360  -6.384  1.00  0.00     0.029 A 
ATOM     42  N   UNL     1      -9.537   4.291  -7.458  1.00  0.00    -0.354 N 
ATOM     43  C   UNL     1      -9.399   8.073  -5.362  1.00  0.00     0.074 A 
ATOM     44  C   UNL     1      -8.895   7.884  -4.018  1.00  0.00     0.031 C 
ATOM     45  C   UNL     1      -9.403   2.071  -7.679  1.00  0.00     0.029 A 
ATOM     46  C   UNL     1      -9.712   3.301  -8.399  1.00  0.00     0.049 A 
ATOM     47  H   UNL     1      -9.599   5.251  -7.668  1.00  0.00     0.167 HD
ATOM     48  C   UNL     1      -9.687   9.278  -5.916  1.00  0.00     0.034 A 
ATOM     49  C   UNL     1     -10.132   3.365  -9.678  1.00  0.00     0.034 A 
ATOM     50  C   UNL     1     -10.152   9.448  -7.271  1.00  0.00     0.049 A 
ATOM     51  C   UNL     1     -10.507   4.705 -10.254  1.00  0.00     0.074 A 
ATOM     52  C   UNL     1     -10.477  10.619  -7.935  1.00  0.00     0.029 A 
ATOM     53  N   UNL     1     -10.349   8.414  -8.178  1.00  0.00    -0.354 N 
ATOM     54  N   UNL     1     -10.476   5.888  -9.684  1.00  0.00    -0.248 NA
ATOM     55  C   UNL     1     -10.992   4.716 -11.640  1.00  0.00     0.031 C 
ATOM     56  C   UNL     1     -10.918  10.289  -9.222  1.00  0.00     0.029 A 
ATOM     57  C   UNL     1     -10.807   8.918  -9.386  1.00  0.00     0.049 A 
ATOM     58  H   UNL     1     -10.188   7.461  -7.991  1.00  0.00     0.167 HD
ATOM     59  C   UNL     1     -10.921   6.785 -10.650  1.00  0.00     0.074 A 
ATOM     60  C   UNL     1     -11.197   6.009 -11.842  1.00  0.00     0.031 C 
ATOM     61  C   UNL     1     -11.088   8.129 -10.561  1.00  0.00     0.034 A 
BRANCH  48  62
ATOM     62  C   UNL     1      -9.569  10.494  -5.027  1.00  0.00     0.023 A 
ATOM     63  C   UNL     1      -8.336  10.921  -4.505  1.00  0.00     0.031 A 
ATOM     64  C   UNL     1     -10.722  11.213  -4.663  1.00  0.00     0.131 A 
ATOM     65  C   UNL     1      -8.295  11.984  -3.589  1.00  0.00     0.055 A 
ATOM     66  C   UNL     1     -10.664  12.320  -3.814  1.00  0.00     0.041 A 
ATOM     67  F   UNL     1     -11.931  10.839  -5.112  1.00  0.00    -0.206 F 
ATOM     68  C   UNL     1      -9.447  12.702  -3.259  1.00  0.00     0.022 A 
BRANCH  65  69
ATOM     69  S   UNL     1      -6.737  12.322  -2.723  1.00  0.00     0.124 S 
ATOM     70  O   UNL     1      -6.485  11.044  -2.060  1.00  0.00    -0.237 OA
ATOM     71  O   UNL     1      -5.835  12.662  -3.817  1.00  0.00    -0.237 OA
ATOM     72  O   UNL     1      -7.076  13.425  -1.825  1.00  0.00    -0.744 OA
ENDBRANCH  65  69
ENDBRANCH  48  62
BRANCH  49  73
ATOM     73  C   UNL     1     -10.301   2.119 -10.481  1.00  0.00     0.023 A 
ATOM     74  C   UNL     1      -9.530   1.888 -11.630  1.00  0.00     0.031 A 
ATOM     75  C   UNL     1     -11.269   1.160 -10.132  1.00  0.00     0.131 A 
ATOM     76  C   UNL     1      -9.764   0.745 -12.410  1.00  0.00     0.055 A 
ATOM     77  C   UNL     1     -11.460  -0.003 -10.880  1.00  0.00     0.041 A 
ATOM     78  F   UNL     1     -12.037   1.333  -9.044  1.00  0.00    -0.206 F 
ATOM     79  C   UNL     1     -10.712  -0.209 -12.034  1.00  0.00     0.022 A 
BRANCH  76  80
ATOM     80  S   UNL     1      -8.861   0.559 -13.972  1.00  0.00     0.124 S 
ATOM     81  O   UNL     1      -9.261   1.764 -14.691  1.00  0.00    -0.237 OA
ATOM     82  O   UNL     1      -7.475   0.514 -13.518  1.00  0.00    -0.237 OA
ATOM     83  O   UNL     1      -9.377  -0.694 -14.517  1.00  0.00    -0.744 OA
ENDBRANCH  76  80
ENDBRANCH  49  73
BRANCH  61  84
ATOM     84  C   UNL     1     -11.547   8.839 -11.809  1.00  0.00     0.023 A 
ATOM     85  C   UNL     1     -12.845   8.671 -12.321  1.00  0.00     0.031 A 
ATOM     86  C   UNL     1     -10.661   9.679 -12.507  1.00  0.00     0.131 A 
ATOM     87  C   UNL     1     -13.204   9.292 -13.527  1.00  0.00     0.055 A 
ATOM     88  C   UNL     1     -11.041  10.336 -13.677  1.00  0.00     0.041 A 
ATOM     89  F   UNL     1      -9.409   9.872 -12.061  1.00  0.00    -0.206 F 
ATOM     90  C   UNL     1     -12.315  10.135 -14.200  1.00  0.00     0.022 A 
BRANCH  87  91
ATOM     91  S   UNL     1     -14.825   8.919 -14.251  1.00  0.00     0.124 S 
ATOM     92  O   UNL     1     -14.752   7.473 -14.432  1.00  0.00    -0.237 OA
ATOM     93  O   UNL     1     -15.744   9.387 -13.218  1.00  0.00    -0.237 OA
ATOM     94  O   UNL     1     -14.837   9.699 -15.487  1.00  0.00    -0.744 OA
ENDBRANCH  87  91
ENDBRANCH  61  84
ENDBRANCH  35  36
ENDBRANCH  28  30
ENDBRANCH  27  28
ENDBRANCH   1  27
TORSDOF 17
