REMARK SMILES COc1ccc(-c2nc(SCC(=O)OCCOC(=O)c3ccc(-c4c5nc(c(-c6cc(S(=O)(=O)[O-])ccc6F)c6ccc([nH]6)c(-c6cc(S(=O)(=O)[O-])ccc6F)c6nc(c(-c7cc(S(=O)(=O)[O-])ccc7F)c7ccc4[nH]7)C=C6)C=C5)cc3)cc(-c3ccncc3)n2)cc1
REMARK SMILES IDX 15 1 14 2 12 3 13 4 11 5 10 6 9 7 7 8 8 9 91 10 84 11 83 12
REMARK SMILES IDX 6 13 3 14 4 15 93 16 5 17 92 18 2 19 1 20 85 21 86 22 90 23
REMARK SMILES IDX 87 24 89 25 88 26 16 27 17 28 18 29 19 30 20 31 21 32 82 33
REMARK SMILES IDX 22 34 81 35 23 36 24 37 25 38 75 39 26 40 80 41 74 42 76 43
REMARK SMILES IDX 27 44 79 45 73 46 72 47 28 49 60 50 40 51 59 52 41 53 44 54
REMARK SMILES IDX 58 55 77 56 42 57 43 58 57 60 78 61 45 62 29 63 30 64 38 65
REMARK SMILES IDX 31 66 37 67 39 68 36 69 32 70 33 71 34 72 35 73 61 74 62 75
REMARK SMILES IDX 70 76 63 77 69 78 71 79 68 80 64 81 65 82 66 83 67 84 46 85
REMARK SMILES IDX 47 86 55 87 48 88 54 89 56 90 53 91 49 92 50 93 51 94 52 95
REMARK H PARENT 76 48 44 59
REMARK Flexibility Score: inf
ROOT
ATOM      1  C   UNL     1       4.782   0.295  11.303  1.00  0.00     0.274 C 
ENDROOT
BRANCH   1   2
ATOM      2  O   UNL     1       3.674   0.760  10.504  1.00  0.00    -0.461 OA
BRANCH   2   3
ATOM      3  C   UNL     1       2.710   1.448  11.171  1.00  0.00     0.316 C 
ATOM      4  O   UNL     1       2.773   1.721  12.368  1.00  0.00    -0.251 OA
BRANCH   3   5
ATOM      5  C   UNL     1       1.561   1.941  10.316  1.00  0.00     0.199 C 
BRANCH   5   6
ATOM      6  S   UNL     1       1.303   1.026   8.774  1.00  0.00    -0.094 SA
BRANCH   6   7
ATOM      7  C   UNL     1       1.855   2.129   7.484  1.00  0.00     0.101 A 
ATOM      8  C   UNL     1       1.819   2.469   5.220  1.00  0.00     0.161 A 
ATOM      9  N   UNL     1       1.348   1.801   6.283  1.00  0.00    -0.222 NA
ATOM     10  N   UNL     1       2.757   3.420   5.256  1.00  0.00    -0.228 NA
ATOM     11  C   UNL     1       3.226   3.754   6.465  1.00  0.00     0.076 A 
ATOM     12  C   UNL     1       2.785   3.138   7.625  1.00  0.00     0.064 A 
BRANCH   8  13
ATOM     13  C   UNL     1       1.397   2.019   3.901  1.00  0.00     0.019 A 
ATOM     14  C   UNL     1       0.617   1.120   1.353  1.00  0.00     0.118 A 
ATOM     15  C   UNL     1      -0.325   1.662   2.229  1.00  0.00     0.047 A 
ATOM     16  C   UNL     1       1.958   1.060   1.731  1.00  0.00     0.047 A 
ATOM     17  C   UNL     1       0.058   2.092   3.501  1.00  0.00     0.016 A 
ATOM     18  C   UNL     1       2.342   1.511   2.995  1.00  0.00     0.016 A 
BRANCH  14  19
ATOM     19  O   UNL     1       0.127   0.706   0.145  1.00  0.00    -0.497 OA
ATOM     20  C   UNL     1       0.870  -0.332  -0.482  1.00  0.00     0.278 C 
ENDBRANCH  14  19
ENDBRANCH   8  13
BRANCH  11  21
ATOM     21  C   UNL     1       4.330   4.716   6.422  1.00  0.00     0.003 A 
ATOM     22  C   UNL     1       5.648   4.285   6.605  1.00  0.00     0.030 A 
ATOM     23  C   UNL     1       4.128   6.060   6.103  1.00  0.00     0.030 A 
ATOM     24  C   UNL     1       6.679   5.205   6.542  1.00  0.00     0.111 A 
ATOM     25  C   UNL     1       5.226   6.909   6.052  1.00  0.00     0.111 A 
ATOM     26  N   UNL     1       6.497   6.513   6.287  1.00  0.00    -0.265 NA
ENDBRANCH  11  21
ENDBRANCH   6   7
ENDBRANCH   5   6
ENDBRANCH   3   5
ENDBRANCH   2   3
ENDBRANCH   1   2
BRANCH   1  27
ATOM     27  C   UNL     1       6.010   1.193  11.163  1.00  0.00     0.275 C 
BRANCH  27  28
ATOM     28  O   UNL     1       5.683   2.574  11.411  1.00  0.00    -0.458 OA
BRANCH  28  29
ATOM     29  C   UNL     1       5.484   3.279  10.276  1.00  0.00     0.338 C 
ATOM     30  O   UNL     1       5.583   2.844   9.141  1.00  0.00    -0.246 OA
BRANCH  29  31
ATOM     31  C   UNL     1       5.079   4.671  10.528  1.00  0.00     0.060 A 
ATOM     32  C   UNL     1       3.831   4.962  11.084  1.00  0.00     0.016 A 
ATOM     33  C   UNL     1       5.873   5.694  10.006  1.00  0.00     0.016 A 
ATOM     34  C   UNL     1       3.358   6.277  11.078  1.00  0.00     0.010 A 
ATOM     35  C   UNL     1       5.419   7.013  10.042  1.00  0.00     0.010 A 
ATOM     36  C   UNL     1       4.155   7.314  10.569  1.00  0.00    -0.014 A 
BRANCH  36  37
ATOM     37  C   UNL     1       3.738   8.731  10.701  1.00  0.00     0.031 A 
ATOM     38  C   UNL     1       3.309   9.543   9.515  1.00  0.00     0.074 A 
ATOM     39  C   UNL     1       3.833   9.303  11.915  1.00  0.00     0.049 A 
ATOM     40  N   UNL     1       3.135  10.834   9.408  1.00  0.00    -0.248 NA
ATOM     41  C   UNL     1       3.047   8.797   8.280  1.00  0.00     0.031 C 
ATOM     42  C   UNL     1       4.226   8.607  13.142  1.00  0.00     0.029 A 
ATOM     43  N   UNL     1       3.638  10.599  12.309  1.00  0.00    -0.354 N 
ATOM     44  C   UNL     1       2.787  11.067   8.081  1.00  0.00     0.074 A 
ATOM     45  C   UNL     1       2.774   9.775   7.424  1.00  0.00     0.031 C 
ATOM     46  C   UNL     1       4.268   9.490  14.149  1.00  0.00     0.029 A 
ATOM     47  C   UNL     1       3.957  10.816  13.626  1.00  0.00     0.049 A 
ATOM     48  H   UNL     1       3.303  11.304  11.709  1.00  0.00     0.167 HD
ATOM     49  C   UNL     1       2.508  12.251   7.478  1.00  0.00     0.034 A 
ATOM     50  C   UNL     1       4.040  11.960  14.327  1.00  0.00     0.034 A 
ATOM     51  C   UNL     1       2.482  13.519   8.171  1.00  0.00     0.049 A 
ATOM     52  C   UNL     1       3.718  13.255  13.645  1.00  0.00     0.074 A 
ATOM     53  C   UNL     1       2.161  14.772   7.673  1.00  0.00     0.029 A 
ATOM     54  N   UNL     1       2.784  13.696   9.515  1.00  0.00    -0.354 N 
ATOM     55  N   UNL     1       3.426  13.470  12.384  1.00  0.00    -0.248 NA
ATOM     56  C   UNL     1       3.726  14.458  14.484  1.00  0.00     0.031 C 
ATOM     57  C   UNL     1       2.308  15.708   8.705  1.00  0.00     0.029 A 
ATOM     58  C   UNL     1       2.668  15.035   9.860  1.00  0.00     0.049 A 
ATOM     59  H   UNL     1       3.043  12.976  10.134  1.00  0.00     0.167 HD
ATOM     60  C   UNL     1       3.205  14.838  12.278  1.00  0.00     0.074 A 
ATOM     61  C   UNL     1       3.384  15.391  13.607  1.00  0.00     0.031 C 
ATOM     62  C   UNL     1       2.878  15.570  11.183  1.00  0.00     0.034 A 
BRANCH  49  63
ATOM     63  C   UNL     1       2.249  12.243   5.990  1.00  0.00     0.023 A 
ATOM     64  C   UNL     1       1.108  11.641   5.433  1.00  0.00     0.031 A 
ATOM     65  C   UNL     1       3.157  12.867   5.115  1.00  0.00     0.131 A 
ATOM     66  C   UNL     1       0.930  11.634   4.040  1.00  0.00     0.055 A 
ATOM     67  C   UNL     1       2.943  12.910   3.735  1.00  0.00     0.041 A 
ATOM     68  F   UNL     1       4.272  13.446   5.588  1.00  0.00    -0.206 F 
ATOM     69  C   UNL     1       1.829  12.282   3.189  1.00  0.00     0.022 A 
BRANCH  66  70
ATOM     70  S   UNL     1      -0.440  10.669   3.345  1.00  0.00     0.124 S 
ATOM     71  O   UNL     1      -0.135   9.329   3.841  1.00  0.00    -0.237 OA
ATOM     72  O   UNL     1      -1.608  11.316   3.930  1.00  0.00    -0.237 OA
ATOM     73  O   UNL     1      -0.286  10.844   1.902  1.00  0.00    -0.744 OA
ENDBRANCH  66  70
ENDBRANCH  49  63
BRANCH  50  74
ATOM     74  C   UNL     1       4.491  11.915  15.739  1.00  0.00     0.023 A 
ATOM     75  C   UNL     1       3.587  12.112  16.791  1.00  0.00     0.031 A 
ATOM     76  C   UNL     1       5.831  11.625  16.052  1.00  0.00     0.131 A 
ATOM     77  C   UNL     1       4.038  12.031  18.116  1.00  0.00     0.055 A 
ATOM     78  C   UNL     1       6.268  11.515  17.371  1.00  0.00     0.041 A 
ATOM     79  F   UNL     1       6.723  11.406  15.073  1.00  0.00    -0.206 F 
ATOM     80  C   UNL     1       5.369  11.724  18.413  1.00  0.00     0.022 A 
BRANCH  77  81
ATOM     81  S   UNL     1       2.857  12.354  19.452  1.00  0.00     0.124 S 
ATOM     82  O   UNL     1       2.413  13.708  19.139  1.00  0.00    -0.237 OA
ATOM     83  O   UNL     1       1.875  11.294  19.248  1.00  0.00    -0.237 OA
ATOM     84  O   UNL     1       3.668  12.225  20.660  1.00  0.00    -0.744 OA
ENDBRANCH  77  81
ENDBRANCH  50  74
BRANCH  62  85
ATOM     85  C   UNL     1       2.667  17.042  11.408  1.00  0.00     0.023 A 
ATOM     86  C   UNL     1       3.744  17.901  11.684  1.00  0.00     0.031 A 
ATOM     87  C   UNL     1       1.369  17.578  11.400  1.00  0.00     0.131 A 
ATOM     88  C   UNL     1       3.498  19.244  12.002  1.00  0.00     0.055 A 
ATOM     89  C   UNL     1       1.134  18.927  11.671  1.00  0.00     0.041 A 
ATOM     90  F   UNL     1       0.308  16.796  11.146  1.00  0.00    -0.206 F 
ATOM     91  C   UNL     1       2.200  19.765  11.988  1.00  0.00     0.022 A 
BRANCH  88  92
ATOM     92  S   UNL     1       4.888  20.283  12.528  1.00  0.00     0.124 S 
ATOM     93  O   UNL     1       5.392  19.552  13.686  1.00  0.00    -0.237 OA
ATOM     94  O   UNL     1       5.746  20.277  11.348  1.00  0.00    -0.237 OA
ATOM     95  O   UNL     1       4.261  21.568  12.832  1.00  0.00    -0.744 OA
ENDBRANCH  88  92
ENDBRANCH  62  85
ENDBRANCH  36  37
ENDBRANCH  29  31
ENDBRANCH  28  29
ENDBRANCH  27  28
ENDBRANCH   1  27
TORSDOF 19
