REMARK SMILES CC(C)[C@H](C[NH+](C)C)NC(=O)c1csc(/C=C/C(=O)OCCOC(=O)c2ccc(-c3c4nc(c(-c5cc(S(=O)(=O)[O-])ccc5F)c5ccc([nH]5)c(-c5cc(S(=O)(=O)[O-])ccc5F)c5nc(c(-c6cc(S(=O)(=O)[O-])ccc6F)c6ccc3[nH]6)C=C5)C=C4)cc2)c1
REMARK SMILES IDX 21 1 20 2 18 3 19 4 17 5 16 6 15 7 12 8 13 9 89 10 14 11
REMARK SMILES IDX 10 12 9 13 11 15 4 16 2 17 1 18 3 19 5 20 6 21 7 22 8 23
REMARK SMILES IDX 22 25 23 26 24 27 25 28 26 29 27 30 88 31 28 32 87 33 29 34
REMARK SMILES IDX 30 35 31 36 81 37 32 38 86 39 80 40 82 41 33 42 85 43 79 44
REMARK SMILES IDX 78 45 34 47 66 48 46 49 65 50 47 51 50 52 64 53 83 54 48 55
REMARK SMILES IDX 49 56 63 58 84 59 51 60 35 61 36 62 44 63 37 64 43 65 45 66
REMARK SMILES IDX 42 67 38 68 39 69 40 70 41 71 67 72 68 73 76 74 69 75 75 76
REMARK SMILES IDX 77 77 74 78 70 79 71 80 72 81 73 82 52 83 53 84 61 85 54 86
REMARK SMILES IDX 60 87 62 88 59 89 55 90 56 91 57 92 58 93
REMARK H PARENT 9 14 6 24 82 46 50 57
REMARK Flexibility Score: inf
ROOT
ATOM      1  C   UNL     1      -3.228  -8.187   6.559  1.00  0.00     0.275 C 
ENDROOT
BRANCH   1   2
ATOM      2  O   UNL     1      -3.269  -7.338   5.397  1.00  0.00    -0.459 OA
BRANCH   2   3
ATOM      3  C   UNL     1      -4.312  -6.477   5.347  1.00  0.00     0.330 C 
ATOM      4  O   UNL     1      -5.249  -6.439   6.131  1.00  0.00    -0.247 OA
BRANCH   3   5
ATOM      5  C   UNL     1      -4.199  -5.502   4.248  1.00  0.00     0.095 C 
ATOM      6  C   UNL     1      -3.220  -5.460   3.329  1.00  0.00     0.026 C 
BRANCH   6   7
ATOM      7  C   UNL     1      -3.169  -4.436   2.334  1.00  0.00     0.028 A 
ATOM      8  C   UNL     1      -2.803  -3.299   0.285  1.00  0.00     0.051 A 
ATOM      9  C   UNL     1      -3.349  -2.307   1.074  1.00  0.00     0.079 A 
ATOM     10  C   UNL     1      -2.722  -4.531   1.026  1.00  0.00     0.033 A 
ATOM     11  S   UNL     1      -3.639  -2.812   2.673  1.00  0.00    -0.144 S 
BRANCH   8  12
ATOM     12  C   UNL     1      -2.470  -3.159  -1.128  1.00  0.00     0.252 C 
ATOM     13  N   UNL     1      -1.861  -2.020  -1.584  1.00  0.00    -0.343 N 
ATOM     14  H   UNL     1      -1.954  -1.860  -2.551  1.00  0.00     0.164 HD
ATOM     15  O   UNL     1      -2.711  -4.059  -1.932  1.00  0.00    -0.269 OA
BRANCH  13  16
ATOM     16  C   UNL     1      -1.092  -1.000  -0.862  1.00  0.00     0.139 C 
BRANCH  16  17
ATOM     17  C   UNL     1      -1.383   0.416  -1.439  1.00  0.00     0.011 C 
ATOM     18  C   UNL     1      -2.884   0.646  -1.683  1.00  0.00     0.010 C 
ATOM     19  C   UNL     1      -0.887   1.518  -0.492  1.00  0.00     0.010 C 
ENDBRANCH  16  17
BRANCH  16  20
ATOM     20  C   UNL     1       0.429  -1.373  -0.845  1.00  0.00     0.287 C 
BRANCH  20  21
ATOM     21  N   UNL     1       1.041  -1.692  -2.164  1.00  0.00    -0.338 N 
ATOM     22  C   UNL     1       2.465  -1.326  -2.145  1.00  0.00     0.332 C 
ATOM     23  C   UNL     1       0.952  -3.131  -2.457  1.00  0.00     0.332 C 
ATOM     24  H   UNL     1       0.535  -1.167  -2.877  1.00  0.00     0.347 HD
ENDBRANCH  20  21
ENDBRANCH  16  20
ENDBRANCH  13  16
ENDBRANCH   8  12
ENDBRANCH   6   7
ENDBRANCH   3   5
ENDBRANCH   2   3
ENDBRANCH   1   2
BRANCH   1  25
ATOM     25  C   UNL     1      -2.221  -7.676   7.595  1.00  0.00     0.275 C 
BRANCH  25  26
ATOM     26  O   UNL     1      -2.587  -6.389   8.129  1.00  0.00    -0.458 OA
BRANCH  26  27
ATOM     27  C   UNL     1      -2.071  -5.328   7.457  1.00  0.00     0.338 C 
ATOM     28  O   UNL     1      -1.336  -5.375   6.485  1.00  0.00    -0.246 OA
BRANCH  27  29
ATOM     29  C   UNL     1      -2.617  -4.064   7.991  1.00  0.00     0.060 A 
ATOM     30  C   UNL     1      -3.088  -3.123   7.071  1.00  0.00     0.016 A 
ATOM     31  C   UNL     1      -2.605  -3.767   9.357  1.00  0.00     0.016 A 
ATOM     32  C   UNL     1      -3.545  -1.882   7.512  1.00  0.00     0.010 A 
ATOM     33  C   UNL     1      -3.063  -2.517   9.798  1.00  0.00     0.010 A 
ATOM     34  C   UNL     1      -3.526  -1.562   8.877  1.00  0.00    -0.014 A 
BRANCH  34  35
ATOM     35  C   UNL     1      -3.964  -0.208   9.308  1.00  0.00     0.031 A 
ATOM     36  C   UNL     1      -2.947   0.836   9.679  1.00  0.00     0.074 A 
ATOM     37  C   UNL     1      -5.275   0.099   9.309  1.00  0.00     0.049 A 
ATOM     38  N   UNL     1      -3.130   2.087  10.018  1.00  0.00    -0.248 NA
ATOM     39  C   UNL     1      -1.540   0.413   9.669  1.00  0.00     0.031 C 
ATOM     40  C   UNL     1      -6.353  -0.825   8.954  1.00  0.00     0.029 A 
ATOM     41  N   UNL     1      -5.923   1.272   9.604  1.00  0.00    -0.354 N 
ATOM     42  C   UNL     1      -1.862   2.607  10.255  1.00  0.00     0.074 A 
ATOM     43  C   UNL     1      -0.924   1.519  10.064  1.00  0.00     0.031 C 
ATOM     44  C   UNL     1      -7.527  -0.178   9.036  1.00  0.00     0.029 A 
ATOM     45  C   UNL     1      -7.291   1.194   9.479  1.00  0.00     0.049 A 
ATOM     46  H   UNL     1      -5.453   2.092   9.878  1.00  0.00     0.167 HD
ATOM     47  C   UNL     1      -1.513   3.876  10.589  1.00  0.00     0.034 A 
ATOM     48  C   UNL     1      -8.246   2.118   9.705  1.00  0.00     0.034 A 
ATOM     49  C   UNL     1      -2.460   4.948  10.792  1.00  0.00     0.049 A 
ATOM     50  C   UNL     1      -7.836   3.505  10.133  1.00  0.00     0.074 A 
ATOM     51  C   UNL     1      -2.209   6.272  11.111  1.00  0.00     0.029 A 
ATOM     52  N   UNL     1      -3.841   4.819  10.710  1.00  0.00    -0.354 N 
ATOM     53  N   UNL     1      -6.630   3.989  10.327  1.00  0.00    -0.248 NA
ATOM     54  C   UNL     1      -8.917   4.472  10.361  1.00  0.00     0.031 C 
ATOM     55  C   UNL     1      -3.435   6.924  11.290  1.00  0.00     0.029 A 
ATOM     56  C   UNL     1      -4.454   6.029  11.007  1.00  0.00     0.049 A 
ATOM     57  H   UNL     1      -4.316   3.990  10.475  1.00  0.00     0.167 HD
ATOM     58  C   UNL     1      -6.810   5.324  10.679  1.00  0.00     0.074 A 
ATOM     59  C   UNL     1      -8.237   5.572  10.647  1.00  0.00     0.031 C 
ATOM     60  C   UNL     1      -5.880   6.261  10.998  1.00  0.00     0.034 A 
BRANCH  47  61
ATOM     61  C   UNL     1      -0.043   4.156  10.801  1.00  0.00     0.023 A 
ATOM     62  C   UNL     1       0.889   4.057   9.753  1.00  0.00     0.031 A 
ATOM     63  C   UNL     1       0.436   4.506  12.076  1.00  0.00     0.131 A 
ATOM     64  C   UNL     1       2.257   4.238  10.011  1.00  0.00     0.055 A 
ATOM     65  C   UNL     1       1.790   4.758  12.311  1.00  0.00     0.041 A 
ATOM     66  F   UNL     1      -0.402   4.597  13.120  1.00  0.00    -0.206 F 
ATOM     67  C   UNL     1       2.711   4.611  11.278  1.00  0.00     0.022 A 
BRANCH  64  68
ATOM     68  S   UNL     1       3.448   3.847   8.700  1.00  0.00     0.124 S 
ATOM     69  O   UNL     1       3.137   2.447   8.424  1.00  0.00    -0.237 OA
ATOM     70  O   UNL     1       3.091   4.799   7.654  1.00  0.00    -0.237 OA
ATOM     71  O   UNL     1       4.745   4.075   9.335  1.00  0.00    -0.744 OA
ENDBRANCH  64  68
ENDBRANCH  47  61
BRANCH  48  72
ATOM     72  C   UNL     1      -9.686   1.763   9.560  1.00  0.00     0.023 A 
ATOM     73  C   UNL     1     -10.496   2.375   8.590  1.00  0.00     0.031 A 
ATOM     74  C   UNL     1     -10.286   0.834  10.430  1.00  0.00     0.131 A 
ATOM     75  C   UNL     1     -11.868   2.084   8.540  1.00  0.00     0.055 A 
ATOM     76  C   UNL     1     -11.640   0.509  10.343  1.00  0.00     0.041 A 
ATOM     77  F   UNL     1      -9.557   0.222  11.377  1.00  0.00    -0.206 F 
ATOM     78  C   UNL     1     -12.443   1.145   9.401  1.00  0.00     0.022 A 
BRANCH  75  79
ATOM     79  S   UNL     1     -12.913   3.012   7.385  1.00  0.00     0.124 S 
ATOM     80  O   UNL     1     -12.684   4.387   7.814  1.00  0.00    -0.237 OA
ATOM     81  O   UNL     1     -12.343   2.640   6.094  1.00  0.00    -0.237 OA
ATOM     82  O   UNL     1     -14.254   2.492   7.645  1.00  0.00    -0.744 OA
ENDBRANCH  75  79
ENDBRANCH  48  72
BRANCH  60  83
ATOM     83  C   UNL     1      -6.391   7.648  11.310  1.00  0.00     0.023 A 
ATOM     84  C   UNL     1      -7.182   7.907  12.444  1.00  0.00     0.031 A 
ATOM     85  C   UNL     1      -6.111   8.719  10.443  1.00  0.00     0.131 A 
ATOM     86  C   UNL     1      -7.721   9.187  12.645  1.00  0.00     0.055 A 
ATOM     87  C   UNL     1      -6.599  10.005  10.681  1.00  0.00     0.041 A 
ATOM     88  F   UNL     1      -5.363   8.531   9.344  1.00  0.00    -0.206 F 
ATOM     89  C   UNL     1      -7.421  10.242  11.779  1.00  0.00     0.022 A 
BRANCH  86  90
ATOM     90  S   UNL     1      -8.905   9.432  13.997  1.00  0.00     0.124 S 
ATOM     91  O   UNL     1      -9.939   8.454  13.677  1.00  0.00    -0.237 OA
ATOM     92  O   UNL     1      -8.096   9.143  15.177  1.00  0.00    -0.237 OA
ATOM     93  O   UNL     1      -9.308  10.830  13.851  1.00  0.00    -0.744 OA
ENDBRANCH  86  90
ENDBRANCH  60  83
ENDBRANCH  34  35
ENDBRANCH  27  29
ENDBRANCH  26  27
ENDBRANCH  25  26
ENDBRANCH   1  25
TORSDOF 20
