REMARK SMILES Cc1csc2nc(C(=O)OCCOC(=O)c3ccc(-c4c5nc(c(-c6cc(S(=O)(=O)[O-])ccc6F)c6ccc([nH]6)c(-c6cc(S(=O)(=O)[O-])ccc6F)c6nc(c(-c7cc(S(=O)(=O)[O-])ccc7F)c7ccc4[nH]7)C=C6)C=C5)cc3)cn12
REMARK SMILES IDX 13 1 12 2 11 3 10 4 8 5 9 6 7 7 1 8 2 9 3 10 80 11 4 12 5 13
REMARK SMILES IDX 79 14 6 15 14 16 15 17 16 18 17 19 78 20 18 21 77 22 19 23
REMARK SMILES IDX 20 24 21 25 71 26 22 27 76 28 70 29 72 30 23 31 75 32 69 33
REMARK SMILES IDX 68 34 24 36 56 37 36 38 55 39 37 40 40 41 54 42 73 43 38 44
REMARK SMILES IDX 39 45 53 47 74 48 41 49 25 50 26 51 34 52 27 53 33 54 35 55
REMARK SMILES IDX 32 56 28 57 29 58 30 59 31 60 57 61 58 62 66 63 59 64 65 65
REMARK SMILES IDX 67 66 64 67 60 68 61 69 62 70 63 71 42 72 43 73 51 74 44 75
REMARK SMILES IDX 50 76 52 77 49 78 45 79 46 80 47 81 48 82
REMARK H PARENT 72 35 40 46
REMARK Flexibility Score: inf
ROOT
ATOM      1  O   UNL     1       1.835  -8.038  -1.580  1.00  0.00    -0.458 OA
ENDROOT
BRANCH   1   2
ATOM      2  C   UNL     1       1.511  -8.783  -0.407  1.00  0.00     0.275 C 
BRANCH   2   3
ATOM      3  C   UNL     1       2.367  -8.362   0.779  1.00  0.00     0.275 C 
BRANCH   3   4
ATOM      4  O   UNL     1       1.930  -7.108   1.321  1.00  0.00    -0.457 OA
BRANCH   4   5
ATOM      5  C   UNL     1       2.459  -5.986   0.751  1.00  0.00     0.358 C 
ATOM      6  O   UNL     1       3.406  -5.985  -0.035  1.00  0.00    -0.244 OA
BRANCH   5   7
ATOM      7  C   UNL     1       1.743  -4.770   1.135  1.00  0.00     0.168 A 
ATOM      8  C   UNL     1       1.068  -0.468   0.049  1.00  0.00     0.066 C 
ATOM      9  C   UNL     1       0.561  -1.407   1.083  1.00  0.00     0.032 A 
ATOM     10  C   UNL     1      -0.292  -1.119   2.088  1.00  0.00     0.090 A 
ATOM     11  N   UNL     1       0.961  -2.731   1.142  1.00  0.00    -0.294 N 
ATOM     12  S   UNL     1      -0.630  -2.502   3.142  1.00  0.00    -0.105 S 
ATOM     13  C   UNL     1       0.438  -3.460   2.167  1.00  0.00     0.194 A 
ATOM     14  C   UNL     1       1.799  -3.553   0.454  1.00  0.00     0.130 A 
ATOM     15  N   UNL     1       0.885  -4.681   2.235  1.00  0.00    -0.212 NA
ENDBRANCH   5   7
ENDBRANCH   4   5
ENDBRANCH   3   4
ENDBRANCH   2   3
ENDBRANCH   1   2
BRANCH   1  16
ATOM     16  C   UNL     1       1.017  -6.991  -1.834  1.00  0.00     0.338 C 
ATOM     17  O   UNL     1       0.343  -6.371  -1.030  1.00  0.00    -0.246 OA
BRANCH  16  18
ATOM     18  C   UNL     1       0.881  -6.832  -3.284  1.00  0.00     0.060 A 
ATOM     19  C   UNL     1       0.195  -5.709  -3.756  1.00  0.00     0.016 A 
ATOM     20  C   UNL     1       1.202  -7.910  -4.121  1.00  0.00     0.016 A 
ATOM     21  C   UNL     1      -0.283  -5.723  -5.051  1.00  0.00     0.010 A 
ATOM     22  C   UNL     1       0.708  -7.931  -5.402  1.00  0.00     0.010 A 
ATOM     23  C   UNL     1      -0.076  -6.864  -5.834  1.00  0.00    -0.014 A 
BRANCH  23  24
ATOM     24  C   UNL     1      -0.588  -6.880  -7.187  1.00  0.00     0.031 A 
ATOM     25  C   UNL     1       0.180  -6.014  -8.110  1.00  0.00     0.074 A 
ATOM     26  C   UNL     1      -1.546  -7.733  -7.594  1.00  0.00     0.049 A 
ATOM     27  N   UNL     1      -0.220  -4.941  -8.702  1.00  0.00    -0.248 NA
ATOM     28  C   UNL     1       1.624  -6.271  -8.250  1.00  0.00     0.031 C 
ATOM     29  C   UNL     1      -2.154  -8.833  -6.844  1.00  0.00     0.029 A 
ATOM     30  N   UNL     1      -2.087  -7.870  -8.832  1.00  0.00    -0.354 N 
ATOM     31  C   UNL     1       0.852  -4.523  -9.482  1.00  0.00     0.074 A 
ATOM     32  C   UNL     1       2.001  -5.232  -8.993  1.00  0.00     0.031 C 
ATOM     33  C   UNL     1      -2.788  -9.658  -7.708  1.00  0.00     0.029 A 
ATOM     34  C   UNL     1      -2.730  -9.084  -9.044  1.00  0.00     0.049 A 
ATOM     35  H   UNL     1      -2.028  -7.170  -9.521  1.00  0.00     0.167 HD
ATOM     36  C   UNL     1       0.653  -3.821 -10.631  1.00  0.00     0.034 A 
ATOM     37  C   UNL     1      -3.098  -9.608 -10.245  1.00  0.00     0.034 A 
ATOM     38  C   UNL     1      -0.678  -3.257 -10.671  1.00  0.00     0.049 A 
ATOM     39  C   UNL     1      -3.171  -8.473 -11.205  1.00  0.00     0.074 A 
ATOM     40  C   UNL     1      -1.388  -2.415  -9.834  1.00  0.00     0.029 A 
ATOM     41  N   UNL     1      -1.624  -3.865 -11.468  1.00  0.00    -0.354 N 
ATOM     42  N   UNL     1      -4.042  -7.505 -11.104  1.00  0.00    -0.248 NA
ATOM     43  C   UNL     1      -1.972  -8.140 -11.965  1.00  0.00     0.031 C 
ATOM     44  C   UNL     1      -2.708  -2.954  -9.811  1.00  0.00     0.029 A 
ATOM     45  C   UNL     1      -2.753  -4.030 -10.700  1.00  0.00     0.049 A 
ATOM     46  H   UNL     1      -1.512  -4.131 -12.409  1.00  0.00     0.167 HD
ATOM     47  C   UNL     1      -3.332  -6.347 -11.387  1.00  0.00     0.074 A 
ATOM     48  C   UNL     1      -2.090  -6.808 -12.006  1.00  0.00     0.031 C 
ATOM     49  C   UNL     1      -3.675  -5.144 -10.834  1.00  0.00     0.034 A 
BRANCH  36  50
ATOM     50  C   UNL     1       1.516  -3.950 -11.866  1.00  0.00     0.023 A 
ATOM     51  C   UNL     1       1.179  -3.142 -12.966  1.00  0.00     0.031 A 
ATOM     52  C   UNL     1       2.437  -4.991 -12.129  1.00  0.00     0.131 A 
ATOM     53  C   UNL     1       1.651  -3.443 -14.254  1.00  0.00     0.055 A 
ATOM     54  C   UNL     1       2.964  -5.239 -13.399  1.00  0.00     0.041 A 
ATOM     55  F   UNL     1       2.808  -5.888 -11.208  1.00  0.00    -0.206 F 
ATOM     56  C   UNL     1       2.544  -4.486 -14.479  1.00  0.00     0.022 A 
BRANCH  53  57
ATOM     57  S   UNL     1       0.920  -2.564 -15.657  1.00  0.00     0.124 S 
ATOM     58  O   UNL     1      -0.503  -2.798 -15.439  1.00  0.00    -0.237 OA
ATOM     59  O   UNL     1       1.392  -1.201 -15.434  1.00  0.00    -0.237 OA
ATOM     60  O   UNL     1       1.494  -3.242 -16.817  1.00  0.00    -0.744 OA
ENDBRANCH  53  57
ENDBRANCH  36  50
BRANCH  37  61
ATOM     61  C   UNL     1      -3.048 -11.043 -10.651  1.00  0.00     0.023 A 
ATOM     62  C   UNL     1      -3.741 -11.550 -11.772  1.00  0.00     0.031 A 
ATOM     63  C   UNL     1      -2.111 -11.914 -10.047  1.00  0.00     0.131 A 
ATOM     64  C   UNL     1      -3.491 -12.868 -12.232  1.00  0.00     0.055 A 
ATOM     65  C   UNL     1      -1.877 -13.215 -10.497  1.00  0.00     0.041 A 
ATOM     66  F   UNL     1      -1.321 -11.502  -9.043  1.00  0.00    -0.206 F 
ATOM     67  C   UNL     1      -2.562 -13.696 -11.599  1.00  0.00     0.022 A 
BRANCH  64  68
ATOM     68  S   UNL     1      -4.311 -13.500 -13.733  1.00  0.00     0.124 S 
ATOM     69  O   UNL     1      -5.691 -13.657 -13.291  1.00  0.00    -0.237 OA
ATOM     70  O   UNL     1      -4.054 -12.440 -14.701  1.00  0.00    -0.237 OA
ATOM     71  O   UNL     1      -3.607 -14.755 -14.003  1.00  0.00    -0.744 OA
ENDBRANCH  64  68
ENDBRANCH  37  61
BRANCH  49  72
ATOM     72  C   UNL     1      -5.004  -5.019 -10.112  1.00  0.00     0.023 A 
ATOM     73  C   UNL     1      -5.417  -5.830  -9.029  1.00  0.00     0.031 A 
ATOM     74  C   UNL     1      -5.826  -3.931 -10.457  1.00  0.00     0.131 A 
ATOM     75  C   UNL     1      -6.616  -5.540  -8.346  1.00  0.00     0.055 A 
ATOM     76  C   UNL     1      -6.999  -3.634  -9.764  1.00  0.00     0.041 A 
ATOM     77  F   UNL     1      -5.478  -3.105 -11.458  1.00  0.00    -0.206 F 
ATOM     78  C   UNL     1      -7.402  -4.441  -8.708  1.00  0.00     0.022 A 
BRANCH  75  79
ATOM     79  S   UNL     1      -7.188  -6.597  -6.976  1.00  0.00     0.124 S 
ATOM     80  O   UNL     1      -7.043  -7.948  -7.502  1.00  0.00    -0.237 OA
ATOM     81  O   UNL     1      -6.280  -6.229  -5.893  1.00  0.00    -0.237 OA
ATOM     82  O   UNL     1      -8.575  -6.169  -6.774  1.00  0.00    -0.744 OA
ENDBRANCH  75  79
ENDBRANCH  49  72
ENDBRANCH  23  24
ENDBRANCH  16  18
ENDBRANCH   1  16
TORSDOF 14
