REMARK SMILES C[C@H]1[C@H](C(=O)OCCOC(=O)c2ccc(-c3c4nc(c(-c5cc(S(=O)(=O)[O-])ccc5F)c5ccc([nH]5)c(-c5cc(S(=O)(=O)[O-])ccc5F)c5nc(c(-c6cc(S(=O)(=O)[O-])ccc6F)c6ccc3[nH]6)C=C5)C=C4)cc2)CCN1S(=O)(=O)C(F)(F)F
REMARK SMILES IDX 8 1 7 2 6 3 4 4 5 5 3 6 1 7 2 8 77 9 75 10 76 11 78 12 79 13
REMARK SMILES IDX 80 14 81 15 82 16 83 17 84 18 9 19 10 20 11 21 12 22 13 23
REMARK SMILES IDX 74 24 14 25 73 26 15 27 16 28 17 29 67 30 18 31 72 32 66 33
REMARK SMILES IDX 68 34 19 35 71 36 65 37 64 38 20 40 52 41 32 42 51 43 33 44
REMARK SMILES IDX 36 45 50 46 69 47 34 48 35 49 49 51 70 52 37 53 21 54 22 55
REMARK SMILES IDX 30 56 23 57 29 58 31 59 28 60 24 61 25 62 26 63 27 64 53 65
REMARK SMILES IDX 54 66 62 67 55 68 61 69 63 70 60 71 56 72 57 73 58 74 59 75
REMARK SMILES IDX 38 76 39 77 47 78 40 79 46 80 48 81 45 82 41 83 42 84 43 85
REMARK SMILES IDX 44 86
REMARK H PARENT 68 39 36 50
REMARK Flexibility Score: inf
ROOT
ATOM      1  C   UNL     1       0.964   3.541   3.580  1.00  0.00     0.275 C 
ENDROOT
BRANCH   1   2
ATOM      2  C   UNL     1      -0.431   2.955   3.340  1.00  0.00     0.274 C 
BRANCH   2   3
ATOM      3  O   UNL     1      -0.384   1.865   2.399  1.00  0.00    -0.462 OA
BRANCH   3   4
ATOM      4  C   UNL     1      -0.782   2.130   1.131  1.00  0.00     0.310 C 
ATOM      5  O   UNL     1      -1.265   3.195   0.762  1.00  0.00    -0.252 OA
BRANCH   4   6
ATOM      6  C   UNL     1      -0.609   0.960   0.184  1.00  0.00     0.118 C 
ATOM      7  C   UNL     1       1.606  -0.161  -0.369  1.00  0.00     0.027 C 
ATOM      8  C   UNL     1       0.427  -0.098   0.606  1.00  0.00     0.084 C 
ATOM      9  N   UNL     1      -0.286  -1.423   0.527  1.00  0.00    -0.190 NA
ATOM     10  C   UNL     1      -1.926   0.216   0.025  1.00  0.00     0.034 C 
ATOM     11  C   UNL     1      -1.499  -1.199  -0.301  1.00  0.00     0.104 C 
BRANCH   9  12
ATOM     12  S   UNL     1      -0.579  -2.208   2.031  1.00  0.00     0.314 S 
ATOM     13  O   UNL     1      -1.258  -1.233   2.869  1.00  0.00    -0.203 OA
ATOM     14  O   UNL     1      -1.271  -3.446   1.703  1.00  0.00    -0.203 OA
BRANCH  12  15
ATOM     15  C   UNL     1       1.117  -2.600   2.717  1.00  0.00     0.511 C 
ATOM     16  F   UNL     1       1.868  -3.335   1.849  1.00  0.00    -0.155 F 
ATOM     17  F   UNL     1       1.833  -1.478   3.008  1.00  0.00    -0.155 F 
ATOM     18  F   UNL     1       1.036  -3.318   3.875  1.00  0.00    -0.155 F 
ENDBRANCH  12  15
ENDBRANCH   9  12
ENDBRANCH   4   6
ENDBRANCH   3   4
ENDBRANCH   2   3
ENDBRANCH   1   2
BRANCH   1  19
ATOM     19  O   UNL     1       1.458   4.236   2.421  1.00  0.00    -0.458 OA
BRANCH  19  20
ATOM     20  C   UNL     1       2.146   3.467   1.545  1.00  0.00     0.338 C 
ATOM     21  O   UNL     1       2.403   2.281   1.653  1.00  0.00    -0.246 OA
BRANCH  20  22
ATOM     22  C   UNL     1       2.437   4.242   0.332  1.00  0.00     0.060 A 
ATOM     23  C   UNL     1       1.797   3.881  -0.857  1.00  0.00     0.016 A 
ATOM     24  C   UNL     1       3.392   5.258   0.345  1.00  0.00     0.016 A 
ATOM     25  C   UNL     1       2.116   4.524  -2.049  1.00  0.00     0.010 A 
ATOM     26  C   UNL     1       3.701   5.913  -0.849  1.00  0.00     0.010 A 
ATOM     27  C   UNL     1       3.073   5.543  -2.053  1.00  0.00    -0.014 A 
BRANCH  27  28
ATOM     28  C   UNL     1       3.462   6.202  -3.322  1.00  0.00     0.031 A 
ATOM     29  C   UNL     1       4.816   5.925  -3.906  1.00  0.00     0.074 A 
ATOM     30  C   UNL     1       2.617   7.058  -3.924  1.00  0.00     0.049 A 
ATOM     31  N   UNL     1       5.446   6.545  -4.868  1.00  0.00    -0.248 NA
ATOM     32  C   UNL     1       5.560   4.802  -3.317  1.00  0.00     0.031 C 
ATOM     33  C   UNL     1       1.249   7.341  -3.486  1.00  0.00     0.029 A 
ATOM     34  N   UNL     1       2.792   7.864  -5.019  1.00  0.00    -0.354 N 
ATOM     35  C   UNL     1       6.678   5.910  -4.982  1.00  0.00     0.074 A 
ATOM     36  C   UNL     1       6.705   4.863  -3.981  1.00  0.00     0.031 C 
ATOM     37  C   UNL     1       0.717   8.273  -4.293  1.00  0.00     0.029 A 
ATOM     38  C   UNL     1       1.728   8.703  -5.255  1.00  0.00     0.049 A 
ATOM     39  H   UNL     1       3.600   7.845  -5.581  1.00  0.00     0.167 HD
ATOM     40  C   UNL     1       7.690   6.188  -5.840  1.00  0.00     0.034 A 
ATOM     41  C   UNL     1       1.605   9.738  -6.109  1.00  0.00     0.034 A 
ATOM     42  C   UNL     1       7.631   7.238  -6.828  1.00  0.00     0.049 A 
ATOM     43  C   UNL     1       2.776  10.091  -6.992  1.00  0.00     0.074 A 
ATOM     44  C   UNL     1       8.594   7.617  -7.746  1.00  0.00     0.029 A 
ATOM     45  N   UNL     1       6.544   8.083  -7.022  1.00  0.00    -0.354 N 
ATOM     46  N   UNL     1       3.958   9.522  -7.059  1.00  0.00    -0.248 NA
ATOM     47  C   UNL     1       2.602  11.227  -7.905  1.00  0.00     0.031 C 
ATOM     48  C   UNL     1       8.114   8.726  -8.453  1.00  0.00     0.029 A 
ATOM     49  C   UNL     1       6.823   8.995  -8.026  1.00  0.00     0.049 A 
ATOM     50  H   UNL     1       5.699   8.039  -6.519  1.00  0.00     0.167 HD
ATOM     51  C   UNL     1       4.655  10.212  -8.046  1.00  0.00     0.074 A 
ATOM     52  C   UNL     1       3.763  11.239  -8.544  1.00  0.00     0.031 C 
ATOM     53  C   UNL     1       5.915  10.008  -8.508  1.00  0.00     0.034 A 
BRANCH  40  54
ATOM     54  C   UNL     1       8.961   5.390  -5.693  1.00  0.00     0.023 A 
ATOM     55  C   UNL     1       9.005   4.007  -5.938  1.00  0.00     0.031 A 
ATOM     56  C   UNL     1      10.142   6.020  -5.260  1.00  0.00     0.131 A 
ATOM     57  C   UNL     1      10.184   3.289  -5.683  1.00  0.00     0.055 A 
ATOM     58  C   UNL     1      11.332   5.313  -5.081  1.00  0.00     0.041 A 
ATOM     59  F   UNL     1      10.154   7.334  -4.987  1.00  0.00    -0.206 F 
ATOM     60  C   UNL     1      11.354   3.936  -5.278  1.00  0.00     0.022 A 
BRANCH  57  61
ATOM     61  S   UNL     1      10.127   1.477  -5.748  1.00  0.00     0.124 S 
ATOM     62  O   UNL     1       9.098   1.178  -4.754  1.00  0.00    -0.237 OA
ATOM     63  O   UNL     1       9.765   1.223  -7.138  1.00  0.00    -0.237 OA
ATOM     64  O   UNL     1      11.481   1.077  -5.372  1.00  0.00    -0.744 OA
ENDBRANCH  57  61
ENDBRANCH  40  54
BRANCH  41  65
ATOM     65  C   UNL     1       0.362  10.559  -6.120  1.00  0.00     0.023 A 
ATOM     66  C   UNL     1      -0.469  10.604  -7.248  1.00  0.00     0.031 A 
ATOM     67  C   UNL     1       0.003  11.338  -5.004  1.00  0.00     0.131 A 
ATOM     68  C   UNL     1      -1.601  11.435  -7.250  1.00  0.00     0.055 A 
ATOM     69  C   UNL     1      -1.150  12.124  -4.992  1.00  0.00     0.041 A 
ATOM     70  F   UNL     1       0.764  11.333  -3.898  1.00  0.00    -0.206 F 
ATOM     71  C   UNL     1      -1.954  12.184  -6.125  1.00  0.00     0.022 A 
BRANCH  68  72
ATOM     72  S   UNL     1      -2.568  11.582  -8.777  1.00  0.00     0.124 S 
ATOM     73  O   UNL     1      -1.563  12.059  -9.721  1.00  0.00    -0.237 OA
ATOM     74  O   UNL     1      -3.034  10.213  -8.973  1.00  0.00    -0.237 OA
ATOM     75  O   UNL     1      -3.607  12.548  -8.430  1.00  0.00    -0.744 OA
ENDBRANCH  68  72
ENDBRANCH  41  65
BRANCH  53  76
ATOM     76  C   UNL     1       6.373  10.870  -9.655  1.00  0.00     0.023 A 
ATOM     77  C   UNL     1       6.682  12.230  -9.485  1.00  0.00     0.031 A 
ATOM     78  C   UNL     1       6.522  10.306 -10.934  1.00  0.00     0.131 A 
ATOM     79  C   UNL     1       7.096  12.991 -10.589  1.00  0.00     0.055 A 
ATOM     80  C   UNL     1       6.977  11.056 -12.018  1.00  0.00     0.041 A 
ATOM     81  F   UNL     1       6.239   9.010 -11.145  1.00  0.00    -0.206 F 
ATOM     82  C   UNL     1       7.261  12.408 -11.850  1.00  0.00     0.022 A 
BRANCH  79  83
ATOM     83  S   UNL     1       7.380  14.768 -10.370  1.00  0.00     0.124 S 
ATOM     84  O   UNL     1       6.050  15.245 -10.006  1.00  0.00    -0.237 OA
ATOM     85  O   UNL     1       8.381  14.799  -9.309  1.00  0.00    -0.237 OA
ATOM     86  O   UNL     1       7.858  15.204 -11.681  1.00  0.00    -0.744 OA
ENDBRANCH  79  83
ENDBRANCH  53  76
ENDBRANCH  27  28
ENDBRANCH  20  22
ENDBRANCH  19  20
ENDBRANCH   1  19
TORSDOF 16
