REMARK SMILES O=C(Cn1c2ccccc2c(=O)c2ccccc21)N[C@@H](Cc1ccccc1)C(=O)OCCOC(=O)c1ccc(-c2c3nc(c(-c4cc(S(=O)(=O)[O-])ccc4F)c4ccc([nH]4)c(-c4cc(S(=O)(=O)[O-])ccc4F)c4nc(c(-c5cc(S(=O)(=O)[O-])ccc5F)c5ccc2[nH]5)C=C4)C=C3)cc1
REMARK SMILES IDX 31 1 30 2 28 3 29 4 20 5 19 6 1 7 2 8 3 10 4 11 5 12 18 13
REMARK SMILES IDX 6 14 10 15 13 16 17 17 7 18 9 19 11 20 14 21 16 22 8 23
REMARK SMILES IDX 12 24 15 25 21 26 22 27 23 28 27 29 24 30 26 31 25 32 32 33
REMARK SMILES IDX 33 34 34 35 35 36 36 37 37 38 98 39 38 40 97 41 39 42 40 43
REMARK SMILES IDX 41 44 91 45 42 46 96 47 90 48 92 49 43 50 95 51 89 52 88 53
REMARK SMILES IDX 44 55 76 56 56 57 75 58 57 59 60 60 74 61 93 62 58 63 59 64
REMARK SMILES IDX 73 66 94 67 61 68 45 69 46 70 54 71 47 72 53 73 55 74 52 75
REMARK SMILES IDX 48 76 49 77 50 78 51 79 77 80 78 81 86 82 79 83 85 84 87 85
REMARK SMILES IDX 84 86 80 87 81 88 82 89 83 90 62 91 63 92 71 93 64 94 70 95
REMARK SMILES IDX 72 96 69 97 65 98 66 99 67 100 68 101
REMARK H PARENT 19 9 92 54 60 65
REMARK Flexibility Score: inf
ROOT
ATOM      1  C   UNL     1       4.215   5.115   1.262  1.00  0.00     0.274 C 
ENDROOT
BRANCH   1   2
ATOM      2  O   UNL     1       4.060   3.685   1.362  1.00  0.00    -0.461 OA
BRANCH   2   3
ATOM      3  C   UNL     1       3.007   3.255   2.115  1.00  0.00     0.329 C 
ATOM      4  O   UNL     1       2.336   3.986   2.838  1.00  0.00    -0.250 OA
BRANCH   3   5
ATOM      5  C   UNL     1       2.807   1.731   2.067  1.00  0.00     0.196 C 
BRANCH   5   6
ATOM      6  N   UNL     1       3.364   0.997   0.907  1.00  0.00    -0.341 N 
ATOM      7  O   UNL     1       1.420  -0.135   0.546  1.00  0.00    -0.273 OA
ATOM      8  C   UNL     1       2.584   0.098   0.206  1.00  0.00     0.240 C 
ATOM      9  H   UNL     1       4.297   1.151   0.634  1.00  0.00     0.164 HD
BRANCH   8  10
ATOM     10  C   UNL     1       3.239  -0.768  -0.883  1.00  0.00     0.222 C 
BRANCH  10  11
ATOM     11  N   UNL     1       4.008  -0.098  -1.954  1.00  0.00    -0.331 N 
ATOM     12  C   UNL     1       3.528   1.056  -2.605  1.00  0.00     0.053 A 
ATOM     13  C   UNL     1       5.036  -0.842  -2.593  1.00  0.00     0.053 A 
ATOM     14  C   UNL     1       2.182   1.427  -2.656  1.00  0.00     0.027 A 
ATOM     15  C   UNL     1       4.434   1.841  -3.351  1.00  0.00     0.046 A 
ATOM     16  C   UNL     1       5.944  -0.165  -3.432  1.00  0.00     0.046 A 
ATOM     17  C   UNL     1       5.131  -2.241  -2.547  1.00  0.00     0.027 A 
ATOM     18  C   UNL     1       1.778   2.578  -3.353  1.00  0.00     0.002 A 
ATOM     19  C   UNL     1       4.054   3.028  -3.987  1.00  0.00     0.014 A 
ATOM     20  C   UNL     1       5.791   1.299  -3.588  1.00  0.00     0.197 A 
ATOM     21  C   UNL     1       6.901  -0.844  -4.197  1.00  0.00     0.014 A 
ATOM     22  C   UNL     1       6.071  -2.929  -3.327  1.00  0.00     0.002 A 
ATOM     23  C   UNL     1       2.716   3.401  -3.977  1.00  0.00     0.001 A 
ATOM     24  O   UNL     1       6.712   1.997  -3.995  1.00  0.00    -0.288 OA
ATOM     25  C   UNL     1       6.952  -2.233  -4.153  1.00  0.00     0.001 A 
ENDBRANCH  10  11
ENDBRANCH   8  10
ENDBRANCH   5   6
BRANCH   5  26
ATOM     26  C   UNL     1       3.263   1.136   3.415  1.00  0.00     0.072 C 
BRANCH  26  27
ATOM     27  C   UNL     1       4.735   1.350   3.687  1.00  0.00    -0.045 A 
ATOM     28  C   UNL     1       5.188   2.563   4.229  1.00  0.00     0.004 A 
ATOM     29  C   UNL     1       5.670   0.377   3.318  1.00  0.00     0.004 A 
ATOM     30  C   UNL     1       6.553   2.823   4.337  1.00  0.00     0.000 A 
ATOM     31  C   UNL     1       7.035   0.631   3.447  1.00  0.00     0.000 A 
ATOM     32  C   UNL     1       7.476   1.859   3.939  1.00  0.00     0.000 A 
ENDBRANCH  26  27
ENDBRANCH   5  26
ENDBRANCH   3   5
ENDBRANCH   2   3
ENDBRANCH   1   2
BRANCH   1  33
ATOM     33  C   UNL     1       3.703   5.652  -0.083  1.00  0.00     0.275 C 
BRANCH  33  34
ATOM     34  O   UNL     1       2.265   5.619  -0.204  1.00  0.00    -0.458 OA
BRANCH  34  35
ATOM     35  C   UNL     1       1.776   4.395  -0.494  1.00  0.00     0.338 C 
ATOM     36  O   UNL     1       2.445   3.374  -0.607  1.00  0.00    -0.246 OA
BRANCH  35  37
ATOM     37  C   UNL     1       0.313   4.350  -0.564  1.00  0.00     0.060 A 
ATOM     38  C   UNL     1      -0.416   5.290  -1.293  1.00  0.00     0.016 A 
ATOM     39  C   UNL     1      -0.327   3.256   0.032  1.00  0.00     0.016 A 
ATOM     40  C   UNL     1      -1.801   5.146  -1.395  1.00  0.00     0.010 A 
ATOM     41  C   UNL     1      -1.705   3.114  -0.068  1.00  0.00     0.010 A 
ATOM     42  C   UNL     1      -2.450   4.069  -0.767  1.00  0.00    -0.014 A 
BRANCH  42  43
ATOM     43  C   UNL     1      -3.923   3.955  -0.798  1.00  0.00     0.031 A 
ATOM     44  C   UNL     1      -4.718   4.425   0.382  1.00  0.00     0.074 A 
ATOM     45  C   UNL     1      -4.528   3.406  -1.865  1.00  0.00     0.049 A 
ATOM     46  N   UNL     1      -6.013   4.527   0.512  1.00  0.00    -0.248 NA
ATOM     47  C   UNL     1      -3.956   4.825   1.577  1.00  0.00     0.031 C 
ATOM     48  C   UNL     1      -3.834   2.853  -3.027  1.00  0.00     0.029 A 
ATOM     49  N   UNL     1      -5.857   3.217  -2.143  1.00  0.00    -0.354 N 
ATOM     50  C   UNL     1      -6.222   5.038   1.786  1.00  0.00     0.074 A 
ATOM     51  C   UNL     1      -4.927   5.154   2.418  1.00  0.00     0.031 C 
ATOM     52  C   UNL     1      -4.746   2.397  -3.902  1.00  0.00     0.029 A 
ATOM     53  C   UNL     1      -6.086   2.625  -3.362  1.00  0.00     0.049 A 
ATOM     54  H   UNL     1      -6.579   3.481  -1.528  1.00  0.00     0.167 HD
ATOM     55  C   UNL     1      -7.390   5.409   2.359  1.00  0.00     0.034 A 
ATOM     56  C   UNL     1      -7.247   2.324  -3.980  1.00  0.00     0.034 A 
ATOM     57  C   UNL     1      -8.669   5.250   1.720  1.00  0.00     0.049 A 
ATOM     58  C   UNL     1      -8.542   2.732  -3.320  1.00  0.00     0.074 A 
ATOM     59  C   UNL     1      -9.915   5.617   2.193  1.00  0.00     0.029 A 
ATOM     60  N   UNL     1      -8.867   4.664   0.477  1.00  0.00    -0.354 N 
ATOM     61  N   UNL     1      -8.724   3.347  -2.173  1.00  0.00    -0.248 NA
ATOM     62  C   UNL     1      -9.787   2.435  -4.041  1.00  0.00     0.031 C 
ATOM     63  C   UNL     1     -10.870   5.208   1.260  1.00  0.00     0.029 A 
ATOM     64  C   UNL     1     -10.217   4.641   0.175  1.00  0.00     0.049 A 
ATOM     65  H   UNL     1      -8.153   4.318  -0.104  1.00  0.00     0.167 HD
ATOM     66  C   UNL     1     -10.098   3.536  -2.049  1.00  0.00     0.074 A 
ATOM     67  C   UNL     1     -10.698   2.988  -3.249  1.00  0.00     0.031 C 
ATOM     68  C   UNL     1     -10.797   4.108  -1.036  1.00  0.00     0.034 A 
BRANCH  55  69
ATOM     69  C   UNL     1      -7.342   6.054   3.720  1.00  0.00     0.023 A 
ATOM     70  C   UNL     1      -7.954   5.441   4.827  1.00  0.00     0.031 A 
ATOM     71  C   UNL     1      -6.768   7.327   3.894  1.00  0.00     0.131 A 
ATOM     72  C   UNL     1      -7.994   6.112   6.056  1.00  0.00     0.055 A 
ATOM     73  C   UNL     1      -6.780   7.976   5.129  1.00  0.00     0.041 A 
ATOM     74  F   UNL     1      -6.172   7.954   2.866  1.00  0.00    -0.206 F 
ATOM     75  C   UNL     1      -7.404   7.371   6.215  1.00  0.00     0.022 A 
BRANCH  72  76
ATOM     76  S   UNL     1      -8.848   5.401   7.489  1.00  0.00     0.124 S 
ATOM     77  O   UNL     1      -7.775   5.341   8.479  1.00  0.00    -0.237 OA
ATOM     78  O   UNL     1      -9.884   6.396   7.751  1.00  0.00    -0.237 OA
ATOM     79  O   UNL     1      -9.322   4.107   7.009  1.00  0.00    -0.744 OA
ENDBRANCH  72  76
ENDBRANCH  55  69
BRANCH  56  80
ATOM     80  C   UNL     1      -7.207   1.702  -5.336  1.00  0.00     0.023 A 
ATOM     81  C   UNL     1      -6.653   0.424  -5.536  1.00  0.00     0.031 A 
ATOM     82  C   UNL     1      -7.621   2.427  -6.467  1.00  0.00     0.131 A 
ATOM     83  C   UNL     1      -6.480  -0.065  -6.839  1.00  0.00     0.055 A 
ATOM     84  C   UNL     1      -7.502   1.911  -7.758  1.00  0.00     0.041 A 
ATOM     85  F   UNL     1      -8.138   3.657  -6.328  1.00  0.00    -0.206 F 
ATOM     86  C   UNL     1      -6.915   0.664  -7.950  1.00  0.00     0.022 A 
BRANCH  83  87
ATOM     87  S   UNL     1      -5.577  -1.609  -7.145  1.00  0.00     0.124 S 
ATOM     88  O   UNL     1      -6.587  -2.426  -7.810  1.00  0.00    -0.237 OA
ATOM     89  O   UNL     1      -4.479  -1.149  -7.993  1.00  0.00    -0.237 OA
ATOM     90  O   UNL     1      -5.186  -2.051  -5.811  1.00  0.00    -0.744 OA
ENDBRANCH  83  87
ENDBRANCH  56  80
BRANCH  68  91
ATOM     91  C   UNL     1     -12.300   4.190  -1.150  1.00  0.00     0.023 A 
ATOM     92  C   UNL     1     -12.933   5.447  -1.184  1.00  0.00     0.031 A 
ATOM     93  C   UNL     1     -13.102   3.041  -1.043  1.00  0.00     0.131 A 
ATOM     94  C   UNL     1     -14.325   5.529  -1.062  1.00  0.00     0.055 A 
ATOM     95  C   UNL     1     -14.493   3.125  -0.968  1.00  0.00     0.041 A 
ATOM     96  F   UNL     1     -12.543   1.821  -0.995  1.00  0.00    -0.206 F 
ATOM     97  C   UNL     1     -15.109   4.374  -0.960  1.00  0.00     0.022 A 
BRANCH  94  98
ATOM     98  S   UNL     1     -15.162   7.133  -0.927  1.00  0.00     0.124 S 
ATOM     99  O   UNL     1     -16.034   7.117  -2.099  1.00  0.00    -0.237 OA
ATOM    100  O   UNL     1     -15.843   7.018   0.359  1.00  0.00    -0.237 OA
ATOM    101  O   UNL     1     -14.073   8.104  -0.976  1.00  0.00    -0.744 OA
ENDBRANCH  94  98
ENDBRANCH  68  91
ENDBRANCH  42  43
ENDBRANCH  35  37
ENDBRANCH  34  35
ENDBRANCH  33  34
ENDBRANCH   1  33
TORSDOF 19
