REMARK SMILES O=C(OCCOC(=O)c1ccc2c(=O)n(CCC[NH+]3CCOCC3)c(=O)[nH]c2c1)c1ccc(-c2c3nc(c(-c4cc(S(=O)(=O)[O-])ccc4F)c4ccc([nH]4)c(-c4cc(S(=O)(=O)[O-])ccc4F)c4nc(c(-c5cc(S(=O)(=O)[O-])ccc5F)c5ccc2[nH]5)C=C4)C=C3)cc1
REMARK SMILES IDX 5 1 4 2 3 3 2 4 1 5 30 6 31 7 92 8 32 9 91 10 33 11 34 12
REMARK SMILES IDX 35 13 85 14 36 15 90 16 84 17 86 18 37 19 89 20 83 21 82 22
REMARK SMILES IDX 38 24 70 25 50 26 69 27 51 28 54 29 68 30 87 31 52 32 53 33
REMARK SMILES IDX 67 35 88 36 55 37 39 38 40 39 48 40 41 41 47 42 49 43 46 44
REMARK SMILES IDX 42 45 43 46 44 47 45 48 71 49 72 50 80 51 73 52 79 53 81 54
REMARK SMILES IDX 78 55 74 56 75 57 76 58 77 59 56 60 57 61 65 62 58 63 64 64
REMARK SMILES IDX 66 65 63 66 59 67 60 68 61 69 62 70 6 71 7 72 8 73 9 74
REMARK SMILES IDX 10 75 29 76 11 77 28 78 12 79 27 80 13 81 25 82 14 84 15 85
REMARK SMILES IDX 26 86 16 87 17 88 18 89 19 90 20 91 24 92 21 94 23 95 22 96
REMARK H PARENT 86 23 54 34 27 83 19 93
REMARK Flexibility Score: inf
ROOT
ATOM      1  C   UNL     1       4.217   0.728  -2.031  1.00  0.00     0.275 C 
ENDROOT
BRANCH   1   2
ATOM      2  C   UNL     1       4.481  -0.618  -1.354  1.00  0.00     0.275 C 
BRANCH   2   3
ATOM      3  O   UNL     1       3.391  -1.123  -0.562  1.00  0.00    -0.458 OA
BRANCH   3   4
ATOM      4  C   UNL     1       3.128  -0.965   0.757  1.00  0.00     0.338 C 
ATOM      5  O   UNL     1       2.261  -1.671   1.272  1.00  0.00    -0.246 OA
BRANCH   4   6
ATOM      6  C   UNL     1       3.700   0.145   1.581  1.00  0.00     0.060 A 
ATOM      7  C   UNL     1       2.853   0.673   2.571  1.00  0.00     0.016 A 
ATOM      8  C   UNL     1       4.983   0.682   1.471  1.00  0.00     0.016 A 
ATOM      9  C   UNL     1       3.226   1.788   3.327  1.00  0.00     0.010 A 
ATOM     10  C   UNL     1       5.372   1.785   2.244  1.00  0.00     0.010 A 
ATOM     11  C   UNL     1       4.489   2.365   3.157  1.00  0.00    -0.014 A 
BRANCH  11  12
ATOM     12  C   UNL     1       4.934   3.458   4.054  1.00  0.00     0.031 A 
ATOM     13  C   UNL     1       5.125   4.862   3.562  1.00  0.00     0.074 A 
ATOM     14  C   UNL     1       5.196   3.141   5.335  1.00  0.00     0.049 A 
ATOM     15  N   UNL     1       5.323   5.952   4.258  1.00  0.00    -0.248 NA
ATOM     16  C   UNL     1       5.091   5.080   2.109  1.00  0.00     0.031 C 
ATOM     17  C   UNL     1       5.106   1.788   5.888  1.00  0.00     0.029 A 
ATOM     18  N   UNL     1       5.592   3.910   6.397  1.00  0.00    -0.354 N 
ATOM     19  C   UNL     1       5.403   6.989   3.335  1.00  0.00     0.074 A 
ATOM     20  C   UNL     1       5.281   6.392   2.024  1.00  0.00     0.031 C 
ATOM     21  C   UNL     1       5.414   1.825   7.190  1.00  0.00     0.029 A 
ATOM     22  C   UNL     1       5.755   3.195   7.560  1.00  0.00     0.049 A 
ATOM     23  H   UNL     1       5.744   4.881   6.334  1.00  0.00     0.167 HD
ATOM     24  C   UNL     1       5.557   8.315   3.575  1.00  0.00     0.034 A 
ATOM     25  C   UNL     1       6.131   3.595   8.791  1.00  0.00     0.034 A 
ATOM     26  C   UNL     1       5.749   8.857   4.901  1.00  0.00     0.049 A 
ATOM     27  C   UNL     1       6.351   5.066   9.024  1.00  0.00     0.074 A 
ATOM     28  C   UNL     1       5.829  10.185   5.280  1.00  0.00     0.029 A 
ATOM     29  N   UNL     1       5.938   8.105   6.054  1.00  0.00    -0.354 N 
ATOM     30  N   UNL     1       6.220   6.061   8.177  1.00  0.00    -0.248 NA
ATOM     31  C   UNL     1       6.745   5.476  10.376  1.00  0.00     0.031 C 
ATOM     32  C   UNL     1       6.169  10.233   6.633  1.00  0.00     0.029 A 
ATOM     33  C   UNL     1       6.201   8.939   7.129  1.00  0.00     0.049 A 
ATOM     34  H   UNL     1       5.892   7.122   6.101  1.00  0.00     0.167 HD
ATOM     35  C   UNL     1       6.476   7.219   8.903  1.00  0.00     0.074 A 
ATOM     36  C   UNL     1       6.755   6.798  10.262  1.00  0.00     0.031 C 
ATOM     37  C   UNL     1       6.474   8.510   8.483  1.00  0.00     0.034 A 
BRANCH  24  38
ATOM     38  C   UNL     1       5.505   9.294   2.419  1.00  0.00     0.023 A 
ATOM     39  C   UNL     1       6.579  10.169   2.175  1.00  0.00     0.031 A 
ATOM     40  C   UNL     1       4.327   9.482   1.674  1.00  0.00     0.131 A 
ATOM     41  C   UNL     1       6.429  11.226   1.264  1.00  0.00     0.055 A 
ATOM     42  C   UNL     1       4.184  10.527   0.759  1.00  0.00     0.041 A 
ATOM     43  F   UNL     1       3.292   8.643   1.818  1.00  0.00    -0.206 F 
ATOM     44  C   UNL     1       5.234  11.415   0.563  1.00  0.00     0.022 A 
BRANCH  41  45
ATOM     45  S   UNL     1       7.771  12.411   0.972  1.00  0.00     0.124 S 
ATOM     46  O   UNL     1       7.888  12.378  -0.485  1.00  0.00    -0.237 OA
ATOM     47  O   UNL     1       7.216  13.642   1.526  1.00  0.00    -0.237 OA
ATOM     48  O   UNL     1       8.902  11.839   1.694  1.00  0.00    -0.744 OA
ENDBRANCH  41  45
ENDBRANCH  24  38
BRANCH  25  49
ATOM     49  C   UNL     1       6.222   2.582   9.882  1.00  0.00     0.023 A 
ATOM     50  C   UNL     1       7.107   1.492   9.782  1.00  0.00     0.031 A 
ATOM     51  C   UNL     1       5.327   2.608  10.964  1.00  0.00     0.131 A 
ATOM     52  C   UNL     1       7.024   0.438  10.701  1.00  0.00     0.055 A 
ATOM     53  C   UNL     1       5.299   1.592  11.921  1.00  0.00     0.041 A 
ATOM     54  F   UNL     1       4.450   3.616  11.092  1.00  0.00    -0.206 F 
ATOM     55  C   UNL     1       6.135   0.488  11.779  1.00  0.00     0.022 A 
BRANCH  52  56
ATOM     56  S   UNL     1       7.947  -1.102  10.430  1.00  0.00     0.124 S 
ATOM     57  O   UNL     1       8.838  -1.129  11.585  1.00  0.00    -0.237 OA
ATOM     58  O   UNL     1       6.878  -2.098  10.433  1.00  0.00    -0.237 OA
ATOM     59  O   UNL     1       8.591  -0.893   9.137  1.00  0.00    -0.744 OA
ENDBRANCH  52  56
ENDBRANCH  25  49
BRANCH  37  60
ATOM     60  C   UNL     1       6.765   9.591   9.498  1.00  0.00     0.023 A 
ATOM     61  C   UNL     1       5.790  10.568   9.776  1.00  0.00     0.031 A 
ATOM     62  C   UNL     1       8.034   9.736  10.083  1.00  0.00     0.131 A 
ATOM     63  C   UNL     1       6.112  11.668  10.580  1.00  0.00     0.055 A 
ATOM     64  C   UNL     1       8.334  10.804  10.930  1.00  0.00     0.041 A 
ATOM     65  F   UNL     1       9.002   8.836   9.843  1.00  0.00    -0.206 F 
ATOM     66  C   UNL     1       7.375  11.785  11.168  1.00  0.00     0.022 A 
BRANCH  63  67
ATOM     67  S   UNL     1       4.938  13.030  10.812  1.00  0.00     0.124 S 
ATOM     68  O   UNL     1       4.698  12.978  12.252  1.00  0.00    -0.237 OA
ATOM     69  O   UNL     1       5.708  14.181  10.349  1.00  0.00    -0.237 OA
ATOM     70  O   UNL     1       3.800  12.659   9.978  1.00  0.00    -0.744 OA
ENDBRANCH  63  67
ENDBRANCH  37  60
ENDBRANCH  11  12
ENDBRANCH   4   6
ENDBRANCH   3   4
ENDBRANCH   2   3
ENDBRANCH   1   2
BRANCH   1  71
ATOM     71  O   UNL     1       3.631   1.705  -1.162  1.00  0.00    -0.458 OA
BRANCH  71  72
ATOM     72  C   UNL     1       2.276   1.777  -1.227  1.00  0.00     0.338 C 
ATOM     73  O   UNL     1       1.535   1.115  -1.926  1.00  0.00    -0.246 OA
BRANCH  72  74
ATOM     74  C   UNL     1       1.789   2.725  -0.209  1.00  0.00     0.062 A 
ATOM     75  C   UNL     1       2.260   4.041  -0.159  1.00  0.00     0.016 A 
ATOM     76  C   UNL     1       0.838   2.264   0.711  1.00  0.00     0.042 A 
ATOM     77  C   UNL     1       1.741   4.914   0.799  1.00  0.00     0.017 A 
ATOM     78  C   UNL     1       0.403   3.117   1.722  1.00  0.00     0.056 A 
ATOM     79  C   UNL     1       0.808   4.442   1.729  1.00  0.00     0.064 A 
ATOM     80  N   UNL     1      -0.388   2.642   2.763  1.00  0.00    -0.307 N 
ATOM     81  C   UNL     1       0.175   5.341   2.702  1.00  0.00     0.264 A 
ATOM     82  C   UNL     1      -0.766   3.401   3.840  1.00  0.00     0.328 A 
ATOM     83  H   UNL     1      -0.695   1.707   2.724  1.00  0.00     0.171 HD
ATOM     84  O   UNL     1       0.154   6.534   2.423  1.00  0.00    -0.268 OA
ATOM     85  N   UNL     1      -0.437   4.749   3.803  1.00  0.00    -0.260 N 
ATOM     86  O   UNL     1      -1.399   2.855   4.743  1.00  0.00    -0.248 OA
BRANCH  85  87
ATOM     87  C   UNL     1      -0.960   5.622   4.858  1.00  0.00     0.137 C 
BRANCH  87  88
ATOM     88  C   UNL     1       0.088   6.113   5.873  1.00  0.00     0.083 C 
BRANCH  88  89
ATOM     89  C   UNL     1       0.974   7.275   5.395  1.00  0.00     0.264 C 
BRANCH  89  90
ATOM     90  N   UNL     1       0.191   8.378   4.823  1.00  0.00    -0.331 N 
ATOM     91  C   UNL     1       1.030   9.227   3.946  1.00  0.00     0.291 C 
ATOM     92  C   UNL     1      -0.485   9.235   5.812  1.00  0.00     0.291 C 
ATOM     93  H   UNL     1      -0.542   7.915   4.286  1.00  0.00     0.348 HD
ATOM     94  C   UNL     1       1.919  10.228   4.697  1.00  0.00     0.221 C 
ATOM     95  C   UNL     1       0.429  10.259   6.505  1.00  0.00     0.221 C 
ATOM     96  O   UNL     1       1.113  11.064   5.539  1.00  0.00    -0.370 OA
ENDBRANCH  89  90
ENDBRANCH  88  89
ENDBRANCH  87  88
ENDBRANCH  85  87
ENDBRANCH  72  74
ENDBRANCH  71  72
ENDBRANCH   1  71
TORSDOF 18
