REMARK SMILES C/C(=N\O)[C@@H]1C[C@@H](CC(=O)OCCOC(=O)c2ccc(-c3c4nc(c(-c5cc(S(=O)(=O)[O-])ccc5F)c5ccc([nH]5)c(-c5cc(S(=O)(=O)[O-])ccc5F)c5nc(c(-c6cc(S(=O)(=O)[O-])ccc6F)c6ccc3[nH]6)C=C5)C=C4)cc2)C1(C)C
REMARK SMILES IDX 12 1 11 2 9 3 10 4 8 5 7 6 5 7 6 8 80 9 81 10 82 11 2 12
REMARK SMILES IDX 1 13 3 14 4 15 13 17 14 18 15 19 16 20 17 21 18 22 79 23
REMARK SMILES IDX 19 24 78 25 20 26 21 27 22 28 72 29 23 30 77 31 71 32 73 33
REMARK SMILES IDX 24 34 76 35 70 36 69 37 25 39 57 40 37 41 56 42 38 43 41 44
REMARK SMILES IDX 55 45 74 46 39 47 40 48 54 50 75 51 42 52 26 53 27 54 35 55
REMARK SMILES IDX 28 56 34 57 36 58 33 59 29 60 30 61 31 62 32 63 58 64 59 65
REMARK SMILES IDX 67 66 60 67 66 68 68 69 65 70 61 71 62 72 63 73 64 74 43 75
REMARK SMILES IDX 44 76 52 77 45 78 51 79 53 80 50 81 46 82 47 83 48 84 49 85
REMARK H PARENT 4 16 73 38 41 49
REMARK Flexibility Score: inf
ROOT
ATOM      1  C   UNL     1       3.322  -0.217   6.194  1.00  0.00     0.274 C 
ENDROOT
BRANCH   1   2
ATOM      2  O   UNL     1       2.420   0.145   5.133  1.00  0.00    -0.462 OA
BRANCH   2   3
ATOM      3  C   UNL     1       1.093   0.031   5.384  1.00  0.00     0.306 C 
ATOM      4  O   UNL     1       0.613  -0.438   6.408  1.00  0.00    -0.252 OA
BRANCH   3   5
ATOM      5  C   UNL     1       0.245   0.507   4.230  1.00  0.00     0.127 C 
BRANCH   5   6
ATOM      6  C   UNL     1       0.873   1.548   3.300  1.00  0.00     0.007 C 
ATOM      7  C   UNL     1       1.031   2.048   1.172  1.00  0.00     0.043 C 
ATOM      8  C   UNL     1      -0.095   2.094   2.229  1.00  0.00     0.015 C 
ATOM      9  C   UNL     1       1.856   1.128   2.149  1.00  0.00    -0.024 C 
ATOM     10  C   UNL     1       1.808  -0.340   1.715  1.00  0.00     0.012 C 
ATOM     11  C   UNL     1       3.301   1.562   2.411  1.00  0.00     0.012 C 
BRANCH   7  12
ATOM     12  C   UNL     1       1.698   3.373   0.651  1.00  0.00     0.058 C 
ATOM     13  C   UNL     1       1.205   4.710   1.153  1.00  0.00     0.066 C 
ATOM     14  N   UNL     1       2.639   3.217  -0.237  1.00  0.00    -0.099 NA
BRANCH  14  15
ATOM     15  O   UNL     1       3.183   4.432  -0.656  1.00  0.00    -0.411 OA
ATOM     16  H   UNL     1       3.869   4.443  -1.294  1.00  0.00     0.330 HD
ENDBRANCH  14  15
ENDBRANCH   7  12
ENDBRANCH   5   6
ENDBRANCH   3   5
ENDBRANCH   2   3
ENDBRANCH   1   2
BRANCH   1  17
ATOM     17  C   UNL     1       3.979   1.032   6.782  1.00  0.00     0.275 C 
BRANCH  17  18
ATOM     18  O   UNL     1       3.009   1.839   7.472  1.00  0.00    -0.458 OA
BRANCH  18  19
ATOM     19  C   UNL     1       2.536   2.899   6.774  1.00  0.00     0.338 C 
ATOM     20  O   UNL     1       2.892   3.279   5.673  1.00  0.00    -0.246 OA
BRANCH  19  21
ATOM     21  C   UNL     1       1.397   3.479   7.501  1.00  0.00     0.060 A 
ATOM     22  C   UNL     1       0.116   3.294   6.977  1.00  0.00     0.016 A 
ATOM     23  C   UNL     1       1.592   4.248   8.649  1.00  0.00     0.016 A 
ATOM     24  C   UNL     1      -0.983   3.878   7.600  1.00  0.00     0.010 A 
ATOM     25  C   UNL     1       0.486   4.831   9.277  1.00  0.00     0.010 A 
ATOM     26  C   UNL     1      -0.807   4.657   8.752  1.00  0.00    -0.014 A 
BRANCH  26  27
ATOM     27  C   UNL     1      -1.979   5.319   9.377  1.00  0.00     0.031 A 
ATOM     28  C   UNL     1      -2.179   6.799   9.211  1.00  0.00     0.074 A 
ATOM     29  C   UNL     1      -2.865   4.586  10.078  1.00  0.00     0.049 A 
ATOM     30  N   UNL     1      -3.108   7.570   9.715  1.00  0.00    -0.248 NA
ATOM     31  C   UNL     1      -1.200   7.505   8.371  1.00  0.00     0.031 C 
ATOM     32  C   UNL     1      -2.783   3.138  10.284  1.00  0.00     0.029 A 
ATOM     33  N   UNL     1      -4.001   4.955  10.752  1.00  0.00    -0.354 N 
ATOM     34  C   UNL     1      -2.816   8.856   9.274  1.00  0.00     0.074 A 
ATOM     35  C   UNL     1      -1.612   8.761   8.473  1.00  0.00     0.031 C 
ATOM     36  C   UNL     1      -3.822   2.745  11.039  1.00  0.00     0.029 A 
ATOM     37  C   UNL     1      -4.618   3.913  11.405  1.00  0.00     0.049 A 
ATOM     38  H   UNL     1      -4.343   5.878  10.766  1.00  0.00     0.167 HD
ATOM     39  C   UNL     1      -3.491  10.006   9.516  1.00  0.00     0.034 A 
ATOM     40  C   UNL     1      -5.685   3.907  12.230  1.00  0.00     0.034 A 
ATOM     41  C   UNL     1      -4.697  10.082  10.305  1.00  0.00     0.049 A 
ATOM     42  C   UNL     1      -6.396   5.207  12.510  1.00  0.00     0.074 A 
ATOM     43  C   UNL     1      -5.486  11.188  10.569  1.00  0.00     0.029 A 
ATOM     44  N   UNL     1      -5.282   9.011  10.969  1.00  0.00    -0.354 N 
ATOM     45  N   UNL     1      -6.123   6.412  12.062  1.00  0.00    -0.248 NA
ATOM     46  C   UNL     1      -7.562   5.146  13.400  1.00  0.00     0.031 C 
ATOM     47  C   UNL     1      -6.510  10.800  11.441  1.00  0.00     0.029 A 
ATOM     48  C   UNL     1      -6.401   9.438  11.669  1.00  0.00     0.049 A 
ATOM     49  H   UNL     1      -4.952   8.084  10.945  1.00  0.00     0.167 HD
ATOM     50  C   UNL     1      -7.097   7.246  12.603  1.00  0.00     0.074 A 
ATOM     51  C   UNL     1      -7.975   6.404  13.389  1.00  0.00     0.031 C 
ATOM     52  C   UNL     1      -7.255   8.588  12.464  1.00  0.00     0.034 A 
BRANCH  39  53
ATOM     53  C   UNL     1      -2.908  11.285   8.969  1.00  0.00     0.023 A 
ATOM     54  C   UNL     1      -2.849  11.549   7.589  1.00  0.00     0.031 A 
ATOM     55  C   UNL     1      -2.394  12.254   9.849  1.00  0.00     0.131 A 
ATOM     56  C   UNL     1      -2.241  12.728   7.129  1.00  0.00     0.055 A 
ATOM     57  C   UNL     1      -1.850  13.454   9.388  1.00  0.00     0.041 A 
ATOM     58  F   UNL     1      -2.406  12.045  11.175  1.00  0.00    -0.206 F 
ATOM     59  C   UNL     1      -1.762  13.692   8.020  1.00  0.00     0.022 A 
BRANCH  56  60
ATOM     60  S   UNL     1      -1.988  12.939   5.346  1.00  0.00     0.124 S 
ATOM     61  O   UNL     1      -1.138  11.793   5.030  1.00  0.00    -0.237 OA
ATOM     62  O   UNL     1      -3.349  12.887   4.825  1.00  0.00    -0.237 OA
ATOM     63  O   UNL     1      -1.331  14.240   5.244  1.00  0.00    -0.744 OA
ENDBRANCH  56  60
ENDBRANCH  39  53
BRANCH  40  64
ATOM     64  C   UNL     1      -6.118   2.646  12.897  1.00  0.00     0.023 A 
ATOM     65  C   UNL     1      -7.380   2.084  12.646  1.00  0.00     0.031 A 
ATOM     66  C   UNL     1      -5.294   2.019  13.849  1.00  0.00     0.131 A 
ATOM     67  C   UNL     1      -7.801   0.959  13.373  1.00  0.00     0.055 A 
ATOM     68  C   UNL     1      -5.695   0.870  14.531  1.00  0.00     0.041 A 
ATOM     69  F   UNL     1      -4.078   2.517  14.128  1.00  0.00    -0.206 F 
ATOM     70  C   UNL     1      -6.962   0.342  14.305  1.00  0.00     0.022 A 
BRANCH  67  71
ATOM     71  S   UNL     1      -9.503   0.371  13.156  1.00  0.00     0.124 S 
ATOM     72  O   UNL     1     -10.275   1.572  13.453  1.00  0.00    -0.237 OA
ATOM     73  O   UNL     1      -9.497  -0.060  11.762  1.00  0.00    -0.237 OA
ATOM     74  O   UNL     1      -9.619  -0.705  14.138  1.00  0.00    -0.744 OA
ENDBRANCH  67  71
ENDBRANCH  40  64
BRANCH  52  75
ATOM     75  C   UNL     1      -8.442   9.207  13.157  1.00  0.00     0.023 A 
ATOM     76  C   UNL     1      -8.525   9.272  14.559  1.00  0.00     0.031 A 
ATOM     77  C   UNL     1      -9.519   9.710  12.406  1.00  0.00     0.131 A 
ATOM     78  C   UNL     1      -9.685   9.773  15.168  1.00  0.00     0.055 A 
ATOM     79  C   UNL     1     -10.647  10.260  13.017  1.00  0.00     0.041 A 
ATOM     80  F   UNL     1      -9.492   9.672  11.064  1.00  0.00    -0.206 F 
ATOM     81  C   UNL     1     -10.741  10.280  14.405  1.00  0.00     0.022 A 
BRANCH  78  82
ATOM     82  S   UNL     1      -9.839   9.664  16.973  1.00  0.00     0.124 S 
ATOM     83  O   UNL     1      -9.697   8.231  17.205  1.00  0.00    -0.237 OA
ATOM     84  O   UNL     1      -8.731  10.497  17.430  1.00  0.00    -0.237 OA
ATOM     85  O   UNL     1     -11.170  10.206  17.237  1.00  0.00    -0.744 OA
ENDBRANCH  78  82
ENDBRANCH  52  75
ENDBRANCH  26  27
ENDBRANCH  19  21
ENDBRANCH  18  19
ENDBRANCH  17  18
ENDBRANCH   1  17
TORSDOF 17
