REMARK SMILES Cc1ccc2c(c1)c(-c1ccnc3c(C)cccc13)c(C)n2CC(=O)OCCOC(=O)c1ccc(-c2c3nc(c(-c4cc(S(=O)(=O)[O-])ccc4F)c4ccc([nH]4)c(-c4cc(S(=O)(=O)[O-])ccc4F)c4nc(c(-c5cc(S(=O)(=O)[O-])ccc5F)c5ccc2[nH]5)C=C4)C=C3)cc1
REMARK SMILES IDX 28 1 27 2 26 3 24 4 25 5 23 6 22 7 1 8 2 9 3 10 7 11 4 12
REMARK SMILES IDX 6 13 5 14 8 15 20 16 21 17 9 18 10 19 19 20 11 21 13 22
REMARK SMILES IDX 18 23 12 24 14 25 17 26 15 27 16 28 29 29 30 30 31 31 32 32
REMARK SMILES IDX 33 33 94 34 34 35 93 36 35 37 36 38 37 39 87 40 38 41 92 42
REMARK SMILES IDX 86 43 88 44 39 45 91 46 85 47 84 48 40 50 72 51 52 52 71 53
REMARK SMILES IDX 53 54 56 55 70 56 89 57 54 58 55 59 69 61 90 62 57 63 41 64
REMARK SMILES IDX 42 65 50 66 43 67 49 68 51 69 48 70 44 71 45 72 46 73 47 74
REMARK SMILES IDX 73 75 74 76 82 77 75 78 81 79 83 80 80 81 76 82 77 83 78 84
REMARK SMILES IDX 79 85 58 86 59 87 67 88 60 89 66 90 68 91 65 92 61 93 62 94
REMARK SMILES IDX 63 95 64 96
REMARK H PARENT 88 49 56 60
REMARK Flexibility Score: inf
ROOT
ATOM      1  C   UNL     1      -2.401  -7.952   3.805  1.00  0.00     0.275 C 
ENDROOT
BRANCH   1   2
ATOM      2  C   UNL     1      -1.061  -7.226   3.640  1.00  0.00     0.274 C 
BRANCH   2   3
ATOM      3  O   UNL     1      -1.052  -6.402   2.442  1.00  0.00    -0.461 OA
BRANCH   3   4
ATOM      4  C   UNL     1      -0.168  -6.772   1.480  1.00  0.00     0.326 C 
ATOM      5  O   UNL     1       0.555  -7.762   1.585  1.00  0.00    -0.250 OA
BRANCH   4   6
ATOM      6  C   UNL     1      -0.101  -5.905   0.245  1.00  0.00     0.244 C 
BRANCH   6   7
ATOM      7  N   UNL     1      -0.786  -4.617   0.229  1.00  0.00    -0.333 N 
ATOM      8  C   UNL     1       1.262   0.629   0.024  1.00  0.00     0.044 C 
ATOM      9  C   UNL     1       0.794  -0.788   0.128  1.00  0.00    -0.050 A 
ATOM     10  C   UNL     1       1.711  -1.837   0.053  1.00  0.00     0.005 A 
ATOM     11  C   UNL     1      -0.578  -1.060   0.244  1.00  0.00     0.014 A 
ATOM     12  C   UNL     1       1.293  -3.163   0.111  1.00  0.00     0.027 A 
ATOM     13  C   UNL     1      -1.026  -2.393   0.247  1.00  0.00     0.008 A 
ATOM     14  C   UNL     1      -0.083  -3.420   0.203  1.00  0.00     0.049 A 
ATOM     15  C   UNL     1      -2.305  -3.004   0.231  1.00  0.00     0.011 A 
ATOM     16  C   UNL     1      -2.109  -4.339  -0.075  1.00  0.00     0.024 A 
ATOM     17  C   UNL     1      -3.123  -5.259  -0.650  1.00  0.00     0.065 C 
BRANCH  15  18
ATOM     18  C   UNL     1      -3.639  -2.427   0.260  1.00  0.00    -0.005 A 
ATOM     19  C   UNL     1      -4.131  -1.811  -0.886  1.00  0.00     0.029 A 
ATOM     20  C   UNL     1      -4.459  -2.575   1.407  1.00  0.00     0.008 A 
ATOM     21  C   UNL     1      -5.421  -1.335  -0.847  1.00  0.00     0.112 A 
ATOM     22  C   UNL     1      -5.755  -2.018   1.356  1.00  0.00     0.074 A 
ATOM     23  C   UNL     1      -4.042  -3.261   2.577  1.00  0.00     0.011 A 
ATOM     24  N   UNL     1      -6.217  -1.405   0.243  1.00  0.00    -0.256 NA
ATOM     25  C   UNL     1      -6.568  -2.120   2.496  1.00  0.00    -0.025 A 
ATOM     26  C   UNL     1      -4.867  -3.372   3.687  1.00  0.00     0.001 A 
ATOM     27  C   UNL     1      -7.938  -1.497   2.540  1.00  0.00     0.047 C 
ATOM     28  C   UNL     1      -6.122  -2.788   3.652  1.00  0.00     0.005 A 
ENDBRANCH  15  18
ENDBRANCH   6   7
ENDBRANCH   4   6
ENDBRANCH   3   4
ENDBRANCH   2   3
ENDBRANCH   1   2
BRANCH   1  29
ATOM     29  O   UNL     1      -2.472  -9.033   2.862  1.00  0.00    -0.458 OA
BRANCH  29  30
ATOM     30  C   UNL     1      -3.211  -8.792   1.747  1.00  0.00     0.338 C 
ATOM     31  O   UNL     1      -4.107  -7.989   1.625  1.00  0.00    -0.246 OA
BRANCH  30  32
ATOM     32  C   UNL     1      -2.434  -9.373   0.629  1.00  0.00     0.060 A 
ATOM     33  C   UNL     1      -1.799 -10.605   0.688  1.00  0.00     0.016 A 
ATOM     34  C   UNL     1      -2.141  -8.493  -0.406  1.00  0.00     0.016 A 
ATOM     35  C   UNL     1      -0.741 -10.848  -0.187  1.00  0.00     0.010 A 
ATOM     36  C   UNL     1      -1.075  -8.713  -1.257  1.00  0.00     0.010 A 
ATOM     37  C   UNL     1      -0.312  -9.851  -1.080  1.00  0.00    -0.014 A 
BRANCH  37  38
ATOM     38  C   UNL     1       0.771 -10.116  -2.012  1.00  0.00     0.031 A 
ATOM     39  C   UNL     1       0.300 -10.881  -3.181  1.00  0.00     0.074 A 
ATOM     40  C   UNL     1       2.055  -9.710  -1.968  1.00  0.00     0.049 A 
ATOM     41  N   UNL     1       0.344 -12.162  -3.295  1.00  0.00    -0.248 NA
ATOM     42  C   UNL     1      -0.481 -10.198  -4.217  1.00  0.00     0.031 C 
ATOM     43  C   UNL     1       2.708  -8.704  -1.133  1.00  0.00     0.029 A 
ATOM     44  N   UNL     1       3.072 -10.157  -2.760  1.00  0.00    -0.354 N 
ATOM     45  C   UNL     1      -0.250 -12.456  -4.510  1.00  0.00     0.074 A 
ATOM     46  C   UNL     1      -0.899 -11.240  -4.939  1.00  0.00     0.031 C 
ATOM     47  C   UNL     1       3.973  -8.497  -1.586  1.00  0.00     0.029 A 
ATOM     48  C   UNL     1       4.269  -9.471  -2.627  1.00  0.00     0.049 A 
ATOM     49  H   UNL     1       2.964 -10.913  -3.382  1.00  0.00     0.167 HD
ATOM     50  C   UNL     1       0.004 -13.635  -5.141  1.00  0.00     0.034 A 
ATOM     51  C   UNL     1       5.410  -9.700  -3.329  1.00  0.00     0.034 A 
ATOM     52  C   UNL     1       0.723 -14.540  -4.275  1.00  0.00     0.049 A 
ATOM     53  C   UNL     1       5.357 -11.084  -3.861  1.00  0.00     0.074 A 
ATOM     54  C   UNL     1       0.437 -15.152  -3.070  1.00  0.00     0.029 A 
ATOM     55  N   UNL     1       2.091 -14.594  -4.409  1.00  0.00    -0.354 N 
ATOM     56  N   UNL     1       5.484 -12.150  -3.126  1.00  0.00    -0.248 NA
ATOM     57  C   UNL     1       4.741 -11.294  -5.162  1.00  0.00     0.031 C 
ATOM     58  C   UNL     1       1.659 -15.125  -2.337  1.00  0.00     0.029 A 
ATOM     59  C   UNL     1       2.641 -14.555  -3.150  1.00  0.00     0.049 A 
ATOM     60  H   UNL     1       2.589 -14.649  -5.256  1.00  0.00     0.167 HD
ATOM     61  C   UNL     1       4.544 -13.031  -3.636  1.00  0.00     0.074 A 
ATOM     62  C   UNL     1       4.209 -12.501  -4.957  1.00  0.00     0.031 C 
ATOM     63  C   UNL     1       3.916 -13.939  -2.832  1.00  0.00     0.034 A 
BRANCH  50  64
ATOM     64  C   UNL     1      -0.121 -13.844  -6.623  1.00  0.00     0.023 A 
ATOM     65  C   UNL     1      -0.266 -12.785  -7.537  1.00  0.00     0.031 A 
ATOM     66  C   UNL     1       0.101 -15.116  -7.182  1.00  0.00     0.131 A 
ATOM     67  C   UNL     1      -0.215 -12.994  -8.919  1.00  0.00     0.055 A 
ATOM     68  C   UNL     1       0.222 -15.317  -8.562  1.00  0.00     0.041 A 
ATOM     69  F   UNL     1       0.259 -16.197  -6.401  1.00  0.00    -0.206 F 
ATOM     70  C   UNL     1       0.062 -14.253  -9.440  1.00  0.00     0.022 A 
BRANCH  67  71
ATOM     71  S   UNL     1      -0.501 -11.616 -10.063  1.00  0.00     0.124 S 
ATOM     72  O   UNL     1       0.763 -11.561 -10.789  1.00  0.00    -0.237 OA
ATOM     73  O   UNL     1      -1.651 -12.097 -10.824  1.00  0.00    -0.237 OA
ATOM     74  O   UNL     1      -0.775 -10.488  -9.177  1.00  0.00    -0.744 OA
ENDBRANCH  67  71
ENDBRANCH  50  64
BRANCH  51  75
ATOM     75  C   UNL     1       6.326  -8.703  -3.930  1.00  0.00     0.023 A 
ATOM     76  C   UNL     1       5.827  -7.439  -4.282  1.00  0.00     0.031 A 
ATOM     77  C   UNL     1       7.553  -9.098  -4.500  1.00  0.00     0.131 A 
ATOM     78  C   UNL     1       6.488  -6.660  -5.241  1.00  0.00     0.055 A 
ATOM     79  C   UNL     1       8.226  -8.305  -5.437  1.00  0.00     0.041 A 
ATOM     80  F   UNL     1       8.076 -10.304  -4.228  1.00  0.00    -0.206 F 
ATOM     81  C   UNL     1       7.680  -7.086  -5.829  1.00  0.00     0.022 A 
BRANCH  78  82
ATOM     82  S   UNL     1       5.733  -5.119  -5.826  1.00  0.00     0.124 S 
ATOM     83  O   UNL     1       6.878  -4.212  -5.882  1.00  0.00    -0.237 OA
ATOM     84  O   UNL     1       5.190  -5.529  -7.116  1.00  0.00    -0.237 OA
ATOM     85  O   UNL     1       4.752  -4.809  -4.790  1.00  0.00    -0.744 OA
ENDBRANCH  78  82
ENDBRANCH  51  75
BRANCH  63  86
ATOM     86  C   UNL     1       4.437 -14.140  -1.420  1.00  0.00     0.023 A 
ATOM     87  C   UNL     1       4.591 -15.463  -0.968  1.00  0.00     0.031 A 
ATOM     88  C   UNL     1       4.606 -13.114  -0.468  1.00  0.00     0.131 A 
ATOM     89  C   UNL     1       4.870 -15.729   0.379  1.00  0.00     0.055 A 
ATOM     90  C   UNL     1       4.959 -13.380   0.860  1.00  0.00     0.041 A 
ATOM     91  F   UNL     1       4.359 -11.832  -0.763  1.00  0.00    -0.206 F 
ATOM     92  C   UNL     1       5.077 -14.694   1.294  1.00  0.00     0.022 A 
BRANCH  89  93
ATOM     93  S   UNL     1       4.813 -17.427   1.007  1.00  0.00     0.124 S 
ATOM     94  O   UNL     1       6.207 -17.670   1.366  1.00  0.00    -0.237 OA
ATOM     95  O   UNL     1       3.888 -17.311   2.134  1.00  0.00    -0.237 OA
ATOM     96  O   UNL     1       4.312 -18.204  -0.122  1.00  0.00    -0.744 OA
ENDBRANCH  89  93
ENDBRANCH  63  86
ENDBRANCH  37  38
ENDBRANCH  30  32
ENDBRANCH  29  30
ENDBRANCH   1  29
TORSDOF 16
