REMARK SMILES CSc1ccc(/C=C2\C(C)=C(CC(=O)OCCOC(=O)c3ccc(-c4c5nc(c(-c6cc(S(=O)(=O)[O-])ccc6F)c6ccc([nH]6)c(-c6cc(S(=O)(=O)[O-])ccc6F)c6nc(c(-c7cc(S(=O)(=O)[O-])ccc7F)c7ccc4[nH]7)C=C6)C=C5)cc3)c3cc(F)ccc32)cc1
REMARK SMILES IDX 16 1 15 2 13 3 14 4 12 5 11 6 7 7 8 8 9 9 90 10 10 11 84 12
REMARK SMILES IDX 89 13 85 14 88 15 86 16 87 17 6 18 3 19 4 20 92 21 5 22
REMARK SMILES IDX 91 23 2 24 1 25 17 26 18 27 19 28 20 29 21 30 22 31 83 32
REMARK SMILES IDX 23 33 82 34 24 35 25 36 26 37 76 38 27 39 81 40 75 41 77 42
REMARK SMILES IDX 28 43 80 44 74 45 73 46 29 48 61 49 41 50 60 51 42 52 45 53
REMARK SMILES IDX 59 54 78 55 43 56 44 57 58 59 79 60 46 61 30 62 31 63 39 64
REMARK SMILES IDX 32 65 38 66 40 67 37 68 33 69 34 70 35 71 36 72 62 73 63 74
REMARK SMILES IDX 71 75 64 76 70 77 72 78 69 79 65 80 66 81 67 82 68 83 47 84
REMARK SMILES IDX 48 85 56 86 49 87 55 88 57 89 54 90 50 91 51 92 52 93 53 94
REMARK H PARENT 77 47 45 58
REMARK Flexibility Score: inf
ROOT
ATOM      1  C   UNL     1       0.128   6.893   8.844  1.00  0.00     0.274 C 
ENDROOT
BRANCH   1   2
ATOM      2  O   UNL     1       0.220   6.314   7.522  1.00  0.00    -0.462 OA
BRANCH   2   3
ATOM      3  C   UNL     1       0.767   7.131   6.582  1.00  0.00     0.310 C 
ATOM      4  O   UNL     1       0.710   8.359   6.621  1.00  0.00    -0.252 OA
BRANCH   3   5
ATOM      5  C   UNL     1       1.543   6.383   5.506  1.00  0.00     0.159 C 
BRANCH   5   6
ATOM      6  C   UNL     1       1.561   4.839   5.518  1.00  0.00    -0.025 C 
ATOM      7  C   UNL     1       2.834   4.675   2.317  1.00  0.00     0.017 C 
ATOM      8  C   UNL     1       2.623   4.356   3.604  1.00  0.00    -0.014 C 
ATOM      9  C   UNL     1       1.326   4.233   4.322  1.00  0.00    -0.039 C 
ATOM     10  C   UNL     1       3.638   4.099   4.640  1.00  0.00    -0.010 A 
ATOM     11  C   UNL     1       0.798   2.803   4.284  1.00  0.00     0.045 C 
ATOM     12  C   UNL     1       2.908   4.254   5.837  1.00  0.00    -0.011 A 
ATOM     13  C   UNL     1       4.811   3.360   4.584  1.00  0.00     0.012 A 
ATOM     14  C   UNL     1       3.286   3.564   6.976  1.00  0.00     0.048 A 
ATOM     15  C   UNL     1       5.223   2.713   5.755  1.00  0.00     0.040 A 
ATOM     16  C   UNL     1       4.452   2.802   6.922  1.00  0.00     0.123 A 
ATOM     17  F   UNL     1       4.793   2.067   7.990  1.00  0.00    -0.207 F 
BRANCH   7  18
ATOM     18  C   UNL     1       1.840   4.643   1.216  1.00  0.00    -0.025 A 
ATOM     19  C   UNL     1       0.428   3.303  -0.762  1.00  0.00     0.007 A 
ATOM     20  C   UNL     1      -0.197   3.597   0.443  1.00  0.00     0.015 A 
ATOM     21  C   UNL     1       1.637   3.921  -1.081  1.00  0.00     0.015 A 
ATOM     22  C   UNL     1       0.492   4.322   1.409  1.00  0.00     0.009 A 
ATOM     23  C   UNL     1       2.346   4.595  -0.087  1.00  0.00     0.009 A 
BRANCH  19  24
ATOM     24  S   UNL     1      -0.143   1.919  -1.728  1.00  0.00    -0.130 SA
ATOM     25  C   UNL     1       0.590   0.617  -0.676  1.00  0.00     0.091 C 
ENDBRANCH  19  24
ENDBRANCH   7  18
ENDBRANCH   5   6
ENDBRANCH   3   5
ENDBRANCH   2   3
ENDBRANCH   1   2
BRANCH   1  26
ATOM     26  C   UNL     1       0.630   5.852   9.867  1.00  0.00     0.275 C 
BRANCH  26  27
ATOM     27  O   UNL     1       2.043   5.857  10.226  1.00  0.00    -0.458 OA
BRANCH  27  28
ATOM     28  C   UNL     1       2.940   6.055   9.246  1.00  0.00     0.338 C 
ATOM     29  O   UNL     1       2.672   6.410   8.102  1.00  0.00    -0.246 OA
BRANCH  28  30
ATOM     30  C   UNL     1       4.350   5.798   9.556  1.00  0.00     0.060 A 
ATOM     31  C   UNL     1       5.258   6.150   8.540  1.00  0.00     0.016 A 
ATOM     32  C   UNL     1       4.805   5.200  10.730  1.00  0.00     0.016 A 
ATOM     33  C   UNL     1       6.612   5.933   8.694  1.00  0.00     0.010 A 
ATOM     34  C   UNL     1       6.183   5.020  10.904  1.00  0.00     0.010 A 
ATOM     35  C   UNL     1       7.087   5.410   9.898  1.00  0.00    -0.014 A 
BRANCH  35  36
ATOM     36  C   UNL     1       8.546   5.401  10.121  1.00  0.00     0.031 A 
ATOM     37  C   UNL     1       9.321   4.126  10.072  1.00  0.00     0.074 A 
ATOM     38  C   UNL     1       9.154   6.585  10.323  1.00  0.00     0.049 A 
ATOM     39  N   UNL     1      10.591   3.931  10.308  1.00  0.00    -0.248 NA
ATOM     40  C   UNL     1       8.574   2.914   9.710  1.00  0.00     0.031 C 
ATOM     41  C   UNL     1       8.479   7.888  10.322  1.00  0.00     0.029 A 
ATOM     42  N   UNL     1      10.466   6.892  10.563  1.00  0.00    -0.354 N 
ATOM     43  C   UNL     1      10.802   2.569  10.139  1.00  0.00     0.074 A 
ATOM     44  C   UNL     1       9.519   1.987   9.796  1.00  0.00     0.031 C 
ATOM     45  C   UNL     1       9.384   8.851  10.545  1.00  0.00     0.029 A 
ATOM     46  C   UNL     1      10.683   8.233  10.774  1.00  0.00     0.049 A 
ATOM     47  H   UNL     1      11.184   6.219  10.582  1.00  0.00     0.167 HD
ATOM     48  C   UNL     1      11.964   1.882  10.264  1.00  0.00     0.034 A 
ATOM     49  C   UNL     1      11.796   8.886  11.155  1.00  0.00     0.034 A 
ATOM     50  C   UNL     1      13.222   2.498  10.623  1.00  0.00     0.049 A 
ATOM     51  C   UNL     1      13.050   8.086  11.373  1.00  0.00     0.074 A 
ATOM     52  C   UNL     1      14.461   1.901  10.786  1.00  0.00     0.029 A 
ATOM     53  N   UNL     1      13.400   3.852  10.886  1.00  0.00    -0.354 N 
ATOM     54  N   UNL     1      13.235   6.792  11.238  1.00  0.00    -0.248 NA
ATOM     55  C   UNL     1      14.242   8.829  11.791  1.00  0.00     0.031 C 
ATOM     56  C   UNL     1      15.368   2.880  11.210  1.00  0.00     0.029 A 
ATOM     57  C   UNL     1      14.718   4.103  11.240  1.00  0.00     0.049 A 
ATOM     58  H   UNL     1      12.693   4.535  10.829  1.00  0.00     0.167 HD
ATOM     59  C   UNL     1      14.574   6.570  11.539  1.00  0.00     0.074 A 
ATOM     60  C   UNL     1      15.150   7.866  11.842  1.00  0.00     0.031 C 
ATOM     61  C   UNL     1      15.266   5.402  11.561  1.00  0.00     0.034 A 
BRANCH  48  62
ATOM     62  C   UNL     1      11.905   0.386  10.079  1.00  0.00     0.023 A 
ATOM     63  C   UNL     1      11.575  -0.199   8.843  1.00  0.00     0.031 A 
ATOM     64  C   UNL     1      12.155  -0.471  11.166  1.00  0.00     0.131 A 
ATOM     65  C   UNL     1      11.441  -1.593   8.741  1.00  0.00     0.055 A 
ATOM     66  C   UNL     1      12.091  -1.860  11.040  1.00  0.00     0.041 A 
ATOM     67  F   UNL     1      12.451   0.029  12.376  1.00  0.00    -0.206 F 
ATOM     68  C   UNL     1      11.719  -2.428   9.826  1.00  0.00     0.022 A 
BRANCH  65  69
ATOM     69  S   UNL     1      10.766  -2.292   7.209  1.00  0.00     0.124 S 
ATOM     70  O   UNL     1       9.477  -1.612   7.113  1.00  0.00    -0.237 OA
ATOM     71  O   UNL     1      11.766  -1.906   6.219  1.00  0.00    -0.237 OA
ATOM     72  O   UNL     1      10.687  -3.724   7.490  1.00  0.00    -0.744 OA
ENDBRANCH  65  69
ENDBRANCH  48  62
BRANCH  49  73
ATOM     73  C   UNL     1      11.754  10.351  11.410  1.00  0.00     0.023 A 
ATOM     74  C   UNL     1      12.500  11.247  10.631  1.00  0.00     0.031 A 
ATOM     75  C   UNL     1      10.974  10.876  12.458  1.00  0.00     0.131 A 
ATOM     76  C   UNL     1      12.480  12.617  10.933  1.00  0.00     0.055 A 
ATOM     77  C   UNL     1      10.915  12.245  12.721  1.00  0.00     0.041 A 
ATOM     78  F   UNL     1      10.238  10.062  13.232  1.00  0.00    -0.206 F 
ATOM     79  C   UNL     1      11.682  13.124  11.962  1.00  0.00     0.022 A 
BRANCH  76  80
ATOM     80  S   UNL     1      13.575  13.725  10.006  1.00  0.00     0.124 S 
ATOM     81  O   UNL     1      14.883  13.131  10.261  1.00  0.00    -0.237 OA
ATOM     82  O   UNL     1      13.063  13.588   8.646  1.00  0.00    -0.237 OA
ATOM     83  O   UNL     1      13.348  15.027  10.628  1.00  0.00    -0.744 OA
ENDBRANCH  76  80
ENDBRANCH  49  73
BRANCH  61  84
ATOM     84  C   UNL     1      16.734   5.500  11.891  1.00  0.00     0.023 A 
ATOM     85  C   UNL     1      17.179   5.872  13.171  1.00  0.00     0.031 A 
ATOM     86  C   UNL     1      17.699   5.251  10.899  1.00  0.00     0.131 A 
ATOM     87  C   UNL     1      18.550   6.043  13.410  1.00  0.00     0.055 A 
ATOM     88  C   UNL     1      19.064   5.365  11.159  1.00  0.00     0.041 A 
ATOM     89  F   UNL     1      17.327   4.896   9.658  1.00  0.00    -0.206 F 
ATOM     90  C   UNL     1      19.497   5.777  12.416  1.00  0.00     0.022 A 
BRANCH  87  91
ATOM     91  S   UNL     1      19.079   6.712  15.011  1.00  0.00     0.124 S 
ATOM     92  O   UNL     1      18.395   8.001  15.042  1.00  0.00    -0.237 OA
ATOM     93  O   UNL     1      18.586   5.706  15.947  1.00  0.00    -0.237 OA
ATOM     94  O   UNL     1      20.534   6.783  14.890  1.00  0.00    -0.744 OA
ENDBRANCH  87  91
ENDBRANCH  61  84
ENDBRANCH  35  36
ENDBRANCH  28  30
ENDBRANCH  27  28
ENDBRANCH  26  27
ENDBRANCH   1  26
TORSDOF 17
