REMARK SMILES O=C1NC(=S)S/C1=C\c1ccc(OCc2cn(-c3ccc(C(=O)OCCOC(=O)c4ccc(-c5c6nc(c(-c7cc(S(=O)(=O)[O-])ccc7F)c7ccc([nH]7)c(-c7cc(S(=O)(=O)[O-])ccc7F)c7nc(c(-c8cc(S(=O)(=O)[O-])ccc8F)c8ccc5[nH]8)C=C7)C=C6)cc4)cc3)nn2)cc1
REMARK SMILES IDX 25 1 24 2 22 3 23 4 21 5 18 6 19 7 94 8 20 9 93 10 17 11
REMARK SMILES IDX 15 12 16 13 96 14 95 15 14 16 13 17 12 18 9 19 10 20 98 21
REMARK SMILES IDX 11 22 97 23 8 24 1 25 2 26 3 27 7 28 4 29 6 31 5 32 26 33
REMARK SMILES IDX 27 34 28 35 29 36 30 37 31 38 92 39 32 40 91 41 33 42 34 43
REMARK SMILES IDX 35 44 85 45 36 46 90 47 84 48 86 49 37 50 89 51 83 52 82 53
REMARK SMILES IDX 38 55 70 56 50 57 69 58 51 59 54 60 68 61 87 62 52 63 53 64
REMARK SMILES IDX 67 66 88 67 55 68 39 69 40 70 48 71 41 72 47 73 49 74 46 75
REMARK SMILES IDX 42 76 43 77 44 78 45 79 71 80 72 81 80 82 73 83 79 84 81 85
REMARK SMILES IDX 78 86 74 87 75 88 76 89 77 90 56 91 57 92 65 93 58 94 64 95
REMARK SMILES IDX 66 96 63 97 59 98 60 99 61 100 62 101
REMARK H PARENT 3 30 86 54 54 65
REMARK Flexibility Score: inf
ROOT
ATOM      1  C   UNL     1       8.129  10.854  -0.259  1.00  0.00     0.275 C 
ENDROOT
BRANCH   1   2
ATOM      2  O   UNL     1       6.749  10.462  -0.261  1.00  0.00    -0.458 OA
BRANCH   2   3
ATOM      3  C   UNL     1       6.277  10.031  -1.456  1.00  0.00     0.338 C 
ATOM      4  O   UNL     1       6.841  10.125  -2.539  1.00  0.00    -0.246 OA
BRANCH   3   5
ATOM      5  C   UNL     1       4.982   9.339  -1.279  1.00  0.00     0.060 A 
ATOM      6  C   UNL     1       2.489   8.100  -1.128  1.00  0.00     0.066 A 
ATOM      7  C   UNL     1       3.422   7.674  -2.084  1.00  0.00     0.029 A 
ATOM      8  C   UNL     1       2.833   9.086  -0.194  1.00  0.00     0.029 A 
ATOM      9  C   UNL     1       4.656   8.315  -2.176  1.00  0.00     0.018 A 
ATOM     10  C   UNL     1       4.090   9.691  -0.259  1.00  0.00     0.018 A 
BRANCH   6  11
ATOM     11  N   UNL     1       1.179   7.573  -1.174  1.00  0.00    -0.220 N 
ATOM     12  C   UNL     1      -0.992   7.325  -1.175  1.00  0.00     0.120 A 
ATOM     13  C   UNL     1       0.014   8.144  -0.706  1.00  0.00     0.144 A 
ATOM     14  N   UNL     1      -0.424   6.296  -1.875  1.00  0.00    -0.131 NA
ATOM     15  N   UNL     1       0.886   6.457  -1.875  1.00  0.00    -0.062 NA
BRANCH  12  16
ATOM     16  C   UNL     1      -2.476   7.480  -1.134  1.00  0.00     0.289 C 
BRANCH  16  17
ATOM     17  O   UNL     1      -3.149   6.735  -0.106  1.00  0.00    -0.487 OA
BRANCH  17  18
ATOM     18  C   UNL     1      -3.145   5.369  -0.192  1.00  0.00     0.119 A 
ATOM     19  C   UNL     1      -2.917   2.575  -0.020  1.00  0.00    -0.024 A 
ATOM     20  C   UNL     1      -3.392   3.308   1.070  1.00  0.00     0.012 A 
ATOM     21  C   UNL     1      -2.648   3.236  -1.220  1.00  0.00     0.012 A 
ATOM     22  C   UNL     1      -3.501   4.700   0.981  1.00  0.00     0.047 A 
ATOM     23  C   UNL     1      -2.788   4.622  -1.312  1.00  0.00     0.047 A 
BRANCH  19  24
ATOM     24  C   UNL     1      -2.677   1.135   0.089  1.00  0.00     0.029 C 
ATOM     25  O   UNL     1      -2.196  -1.732   0.161  1.00  0.00    -0.268 OA
ATOM     26  C   UNL     1      -1.289  -0.915   0.118  1.00  0.00     0.263 C 
ATOM     27  N   UNL     1       0.042  -1.220   0.066  1.00  0.00    -0.307 N 
ATOM     28  C   UNL     1      -1.465   0.561   0.086  1.00  0.00     0.080 C 
ATOM     29  C   UNL     1       0.935  -0.194   0.005  1.00  0.00     0.145 C 
ATOM     30  H   UNL     1       0.347  -2.156   0.074  1.00  0.00     0.171 HD
ATOM     31  S   UNL     1       0.081   1.331   0.022  1.00  0.00    -0.055 SA
ATOM     32  S   UNL     1       2.570  -0.409  -0.083  1.00  0.00    -0.052 S 
ENDBRANCH  19  24
ENDBRANCH  17  18
ENDBRANCH  16  17
ENDBRANCH  12  16
ENDBRANCH   6  11
ENDBRANCH   3   5
ENDBRANCH   2   3
ENDBRANCH   1   2
BRANCH   1  33
ATOM     33  C   UNL     1       9.035   9.668   0.040  1.00  0.00     0.275 C 
BRANCH  33  34
ATOM     34  O   UNL     1       9.073   8.726  -1.034  1.00  0.00    -0.458 OA
BRANCH  34  35
ATOM     35  C   UNL     1       8.271   7.648  -0.860  1.00  0.00     0.338 C 
ATOM     36  O   UNL     1       7.225   7.606  -0.234  1.00  0.00    -0.246 OA
BRANCH  35  37
ATOM     37  C   UNL     1       8.975   6.444  -1.314  1.00  0.00     0.060 A 
ATOM     38  C   UNL     1       8.249   5.256  -1.436  1.00  0.00     0.016 A 
ATOM     39  C   UNL     1      10.376   6.456  -1.357  1.00  0.00     0.016 A 
ATOM     40  C   UNL     1       8.941   4.059  -1.497  1.00  0.00     0.010 A 
ATOM     41  C   UNL     1      11.062   5.263  -1.387  1.00  0.00     0.010 A 
ATOM     42  C   UNL     1      10.341   4.071  -1.411  1.00  0.00    -0.014 A 
BRANCH  42  43
ATOM     43  C   UNL     1      11.069   2.826  -1.595  1.00  0.00     0.031 A 
ATOM     44  C   UNL     1      10.992   2.357  -3.000  1.00  0.00     0.074 A 
ATOM     45  C   UNL     1      11.860   2.266  -0.657  1.00  0.00     0.049 A 
ATOM     46  N   UNL     1      10.351   1.331  -3.448  1.00  0.00    -0.248 NA
ATOM     47  C   UNL     1      11.488   3.254  -4.060  1.00  0.00     0.031 C 
ATOM     48  C   UNL     1      12.205   2.807   0.659  1.00  0.00     0.029 A 
ATOM     49  N   UNL     1      12.613   1.132  -0.721  1.00  0.00    -0.354 N 
ATOM     50  C   UNL     1      10.610   1.304  -4.813  1.00  0.00     0.074 A 
ATOM     51  C   UNL     1      11.067   2.620  -5.154  1.00  0.00     0.031 C 
ATOM     52  C   UNL     1      13.261   2.125   1.161  1.00  0.00     0.029 A 
ATOM     53  C   UNL     1      13.599   1.030   0.263  1.00  0.00     0.049 A 
ATOM     54  H   UNL     1      12.474   0.439  -1.407  1.00  0.00     0.167 HD
ATOM     55  C   UNL     1      10.730   0.117  -5.467  1.00  0.00     0.034 A 
ATOM     56  C   UNL     1      14.645   0.154   0.301  1.00  0.00     0.034 A 
ATOM     57  C   UNL     1      10.135  -0.953  -4.691  1.00  0.00     0.049 A 
ATOM     58  C   UNL     1      14.290  -0.979  -0.591  1.00  0.00     0.074 A 
ATOM     59  C   UNL     1       8.880  -1.165  -4.149  1.00  0.00     0.029 A 
ATOM     60  N   UNL     1      10.977  -1.818  -4.026  1.00  0.00    -0.354 N 
ATOM     61  N   UNL     1      13.321  -1.814  -0.335  1.00  0.00    -0.248 NA
ATOM     62  C   UNL     1      14.667  -0.884  -1.994  1.00  0.00     0.031 C 
ATOM     63  C   UNL     1       9.125  -1.759  -2.876  1.00  0.00     0.029 A 
ATOM     64  C   UNL     1      10.498  -1.978  -2.749  1.00  0.00     0.049 A 
ATOM     65  H   UNL     1      11.781  -2.246  -4.400  1.00  0.00     0.167 HD
ATOM     66  C   UNL     1      12.674  -1.992  -1.548  1.00  0.00     0.074 A 
ATOM     67  C   UNL     1      13.602  -1.470  -2.551  1.00  0.00     0.031 C 
ATOM     68  C   UNL     1      11.336  -2.268  -1.600  1.00  0.00     0.034 A 
BRANCH  55  69
ATOM     69  C   UNL     1      11.751  -0.148  -6.559  1.00  0.00     0.023 A 
ATOM     70  C   UNL     1      11.808  -1.464  -7.054  1.00  0.00     0.031 A 
ATOM     71  C   UNL     1      12.841   0.682  -6.913  1.00  0.00     0.131 A 
ATOM     72  C   UNL     1      12.954  -1.939  -7.712  1.00  0.00     0.055 A 
ATOM     73  C   UNL     1      13.948   0.222  -7.630  1.00  0.00     0.041 A 
ATOM     74  F   UNL     1      12.952   1.957  -6.526  1.00  0.00    -0.206 F 
ATOM     75  C   UNL     1      14.030  -1.107  -7.999  1.00  0.00     0.022 A 
BRANCH  72  76
ATOM     76  S   UNL     1      13.085  -3.719  -8.003  1.00  0.00     0.124 S 
ATOM     77  O   UNL     1      12.941  -4.240  -6.648  1.00  0.00    -0.237 OA
ATOM     78  O   UNL     1      11.966  -3.957  -8.908  1.00  0.00    -0.237 OA
ATOM     79  O   UNL     1      14.411  -3.867  -8.597  1.00  0.00    -0.744 OA
ENDBRANCH  72  76
ENDBRANCH  55  69
BRANCH  56  80
ATOM     80  C   UNL     1      16.039   0.386   0.798  1.00  0.00     0.023 A 
ATOM     81  C   UNL     1      16.957  -0.662   1.060  1.00  0.00     0.031 A 
ATOM     82  C   UNL     1      16.575   1.693   0.780  1.00  0.00     0.131 A 
ATOM     83  C   UNL     1      18.330  -0.377   1.281  1.00  0.00     0.055 A 
ATOM     84  C   UNL     1      17.927   1.967   0.999  1.00  0.00     0.041 A 
ATOM     85  F   UNL     1      15.817   2.752   0.457  1.00  0.00    -0.206 F 
ATOM     86  C   UNL     1      18.814   0.932   1.240  1.00  0.00     0.022 A 
BRANCH  83  87
ATOM     87  S   UNL     1      19.547  -1.716   1.539  1.00  0.00     0.124 S 
ATOM     88  O   UNL     1      19.177  -2.226   2.854  1.00  0.00    -0.237 OA
ATOM     89  O   UNL     1      19.295  -2.596   0.405  1.00  0.00    -0.237 OA
ATOM     90  O   UNL     1      20.836  -1.022   1.494  1.00  0.00    -0.744 OA
ENDBRANCH  83  87
ENDBRANCH  56  80
BRANCH  68  91
ATOM     91  C   UNL     1      10.638  -2.737  -0.338  1.00  0.00     0.023 A 
ATOM     92  C   UNL     1      10.627  -2.058   0.902  1.00  0.00     0.031 A 
ATOM     93  C   UNL     1       9.859  -3.904  -0.445  1.00  0.00     0.131 A 
ATOM     94  C   UNL     1       9.866  -2.565   1.976  1.00  0.00     0.055 A 
ATOM     95  C   UNL     1       9.087  -4.386   0.609  1.00  0.00     0.041 A 
ATOM     96  F   UNL     1       9.812  -4.589  -1.601  1.00  0.00    -0.206 F 
ATOM     97  C   UNL     1       9.094  -3.722   1.827  1.00  0.00     0.022 A 
BRANCH  94  98
ATOM     98  S   UNL     1       9.894  -1.759   3.611  1.00  0.00     0.124 S 
ATOM     99  O   UNL     1      11.305  -1.464   3.828  1.00  0.00    -0.237 OA
ATOM    100  O   UNL     1       9.024  -0.603   3.409  1.00  0.00    -0.237 OA
ATOM    101  O   UNL     1       9.343  -2.782   4.503  1.00  0.00    -0.744 OA
ENDBRANCH  94  98
ENDBRANCH  68  91
ENDBRANCH  42  43
ENDBRANCH  35  37
ENDBRANCH  34  35
ENDBRANCH  33  34
ENDBRANCH   1  33
TORSDOF 19
