REMARK SMILES CC(C)CC[C@@]1(CC(=O)OCCOC(=O)c2ccc(-c3c4nc(c(-c5cc(S(=O)(=O)[O-])ccc5F)c5ccc([nH]5)c(-c5cc(S(=O)(=O)[O-])ccc5F)c5nc(c(-c6cc(S(=O)(=O)[O-])ccc6F)c6ccc3[nH]6)C=C5)C=C4)cc2)CCOC(C)(C)C1
REMARK SMILES IDX 11 1 10 2 8 3 9 4 7 5 6 6 79 7 85 8 80 9 82 10 81 11 83 12
REMARK SMILES IDX 84 13 5 14 4 15 2 16 1 17 3 18 12 19 13 20 14 21 15 22 16 23
REMARK SMILES IDX 17 24 78 25 18 26 77 27 19 28 20 29 21 30 71 31 22 32 76 33
REMARK SMILES IDX 70 34 72 35 23 36 75 37 69 38 68 39 24 41 56 42 36 43 55 44
REMARK SMILES IDX 37 45 40 46 54 47 73 48 38 49 39 50 53 52 74 53 41 54 25 55
REMARK SMILES IDX 26 56 34 57 27 58 33 59 35 60 32 61 28 62 29 63 30 64 31 65
REMARK SMILES IDX 57 66 58 67 66 68 59 69 65 70 67 71 64 72 60 73 61 74 62 75
REMARK SMILES IDX 63 76 42 77 43 78 51 79 44 80 50 81 52 82 49 83 45 84 46 85
REMARK SMILES IDX 47 86 48 87
REMARK H PARENT 72 40 40 51
REMARK Flexibility Score: inf
ROOT
ATOM      1  C   UNL     1      -3.135   4.006   3.197  1.00  0.00     0.274 C 
ENDROOT
BRANCH   1   2
ATOM      2  O   UNL     1      -2.265   2.857   3.117  1.00  0.00    -0.462 OA
BRANCH   2   3
ATOM      3  C   UNL     1      -2.665   1.820   3.884  1.00  0.00     0.306 C 
ATOM      4  O   UNL     1      -3.668   1.834   4.595  1.00  0.00    -0.252 OA
BRANCH   3   5
ATOM      5  C   UNL     1      -1.746   0.626   3.910  1.00  0.00     0.130 C 
BRANCH   5   6
ATOM      6  C   UNL     1      -0.537   0.357   2.953  1.00  0.00    -0.014 C 
ATOM      7  C   UNL     1       0.060  -0.966   3.554  1.00  0.00     0.036 C 
ATOM      8  C   UNL     1       0.504   1.505   3.054  1.00  0.00     0.042 C 
ATOM      9  C   UNL     1       1.518  -1.187   3.229  1.00  0.00     0.161 C 
ATOM     10  C   UNL     1       2.018   1.144   3.078  1.00  0.00     0.063 C 
ATOM     11  O   UNL     1       2.269  -0.095   3.745  1.00  0.00    -0.376 OA
ATOM     12  C   UNL     1       2.703   1.111   1.707  1.00  0.00     0.042 C 
ATOM     13  C   UNL     1       2.749   2.219   3.906  1.00  0.00     0.042 C 
BRANCH   6  14
ATOM     14  C   UNL     1      -1.028   0.005   1.502  1.00  0.00     0.008 C 
BRANCH  14  15
ATOM     15  C   UNL     1      -1.226   1.101   0.436  1.00  0.00     0.003 C 
BRANCH  15  16
ATOM     16  C   UNL     1      -0.021   1.355  -0.492  1.00  0.00    -0.017 C 
ATOM     17  C   UNL     1       0.339   0.154  -1.372  1.00  0.00     0.007 C 
ATOM     18  C   UNL     1      -0.251   2.579  -1.381  1.00  0.00     0.007 C 
ENDBRANCH  15  16
ENDBRANCH  14  15
ENDBRANCH   6  14
ENDBRANCH   5   6
ENDBRANCH   3   5
ENDBRANCH   2   3
ENDBRANCH   1   2
BRANCH   1  19
ATOM     19  C   UNL     1      -4.237   3.973   2.138  1.00  0.00     0.275 C 
BRANCH  19  20
ATOM     20  O   UNL     1      -4.968   2.735   2.188  1.00  0.00    -0.458 OA
BRANCH  20  21
ATOM     21  C   UNL     1      -4.876   1.969   1.076  1.00  0.00     0.338 C 
ATOM     22  O   UNL     1      -4.303   2.253   0.038  1.00  0.00    -0.246 OA
BRANCH  21  23
ATOM     23  C   UNL     1      -5.627   0.713   1.240  1.00  0.00     0.060 A 
ATOM     24  C   UNL     1      -5.272  -0.229   2.210  1.00  0.00     0.016 A 
ATOM     25  C   UNL     1      -6.627   0.424   0.311  1.00  0.00     0.016 A 
ATOM     26  C   UNL     1      -5.886  -1.484   2.217  1.00  0.00     0.010 A 
ATOM     27  C   UNL     1      -7.277  -0.809   0.355  1.00  0.00     0.010 A 
ATOM     28  C   UNL     1      -6.897  -1.783   1.292  1.00  0.00    -0.014 A 
BRANCH  28  29
ATOM     29  C   UNL     1      -7.582  -3.102   1.291  1.00  0.00     0.031 A 
ATOM     30  C   UNL     1      -7.418  -4.037   0.124  1.00  0.00     0.074 A 
ATOM     31  C   UNL     1      -8.399  -3.424   2.311  1.00  0.00     0.049 A 
ATOM     32  N   UNL     1      -8.079  -5.128  -0.163  1.00  0.00    -0.248 NA
ATOM     33  C   UNL     1      -6.377  -3.688  -0.855  1.00  0.00     0.031 C 
ATOM     34  C   UNL     1      -8.611  -2.611   3.510  1.00  0.00     0.029 A 
ATOM     35  N   UNL     1      -9.220  -4.507   2.493  1.00  0.00    -0.354 N 
ATOM     36  C   UNL     1      -7.553  -5.588  -1.367  1.00  0.00     0.074 A 
ATOM     37  C   UNL     1      -6.528  -4.644  -1.762  1.00  0.00     0.031 C 
ATOM     38  C   UNL     1      -9.510  -3.219   4.298  1.00  0.00     0.029 A 
ATOM     39  C   UNL     1      -9.988  -4.425   3.631  1.00  0.00     0.049 A 
ATOM     40  H   UNL     1      -9.258  -5.269   1.870  1.00  0.00     0.167 HD
ATOM     41  C   UNL     1      -7.901  -6.693  -2.074  1.00  0.00     0.034 A 
ATOM     42  C   UNL     1     -10.998  -5.204   4.065  1.00  0.00     0.034 A 
ATOM     43  C   UNL     1      -8.931  -7.619  -1.661  1.00  0.00     0.049 A 
ATOM     44  C   UNL     1     -11.411  -6.387   3.232  1.00  0.00     0.074 A 
ATOM     45  C   UNL     1      -9.362  -8.772  -2.295  1.00  0.00     0.029 A 
ATOM     46  N   UNL     1      -9.695  -7.494  -0.507  1.00  0.00    -0.354 N 
ATOM     47  N   UNL     1     -10.928  -6.794   2.080  1.00  0.00    -0.248 NA
ATOM     48  C   UNL     1     -12.505  -7.214   3.755  1.00  0.00     0.031 C 
ATOM     49  C   UNL     1     -10.421  -9.312  -1.555  1.00  0.00     0.029 A 
ATOM     50  C   UNL     1     -10.610  -8.534  -0.425  1.00  0.00     0.049 A 
ATOM     51  H   UNL     1      -9.602  -6.772   0.155  1.00  0.00     0.167 HD
ATOM     52  C   UNL     1     -11.650  -7.936   1.750  1.00  0.00     0.074 A 
ATOM     53  C   UNL     1     -12.587  -8.162   2.833  1.00  0.00     0.031 C 
ATOM     54  C   UNL     1     -11.548  -8.730   0.654  1.00  0.00     0.034 A 
BRANCH  41  55
ATOM     55  C   UNL     1      -7.202  -6.928  -3.391  1.00  0.00     0.023 A 
ATOM     56  C   UNL     1      -5.831  -7.229  -3.463  1.00  0.00     0.031 A 
ATOM     57  C   UNL     1      -7.920  -6.839  -4.598  1.00  0.00     0.131 A 
ATOM     58  C   UNL     1      -5.210  -7.378  -4.714  1.00  0.00     0.055 A 
ATOM     59  C   UNL     1      -7.312  -7.054  -5.836  1.00  0.00     0.041 A 
ATOM     60  F   UNL     1      -9.227  -6.534  -4.593  1.00  0.00    -0.206 F 
ATOM     61  C   UNL     1      -5.946  -7.315  -5.900  1.00  0.00     0.022 A 
BRANCH  58  62
ATOM     62  S   UNL     1      -3.405  -7.547  -4.777  1.00  0.00     0.124 S 
ATOM     63  O   UNL     1      -2.969  -6.303  -4.147  1.00  0.00    -0.237 OA
ATOM     64  O   UNL     1      -3.174  -8.766  -4.012  1.00  0.00    -0.237 OA
ATOM     65  O   UNL     1      -3.119  -7.645  -6.207  1.00  0.00    -0.744 OA
ENDBRANCH  58  62
ENDBRANCH  41  55
BRANCH  42  66
ATOM     66  C   UNL     1     -11.727  -4.857   5.316  1.00  0.00     0.023 A 
ATOM     67  C   UNL     1     -11.676  -5.695   6.440  1.00  0.00     0.031 A 
ATOM     68  C   UNL     1     -12.508  -3.689   5.397  1.00  0.00     0.131 A 
ATOM     69  C   UNL     1     -12.419  -5.372   7.585  1.00  0.00     0.055 A 
ATOM     70  C   UNL     1     -13.204  -3.346   6.556  1.00  0.00     0.041 A 
ATOM     71  F   UNL     1     -12.588  -2.852   4.349  1.00  0.00    -0.206 F 
ATOM     72  C   UNL     1     -13.171  -4.197   7.656  1.00  0.00     0.022 A 
BRANCH  69  73
ATOM     73  S   UNL     1     -12.448  -6.553   8.961  1.00  0.00     0.124 S 
ATOM     74  O   UNL     1     -12.935  -7.762   8.306  1.00  0.00    -0.237 OA
ATOM     75  O   UNL     1     -11.050  -6.567   9.377  1.00  0.00    -0.237 OA
ATOM     76  O   UNL     1     -13.374  -5.943   9.913  1.00  0.00    -0.744 OA
ENDBRANCH  69  73
ENDBRANCH  42  66
BRANCH  54  77
ATOM     77  C   UNL     1     -12.453  -9.934   0.610  1.00  0.00     0.023 A 
ATOM     78  C   UNL     1     -13.843  -9.805   0.443  1.00  0.00     0.031 A 
ATOM     79  C   UNL     1     -11.920 -11.224   0.775  1.00  0.00     0.131 A 
ATOM     80  C   UNL     1     -14.661 -10.943   0.504  1.00  0.00     0.055 A 
ATOM     81  C   UNL     1     -12.733 -12.358   0.781  1.00  0.00     0.041 A 
ATOM     82  F   UNL     1     -10.599 -11.401   0.940  1.00  0.00    -0.206 F 
ATOM     83  C   UNL     1     -14.113 -12.220   0.659  1.00  0.00     0.022 A 
BRANCH  80  84
ATOM     84  S   UNL     1     -16.461 -10.725   0.468  1.00  0.00     0.124 S 
ATOM     85  O   UNL     1     -16.689  -9.881   1.636  1.00  0.00    -0.237 OA
ATOM     86  O   UNL     1     -16.673 -10.089  -0.829  1.00  0.00    -0.237 OA
ATOM     87  O   UNL     1     -16.974 -12.089   0.578  1.00  0.00    -0.744 OA
ENDBRANCH  80  84
ENDBRANCH  54  77
ENDBRANCH  28  29
ENDBRANCH  21  23
ENDBRANCH  20  21
ENDBRANCH  19  20
ENDBRANCH   1  19
TORSDOF 18
