REMARK SMILES CCC[N@H+]1CCC[C@H]([C@@H](C)Nc2cccc(C(=O)OCCOC(=O)c3ccc(-c4c5nc(c(-c6cc(S(=O)(=O)[O-])ccc6F)c6ccc([nH]6)c(-c6cc(S(=O)(=O)[O-])ccc6F)c6nc(c(-c7cc(S(=O)(=O)[O-])ccc7F)c7ccc4[nH]7)C=C6)C=C5)cc3)c2)C1
REMARK SMILES IDX 20 1 19 2 17 3 18 4 16 5 12 6 13 7 88 8 14 9 15 10 11 11
REMARK SMILES IDX 9 13 10 14 8 15 4 16 5 17 89 18 6 20 7 21 3 22 2 23 1 24
REMARK SMILES IDX 21 25 22 26 23 27 24 28 25 29 26 30 87 31 27 32 86 33 28 34
REMARK SMILES IDX 29 35 30 36 80 37 31 38 85 39 79 40 81 41 32 42 84 43 78 44
REMARK SMILES IDX 77 45 33 47 65 48 45 49 64 50 46 51 49 52 63 53 82 54 47 55
REMARK SMILES IDX 48 56 62 58 83 59 50 60 34 61 35 62 43 63 36 64 42 65 44 66
REMARK SMILES IDX 41 67 37 68 38 69 39 70 40 71 66 72 67 73 75 74 68 75 74 76
REMARK SMILES IDX 76 77 73 78 69 79 70 80 71 81 72 82 51 83 52 84 60 85 53 86
REMARK SMILES IDX 59 87 61 88 58 89 54 90 55 91 56 92 57 93
REMARK H PARENT 11 12 4 19 81 46 49 57
REMARK Flexibility Score: inf
ROOT
ATOM      1  C   UNL     1      -6.692   3.472  -0.827  1.00  0.00     0.275 C 
ENDROOT
BRANCH   1   2
ATOM      2  O   UNL     1      -5.530   2.663  -1.089  1.00  0.00    -0.458 OA
BRANCH   2   3
ATOM      3  C   UNL     1      -4.847   2.203  -0.009  1.00  0.00     0.338 C 
ATOM      4  O   UNL     1      -5.086   2.454   1.161  1.00  0.00    -0.246 OA
BRANCH   3   5
ATOM      5  C   UNL     1      -3.812   1.235  -0.447  1.00  0.00     0.062 A 
ATOM      6  C   UNL     1      -2.157   0.514  -2.074  1.00  0.00     0.035 A 
ATOM      7  C   UNL     1      -1.936  -0.634  -1.307  1.00  0.00     0.026 A 
ATOM      8  C   UNL     1      -3.160   1.400  -1.667  1.00  0.00     0.041 A 
ATOM      9  C   UNL     1      -2.580  -0.811  -0.082  1.00  0.00     0.003 A 
ATOM     10  C   UNL     1      -3.465   0.161   0.377  1.00  0.00     0.016 A 
BRANCH   6  11
ATOM     11  N   UNL     1      -1.308   0.808  -3.134  1.00  0.00    -0.382 N 
ATOM     12  H   UNL     1      -0.986   0.089  -3.725  1.00  0.00     0.160 HD
BRANCH  11  13
ATOM     13  C   UNL     1      -0.896   2.195  -3.365  1.00  0.00     0.084 C 
ATOM     14  C   UNL     1      -1.366   2.565  -4.774  1.00  0.00     0.031 C 
BRANCH  13  15
ATOM     15  C   UNL     1       0.637   2.372  -3.163  1.00  0.00     0.066 C 
ATOM     16  N   UNL     1       0.640   2.725  -0.659  1.00  0.00    -0.335 N 
ATOM     17  C   UNL     1       1.053   4.129  -0.836  1.00  0.00     0.262 C 
ATOM     18  C   UNL     1       1.129   1.897  -1.771  1.00  0.00     0.267 C 
ATOM     19  H   UNL     1      -0.377   2.650  -0.675  1.00  0.00     0.348 HD
ATOM     20  C   UNL     1       0.623   4.709  -2.184  1.00  0.00     0.062 C 
ATOM     21  C   UNL     1       1.090   3.833  -3.344  1.00  0.00     0.017 C 
BRANCH  16  22
ATOM     22  C   UNL     1       1.114   2.253   0.661  1.00  0.00     0.261 C 
BRANCH  22  23
ATOM     23  C   UNL     1       0.525   0.940   1.201  1.00  0.00     0.058 C 
ATOM     24  C   UNL     1       1.178  -0.338   0.696  1.00  0.00     0.010 C 
ENDBRANCH  22  23
ENDBRANCH  16  22
ENDBRANCH  13  15
ENDBRANCH  11  13
ENDBRANCH   6  11
ENDBRANCH   3   5
ENDBRANCH   2   3
ENDBRANCH   1   2
BRANCH   1  25
ATOM     25  C   UNL     1      -7.968   2.671  -1.084  1.00  0.00     0.275 C 
BRANCH  25  26
ATOM     26  O   UNL     1      -8.101   1.635  -0.095  1.00  0.00    -0.458 OA
BRANCH  26  27
ATOM     27  C   UNL     1      -7.977   0.367  -0.553  1.00  0.00     0.338 C 
ATOM     28  O   UNL     1      -7.857   0.005  -1.710  1.00  0.00    -0.246 OA
BRANCH  27  29
ATOM     29  C   UNL     1      -7.930  -0.560   0.588  1.00  0.00     0.060 A 
ATOM     30  C   UNL     1      -6.750  -0.636   1.318  1.00  0.00     0.016 A 
ATOM     31  C   UNL     1      -8.969  -1.445   0.856  1.00  0.00     0.016 A 
ATOM     32  C   UNL     1      -6.551  -1.652   2.247  1.00  0.00     0.010 A 
ATOM     33  C   UNL     1      -8.809  -2.403   1.869  1.00  0.00     0.010 A 
ATOM     34  C   UNL     1      -7.584  -2.544   2.552  1.00  0.00    -0.014 A 
BRANCH  34  35
ATOM     35  C   UNL     1      -7.363  -3.639   3.546  1.00  0.00     0.031 A 
ATOM     36  C   UNL     1      -7.561  -5.079   3.138  1.00  0.00     0.074 A 
ATOM     37  C   UNL     1      -6.966  -3.355   4.806  1.00  0.00     0.049 A 
ATOM     38  N   UNL     1      -7.591  -6.155   3.882  1.00  0.00    -0.248 NA
ATOM     39  C   UNL     1      -7.766  -5.341   1.704  1.00  0.00     0.031 C 
ATOM     40  C   UNL     1      -6.678  -2.014   5.324  1.00  0.00     0.029 A 
ATOM     41  N   UNL     1      -6.732  -4.175   5.885  1.00  0.00    -0.354 N 
ATOM     42  C   UNL     1      -7.882  -7.209   3.021  1.00  0.00     0.074 A 
ATOM     43  C   UNL     1      -8.019  -6.642   1.696  1.00  0.00     0.031 C 
ATOM     44  C   UNL     1      -6.280  -2.107   6.601  1.00  0.00     0.029 A 
ATOM     45  C   UNL     1      -6.383  -3.496   7.033  1.00  0.00     0.049 A 
ATOM     46  H   UNL     1      -6.807  -5.156   5.842  1.00  0.00     0.167 HD
ATOM     47  C   UNL     1      -8.026  -8.525   3.313  1.00  0.00     0.034 A 
ATOM     48  C   UNL     1      -6.221  -3.925   8.302  1.00  0.00     0.034 A 
ATOM     49  C   UNL     1      -7.826  -9.085   4.628  1.00  0.00     0.049 A 
ATOM     50  C   UNL     1      -6.431  -5.389   8.604  1.00  0.00     0.074 A 
ATOM     51  C   UNL     1      -7.903 -10.412   5.018  1.00  0.00     0.029 A 
ATOM     52  N   UNL     1      -7.504  -8.357   5.766  1.00  0.00    -0.354 N 
ATOM     53  N   UNL     1      -6.738  -6.367   7.782  1.00  0.00    -0.248 NA
ATOM     54  C   UNL     1      -6.282  -5.806  10.004  1.00  0.00     0.031 C 
ATOM     55  C   UNL     1      -7.702 -10.477   6.399  1.00  0.00     0.029 A 
ATOM     56  C   UNL     1      -7.415  -9.203   6.861  1.00  0.00     0.049 A 
ATOM     57  H   UNL     1      -7.361  -7.384   5.792  1.00  0.00     0.167 HD
ATOM     58  C   UNL     1      -6.786  -7.517   8.565  1.00  0.00     0.074 A 
ATOM     59  C   UNL     1      -6.456  -7.116   9.916  1.00  0.00     0.031 C 
ATOM     60  C   UNL     1      -7.080  -8.791   8.202  1.00  0.00     0.034 A 
BRANCH  47  61
ATOM     61  C   UNL     1      -8.485  -9.452   2.212  1.00  0.00     0.023 A 
ATOM     62  C   UNL     1      -7.687  -9.760   1.099  1.00  0.00     0.031 A 
ATOM     63  C   UNL     1      -9.751 -10.062   2.306  1.00  0.00     0.131 A 
ATOM     64  C   UNL     1      -8.179 -10.621   0.104  1.00  0.00     0.055 A 
ATOM     65  C   UNL     1     -10.206 -10.970   1.349  1.00  0.00     0.041 A 
ATOM     66  F   UNL     1     -10.565  -9.789   3.338  1.00  0.00    -0.206 F 
ATOM     67  C   UNL     1      -9.421 -11.248   0.235  1.00  0.00     0.022 A 
BRANCH  64  68
ATOM     68  S   UNL     1      -7.213 -10.844  -1.415  1.00  0.00     0.124 S 
ATOM     69  O   UNL     1      -7.175  -9.483  -1.943  1.00  0.00    -0.237 OA
ATOM     70  O   UNL     1      -5.949 -11.370  -0.912  1.00  0.00    -0.237 OA
ATOM     71  O   UNL     1      -8.013 -11.787  -2.195  1.00  0.00    -0.744 OA
ENDBRANCH  64  68
ENDBRANCH  47  61
BRANCH  48  72
ATOM     72  C   UNL     1      -5.923  -2.962   9.407  1.00  0.00     0.023 A 
ATOM     73  C   UNL     1      -4.774  -3.100  10.202  1.00  0.00     0.031 A 
ATOM     74  C   UNL     1      -6.833  -1.942   9.744  1.00  0.00     0.131 A 
ATOM     75  C   UNL     1      -4.599  -2.280  11.329  1.00  0.00     0.055 A 
ATOM     76  C   UNL     1      -6.616  -1.080  10.819  1.00  0.00     0.041 A 
ATOM     77  F   UNL     1      -7.957  -1.768   9.029  1.00  0.00    -0.206 F 
ATOM     78  C   UNL     1      -5.503  -1.260  11.632  1.00  0.00     0.022 A 
BRANCH  75  79
ATOM     79  S   UNL     1      -3.247  -2.661  12.477  1.00  0.00     0.124 S 
ATOM     80  O   UNL     1      -3.503  -4.064  12.783  1.00  0.00    -0.237 OA
ATOM     81  O   UNL     1      -2.070  -2.386  11.659  1.00  0.00    -0.237 OA
ATOM     82  O   UNL     1      -3.467  -1.730  13.583  1.00  0.00    -0.744 OA
ENDBRANCH  75  79
ENDBRANCH  48  72
BRANCH  60  83
ATOM     83  C   UNL     1      -6.989  -9.848   9.275  1.00  0.00     0.023 A 
ATOM     84  C   UNL     1      -7.872  -9.875  10.369  1.00  0.00     0.031 A 
ATOM     85  C   UNL     1      -5.988 -10.834   9.209  1.00  0.00     0.131 A 
ATOM     86  C   UNL     1      -7.700 -10.830  11.382  1.00  0.00     0.055 A 
ATOM     87  C   UNL     1      -5.862 -11.821  10.186  1.00  0.00     0.041 A 
ATOM     88  F   UNL     1      -5.115 -10.854   8.188  1.00  0.00    -0.206 F 
ATOM     89  C   UNL     1      -6.712 -11.814  11.288  1.00  0.00     0.022 A 
BRANCH  86  90
ATOM     90  S   UNL     1      -8.725 -10.713  12.874  1.00  0.00     0.124 S 
ATOM     91  O   UNL     1      -8.398  -9.377  13.362  1.00  0.00    -0.237 OA
ATOM     92  O   UNL     1     -10.072 -10.886  12.342  1.00  0.00    -0.237 OA
ATOM     93  O   UNL     1      -8.243 -11.813  13.708  1.00  0.00    -0.744 OA
ENDBRANCH  86  90
ENDBRANCH  60  83
ENDBRANCH  34  35
ENDBRANCH  27  29
ENDBRANCH  26  27
ENDBRANCH  25  26
ENDBRANCH   1  25
TORSDOF 19
