REMARK SMILES CCC(CC)(NC(=O)c1c(C)noc1C)C(=O)OCCOC(=O)c1ccc(-c2c3nc(c(-c4cc(S(=O)(=O)[O-])ccc4F)c4ccc([nH]4)c(-c4cc(S(=O)(=O)[O-])ccc4F)c4nc(c(-c5cc(S(=O)(=O)[O-])ccc5F)c5ccc2[nH]5)C=C4)C=C3)cc1
REMARK SMILES IDX 20 1 19 2 18 3 16 4 17 5 3 6 2 7 1 8 4 9 5 10 6 11 7 12 8 14
REMARK SMILES IDX 9 15 10 16 14 17 11 18 12 19 13 20 15 21 21 22 22 23 23 24
REMARK SMILES IDX 24 25 25 26 86 27 26 28 85 29 27 30 28 31 29 32 79 33 30 34
REMARK SMILES IDX 84 35 78 36 80 37 31 38 83 39 77 40 76 41 32 43 64 44 44 45
REMARK SMILES IDX 63 46 45 47 48 48 62 49 81 50 46 51 47 52 61 54 82 55 49 56
REMARK SMILES IDX 33 57 34 58 42 59 35 60 41 61 43 62 40 63 36 64 37 65 38 66
REMARK SMILES IDX 39 67 65 68 66 69 74 70 67 71 73 72 75 73 72 74 68 75 69 76
REMARK SMILES IDX 70 77 71 78 50 79 51 80 59 81 52 82 58 83 60 84 57 85 53 86
REMARK SMILES IDX 54 87 55 88 56 89
REMARK H PARENT 6 13 80 42 48 53
REMARK Flexibility Score: inf
ROOT
ATOM      1  C   UNL     1       5.602   0.961  -2.232  1.00  0.00     0.275 C 
ENDROOT
BRANCH   1   2
ATOM      2  C   UNL     1       4.673  -0.246  -2.170  1.00  0.00     0.274 C 
BRANCH   2   3
ATOM      3  O   UNL     1       3.314   0.148  -2.470  1.00  0.00    -0.460 OA
BRANCH   3   4
ATOM      4  C   UNL     1       2.371  -0.731  -2.046  1.00  0.00     0.331 C 
ATOM      5  O   UNL     1       2.635  -1.699  -1.336  1.00  0.00    -0.249 OA
BRANCH   4   6
ATOM      6  C   UNL     1       0.920  -0.408  -2.528  1.00  0.00     0.137 C 
BRANCH   6   7
ATOM      7  C   UNL     1       0.146   0.221  -1.317  1.00  0.00     0.037 C 
ATOM      8  C   UNL     1       0.198  -0.501   0.021  1.00  0.00     0.007 C 
ENDBRANCH   6   7
BRANCH   6   9
ATOM      9  C   UNL     1       0.278  -1.762  -2.959  1.00  0.00     0.037 C 
ATOM     10  C   UNL     1      -1.243  -1.792  -3.055  1.00  0.00     0.007 C 
ENDBRANCH   6   9
BRANCH   6  11
ATOM     11  N   UNL     1       0.730   0.599  -3.621  1.00  0.00    -0.336 N 
ATOM     12  C   UNL     1       1.225   0.827  -4.874  1.00  0.00     0.257 C 
ATOM     13  H   UNL     1       0.068   1.283  -3.367  1.00  0.00     0.165 HD
ATOM     14  O   UNL     1       0.467   1.379  -5.672  1.00  0.00    -0.269 OA
BRANCH  12  15
ATOM     15  C   UNL     1       2.612   0.643  -5.210  1.00  0.00     0.105 A 
ATOM     16  C   UNL     1       3.528   1.689  -5.543  1.00  0.00     0.093 A 
ATOM     17  C   UNL     1       3.329  -0.504  -5.469  1.00  0.00     0.146 A 
ATOM     18  C   UNL     1       3.291   3.155  -5.553  1.00  0.00     0.071 C 
ATOM     19  N   UNL     1       4.719   1.201  -5.908  1.00  0.00    -0.084 NA
ATOM     20  O   UNL     1       4.592  -0.169  -5.852  1.00  0.00    -0.361 OA
ATOM     21  C   UNL     1       3.050  -1.948  -5.469  1.00  0.00     0.092 C 
ENDBRANCH  12  15
ENDBRANCH   6  11
ENDBRANCH   4   6
ENDBRANCH   3   4
ENDBRANCH   2   3
ENDBRANCH   1   2
BRANCH   1  22
ATOM     22  O   UNL     1       5.218   1.840  -1.164  1.00  0.00    -0.458 OA
BRANCH  22  23
ATOM     23  C   UNL     1       4.634   2.996  -1.539  1.00  0.00     0.338 C 
ATOM     24  O   UNL     1       4.646   3.531  -2.639  1.00  0.00    -0.246 OA
BRANCH  23  25
ATOM     25  C   UNL     1       3.816   3.455  -0.417  1.00  0.00     0.060 A 
ATOM     26  C   UNL     1       2.659   2.733  -0.124  1.00  0.00     0.016 A 
ATOM     27  C   UNL     1       4.132   4.611   0.286  1.00  0.00     0.016 A 
ATOM     28  C   UNL     1       1.776   3.191   0.845  1.00  0.00     0.010 A 
ATOM     29  C   UNL     1       3.279   5.033   1.310  1.00  0.00     0.010 A 
ATOM     30  C   UNL     1       2.083   4.340   1.584  1.00  0.00    -0.014 A 
BRANCH  30  31
ATOM     31  C   UNL     1       1.131   4.843   2.608  1.00  0.00     0.031 A 
ATOM     32  C   UNL     1       0.493   6.192   2.429  1.00  0.00     0.074 A 
ATOM     33  C   UNL     1       0.826   4.087   3.680  1.00  0.00     0.049 A 
ATOM     34  N   UNL     1      -0.196   6.904   3.281  1.00  0.00    -0.248 NA
ATOM     35  C   UNL     1       0.672   6.829   1.115  1.00  0.00     0.031 C 
ATOM     36  C   UNL     1       1.332   2.736   3.936  1.00  0.00     0.029 A 
ATOM     37  N   UNL     1       0.015   4.344   4.757  1.00  0.00    -0.354 N 
ATOM     38  C   UNL     1      -0.496   8.095   2.626  1.00  0.00     0.074 A 
ATOM     39  C   UNL     1       0.097   8.008   1.307  1.00  0.00     0.031 C 
ATOM     40  C   UNL     1       0.806   2.277   5.082  1.00  0.00     0.029 A 
ATOM     41  C   UNL     1      -0.004   3.329   5.686  1.00  0.00     0.049 A 
ATOM     42  H   UNL     1      -0.503   5.175   4.856  1.00  0.00     0.167 HD
ATOM     43  C   UNL     1      -1.195   9.161   3.089  1.00  0.00     0.034 A 
ATOM     44  C   UNL     1      -0.568   3.270   6.908  1.00  0.00     0.034 A 
ATOM     45  C   UNL     1      -1.788   9.216   4.405  1.00  0.00     0.049 A 
ATOM     46  C   UNL     1      -1.320   4.473   7.411  1.00  0.00     0.074 A 
ATOM     47  C   UNL     1      -2.466  10.260   5.010  1.00  0.00     0.029 A 
ATOM     48  N   UNL     1      -1.785   8.167   5.318  1.00  0.00    -0.354 N 
ATOM     49  N   UNL     1      -1.506   5.634   6.825  1.00  0.00    -0.248 NA
ATOM     50  C   UNL     1      -1.930   4.363   8.741  1.00  0.00     0.031 C 
ATOM     51  C   UNL     1      -2.838   9.857   6.299  1.00  0.00     0.029 A 
ATOM     52  C   UNL     1      -2.445   8.540   6.479  1.00  0.00     0.049 A 
ATOM     53  H   UNL     1      -1.373   7.287   5.162  1.00  0.00     0.167 HD
ATOM     54  C   UNL     1      -2.252   6.394   7.720  1.00  0.00     0.074 A 
ATOM     55  C   UNL     1      -2.515   5.544   8.864  1.00  0.00     0.031 C 
ATOM     56  C   UNL     1      -2.671   7.681   7.616  1.00  0.00     0.034 A 
BRANCH  43  57
ATOM     57  C   UNL     1      -1.285  10.368   2.187  1.00  0.00     0.023 A 
ATOM     58  C   UNL     1      -1.974  10.332   0.962  1.00  0.00     0.031 A 
ATOM     59  C   UNL     1      -0.621  11.559   2.533  1.00  0.00     0.131 A 
ATOM     60  C   UNL     1      -1.922  11.437   0.097  1.00  0.00     0.055 A 
ATOM     61  C   UNL     1      -0.637  12.681   1.702  1.00  0.00     0.041 A 
ATOM     62  F   UNL     1       0.074  11.646   3.678  1.00  0.00    -0.206 F 
ATOM     63  C   UNL     1      -1.278  12.619   0.468  1.00  0.00     0.022 A 
BRANCH  60  64
ATOM     64  S   UNL     1      -2.589  11.258  -1.581  1.00  0.00     0.124 S 
ATOM     65  O   UNL     1      -1.763  10.176  -2.112  1.00  0.00    -0.237 OA
ATOM     66  O   UNL     1      -3.988  10.930  -1.331  1.00  0.00    -0.237 OA
ATOM     67  O   UNL     1      -2.354  12.568  -2.185  1.00  0.00    -0.744 OA
ENDBRANCH  60  64
ENDBRANCH  43  57
BRANCH  44  68
ATOM     68  C   UNL     1      -0.378   2.067   7.769  1.00  0.00     0.023 A 
ATOM     69  C   UNL     1      -1.464   1.264   8.150  1.00  0.00     0.031 A 
ATOM     70  C   UNL     1       0.899   1.721   8.248  1.00  0.00     0.131 A 
ATOM     71  C   UNL     1      -1.258   0.174   9.011  1.00  0.00     0.055 A 
ATOM     72  C   UNL     1       1.106   0.607   9.062  1.00  0.00     0.041 A 
ATOM     73  F   UNL     1       1.972   2.456   7.913  1.00  0.00    -0.206 F 
ATOM     74  C   UNL     1       0.021  -0.168   9.457  1.00  0.00     0.022 A 
BRANCH  71  75
ATOM     75  S   UNL     1      -2.701  -0.752   9.603  1.00  0.00     0.124 S 
ATOM     76  O   UNL     1      -3.499   0.301  10.221  1.00  0.00    -0.237 OA
ATOM     77  O   UNL     1      -3.228  -1.313   8.364  1.00  0.00    -0.237 OA
ATOM     78  O   UNL     1      -2.125  -1.724  10.529  1.00  0.00    -0.744 OA
ENDBRANCH  71  75
ENDBRANCH  44  68
BRANCH  56  79
ATOM     79  C   UNL     1      -3.471   8.218   8.776  1.00  0.00     0.023 A 
ATOM     80  C   UNL     1      -2.880   8.434  10.033  1.00  0.00     0.031 A 
ATOM     81  C   UNL     1      -4.847   8.465   8.635  1.00  0.00     0.131 A 
ATOM     82  C   UNL     1      -3.677   8.819  11.120  1.00  0.00     0.055 A 
ATOM     83  C   UNL     1      -5.625   8.901   9.708  1.00  0.00     0.041 A 
ATOM     84  F   UNL     1      -5.459   8.271   7.456  1.00  0.00    -0.206 F 
ATOM     85  C   UNL     1      -5.044   9.065  10.963  1.00  0.00     0.022 A 
BRANCH  82  86
ATOM     86  S   UNL     1      -2.924   8.889  12.769  1.00  0.00     0.124 S 
ATOM     87  O   UNL     1      -2.393   7.538  12.918  1.00  0.00    -0.237 OA
ATOM     88  O   UNL     1      -1.934   9.950  12.613  1.00  0.00    -0.237 OA
ATOM     89  O   UNL     1      -4.047   9.214  13.646  1.00  0.00    -0.744 OA
ENDBRANCH  82  86
ENDBRANCH  56  79
ENDBRANCH  30  31
ENDBRANCH  23  25
ENDBRANCH  22  23
ENDBRANCH   1  22
TORSDOF 18
