REMARK SMILES CC1(C)OC(=O)C(/C=N/[C@@H](C(=O)OCCOC(=O)c2ccc(-c3c4nc(c(-c5cc(S(=O)(=O)[O-])ccc5F)c5ccc([nH]5)c(-c5cc(S(=O)(=O)[O-])ccc5F)c5nc(c(-c6cc(S(=O)(=O)[O-])ccc6F)c6ccc3[nH]6)C=C5)C=C4)cc2)c2ccccc2)C(=O)O1
REMARK SMILES IDX 15 1 14 2 13 3 11 4 12 5 10 6 9 7 8 8 7 9 1 10 2 11 3 12
REMARK SMILES IDX 4 13 90 14 5 15 88 16 6 17 89 18 82 19 83 20 87 21 84 22
REMARK SMILES IDX 86 23 85 24 16 25 17 26 18 27 19 28 20 29 81 30 21 31 80 32
REMARK SMILES IDX 22 33 23 34 24 35 74 36 25 37 79 38 73 39 75 40 26 41 78 42
REMARK SMILES IDX 72 43 71 44 27 46 59 47 39 48 58 49 40 50 43 51 57 52 76 53
REMARK SMILES IDX 41 54 42 55 56 57 77 58 44 59 28 60 29 61 37 62 30 63 36 64
REMARK SMILES IDX 38 65 35 66 31 67 32 68 33 69 34 70 60 71 61 72 69 73 62 74
REMARK SMILES IDX 68 75 70 76 67 77 63 78 64 79 65 80 66 81 45 82 46 83 54 84
REMARK SMILES IDX 47 85 53 86 55 87 52 88 48 89 49 90 50 91 51 92
REMARK H PARENT 75 45 43 56
REMARK Flexibility Score: inf
ROOT
ATOM      1  C   UNL     1      -3.529   2.749   3.876  1.00  0.00     0.275 C 
ENDROOT
BRANCH   1   2
ATOM      2  C   UNL     1      -3.313   4.116   3.233  1.00  0.00     0.274 C 
BRANCH   2   3
ATOM      3  O   UNL     1      -2.130   4.096   2.409  1.00  0.00    -0.460 OA
BRANCH   3   4
ATOM      4  C   UNL     1      -1.018   4.711   2.912  1.00  0.00     0.335 C 
ATOM      5  O   UNL     1      -1.008   5.316   3.980  1.00  0.00    -0.249 OA
BRANCH   4   6
ATOM      6  C   UNL     1       0.202   4.616   1.967  1.00  0.00     0.244 C 
BRANCH   6   7
ATOM      7  N   UNL     1      -0.016   3.766   0.764  1.00  0.00    -0.276 NA
ATOM      8  C   UNL     1      -0.320   2.528   0.933  1.00  0.00     0.106 C 
BRANCH   8   9
ATOM      9  C   UNL     1      -0.382   1.594  -0.242  1.00  0.00     0.250 C 
ATOM     10  C   UNL     1      -0.136  -1.848   1.225  1.00  0.00     0.106 C 
ATOM     11  C   UNL     1      -0.103  -1.211  -0.162  1.00  0.00     0.252 C 
ATOM     12  C   UNL     1       0.086  -2.282  -1.235  1.00  0.00     0.106 C 
ATOM     13  O   UNL     1       1.040  -0.369  -0.243  1.00  0.00    -0.422 OA
ATOM     14  O   UNL     1      -1.367  -0.602  -0.427  1.00  0.00    -0.422 OA
ATOM     15  C   UNL     1       0.937   0.946  -0.444  1.00  0.00     0.329 C 
ATOM     16  C   UNL     1      -1.557   0.698  -0.163  1.00  0.00     0.329 C 
ATOM     17  O   UNL     1       1.936   1.598  -0.737  1.00  0.00    -0.251 OA
ATOM     18  O   UNL     1      -2.692   1.134   0.020  1.00  0.00    -0.251 OA
ENDBRANCH   8   9
ENDBRANCH   6   7
BRANCH   6  19
ATOM     19  C   UNL     1       1.534   4.386   2.691  1.00  0.00    -0.012 A 
ATOM     20  C   UNL     1       2.117   5.451   3.403  1.00  0.00     0.006 A 
ATOM     21  C   UNL     1       2.221   3.159   2.691  1.00  0.00     0.006 A 
ATOM     22  C   UNL     1       3.331   5.295   4.080  1.00  0.00     0.000 A 
ATOM     23  C   UNL     1       3.434   3.002   3.371  1.00  0.00     0.000 A 
ATOM     24  C   UNL     1       3.989   4.069   4.066  1.00  0.00     0.000 A 
ENDBRANCH   6  19
ENDBRANCH   4   6
ENDBRANCH   3   4
ENDBRANCH   2   3
ENDBRANCH   1   2
BRANCH   1  25
ATOM     25  O   UNL     1      -2.442   2.475   4.776  1.00  0.00    -0.458 OA
BRANCH  25  26
ATOM     26  C   UNL     1      -1.767   1.320   4.574  1.00  0.00     0.338 C 
ATOM     27  O   UNL     1      -2.022   0.447   3.761  1.00  0.00    -0.246 OA
BRANCH  26  28
ATOM     28  C   UNL     1      -0.588   1.272   5.458  1.00  0.00     0.060 A 
ATOM     29  C   UNL     1       0.252   2.380   5.559  1.00  0.00     0.016 A 
ATOM     30  C   UNL     1      -0.242   0.075   6.087  1.00  0.00     0.016 A 
ATOM     31  C   UNL     1       1.478   2.267   6.211  1.00  0.00     0.010 A 
ATOM     32  C   UNL     1       0.951  -0.006   6.814  1.00  0.00     0.010 A 
ATOM     33  C   UNL     1       1.850   1.076   6.849  1.00  0.00    -0.014 A 
BRANCH  33  34
ATOM     34  C   UNL     1       3.194   0.933   7.484  1.00  0.00     0.031 A 
ATOM     35  C   UNL     1       4.110  -0.186   7.058  1.00  0.00     0.074 A 
ATOM     36  C   UNL     1       3.613   1.793   8.434  1.00  0.00     0.049 A 
ATOM     37  N   UNL     1       5.182  -0.657   7.643  1.00  0.00    -0.248 NA
ATOM     38  C   UNL     1       3.749  -0.885   5.817  1.00  0.00     0.031 C 
ATOM     39  C   UNL     1       2.871   2.961   8.912  1.00  0.00     0.029 A 
ATOM     40  N   UNL     1       4.771   1.812   9.175  1.00  0.00    -0.354 N 
ATOM     41  C   UNL     1       5.579  -1.756   6.887  1.00  0.00     0.074 A 
ATOM     42  C   UNL     1       4.626  -1.878   5.802  1.00  0.00     0.031 C 
ATOM     43  C   UNL     1       3.600   3.595   9.843  1.00  0.00     0.029 A 
ATOM     44  C   UNL     1       4.811   2.826  10.103  1.00  0.00     0.049 A 
ATOM     45  H   UNL     1       5.500   1.162   9.053  1.00  0.00     0.167 HD
ATOM     46  C   UNL     1       6.634  -2.587   7.087  1.00  0.00     0.034 A 
ATOM     47  C   UNL     1       5.685   3.079  11.097  1.00  0.00     0.034 A 
ATOM     48  C   UNL     1       7.610  -2.410   8.137  1.00  0.00     0.049 A 
ATOM     49  C   UNL     1       6.839   2.142  11.317  1.00  0.00     0.074 A 
ATOM     50  C   UNL     1       8.727  -3.178   8.420  1.00  0.00     0.029 A 
ATOM     51  N   UNL     1       7.595  -1.381   9.071  1.00  0.00    -0.354 N 
ATOM     52  N   UNL     1       7.144   1.044  10.666  1.00  0.00    -0.248 NA
ATOM     53  C   UNL     1       7.754   2.469  12.418  1.00  0.00     0.031 C 
ATOM     54  C   UNL     1       9.357  -2.644   9.552  1.00  0.00     0.029 A 
ATOM     55  C   UNL     1       8.671  -1.505   9.939  1.00  0.00     0.049 A 
ATOM     56  H   UNL     1       6.919  -0.667   9.112  1.00  0.00     0.167 HD
ATOM     57  C   UNL     1       8.283   0.542  11.288  1.00  0.00     0.074 A 
ATOM     58  C   UNL     1       8.626   1.473  12.345  1.00  0.00     0.031 C 
ATOM     59  C   UNL     1       8.979  -0.590  11.012  1.00  0.00     0.034 A 
BRANCH  46  60
ATOM     60  C   UNL     1       6.739  -3.802   6.192  1.00  0.00     0.023 A 
ATOM     61  C   UNL     1       6.933  -3.699   4.804  1.00  0.00     0.031 A 
ATOM     62  C   UNL     1       6.584  -5.090   6.738  1.00  0.00     0.131 A 
ATOM     63  C   UNL     1       6.875  -4.850   4.002  1.00  0.00     0.055 A 
ATOM     64  C   UNL     1       6.618  -6.239   5.945  1.00  0.00     0.041 A 
ATOM     65  F   UNL     1       6.373  -5.253   8.054  1.00  0.00    -0.206 F 
ATOM     66  C   UNL     1       6.746  -6.122   4.565  1.00  0.00     0.022 A 
BRANCH  63  67
ATOM     67  S   UNL     1       6.793  -4.647   2.201  1.00  0.00     0.124 S 
ATOM     68  O   UNL     1       5.622  -3.784   2.055  1.00  0.00    -0.237 OA
ATOM     69  O   UNL     1       8.081  -4.038   1.894  1.00  0.00    -0.237 OA
ATOM     70  O   UNL     1       6.612  -6.012   1.709  1.00  0.00    -0.744 OA
ENDBRANCH  63  67
ENDBRANCH  46  60
BRANCH  47  71
ATOM     71  C   UNL     1       5.435   4.218  12.024  1.00  0.00     0.023 A 
ATOM     72  C   UNL     1       6.264   5.348  12.032  1.00  0.00     0.031 A 
ATOM     73  C   UNL     1       4.343   4.187  12.911  1.00  0.00     0.131 A 
ATOM     74  C   UNL     1       5.996   6.400  12.923  1.00  0.00     0.055 A 
ATOM     75  C   UNL     1       4.055   5.253  13.762  1.00  0.00     0.041 A 
ATOM     76  F   UNL     1       3.518   3.128  12.935  1.00  0.00    -0.206 F 
ATOM     77  C   UNL     1       4.888   6.367  13.775  1.00  0.00     0.022 A 
BRANCH  74  78
ATOM     78  S   UNL     1       7.136   7.809  12.976  1.00  0.00     0.124 S 
ATOM     79  O   UNL     1       8.369   7.177  13.432  1.00  0.00    -0.237 OA
ATOM     80  O   UNL     1       7.123   8.265  11.590  1.00  0.00    -0.237 OA
ATOM     81  O   UNL     1       6.509   8.718  13.933  1.00  0.00    -0.744 OA
ENDBRANCH  74  78
ENDBRANCH  47  71
BRANCH  59  82
ATOM     82  C   UNL     1      10.190  -0.863  11.866  1.00  0.00     0.023 A 
ATOM     83  C   UNL     1      10.067  -1.241  13.215  1.00  0.00     0.031 A 
ATOM     84  C   UNL     1      11.482  -0.719  11.331  1.00  0.00     0.131 A 
ATOM     85  C   UNL     1      11.218  -1.416  13.998  1.00  0.00     0.055 A 
ATOM     86  C   UNL     1      12.624  -0.939  12.102  1.00  0.00     0.041 A 
ATOM     87  F   UNL     1      11.653  -0.357  10.049  1.00  0.00    -0.206 F 
ATOM     88  C   UNL     1      12.496  -1.279  13.447  1.00  0.00     0.022 A 
BRANCH  85  89
ATOM     89  S   UNL     1      11.027  -1.752  15.770  1.00  0.00     0.124 S 
ATOM     90  O   UNL     1      10.292  -0.575  16.225  1.00  0.00    -0.237 OA
ATOM     91  O   UNL     1      10.285  -3.008  15.773  1.00  0.00    -0.237 OA
ATOM     92  O   UNL     1      12.404  -1.846  16.253  1.00  0.00    -0.744 OA
ENDBRANCH  85  89
ENDBRANCH  59  82
ENDBRANCH  33  34
ENDBRANCH  26  28
ENDBRANCH  25  26
ENDBRANCH   1  25
TORSDOF 17
