REMARK SMILES CC(C)CCOCC[C@@H]1CCC[C@@]1([NH3+])C(=O)OCCOC(=O)c1ccc(-c2c3nc(c(-c4cc(S(=O)(=O)[O-])ccc4F)c4ccc([nH]4)c(-c4cc(S(=O)(=O)[O-])ccc4F)c4nc(c(-c5cc(S(=O)(=O)[O-])ccc5F)c5ccc2[nH]5)C=C4)C=C3)cc1
REMARK SMILES IDX 17 1 15 2 16 3 13 4 9 5 10 6 11 7 12 8 8 9 7 10 6 11 5 12
REMARK SMILES IDX 4 13 2 14 1 15 3 16 14 17 18 21 19 22 20 23 21 24 22 25
REMARK SMILES IDX 23 26 24 27 85 28 25 29 84 30 26 31 27 32 28 33 78 34 29 35
REMARK SMILES IDX 83 36 77 37 79 38 30 39 82 40 76 41 75 42 31 44 63 45 43 46
REMARK SMILES IDX 62 47 44 48 47 49 61 50 80 51 45 52 46 53 60 55 81 56 48 57
REMARK SMILES IDX 32 58 33 59 41 60 34 61 40 62 42 63 39 64 35 65 36 66 37 67
REMARK SMILES IDX 38 68 64 69 65 70 73 71 66 72 72 73 74 74 71 75 67 76 68 77
REMARK SMILES IDX 69 78 70 79 49 80 50 81 58 82 51 83 57 84 59 85 56 86 52 87
REMARK SMILES IDX 53 88 54 89 55 90
REMARK H PARENT 14 18 14 19 14 20 79 43 47 54
REMARK Flexibility Score: inf
ROOT
ATOM      1  O   UNL     1      -0.625  -2.432  -0.949  1.00  0.00    -0.457 OA
ENDROOT
BRANCH   1   2
ATOM      2  C   UNL     1      -0.530  -1.099  -0.655  1.00  0.00     0.368 C 
ATOM      3  O   UNL     1      -1.325  -0.311  -1.126  1.00  0.00    -0.245 OA
BRANCH   2   4
ATOM      4  C   UNL     1       0.638  -0.708   0.324  1.00  0.00     0.195 C 
ATOM      5  C   UNL     1       0.692   0.800   0.861  1.00  0.00     0.065 C 
ATOM      6  C   UNL     1       1.332   0.605   2.284  1.00  0.00     0.011 C 
ATOM      7  C   UNL     1       1.142  -0.836   2.720  1.00  0.00     0.008 C 
ATOM      8  C   UNL     1       0.295  -1.466   1.638  1.00  0.00     0.081 C 
BRANCH   5   9
ATOM      9  C   UNL     1       1.405   2.109   0.331  1.00  0.00     0.039 C 
BRANCH   9  10
ATOM     10  C   UNL     1       1.321   3.052  -0.915  1.00  0.00     0.160 C 
BRANCH  10  11
ATOM     11  O   UNL     1       0.284   3.148  -1.868  1.00  0.00    -0.381 OA
BRANCH  11  12
ATOM     12  C   UNL     1      -0.357   1.958  -2.220  1.00  0.00     0.160 C 
BRANCH  12  13
ATOM     13  C   UNL     1       0.092   1.221  -3.489  1.00  0.00     0.031 C 
BRANCH  13  14
ATOM     14  C   UNL     1       1.489   0.572  -3.703  1.00  0.00    -0.015 C 
ATOM     15  C   UNL     1       2.599   0.841  -2.705  1.00  0.00     0.007 C 
ATOM     16  C   UNL     1       1.368  -0.944  -3.917  1.00  0.00     0.007 C 
ENDBRANCH  13  14
ENDBRANCH  12  13
ENDBRANCH  11  12
ENDBRANCH  10  11
ENDBRANCH   9  10
ENDBRANCH   5   9
BRANCH   4  17
ATOM     17  N   UNL     1       1.931  -1.261  -0.128  1.00  0.00    -0.343 N 
ATOM     18  H   UNL     1       2.664  -0.990   0.527  1.00  0.00     0.345 HD
ATOM     19  H   UNL     1       2.152  -0.897  -1.055  1.00  0.00     0.345 HD
ATOM     20  H   UNL     1       1.870  -2.279  -0.168  1.00  0.00     0.345 HD
ENDBRANCH   4  17
ENDBRANCH   2   4
ENDBRANCH   1   2
BRANCH   1  21
ATOM     21  C   UNL     1      -1.605  -2.712  -1.979  1.00  0.00     0.274 C 
BRANCH  21  22
ATOM     22  C   UNL     1      -3.065  -2.836  -1.500  1.00  0.00     0.275 C 
BRANCH  22  23
ATOM     23  O   UNL     1      -3.553  -1.656  -0.831  1.00  0.00    -0.458 OA
BRANCH  23  24
ATOM     24  C   UNL     1      -3.831  -1.798   0.486  1.00  0.00     0.338 C 
ATOM     25  O   UNL     1      -3.791  -2.837   1.129  1.00  0.00    -0.246 OA
BRANCH  24  26
ATOM     26  C   UNL     1      -4.120  -0.497   1.123  1.00  0.00     0.060 A 
ATOM     27  C   UNL     1      -3.058   0.374   1.346  1.00  0.00     0.016 A 
ATOM     28  C   UNL     1      -5.348  -0.235   1.720  1.00  0.00     0.016 A 
ATOM     29  C   UNL     1      -3.163   1.452   2.215  1.00  0.00     0.010 A 
ATOM     30  C   UNL     1      -5.482   0.883   2.559  1.00  0.00     0.010 A 
ATOM     31  C   UNL     1      -4.373   1.703   2.855  1.00  0.00    -0.014 A 
BRANCH  31  32
ATOM     32  C   UNL     1      -4.410   2.686   3.969  1.00  0.00     0.031 A 
ATOM     33  C   UNL     1      -4.635   2.177   5.367  1.00  0.00     0.074 A 
ATOM     34  C   UNL     1      -4.162   3.993   3.765  1.00  0.00     0.049 A 
ATOM     35  N   UNL     1      -4.910   2.833   6.462  1.00  0.00    -0.248 NA
ATOM     36  C   UNL     1      -4.544   0.720   5.541  1.00  0.00     0.031 C 
ATOM     37  C   UNL     1      -3.790   4.593   2.483  1.00  0.00     0.029 A 
ATOM     38  N   UNL     1      -4.187   5.054   4.636  1.00  0.00    -0.354 N 
ATOM     39  C   UNL     1      -5.090   1.865   7.446  1.00  0.00     0.074 A 
ATOM     40  C   UNL     1      -4.901   0.579   6.807  1.00  0.00     0.031 C 
ATOM     41  C   UNL     1      -3.635   5.916   2.649  1.00  0.00     0.029 A 
ATOM     42  C   UNL     1      -3.982   6.268   4.022  1.00  0.00     0.049 A 
ATOM     43  H   UNL     1      -4.337   4.955   5.604  1.00  0.00     0.167 HD
ATOM     44  C   UNL     1      -5.395   2.040   8.757  1.00  0.00     0.034 A 
ATOM     45  C   UNL     1      -4.130   7.522   4.494  1.00  0.00     0.034 A 
ATOM     46  C   UNL     1      -5.554   3.340   9.363  1.00  0.00     0.049 A 
ATOM     47  C   UNL     1      -4.562   7.707   5.927  1.00  0.00     0.074 A 
ATOM     48  C   UNL     1      -5.885   3.655  10.669  1.00  0.00     0.029 A 
ATOM     49  N   UNL     1      -5.392   4.551   8.695  1.00  0.00    -0.354 N 
ATOM     50  N   UNL     1      -4.827   6.793   6.833  1.00  0.00    -0.248 NA
ATOM     51  C   UNL     1      -4.724   9.087   6.396  1.00  0.00     0.031 C 
ATOM     52  C   UNL     1      -5.991   5.047  10.771  1.00  0.00     0.029 A 
ATOM     53  C   UNL     1      -5.646   5.611   9.552  1.00  0.00     0.049 A 
ATOM     54  H   UNL     1      -5.133   4.641   7.749  1.00  0.00     0.167 HD
ATOM     55  C   UNL     1      -5.176   7.490   7.987  1.00  0.00     0.074 A 
ATOM     56  C   UNL     1      -5.067   8.900   7.663  1.00  0.00     0.031 C 
ATOM     57  C   UNL     1      -5.549   7.011   9.203  1.00  0.00     0.034 A 
BRANCH  44  58
ATOM     58  C   UNL     1      -5.674   0.792   9.566  1.00  0.00     0.023 A 
ATOM     59  C   UNL     1      -4.707  -0.211   9.759  1.00  0.00     0.031 A 
ATOM     60  C   UNL     1      -6.970   0.553  10.060  1.00  0.00     0.131 A 
ATOM     61  C   UNL     1      -5.080  -1.445  10.316  1.00  0.00     0.055 A 
ATOM     62  C   UNL     1      -7.308  -0.639  10.704  1.00  0.00     0.041 A 
ATOM     63  F   UNL     1      -7.945   1.460   9.890  1.00  0.00    -0.206 F 
ATOM     64  C   UNL     1      -6.367  -1.658  10.812  1.00  0.00     0.022 A 
BRANCH  61  65
ATOM     65  S   UNL     1      -3.920  -2.837  10.188  1.00  0.00     0.124 S 
ATOM     66  O   UNL     1      -3.679  -2.888   8.748  1.00  0.00    -0.237 OA
ATOM     67  O   UNL     1      -2.800  -2.390  11.008  1.00  0.00    -0.237 OA
ATOM     68  O   UNL     1      -4.678  -3.966  10.725  1.00  0.00    -0.744 OA
ENDBRANCH  61  65
ENDBRANCH  44  58
BRANCH  45  69
ATOM     69  C   UNL     1      -3.971   8.686   3.574  1.00  0.00     0.023 A 
ATOM     70  C   UNL     1      -2.952   9.634   3.747  1.00  0.00     0.031 A 
ATOM     71  C   UNL     1      -4.858   8.863   2.493  1.00  0.00     0.131 A 
ATOM     72  C   UNL     1      -2.853  10.723   2.864  1.00  0.00     0.055 A 
ATOM     73  C   UNL     1      -4.725   9.918   1.590  1.00  0.00     0.041 A 
ATOM     74  F   UNL     1      -5.856   7.989   2.284  1.00  0.00    -0.206 F 
ATOM     75  C   UNL     1      -3.721  10.861   1.778  1.00  0.00     0.022 A 
BRANCH  72  76
ATOM     76  S   UNL     1      -1.597  11.994   3.179  1.00  0.00     0.124 S 
ATOM     77  O   UNL     1      -1.998  12.491   4.490  1.00  0.00    -0.237 OA
ATOM     78  O   UNL     1      -0.361  11.218   3.139  1.00  0.00    -0.237 OA
ATOM     79  O   UNL     1      -1.776  12.932   2.074  1.00  0.00    -0.744 OA
ENDBRANCH  72  76
ENDBRANCH  45  69
BRANCH  57  80
ATOM     80  C   UNL     1      -5.826   8.030  10.282  1.00  0.00     0.023 A 
ATOM     81  C   UNL     1      -6.927   8.901  10.215  1.00  0.00     0.031 A 
ATOM     82  C   UNL     1      -4.968   8.129  11.393  1.00  0.00     0.131 A 
ATOM     83  C   UNL     1      -7.113   9.868  11.215  1.00  0.00     0.055 A 
ATOM     84  C   UNL     1      -5.193   9.052  12.414  1.00  0.00     0.041 A 
ATOM     85  F   UNL     1      -3.899   7.325  11.505  1.00  0.00    -0.206 F 
ATOM     86  C   UNL     1      -6.263   9.937  12.323  1.00  0.00     0.022 A 
BRANCH  83  87
ATOM     87  S   UNL     1      -8.427  11.100  11.004  1.00  0.00     0.124 S 
ATOM     88  O   UNL     1      -8.055  11.727   9.740  1.00  0.00    -0.237 OA
ATOM     89  O   UNL     1      -9.629  10.273  10.976  1.00  0.00    -0.237 OA
ATOM     90  O   UNL     1      -8.290  11.954  12.183  1.00  0.00    -0.744 OA
ENDBRANCH  83  87
ENDBRANCH  57  80
ENDBRANCH  31  32
ENDBRANCH  24  26
ENDBRANCH  23  24
ENDBRANCH  22  23
ENDBRANCH  21  22
ENDBRANCH   1  21
TORSDOF 21
