REMARK SMILES O=C(C[N@@H+](Cc1c(F)cccc1Cl)C1CC1)OCCOC(=O)c1ccc(-c2c3nc(c(-c4cc(S(=O)(=O)[O-])ccc4F)c4ccc([nH]4)c(-c4cc(S(=O)(=O)[O-])ccc4F)c4nc(c(-c5cc(S(=O)(=O)[O-])ccc5F)c5ccc2[nH]5)C=C4)C=C3)cc1
REMARK SMILES IDX 18 1 17 2 2 3 1 4 3 5 4 6 5 8 6 9 7 10 12 11 8 12 9 13 11 14
REMARK SMILES IDX 13 15 10 16 14 17 15 18 16 19 19 20 20 21 21 22 22 23 23 24
REMARK SMILES IDX 24 25 85 26 25 27 84 28 26 29 27 30 28 31 78 32 29 33 83 34
REMARK SMILES IDX 77 35 79 36 30 37 82 38 76 39 75 40 31 42 63 43 43 44 62 45
REMARK SMILES IDX 44 46 47 47 61 48 80 49 45 50 46 51 60 53 81 54 48 55 32 56
REMARK SMILES IDX 33 57 41 58 34 59 40 60 42 61 39 62 35 63 36 64 37 65 38 66
REMARK SMILES IDX 64 67 65 68 73 69 66 70 72 71 74 72 71 73 67 74 68 75 69 76
REMARK SMILES IDX 70 77 49 78 50 79 58 80 51 81 57 82 59 83 56 84 52 85 53 86
REMARK SMILES IDX 54 87 55 88
REMARK H PARENT 4 7 79 41 47 52
REMARK Flexibility Score: inf
ROOT
ATOM      1  C   UNL     1       4.532   0.706  -0.650  1.00  0.00     0.274 C 
ENDROOT
BRANCH   1   2
ATOM      2  O   UNL     1       3.252   0.155  -1.022  1.00  0.00    -0.458 OA
BRANCH   2   3
ATOM      3  C   UNL     1       2.561  -0.769  -0.305  1.00  0.00     0.361 C 
ATOM      4  O   UNL     1       1.424  -1.083  -0.659  1.00  0.00    -0.245 OA
BRANCH   3   5
ATOM      5  C   UNL     1       3.221  -1.408   0.917  1.00  0.00     0.387 C 
BRANCH   5   6
ATOM      6  N   UNL     1       3.868  -2.694   0.584  1.00  0.00    -0.319 N 
ATOM      7  H   UNL     1       4.440  -2.553  -0.248  1.00  0.00     0.349 HD
BRANCH   6   8
ATOM      8  C   UNL     1       4.856  -3.120   1.597  1.00  0.00     0.304 C 
BRANCH   8   9
ATOM      9  C   UNL     1       4.375  -3.449   2.993  1.00  0.00     0.061 A 
ATOM     10  C   UNL     1       4.194  -2.407   3.914  1.00  0.00     0.133 A 
ATOM     11  C   UNL     1       4.172  -4.755   3.469  1.00  0.00     0.052 A 
ATOM     12  F   UNL     1       4.475  -1.147   3.552  1.00  0.00    -0.206 F 
ATOM     13  C   UNL     1       3.778  -2.630   5.224  1.00  0.00     0.040 A 
ATOM     14  C   UNL     1       3.739  -4.987   4.783  1.00  0.00     0.021 A 
ATOM     15  Cl  UNL     1       4.532  -6.159   2.530  1.00  0.00    -0.084 Cl
ATOM     16  C   UNL     1       3.537  -3.925   5.658  1.00  0.00     0.005 A 
ENDBRANCH   8   9
ENDBRANCH   6   8
BRANCH   6  17
ATOM     17  C   UNL     1       2.877  -3.713   0.187  1.00  0.00     0.185 C 
ATOM     18  C   UNL     1       2.806  -4.035  -1.289  1.00  0.00     0.071 C 
ATOM     19  C   UNL     1       3.245  -5.079  -0.316  1.00  0.00     0.071 C 
ENDBRANCH   6  17
ENDBRANCH   5   6
ENDBRANCH   3   5
ENDBRANCH   2   3
ENDBRANCH   1   2
BRANCH   1  20
ATOM     20  C   UNL     1       4.372   1.993   0.166  1.00  0.00     0.275 C 
BRANCH  20  21
ATOM     21  O   UNL     1       3.778   1.714   1.446  1.00  0.00    -0.458 OA
BRANCH  21  22
ATOM     22  C   UNL     1       2.444   1.960   1.552  1.00  0.00     0.338 C 
ATOM     23  O   UNL     1       1.740   2.482   0.711  1.00  0.00    -0.246 OA
BRANCH  22  24
ATOM     24  C   UNL     1       1.931   1.328   2.794  1.00  0.00     0.060 A 
ATOM     25  C   UNL     1       0.645   0.773   2.781  1.00  0.00     0.016 A 
ATOM     26  C   UNL     1       2.707   1.253   3.953  1.00  0.00     0.016 A 
ATOM     27  C   UNL     1       0.127   0.158   3.929  1.00  0.00     0.010 A 
ATOM     28  C   UNL     1       2.193   0.627   5.092  1.00  0.00     0.010 A 
ATOM     29  C   UNL     1       0.891   0.091   5.101  1.00  0.00    -0.014 A 
BRANCH  29  30
ATOM     30  C   UNL     1       0.312  -0.408   6.380  1.00  0.00     0.031 A 
ATOM     31  C   UNL     1       0.036   0.578   7.486  1.00  0.00     0.074 A 
ATOM     32  C   UNL     1       0.074  -1.717   6.596  1.00  0.00     0.049 A 
ATOM     33  N   UNL     1      -0.408   0.365   8.699  1.00  0.00    -0.248 NA
ATOM     34  C   UNL     1       0.310   1.990   7.182  1.00  0.00     0.031 C 
ATOM     35  C   UNL     1       0.274  -2.794   5.629  1.00  0.00     0.029 A 
ATOM     36  N   UNL     1      -0.353  -2.366   7.731  1.00  0.00    -0.354 N 
ATOM     37  C   UNL     1      -0.509   1.621   9.286  1.00  0.00     0.074 A 
ATOM     38  C   UNL     1       0.039   2.570   8.339  1.00  0.00     0.031 C 
ATOM     39  C   UNL     1       0.038  -3.974   6.232  1.00  0.00     0.029 A 
ATOM     40  C   UNL     1      -0.326  -3.737   7.627  1.00  0.00     0.049 A 
ATOM     41  H   UNL     1      -0.649  -1.893   8.542  1.00  0.00     0.167 HD
ATOM     42  C   UNL     1      -1.065   1.969  10.474  1.00  0.00     0.034 A 
ATOM     43  C   UNL     1      -0.543  -4.692   8.555  1.00  0.00     0.034 A 
ATOM     44  C   UNL     1      -1.597   1.028  11.426  1.00  0.00     0.049 A 
ATOM     45  C   UNL     1      -0.992  -4.303   9.942  1.00  0.00     0.074 A 
ATOM     46  C   UNL     1      -2.250   1.280  12.620  1.00  0.00     0.029 A 
ATOM     47  N   UNL     1      -1.512  -0.352  11.305  1.00  0.00    -0.354 N 
ATOM     48  N   UNL     1      -1.180  -3.106  10.446  1.00  0.00    -0.248 NA
ATOM     49  C   UNL     1      -1.296  -5.400  10.872  1.00  0.00     0.031 C 
ATOM     50  C   UNL     1      -2.502   0.055  13.251  1.00  0.00     0.029 A 
ATOM     51  C   UNL     1      -2.065  -0.964  12.421  1.00  0.00     0.049 A 
ATOM     52  H   UNL     1      -1.118  -0.828  10.539  1.00  0.00     0.167 HD
ATOM     53  C   UNL     1      -1.707  -3.311  11.720  1.00  0.00     0.074 A 
ATOM     54  C   UNL     1      -1.766  -4.743  11.922  1.00  0.00     0.031 C 
ATOM     55  C   UNL     1      -2.139  -2.393  12.622  1.00  0.00     0.034 A 
BRANCH  42  56
ATOM     56  C   UNL     1      -1.126   3.445  10.783  1.00  0.00     0.023 A 
ATOM     57  C   UNL     1      -1.853   4.325   9.960  1.00  0.00     0.031 A 
ATOM     58  C   UNL     1      -0.406   3.990  11.858  1.00  0.00     0.131 A 
ATOM     59  C   UNL     1      -1.759   5.708  10.159  1.00  0.00     0.055 A 
ATOM     60  C   UNL     1      -0.391   5.365  12.106  1.00  0.00     0.041 A 
ATOM     61  F   UNL     1       0.318   3.201  12.667  1.00  0.00    -0.206 F 
ATOM     62  C   UNL     1      -1.052   6.234  11.242  1.00  0.00     0.022 A 
BRANCH  59  63
ATOM     63  S   UNL     1      -2.423   6.807   8.878  1.00  0.00     0.124 S 
ATOM     64  O   UNL     1      -1.671   6.375   7.702  1.00  0.00    -0.237 OA
ATOM     65  O   UNL     1      -3.843   6.479   8.886  1.00  0.00    -0.237 OA
ATOM     66  O   UNL     1      -2.087   8.143   9.366  1.00  0.00    -0.744 OA
ENDBRANCH  59  63
ENDBRANCH  42  56
BRANCH  43  67
ATOM     67  C   UNL     1      -0.314  -6.127   8.227  1.00  0.00     0.023 A 
ATOM     68  C   UNL     1      -1.379  -7.036   8.149  1.00  0.00     0.031 A 
ATOM     69  C   UNL     1       0.995  -6.620   8.082  1.00  0.00     0.131 A 
ATOM     70  C   UNL     1      -1.113  -8.405   7.984  1.00  0.00     0.055 A 
ATOM     71  C   UNL     1       1.251  -7.976   7.877  1.00  0.00     0.041 A 
ATOM     72  F   UNL     1       2.046  -5.788   8.152  1.00  0.00    -0.206 F 
ATOM     73  C   UNL     1       0.193  -8.880   7.841  1.00  0.00     0.022 A 
BRANCH  70  74
ATOM     74  S   UNL     1      -2.502  -9.571   8.043  1.00  0.00     0.124 S 
ATOM     75  O   UNL     1      -3.049  -9.312   9.370  1.00  0.00    -0.237 OA
ATOM     76  O   UNL     1      -3.314  -9.129   6.915  1.00  0.00    -0.237 OA
ATOM     77  O   UNL     1      -1.859 -10.872   7.874  1.00  0.00    -0.744 OA
ENDBRANCH  70  74
ENDBRANCH  43  67
BRANCH  55  78
ATOM     78  C   UNL     1      -2.823  -2.911  13.864  1.00  0.00     0.023 A 
ATOM     79  C   UNL     1      -2.138  -3.626  14.861  1.00  0.00     0.031 A 
ATOM     80  C   UNL     1      -4.204  -2.699  14.035  1.00  0.00     0.131 A 
ATOM     81  C   UNL     1      -2.845  -4.151  15.956  1.00  0.00     0.055 A 
ATOM     82  C   UNL     1      -4.891  -3.174  15.154  1.00  0.00     0.041 A 
ATOM     83  F   UNL     1      -4.911  -2.026  13.113  1.00  0.00    -0.206 F 
ATOM     84  C   UNL     1      -4.213  -3.916  16.116  1.00  0.00     0.022 A 
BRANCH  81  85
ATOM     85  S   UNL     1      -1.970  -5.225  17.128  1.00  0.00     0.124 S 
ATOM     86  O   UNL     1      -1.488  -6.293  16.259  1.00  0.00    -0.237 OA
ATOM     87  O   UNL     1      -0.950  -4.332  17.667  1.00  0.00    -0.237 OA
ATOM     88  O   UNL     1      -3.011  -5.619  18.076  1.00  0.00    -0.744 OA
ENDBRANCH  81  85
ENDBRANCH  55  78
ENDBRANCH  29  30
ENDBRANCH  22  24
ENDBRANCH  21  22
ENDBRANCH  20  21
ENDBRANCH   1  20
TORSDOF 18
