REMARK SMILES O=C(CCCNS(=O)(=O)c1ccc(N2CCCC2=O)cc1)OCCOC(=O)c1ccc(-c2c3nc(c(-c4cc(S(=O)(=O)[O-])ccc4F)c4ccc([nH]4)c(-c4cc(S(=O)(=O)[O-])ccc4F)c4nc(c(-c5cc(S(=O)(=O)[O-])ccc5F)c5ccc2[nH]5)C=C4)C=C3)cc1
REMARK SMILES IDX 22 1 2 2 1 3 3 4 4 5 5 6 6 7 7 9 8 10 9 11 10 12 11 13 21 14
REMARK SMILES IDX 12 15 20 16 13 17 14 18 15 19 18 20 16 21 17 22 19 23 23 24
REMARK SMILES IDX 24 25 25 26 26 27 27 28 28 29 29 30 90 31 30 32 89 33 31 34
REMARK SMILES IDX 32 35 33 36 83 37 34 38 88 39 82 40 84 41 35 42 87 43 81 44
REMARK SMILES IDX 80 45 36 47 68 48 48 49 67 50 49 51 52 52 66 53 85 54 50 55
REMARK SMILES IDX 51 56 65 58 86 59 53 60 37 61 38 62 46 63 39 64 45 65 47 66
REMARK SMILES IDX 44 67 40 68 41 69 42 70 43 71 69 72 70 73 78 74 71 75 77 76
REMARK SMILES IDX 79 77 76 78 72 79 73 80 74 81 75 82 54 83 55 84 63 85 56 86
REMARK SMILES IDX 62 87 64 88 61 89 57 90 58 91 59 92 60 93
REMARK H PARENT 6 8 84 46 52 57
REMARK Flexibility Score: inf
ROOT
ATOM      1  O   UNL     1       2.135   0.999  -0.420  1.00  0.00    -0.462 OA
ENDROOT
BRANCH   1   2
ATOM      2  C   UNL     1       2.085  -0.341  -0.627  1.00  0.00     0.305 C 
ATOM      3  O   UNL     1       1.341  -0.833  -1.469  1.00  0.00    -0.252 OA
BRANCH   2   4
ATOM      4  C   UNL     1       2.897  -1.202   0.314  1.00  0.00     0.124 C 
BRANCH   4   5
ATOM      5  C   UNL     1       3.777  -2.207  -0.422  1.00  0.00     0.028 C 
BRANCH   5   6
ATOM      6  C   UNL     1       4.935  -1.552  -1.174  1.00  0.00     0.099 C 
BRANCH   6   7
ATOM      7  N   UNL     1       5.811  -0.867  -0.216  1.00  0.00    -0.211 NA
ATOM      8  H   UNL     1       6.194  -1.593   0.389  1.00  0.00     0.141 HD
BRANCH   7   9
ATOM      9  S   UNL     1       7.111   0.067  -0.711  1.00  0.00     0.240 S 
ATOM     10  O   UNL     1       6.640   0.937  -1.766  1.00  0.00    -0.207 OA
ATOM     11  O   UNL     1       7.721   0.582   0.494  1.00  0.00    -0.207 OA
BRANCH   9  12
ATOM     12  C   UNL     1       8.245  -1.087  -1.426  1.00  0.00     0.082 A 
ATOM     13  C   UNL     1       8.078  -2.456  -1.220  1.00  0.00     0.024 A 
ATOM     14  C   UNL     1       9.265  -0.612  -2.255  1.00  0.00     0.024 A 
ATOM     15  C   UNL     1       8.841  -3.356  -1.950  1.00  0.00     0.028 A 
ATOM     16  C   UNL     1      10.097  -1.525  -2.912  1.00  0.00     0.028 A 
ATOM     17  C   UNL     1       9.845  -2.896  -2.805  1.00  0.00     0.044 A 
BRANCH  17  18
ATOM     18  N   UNL     1      10.578  -3.836  -3.539  1.00  0.00    -0.312 N 
ATOM     19  C   UNL     1       9.941  -4.852  -4.335  1.00  0.00     0.126 C 
ATOM     20  C   UNL     1      11.964  -3.869  -3.656  1.00  0.00     0.227 C 
ATOM     21  C   UNL     1      11.014  -5.907  -4.472  1.00  0.00     0.032 C 
ATOM     22  C   UNL     1      12.311  -5.106  -4.455  1.00  0.00     0.102 C 
ATOM     23  O   UNL     1      12.784  -3.087  -3.202  1.00  0.00    -0.275 OA
ENDBRANCH  17  18
ENDBRANCH   9  12
ENDBRANCH   7   9
ENDBRANCH   6   7
ENDBRANCH   5   6
ENDBRANCH   4   5
ENDBRANCH   2   4
ENDBRANCH   1   2
BRANCH   1  24
ATOM     24  C   UNL     1       3.413   1.660  -0.467  1.00  0.00     0.274 C 
BRANCH  24  25
ATOM     25  C   UNL     1       3.802   2.363   0.836  1.00  0.00     0.275 C 
BRANCH  25  26
ATOM     26  O   UNL     1       3.575   1.521   1.976  1.00  0.00    -0.458 OA
BRANCH  26  27
ATOM     27  C   UNL     1       2.312   1.614   2.464  1.00  0.00     0.338 C 
ATOM     28  O   UNL     1       1.465   2.425   2.130  1.00  0.00    -0.246 OA
BRANCH  27  29
ATOM     29  C   UNL     1       2.022   0.463   3.342  1.00  0.00     0.060 A 
ATOM     30  C   UNL     1       0.745  -0.101   3.248  1.00  0.00     0.016 A 
ATOM     31  C   UNL     1       2.946  -0.027   4.271  1.00  0.00     0.016 A 
ATOM     32  C   UNL     1       0.352  -1.089   4.145  1.00  0.00     0.010 A 
ATOM     33  C   UNL     1       2.551  -1.024   5.172  1.00  0.00     0.010 A 
ATOM     34  C   UNL     1       1.233  -1.512   5.150  1.00  0.00    -0.014 A 
BRANCH  34  35
ATOM     35  C   UNL     1       0.672  -2.265   6.300  1.00  0.00     0.031 A 
ATOM     36  C   UNL     1       0.281  -1.491   7.533  1.00  0.00     0.074 A 
ATOM     37  C   UNL     1       0.423  -3.584   6.218  1.00  0.00     0.049 A 
ATOM     38  N   UNL     1      -0.342  -1.897   8.609  1.00  0.00    -0.248 NA
ATOM     39  C   UNL     1       0.643  -0.065   7.550  1.00  0.00     0.031 C 
ATOM     40  C   UNL     1       0.729  -4.433   5.068  1.00  0.00     0.029 A 
ATOM     41  N   UNL     1      -0.165  -4.436   7.119  1.00  0.00    -0.354 N 
ATOM     42  C   UNL     1      -0.460  -0.775   9.422  1.00  0.00     0.074 A 
ATOM     43  C   UNL     1       0.210   0.311   8.742  1.00  0.00     0.031 C 
ATOM     44  C   UNL     1       0.317  -5.686   5.331  1.00  0.00     0.029 A 
ATOM     45  C   UNL     1      -0.271  -5.731   6.669  1.00  0.00     0.049 A 
ATOM     46  H   UNL     1      -0.481  -4.147   8.006  1.00  0.00     0.167 HD
ATOM     47  C   UNL     1      -1.088  -0.652  10.618  1.00  0.00     0.034 A 
ATOM     48  C   UNL     1      -0.790  -6.822   7.268  1.00  0.00     0.034 A 
ATOM     49  C   UNL     1      -1.738  -1.746  11.295  1.00  0.00     0.049 A 
ATOM     50  C   UNL     1      -1.421  -6.678   8.634  1.00  0.00     0.074 A 
ATOM     51  C   UNL     1      -2.416  -1.734  12.502  1.00  0.00     0.029 A 
ATOM     52  N   UNL     1      -1.777  -3.055  10.832  1.00  0.00    -0.354 N 
ATOM     53  N   UNL     1      -1.566  -5.602   9.373  1.00  0.00    -0.248 NA
ATOM     54  C   UNL     1      -1.978  -7.897   9.235  1.00  0.00     0.031 C 
ATOM     55  C   UNL     1      -2.801  -3.046  12.801  1.00  0.00     0.029 A 
ATOM     56  C   UNL     1      -2.435  -3.865  11.745  1.00  0.00     0.049 A 
ATOM     57  H   UNL     1      -1.393  -3.363   9.979  1.00  0.00     0.167 HD
ATOM     58  C   UNL     1      -2.271  -6.009  10.504  1.00  0.00     0.074 A 
ATOM     59  C   UNL     1      -2.527  -7.425  10.344  1.00  0.00     0.031 C 
ATOM     60  C   UNL     1      -2.679  -5.278  11.574  1.00  0.00     0.034 A 
BRANCH  47  61
ATOM     61  C   UNL     1      -1.049   0.705  11.278  1.00  0.00     0.023 A 
ATOM     62  C   UNL     1      -1.660   1.830  10.695  1.00  0.00     0.031 A 
ATOM     63  C   UNL     1      -0.347   0.887  12.482  1.00  0.00     0.131 A 
ATOM     64  C   UNL     1      -1.490   3.097  11.274  1.00  0.00     0.055 A 
ATOM     65  C   UNL     1      -0.250   2.137  13.096  1.00  0.00     0.041 A 
ATOM     66  F   UNL     1       0.277  -0.145  13.072  1.00  0.00    -0.206 F 
ATOM     67  C   UNL     1      -0.810   3.255  12.484  1.00  0.00     0.022 A 
BRANCH  64  68
ATOM     68  S   UNL     1      -2.036   4.557  10.345  1.00  0.00     0.124 S 
ATOM     69  O   UNL     1      -1.266   4.425   9.110  1.00  0.00    -0.237 OA
ATOM     70  O   UNL     1      -3.473   4.338  10.230  1.00  0.00    -0.237 OA
ATOM     71  O   UNL     1      -1.641   5.675  11.200  1.00  0.00    -0.744 OA
ENDBRANCH  64  68
ENDBRANCH  47  61
BRANCH  48  72
ATOM     72  C   UNL     1      -0.737  -8.153   6.598  1.00  0.00     0.023 A 
ATOM     73  C   UNL     1      -1.910  -8.831   6.231  1.00  0.00     0.031 A 
ATOM     74  C   UNL     1       0.493  -8.799   6.381  1.00  0.00     0.131 A 
ATOM     75  C   UNL     1      -1.832 -10.135   5.715  1.00  0.00     0.055 A 
ATOM     76  C   UNL     1       0.568 -10.075   5.821  1.00  0.00     0.041 A 
ATOM     77  F   UNL     1       1.645  -8.194   6.712  1.00  0.00    -0.206 F 
ATOM     78  C   UNL     1      -0.601 -10.757   5.498  1.00  0.00     0.022 A 
BRANCH  75  79
ATOM     79  S   UNL     1      -3.373 -11.045   5.413  1.00  0.00     0.124 S 
ATOM     80  O   UNL     1      -3.982 -11.046   6.738  1.00  0.00    -0.237 OA
ATOM     81  O   UNL     1      -4.022 -10.213   4.406  1.00  0.00    -0.237 OA
ATOM     82  O   UNL     1      -2.910 -12.347   4.937  1.00  0.00    -0.744 OA
ENDBRANCH  75  79
ENDBRANCH  48  72
BRANCH  60  83
ATOM     83  C   UNL     1      -3.495  -5.993  12.626  1.00  0.00     0.023 A 
ATOM     84  C   UNL     1      -2.953  -7.020  13.418  1.00  0.00     0.031 A 
ATOM     85  C   UNL     1      -4.845  -5.650  12.823  1.00  0.00     0.131 A 
ATOM     86  C   UNL     1      -3.772  -7.711  14.325  1.00  0.00     0.055 A 
ATOM     87  C   UNL     1      -5.638  -6.298  13.772  1.00  0.00     0.041 A 
ATOM     88  F   UNL     1      -5.417  -4.678  12.095  1.00  0.00    -0.206 F 
ATOM     89  C   UNL     1      -5.107  -7.345  14.518  1.00  0.00     0.022 A 
BRANCH  86  90
ATOM     90  S   UNL     1      -3.099  -9.166  15.173  1.00  0.00     0.124 S 
ATOM     91  O   UNL     1      -2.665  -9.997  14.054  1.00  0.00    -0.237 OA
ATOM     92  O   UNL     1      -2.035  -8.588  15.987  1.00  0.00    -0.237 OA
ATOM     93  O   UNL     1      -4.241  -9.685  15.923  1.00  0.00    -0.744 OA
ENDBRANCH  86  90
ENDBRANCH  60  83
ENDBRANCH  34  35
ENDBRANCH  27  29
ENDBRANCH  26  27
ENDBRANCH  25  26
ENDBRANCH  24  25
ENDBRANCH   1  24
TORSDOF 20
