REMARK SMILES Cc1nc2sc3c(c2c2nc(CCC(=O)OCCOC(=O)c4ccc(-c5c6nc(c(-c7cc(S(=O)(=O)[O-])ccc7F)c7ccc([nH]7)c(-c7cc(S(=O)(=O)[O-])ccc7F)c7nc(c(-c8cc(S(=O)(=O)[O-])ccc8F)c8ccc5[nH]8)C=C7)C=C6)cc4)nn12)[C@@H](C)CCC3
REMARK SMILES IDX 18 1 17 2 16 3 14 4 15 5 13 6 12 7 11 8 1 9 2 10 3 11 86 12
REMARK SMILES IDX 4 13 9 14 85 15 5 16 8 17 10 18 6 19 7 20 91 21 87 22 90 23
REMARK SMILES IDX 88 24 89 25 19 26 20 27 21 28 22 29 23 30 84 31 24 32 83 33
REMARK SMILES IDX 25 34 26 35 27 36 77 37 28 38 82 39 76 40 78 41 29 42 81 43
REMARK SMILES IDX 75 44 74 45 30 47 62 48 42 49 61 50 43 51 46 52 60 53 79 54
REMARK SMILES IDX 44 55 45 56 59 58 80 59 47 60 31 61 32 62 40 63 33 64 39 65
REMARK SMILES IDX 41 66 38 67 34 68 35 69 36 70 37 71 63 72 64 73 72 74 65 75
REMARK SMILES IDX 71 76 73 77 70 78 66 79 67 80 68 81 69 82 48 83 49 84 57 85
REMARK SMILES IDX 50 86 56 87 58 88 55 89 51 90 52 91 53 92 54 93
REMARK H PARENT 78 46 46 57
REMARK Flexibility Score: inf
ROOT
ATOM      1  C   UNL     1      -0.320   8.091   2.946  1.00  0.00     0.275 C 
ENDROOT
BRANCH   1   2
ATOM      2  C   UNL     1      -1.244   7.803   1.769  1.00  0.00     0.274 C 
BRANCH   2   3
ATOM      3  O   UNL     1      -0.731   6.760   0.918  1.00  0.00    -0.462 OA
BRANCH   3   4
ATOM      4  C   UNL     1       0.027   7.153  -0.137  1.00  0.00     0.306 C 
ATOM      5  O   UNL     1       0.242   8.319  -0.448  1.00  0.00    -0.252 OA
BRANCH   4   6
ATOM      6  C   UNL     1       0.479   5.980  -0.972  1.00  0.00     0.131 C 
BRANCH   6   7
ATOM      7  C   UNL     1       1.637   5.172  -0.401  1.00  0.00     0.091 C 
BRANCH   7   8
ATOM      8  C   UNL     1       1.216   4.044   0.480  1.00  0.00     0.152 A 
ATOM      9  C   UNL     1       0.857  -0.043   0.010  1.00  0.00     0.090 C 
ATOM     10  C   UNL     1       0.574   0.737   1.255  1.00  0.00     0.131 A 
ATOM     11  N   UNL     1       0.148   0.173   2.358  1.00  0.00    -0.222 NA
ATOM     12  N   UNL     1       0.797   2.115   1.144  1.00  0.00    -0.199 N 
ATOM     13  C   UNL     1      -0.102   1.028   3.405  1.00  0.00     0.129 A 
ATOM     14  C   UNL     1       0.568   2.981   2.175  1.00  0.00     0.168 A 
ATOM     15  N   UNL     1       1.180   2.775   0.031  1.00  0.00    -0.150 NA
ATOM     16  S   UNL     1      -0.704   0.459   4.902  1.00  0.00    -0.120 S 
ATOM     17  C   UNL     1       0.041   2.409   3.435  1.00  0.00     0.060 A 
ATOM     18  N   UNL     1       0.838   4.205   1.795  1.00  0.00    -0.211 NA
ATOM     19  C   UNL     1      -0.814   2.039   5.535  1.00  0.00     0.011 A 
ATOM     20  C   UNL     1      -0.415   3.015   4.639  1.00  0.00    -0.018 A 
ATOM     21  C   UNL     1      -1.345   2.309   6.907  1.00  0.00     0.047 C 
ATOM     22  C   UNL     1      -0.523   4.484   4.959  1.00  0.00     0.018 C 
ATOM     23  C   UNL     1      -0.836   3.670   7.398  1.00  0.00     0.006 C 
ATOM     24  C   UNL     1      -1.435   5.177   3.948  1.00  0.00     0.013 C 
ATOM     25  C   UNL     1      -1.118   4.761   6.365  1.00  0.00     0.008 C 
ENDBRANCH   7   8
ENDBRANCH   6   7
ENDBRANCH   4   6
ENDBRANCH   3   4
ENDBRANCH   2   3
ENDBRANCH   1   2
BRANCH   1  26
ATOM     26  O   UNL     1       0.728   8.981   2.591  1.00  0.00    -0.458 OA
BRANCH  26  27
ATOM     27  C   UNL     1       1.864   8.339   2.237  1.00  0.00     0.338 C 
ATOM     28  O   UNL     1       1.992   7.184   1.888  1.00  0.00    -0.246 OA
BRANCH  27  29
ATOM     29  C   UNL     1       2.995   9.205   2.519  1.00  0.00     0.060 A 
ATOM     30  C   UNL     1       4.142   9.073   1.737  1.00  0.00     0.016 A 
ATOM     31  C   UNL     1       2.945  10.012   3.663  1.00  0.00     0.016 A 
ATOM     32  C   UNL     1       5.272   9.760   2.124  1.00  0.00     0.010 A 
ATOM     33  C   UNL     1       4.072  10.693   4.048  1.00  0.00     0.010 A 
ATOM     34  C   UNL     1       5.227  10.549   3.282  1.00  0.00    -0.014 A 
BRANCH  34  35
ATOM     35  C   UNL     1       6.363  11.399   3.564  1.00  0.00     0.031 A 
ATOM     36  C   UNL     1       6.532  12.480   2.570  1.00  0.00     0.074 A 
ATOM     37  C   UNL     1       7.090  11.321   4.691  1.00  0.00     0.049 A 
ATOM     38  N   UNL     1       7.469  12.591   1.692  1.00  0.00    -0.248 NA
ATOM     39  C   UNL     1       5.448  13.466   2.419  1.00  0.00     0.031 C 
ATOM     40  C   UNL     1       6.813  10.487   5.862  1.00  0.00     0.029 A 
ATOM     41  N   UNL     1       8.169  12.059   5.072  1.00  0.00    -0.354 N 
ATOM     42  C   UNL     1       7.242  13.808   1.067  1.00  0.00     0.074 A 
ATOM     43  C   UNL     1       5.892  14.189   1.389  1.00  0.00     0.031 C 
ATOM     44  C   UNL     1       7.563  10.920   6.898  1.00  0.00     0.029 A 
ATOM     45  C   UNL     1       8.469  11.953   6.423  1.00  0.00     0.049 A 
ATOM     46  H   UNL     1       8.689  12.615   4.447  1.00  0.00     0.167 HD
ATOM     47  C   UNL     1       8.286  14.546   0.607  1.00  0.00     0.034 A 
ATOM     48  C   UNL     1       9.374  12.692   7.107  1.00  0.00     0.034 A 
ATOM     49  C   UNL     1       9.500  13.771   0.564  1.00  0.00     0.049 A 
ATOM     50  C   UNL     1      10.416  13.106   6.134  1.00  0.00     0.074 A 
ATOM     51  C   UNL     1      10.060  12.823  -0.262  1.00  0.00     0.029 A 
ATOM     52  N   UNL     1      10.166  13.715   1.760  1.00  0.00    -0.354 N 
ATOM     53  N   UNL     1      11.158  12.254   5.479  1.00  0.00    -0.248 NA
ATOM     54  C   UNL     1      10.432  14.470   5.614  1.00  0.00     0.031 C 
ATOM     55  C   UNL     1      10.986  12.087   0.540  1.00  0.00     0.029 A 
ATOM     56  C   UNL     1      10.986  12.617   1.828  1.00  0.00     0.049 A 
ATOM     57  H   UNL     1      10.069  14.379   2.480  1.00  0.00     0.167 HD
ATOM     58  C   UNL     1      11.373  12.854   4.256  1.00  0.00     0.074 A 
ATOM     59  C   UNL     1      11.068  14.263   4.457  1.00  0.00     0.031 C 
ATOM     60  C   UNL     1      11.452  12.121   3.110  1.00  0.00     0.034 A 
BRANCH  47  61
ATOM     61  C   UNL     1       8.335  16.054   0.639  1.00  0.00     0.023 A 
ATOM     62  C   UNL     1       9.386  16.697  -0.041  1.00  0.00     0.031 A 
ATOM     63  C   UNL     1       7.591  16.857   1.535  1.00  0.00     0.131 A 
ATOM     64  C   UNL     1       9.675  18.052   0.200  1.00  0.00     0.055 A 
ATOM     65  C   UNL     1       7.843  18.216   1.726  1.00  0.00     0.041 A 
ATOM     66  F   UNL     1       6.656  16.347   2.349  1.00  0.00    -0.206 F 
ATOM     67  C   UNL     1       8.902  18.818   1.071  1.00  0.00     0.022 A 
BRANCH  64  68
ATOM     68  S   UNL     1      11.156  18.776  -0.552  1.00  0.00     0.124 S 
ATOM     69  O   UNL     1      12.217  17.946   0.004  1.00  0.00    -0.237 OA
ATOM     70  O   UNL     1      10.885  18.608  -1.976  1.00  0.00    -0.237 OA
ATOM     71  O   UNL     1      11.134  20.159  -0.079  1.00  0.00    -0.744 OA
ENDBRANCH  64  68
ENDBRANCH  47  61
BRANCH  48  72
ATOM     72  C   UNL     1       9.231  13.272   8.467  1.00  0.00     0.023 A 
ATOM     73  C   UNL     1      10.316  13.922   9.087  1.00  0.00     0.031 A 
ATOM     74  C   UNL     1       7.964  13.438   9.071  1.00  0.00     0.131 A 
ATOM     75  C   UNL     1      10.110  14.729  10.225  1.00  0.00     0.055 A 
ATOM     76  C   UNL     1       7.768  14.224  10.210  1.00  0.00     0.041 A 
ATOM     77  F   UNL     1       6.852  12.921   8.528  1.00  0.00    -0.206 F 
ATOM     78  C   UNL     1       8.839  14.892  10.780  1.00  0.00     0.022 A 
BRANCH  75  79
ATOM     79  S   UNL     1      11.479  15.715  10.902  1.00  0.00     0.124 S 
ATOM     80  O   UNL     1      12.120  14.761  11.800  1.00  0.00    -0.237 OA
ATOM     81  O   UNL     1      12.230  16.086   9.708  1.00  0.00    -0.237 OA
ATOM     82  O   UNL     1      10.792  16.825  11.562  1.00  0.00    -0.744 OA
ENDBRANCH  75  79
ENDBRANCH  48  72
BRANCH  60  83
ATOM     83  C   UNL     1      11.937  10.701   3.209  1.00  0.00     0.023 A 
ATOM     84  C   UNL     1      11.250   9.640   3.837  1.00  0.00     0.031 A 
ATOM     85  C   UNL     1      13.160  10.412   2.577  1.00  0.00     0.131 A 
ATOM     86  C   UNL     1      11.801   8.342   3.812  1.00  0.00     0.055 A 
ATOM     87  C   UNL     1      13.692   9.126   2.541  1.00  0.00     0.041 A 
ATOM     88  F   UNL     1      13.850  11.384   1.957  1.00  0.00    -0.206 F 
ATOM     89  C   UNL     1      13.014   8.085   3.162  1.00  0.00     0.022 A 
BRANCH  86  90
ATOM     90  S   UNL     1      10.938   6.955   4.620  1.00  0.00     0.124 S 
ATOM     91  O   UNL     1      10.823   7.394   6.005  1.00  0.00    -0.237 OA
ATOM     92  O   UNL     1       9.691   6.870   3.866  1.00  0.00    -0.237 OA
ATOM     93  O   UNL     1      11.845   5.822   4.416  1.00  0.00    -0.744 OA
ENDBRANCH  86  90
ENDBRANCH  60  83
ENDBRANCH  34  35
ENDBRANCH  27  29
ENDBRANCH  26  27
ENDBRANCH   1  26
TORSDOF 16
