REMARK SMILES CC(C)C[C@H](NC(=O)CNC(=O)[C@@H](NC(=O)OCc1ccccc1)C(C)C)C(=O)N[C@@H](C)C(=O)OCCOC(=O)c1ccc(-c2c3nc(c(-c4cc(S(=O)(=O)[O-])ccc4F)c4ccc([nH]4)c(-c4cc(S(=O)(=O)[O-])ccc4F)c4nc(c(-c5cc(S(=O)(=O)[O-])ccc5F)c5ccc2[nH]5)C=C4)C=C3)cc1
REMARK SMILES IDX 31 1 32 2 30 3 28 4 29 5 5 7 4 8 2 9 1 10 3 11 6 12 7 13
REMARK SMILES IDX 8 15 9 16 10 17 11 18 12 20 13 21 14 22 15 23 16 25 17 26
REMARK SMILES IDX 18 27 19 28 20 29 24 30 21 31 23 32 22 33 25 34 26 35 27 36
REMARK SMILES IDX 33 37 34 38 35 39 36 40 37 41 38 42 39 43 40 44 41 45 42 46
REMARK SMILES IDX 103 47 43 48 102 49 44 50 45 51 46 52 96 53 47 54 101 55
REMARK SMILES IDX 95 56 97 57 48 58 100 59 94 60 93 61 49 63 81 64 61 65 80 66
REMARK SMILES IDX 62 67 65 68 79 69 98 70 63 71 64 72 78 74 99 75 66 76 50 77
REMARK SMILES IDX 51 78 59 79 52 80 58 81 60 82 57 83 53 84 54 85 55 86 56 87
REMARK SMILES IDX 82 88 83 89 91 90 84 91 90 92 92 93 89 94 85 95 86 96 87 97
REMARK SMILES IDX 88 98 67 99 68 100 76 101 69 102 75 103 77 104 74 105 70 106
REMARK SMILES IDX 71 107 72 108 73 109
REMARK H PARENT 30 6 6 14 10 19 14 24 97 62 65 73
REMARK Flexibility Score: inf
ROOT
ATOM      1  C   UNL     1      -3.476   0.260   4.044  1.00  0.00     0.189 C 
ATOM      2  C   UNL     1      -3.560   1.787   4.078  1.00  0.00     0.043 C 
ENDROOT
BRANCH   1   3
ATOM      3  N   UNL     1      -4.186  -0.208   2.849  1.00  0.00    -0.341 N 
ATOM      4  C   UNL     1      -3.742  -0.642   1.635  1.00  0.00     0.243 C 
ATOM      5  O   UNL     1      -4.616  -0.885   0.792  1.00  0.00    -0.273 OA
ATOM      6  H   UNL     1      -5.166  -0.209   2.941  1.00  0.00     0.164 HD
BRANCH   4   7
ATOM      7  C   UNL     1      -2.263  -1.026   1.338  1.00  0.00     0.171 C 
BRANCH   7   8
ATOM      8  C   UNL     1      -1.986  -2.400   1.950  1.00  0.00     0.038 C 
BRANCH   8   9
ATOM      9  C   UNL     1      -2.985  -3.569   1.755  1.00  0.00    -0.015 C 
ATOM     10  C   UNL     1      -3.190  -3.963   0.296  1.00  0.00     0.007 C 
ATOM     11  C   UNL     1      -2.515  -4.831   2.507  1.00  0.00     0.007 C 
ENDBRANCH   8   9
ENDBRANCH   7   8
BRANCH   7  12
ATOM     12  N   UNL     1      -1.296   0.004   1.766  1.00  0.00    -0.343 N 
ATOM     13  C   UNL     1       0.021   0.272   1.574  1.00  0.00     0.240 C 
ATOM     14  H   UNL     1      -1.719   0.677   2.346  1.00  0.00     0.164 HD
ATOM     15  O   UNL     1       0.369   1.381   2.010  1.00  0.00    -0.273 OA
BRANCH  13  16
ATOM     16  C   UNL     1       1.051  -0.562   0.778  1.00  0.00     0.216 C 
BRANCH  16  17
ATOM     17  N   UNL     1       1.177  -1.974   1.055  1.00  0.00    -0.345 N 
ATOM     18  C   UNL     1       0.798  -3.116   0.447  1.00  0.00     0.243 C 
ATOM     19  H   UNL     1       1.660  -2.145   1.896  1.00  0.00     0.164 HD
ATOM     20  O   UNL     1       0.937  -4.135   1.136  1.00  0.00    -0.273 OA
BRANCH  18  21
ATOM     21  C   UNL     1       0.199  -3.254  -0.968  1.00  0.00     0.177 C 
BRANCH  21  22
ATOM     22  N   UNL     1      -0.596  -2.114  -1.386  1.00  0.00    -0.309 N 
ATOM     23  C   UNL     1      -0.262  -1.021  -2.107  1.00  0.00     0.408 C 
ATOM     24  H   UNL     1      -1.536  -2.141  -1.095  1.00  0.00     0.167 HD
ATOM     25  O   UNL     1      -0.991  -0.036  -2.124  1.00  0.00    -0.225 OA
BRANCH  23  26
ATOM     26  O   UNL     1       0.837  -1.211  -2.847  1.00  0.00    -0.445 OA
BRANCH  26  27
ATOM     27  C   UNL     1       0.971  -0.359  -3.983  1.00  0.00     0.270 C 
BRANCH  27  28
ATOM     28  C   UNL     1      -0.018  -0.628  -5.109  1.00  0.00    -0.011 A 
ATOM     29  C   UNL     1       0.287  -0.141  -6.385  1.00  0.00     0.007 A 
ATOM     30  C   UNL     1      -1.250  -1.284  -4.941  1.00  0.00     0.007 A 
ATOM     31  C   UNL     1      -0.610  -0.300  -7.444  1.00  0.00     0.000 A 
ATOM     32  C   UNL     1      -2.149  -1.441  -5.994  1.00  0.00     0.000 A 
ATOM     33  C   UNL     1      -1.830  -0.943  -7.247  1.00  0.00     0.000 A 
ENDBRANCH  27  28
ENDBRANCH  26  27
ENDBRANCH  23  26
ENDBRANCH  21  22
BRANCH  21  34
ATOM     34  C   UNL     1       1.172  -3.882  -1.979  1.00  0.00     0.015 C 
ATOM     35  C   UNL     1       1.765  -5.164  -1.398  1.00  0.00     0.010 C 
ATOM     36  C   UNL     1       0.482  -4.250  -3.295  1.00  0.00     0.010 C 
ENDBRANCH  21  34
ENDBRANCH  18  21
ENDBRANCH  16  17
ENDBRANCH  13  16
ENDBRANCH   7  12
ENDBRANCH   4   7
ENDBRANCH   1   3
BRANCH   1  37
ATOM     37  C   UNL     1      -3.920  -0.285   5.427  1.00  0.00     0.328 C 
ATOM     38  O   UNL     1      -3.400   0.096   6.473  1.00  0.00    -0.250 OA
BRANCH  37  39
ATOM     39  O   UNL     1      -4.872  -1.261   5.369  1.00  0.00    -0.461 OA
BRANCH  39  40
ATOM     40  C   UNL     1      -5.065  -2.030   6.586  1.00  0.00     0.274 C 
BRANCH  40  41
ATOM     41  C   UNL     1      -4.453  -3.458   6.550  1.00  0.00     0.275 C 
BRANCH  41  42
ATOM     42  O   UNL     1      -3.006  -3.543   6.709  1.00  0.00    -0.458 OA
BRANCH  42  43
ATOM     43  C   UNL     1      -2.367  -3.166   5.583  1.00  0.00     0.338 C 
ATOM     44  O   UNL     1      -2.966  -2.692   4.631  1.00  0.00    -0.246 OA
BRANCH  43  45
ATOM     45  C   UNL     1      -0.898  -3.320   5.476  1.00  0.00     0.060 A 
ATOM     46  C   UNL     1      -0.211  -2.207   4.985  1.00  0.00     0.016 A 
ATOM     47  C   UNL     1      -0.253  -4.560   5.477  1.00  0.00     0.016 A 
ATOM     48  C   UNL     1       1.063  -2.345   4.431  1.00  0.00     0.010 A 
ATOM     49  C   UNL     1       1.075  -4.676   4.988  1.00  0.00     0.010 A 
ATOM     50  C   UNL     1       1.754  -3.576   4.434  1.00  0.00    -0.014 A 
BRANCH  50  51
ATOM     51  C   UNL     1       3.196  -3.597   3.988  1.00  0.00     0.031 A 
ATOM     52  C   UNL     1       3.761  -4.458   2.863  1.00  0.00     0.074 A 
ATOM     53  C   UNL     1       4.052  -2.758   4.615  1.00  0.00     0.049 A 
ATOM     54  N   UNL     1       4.911  -4.324   2.233  1.00  0.00    -0.248 NA
ATOM     55  C   UNL     1       2.962  -5.581   2.361  1.00  0.00     0.031 C 
ATOM     56  C   UNL     1       3.706  -1.872   5.733  1.00  0.00     0.029 A 
ATOM     57  N   UNL     1       5.392  -2.522   4.420  1.00  0.00    -0.354 N 
ATOM     58  C   UNL     1       4.907  -5.252   1.189  1.00  0.00     0.074 A 
ATOM     59  C   UNL     1       3.689  -6.015   1.334  1.00  0.00     0.031 C 
ATOM     60  C   UNL     1       4.796  -1.202   6.123  1.00  0.00     0.029 A 
ATOM     61  C   UNL     1       5.939  -1.678   5.357  1.00  0.00     0.049 A 
ATOM     62  H   UNL     1       5.909  -2.919   3.682  1.00  0.00     0.167 HD
ATOM     63  C   UNL     1       5.822  -5.437   0.199  1.00  0.00     0.034 A 
ATOM     64  C   UNL     1       7.220  -1.372   5.638  1.00  0.00     0.034 A 
ATOM     65  C   UNL     1       7.155  -4.885   0.228  1.00  0.00     0.049 A 
ATOM     66  C   UNL     1       8.312  -1.922   4.767  1.00  0.00     0.074 A 
ATOM     67  C   UNL     1       8.178  -5.055  -0.691  1.00  0.00     0.029 A 
ATOM     68  N   UNL     1       7.697  -4.193   1.298  1.00  0.00    -0.354 N 
ATOM     69  N   UNL     1       8.209  -2.605   3.651  1.00  0.00    -0.248 NA
ATOM     70  C   UNL     1       9.691  -1.658   5.191  1.00  0.00     0.031 C 
ATOM     71  C   UNL     1       9.368  -4.607  -0.103  1.00  0.00     0.029 A 
ATOM     72  C   UNL     1       9.067  -4.056   1.131  1.00  0.00     0.049 A 
ATOM     73  H   UNL     1       7.185  -3.850   2.066  1.00  0.00     0.167 HD
ATOM     74  C   UNL     1       9.515  -2.820   3.221  1.00  0.00     0.074 A 
ATOM     75  C   UNL     1      10.382  -2.188   4.193  1.00  0.00     0.031 C 
ATOM     76  C   UNL     1       9.949  -3.470   2.111  1.00  0.00     0.034 A 
BRANCH  63  77
ATOM     77  C   UNL     1       5.509  -6.360  -0.961  1.00  0.00     0.023 A 
ATOM     78  C   UNL     1       4.887  -5.891  -2.137  1.00  0.00     0.031 A 
ATOM     79  C   UNL     1       5.981  -7.683  -0.956  1.00  0.00     0.131 A 
ATOM     80  C   UNL     1       4.688  -6.760  -3.228  1.00  0.00     0.055 A 
ATOM     81  C   UNL     1       5.838  -8.522  -2.065  1.00  0.00     0.041 A 
ATOM     82  F   UNL     1       6.622  -8.168   0.118  1.00  0.00    -0.206 F 
ATOM     83  C   UNL     1       5.180  -8.067  -3.203  1.00  0.00     0.022 A 
BRANCH  80  84
ATOM     84  S   UNL     1       3.787  -6.225  -4.720  1.00  0.00     0.124 S 
ATOM     85  O   UNL     1       2.443  -6.731  -4.455  1.00  0.00    -0.237 OA
ATOM     86  O   UNL     1       3.934  -4.773  -4.701  1.00  0.00    -0.237 OA
ATOM     87  O   UNL     1       4.497  -6.909  -5.798  1.00  0.00    -0.744 OA
ENDBRANCH  80  84
ENDBRANCH  63  77
BRANCH  64  88
ATOM     88  C   UNL     1       7.538  -0.604   6.876  1.00  0.00     0.023 A 
ATOM     89  C   UNL     1       8.231   0.612   6.829  1.00  0.00     0.031 A 
ATOM     90  C   UNL     1       7.192  -1.121   8.142  1.00  0.00     0.131 A 
ATOM     91  C   UNL     1       8.590   1.251   8.026  1.00  0.00     0.055 A 
ATOM     92  C   UNL     1       7.489  -0.446   9.324  1.00  0.00     0.041 A 
ATOM     93  F   UNL     1       6.542  -2.292   8.245  1.00  0.00    -0.206 F 
ATOM     94  C   UNL     1       8.207   0.742   9.270  1.00  0.00     0.022 A 
BRANCH  91  95
ATOM     95  S   UNL     1       9.672   2.703   7.940  1.00  0.00     0.124 S 
ATOM     96  O   UNL     1      10.802   2.186   7.176  1.00  0.00    -0.237 OA
ATOM     97  O   UNL     1       8.823   3.671   7.255  1.00  0.00    -0.237 OA
ATOM     98  O   UNL     1       9.951   3.001   9.343  1.00  0.00    -0.744 OA
ENDBRANCH  91  95
ENDBRANCH  64  88
BRANCH  76  99
ATOM     99  C   UNL     1      11.438  -3.511   1.879  1.00  0.00     0.023 A 
ATOM    100  C   UNL     1      12.304  -4.172   2.769  1.00  0.00     0.031 A 
ATOM    101  C   UNL     1      12.007  -2.840   0.783  1.00  0.00     0.131 A 
ATOM    102  C   UNL     1      13.692  -4.085   2.590  1.00  0.00     0.055 A 
ATOM    103  C   UNL     1      13.386  -2.820   0.567  1.00  0.00     0.041 A 
ATOM    104  F   UNL     1      11.233  -2.182  -0.095  1.00  0.00    -0.206 F 
ATOM    105  C   UNL     1      14.238  -3.429   1.483  1.00  0.00     0.022 A 
BRANCH 102 106
ATOM    106  S   UNL     1      14.779  -4.732   3.890  1.00  0.00     0.124 S 
ATOM    107  O   UNL     1      14.337  -3.976   5.057  1.00  0.00    -0.237 OA
ATOM    108  O   UNL     1      14.453  -6.154   3.890  1.00  0.00    -0.237 OA
ATOM    109  O   UNL     1      16.120  -4.404   3.410  1.00  0.00    -0.744 OA
ENDBRANCH 102 106
ENDBRANCH  76  99
ENDBRANCH  50  51
ENDBRANCH  43  45
ENDBRANCH  42  43
ENDBRANCH  41  42
ENDBRANCH  40  41
ENDBRANCH  39  40
ENDBRANCH  37  39
ENDBRANCH   1  37
TORSDOF 27
