REMARK SMILES Cc1cc(Br)c(C)c([C@@H]2[NH2+][C@H](C(=O)OCCOC(=O)c3ccc(-c4c5nc(c(-c6cc(S(=O)(=O)[O-])ccc6F)c6ccc([nH]6)c(-c6cc(S(=O)(=O)[O-])ccc6F)c6nc(c(-c7cc(S(=O)(=O)[O-])ccc7F)c7ccc4[nH]7)C=C6)C=C5)cc3)CS2)c1O
REMARK SMILES IDX 16 1 15 2 14 3 12 4 13 5 11 6 9 7 10 8 84 9 83 12 8 13 1 14
REMARK SMILES IDX 2 15 3 16 85 17 4 18 5 19 6 20 7 21 86 22 17 24 18 25 19 26
REMARK SMILES IDX 20 27 21 28 82 29 22 30 81 31 23 32 24 33 25 34 75 35 26 36
REMARK SMILES IDX 80 37 74 38 76 39 27 40 79 41 73 42 72 43 28 45 60 46 40 47
REMARK SMILES IDX 59 48 41 49 44 50 58 51 77 52 42 53 43 54 57 56 78 57 45 58
REMARK SMILES IDX 29 59 30 60 38 61 31 62 37 63 39 64 36 65 32 66 33 67 34 68
REMARK SMILES IDX 35 69 61 70 62 71 70 72 63 73 69 74 71 75 68 76 64 77 65 78
REMARK SMILES IDX 66 79 67 80 46 81 47 82 55 83 48 84 54 85 56 86 53 87 49 88
REMARK SMILES IDX 50 89 51 90 52 91
REMARK H PARENT 10 10 10 11 86 23 76 44 44 55
REMARK Flexibility Score: inf
ROOT
ATOM      1  C   UNL     1       6.032   3.666   0.201  1.00  0.00     0.275 C 
ENDROOT
BRANCH   1   2
ATOM      2  C   UNL     1       4.938   3.177   1.156  1.00  0.00     0.274 C 
BRANCH   2   3
ATOM      3  O   UNL     1       3.663   3.724   0.780  1.00  0.00    -0.458 OA
BRANCH   3   4
ATOM      4  C   UNL     1       3.209   4.821   1.465  1.00  0.00     0.365 C 
ATOM      5  O   UNL     1       3.684   5.224   2.519  1.00  0.00    -0.245 OA
BRANCH   4   6
ATOM      6  C   UNL     1       2.036   5.502   0.738  1.00  0.00     0.304 C 
ATOM      7  C   UNL     1       0.539   4.841  -1.050  1.00  0.00     0.278 C 
ATOM      8  N   UNL     1       1.922   4.966  -0.631  1.00  0.00    -0.319 N 
ATOM      9  S   UNL     1      -0.557   5.372   0.287  1.00  0.00    -0.087 SA
ATOM     10  H   UNL     1       2.405   5.595  -1.272  1.00  0.00     0.348 HD
ATOM     11  H   UNL     1       2.341   4.036  -0.642  1.00  0.00     0.348 HD
ATOM     12  C   UNL     1       0.749   5.328   1.530  1.00  0.00     0.153 C 
BRANCH   7  13
ATOM     13  C   UNL     1       0.273   3.417  -1.532  1.00  0.00     0.066 A 
ATOM     14  C   UNL     1       0.848  -0.135  -0.168  1.00  0.00     0.048 C 
ATOM     15  C   UNL     1       0.419   0.979  -1.078  1.00  0.00    -0.008 A 
ATOM     16  C   UNL     1      -0.107   0.720  -2.336  1.00  0.00     0.023 A 
ATOM     17  C   UNL     1       0.588   2.311  -0.697  1.00  0.00     0.128 A 
ATOM     18  C   UNL     1      -0.450   1.775  -3.189  1.00  0.00     0.021 A 
ATOM     19  Br  UNL     1      -1.205   1.269  -4.867  1.00  0.00    -0.051 Br
ATOM     20  C   UNL     1      -0.249   3.131  -2.825  1.00  0.00    -0.023 A 
ATOM     21  C   UNL     1      -0.611   4.203  -3.827  1.00  0.00     0.046 C 
BRANCH  17  22
ATOM     22  O   UNL     1       1.132   2.483   0.549  1.00  0.00    -0.507 OA
ATOM     23  H   UNL     1       1.331   1.738   1.081  1.00  0.00     0.293 HD
ENDBRANCH  17  22
ENDBRANCH   7  13
ENDBRANCH   4   6
ENDBRANCH   3   4
ENDBRANCH   2   3
ENDBRANCH   1   2
BRANCH   1  24
ATOM     24  O   UNL     1       6.373   5.039   0.454  1.00  0.00    -0.458 OA
BRANCH  24  25
ATOM     25  C   UNL     1       5.684   5.970  -0.255  1.00  0.00     0.338 C 
ATOM     26  O   UNL     1       4.839   5.779  -1.105  1.00  0.00    -0.246 OA
BRANCH  25  27
ATOM     27  C   UNL     1       6.003   7.295   0.306  1.00  0.00     0.060 A 
ATOM     28  C   UNL     1       7.325   7.709   0.469  1.00  0.00     0.016 A 
ATOM     29  C   UNL     1       4.946   8.127   0.684  1.00  0.00     0.016 A 
ATOM     30  C   UNL     1       7.581   8.944   1.063  1.00  0.00     0.010 A 
ATOM     31  C   UNL     1       5.202   9.365   1.266  1.00  0.00     0.010 A 
ATOM     32  C   UNL     1       6.522   9.771   1.481  1.00  0.00    -0.014 A 
BRANCH  32  33
ATOM     33  C   UNL     1       6.811  11.081   2.107  1.00  0.00     0.031 A 
ATOM     34  C   UNL     1       6.548  11.312   3.566  1.00  0.00     0.074 A 
ATOM     35  C   UNL     1       7.317  12.063   1.340  1.00  0.00     0.049 A 
ATOM     36  N   UNL     1       6.884  12.336   4.304  1.00  0.00    -0.248 NA
ATOM     37  C   UNL     1       5.800  10.270   4.287  1.00  0.00     0.031 C 
ATOM     38  C   UNL     1       7.530  11.960  -0.103  1.00  0.00     0.029 A 
ATOM     39  N   UNL     1       7.757  13.321   1.659  1.00  0.00    -0.354 N 
ATOM     40  C   UNL     1       6.403  12.060   5.578  1.00  0.00     0.074 A 
ATOM     41  C   UNL     1       5.691  10.805   5.495  1.00  0.00     0.031 C 
ATOM     42  C   UNL     1       8.108  13.087  -0.538  1.00  0.00     0.029 A 
ATOM     43  C   UNL     1       8.282  14.004   0.587  1.00  0.00     0.049 A 
ATOM     44  H   UNL     1       7.703  13.699   2.566  1.00  0.00     0.167 HD
ATOM     45  C   UNL     1       6.570  12.781   6.713  1.00  0.00     0.034 A 
ATOM     46  C   UNL     1       8.861  15.221   0.520  1.00  0.00     0.034 A 
ATOM     47  C   UNL     1       7.281  14.035   6.757  1.00  0.00     0.049 A 
ATOM     48  C   UNL     1       9.065  15.994   1.797  1.00  0.00     0.074 A 
ATOM     49  C   UNL     1       7.562  14.818   7.862  1.00  0.00     0.029 A 
ATOM     50  N   UNL     1       7.812  14.694   5.656  1.00  0.00    -0.354 N 
ATOM     51  N   UNL     1       8.720  15.667   3.021  1.00  0.00    -0.248 NA
ATOM     52  C   UNL     1       9.759  17.284   1.696  1.00  0.00     0.031 C 
ATOM     53  C   UNL     1       8.184  15.986   7.420  1.00  0.00     0.029 A 
ATOM     54  C   UNL     1       8.392  15.888   6.052  1.00  0.00     0.049 A 
ATOM     55  H   UNL     1       7.782  14.361   4.730  1.00  0.00     0.167 HD
ATOM     56  C   UNL     1       9.186  16.691   3.840  1.00  0.00     0.074 A 
ATOM     57  C   UNL     1       9.851  17.641   2.972  1.00  0.00     0.031 C 
ATOM     58  C   UNL     1       9.073  16.824   5.186  1.00  0.00     0.034 A 
BRANCH  45  59
ATOM     59  C   UNL     1       6.002  12.243   8.006  1.00  0.00     0.023 A 
ATOM     60  C   UNL     1       5.072  13.004   8.739  1.00  0.00     0.031 A 
ATOM     61  C   UNL     1       6.474  11.047   8.578  1.00  0.00     0.131 A 
ATOM     62  C   UNL     1       4.670  12.580  10.012  1.00  0.00     0.055 A 
ATOM     63  C   UNL     1       6.030  10.601   9.824  1.00  0.00     0.041 A 
ATOM     64  F   UNL     1       7.371  10.286   7.930  1.00  0.00    -0.206 F 
ATOM     65  C   UNL     1       5.135  11.377  10.553  1.00  0.00     0.022 A 
BRANCH  62  66
ATOM     66  S   UNL     1       3.598  13.611  11.050  1.00  0.00     0.124 S 
ATOM     67  O   UNL     1       2.441  12.740  11.243  1.00  0.00    -0.237 OA
ATOM     68  O   UNL     1       4.427  13.818  12.234  1.00  0.00    -0.237 OA
ATOM     69  O   UNL     1       3.356  14.797  10.236  1.00  0.00    -0.744 OA
ENDBRANCH  62  66
ENDBRANCH  45  59
BRANCH  46  70
ATOM     70  C   UNL     1       9.373  15.692  -0.799  1.00  0.00     0.023 A 
ATOM     71  C   UNL     1       8.495  15.876  -1.882  1.00  0.00     0.031 A 
ATOM     72  C   UNL     1      10.753  15.803  -1.039  1.00  0.00     0.131 A 
ATOM     73  C   UNL     1       9.010  16.071  -3.170  1.00  0.00     0.055 A 
ATOM     74  C   UNL     1      11.258  16.078  -2.311  1.00  0.00     0.041 A 
ATOM     75  F   UNL     1      11.631  15.615  -0.042  1.00  0.00    -0.206 F 
ATOM     76  C   UNL     1      10.385  16.191  -3.389  1.00  0.00     0.022 A 
BRANCH  73  77
ATOM     77  S   UNL     1       7.921  16.012  -4.621  1.00  0.00     0.124 S 
ATOM     78  O   UNL     1       8.180  17.302  -5.251  1.00  0.00    -0.237 OA
ATOM     79  O   UNL     1       8.441  14.846  -5.332  1.00  0.00    -0.237 OA
ATOM     80  O   UNL     1       6.590  15.846  -4.047  1.00  0.00    -0.744 OA
ENDBRANCH  73  77
ENDBRANCH  46  70
BRANCH  58  81
ATOM     81  C   UNL     1       9.700  18.027   5.856  1.00  0.00     0.023 A 
ATOM     82  C   UNL     1      10.683  17.833   6.848  1.00  0.00     0.031 A 
ATOM     83  C   UNL     1       9.215  19.329   5.652  1.00  0.00     0.131 A 
ATOM     84  C   UNL     1      11.108  18.911   7.633  1.00  0.00     0.055 A 
ATOM     85  C   UNL     1       9.687  20.412   6.396  1.00  0.00     0.041 A 
ATOM     86  F   UNL     1       8.267  19.568   4.732  1.00  0.00    -0.206 F 
ATOM     87  C   UNL     1      10.623  20.202   7.405  1.00  0.00     0.022 A 
BRANCH  84  88
ATOM     88  S   UNL     1      12.212  18.657   9.051  1.00  0.00     0.124 S 
ATOM     89  O   UNL     1      13.376  19.455   8.673  1.00  0.00    -0.237 OA
ATOM     90  O   UNL     1      11.421  19.193  10.156  1.00  0.00    -0.237 OA
ATOM     91  O   UNL     1      12.428  17.215   9.076  1.00  0.00    -0.744 OA
ENDBRANCH  84  88
ENDBRANCH  58  81
ENDBRANCH  32  33
ENDBRANCH  25  27
ENDBRANCH  24  25
ENDBRANCH   1  24
TORSDOF 16
