REMARK SMILES Cc1ccccc1NC(=O)NC[C@@H]1CC[C@@H](C(=O)OCCOC(=O)c2ccc(-c3c4nc(c(-c5cc(S(=O)(=O)[O-])ccc5F)c5ccc([nH]5)c(-c5cc(S(=O)(=O)[O-])ccc5F)c5nc(c(-c6cc(S(=O)(=O)[O-])ccc6F)c6ccc3[nH]6)C=C5)C=C4)cc2)O1
REMARK SMILES IDX 20 1 19 2 17 3 18 4 16 5 13 6 14 7 88 8 15 9 12 10 11 11
REMARK SMILES IDX 8 12 9 13 10 15 7 17 1 18 2 19 3 20 4 21 6 22 5 23 21 24
REMARK SMILES IDX 22 25 23 26 24 27 25 28 26 29 87 30 27 31 86 32 28 33 29 34
REMARK SMILES IDX 30 35 80 36 31 37 85 38 79 39 81 40 32 41 84 42 78 43 77 44
REMARK SMILES IDX 33 46 65 47 45 48 64 49 46 50 49 51 63 52 82 53 47 54 48 55
REMARK SMILES IDX 62 57 83 58 50 59 34 60 35 61 43 62 36 63 42 64 44 65 41 66
REMARK SMILES IDX 37 67 38 68 39 69 40 70 66 71 67 72 75 73 68 74 74 75 76 76
REMARK SMILES IDX 73 77 69 78 70 79 71 80 72 81 51 82 52 83 60 84 53 85 59 86
REMARK SMILES IDX 61 87 58 88 54 89 55 90 56 91 57 92
REMARK H PARENT 8 14 11 16 81 45 49 56
REMARK Flexibility Score: inf
ROOT
ATOM      1  C   UNL     1      -5.820   2.840   5.590  1.00  0.00     0.274 C 
ENDROOT
BRANCH   1   2
ATOM      2  O   UNL     1      -5.212   2.439   4.364  1.00  0.00    -0.460 OA
BRANCH   2   3
ATOM      3  C   UNL     1      -6.059   1.831   3.495  1.00  0.00     0.335 C 
ATOM      4  O   UNL     1      -7.169   1.404   3.793  1.00  0.00    -0.249 OA
BRANCH   3   5
ATOM      5  C   UNL     1      -5.404   1.613   2.132  1.00  0.00     0.228 C 
ATOM      6  C   UNL     1      -3.193   2.008   1.397  1.00  0.00     0.138 C 
ATOM      7  C   UNL     1      -3.521   0.529   1.247  1.00  0.00     0.037 C 
ATOM      8  O   UNL     1      -4.473   2.594   1.678  1.00  0.00    -0.361 OA
ATOM      9  C   UNL     1      -4.660   0.305   2.195  1.00  0.00     0.047 C 
BRANCH   6  10
ATOM     10  C   UNL     1      -2.563   2.709   0.156  1.00  0.00     0.149 C 
BRANCH  10  11
ATOM     11  N   UNL     1      -1.242   3.317   0.386  1.00  0.00    -0.335 N 
ATOM     12  N   UNL     1       0.742   1.954   0.068  1.00  0.00    -0.308 N 
ATOM     13  C   UNL     1       0.063   3.087   0.281  1.00  0.00     0.319 C 
ATOM     14  H   UNL     1       1.705   2.152   0.023  1.00  0.00     0.171 HD
ATOM     15  O   UNL     1       0.786   4.089   0.413  1.00  0.00    -0.249 OA
ATOM     16  H   UNL     1      -1.373   4.222   0.750  1.00  0.00     0.165 HD
BRANCH  12  17
ATOM     17  C   UNL     1       0.537   0.576  -0.114  1.00  0.00     0.045 A 
ATOM     18  C   UNL     1       3.066   0.035  -0.131  1.00  0.00     0.046 C 
ATOM     19  C   UNL     1       1.610  -0.331  -0.235  1.00  0.00    -0.027 A 
ATOM     20  C   UNL     1       1.339  -1.712  -0.414  1.00  0.00     0.005 A 
ATOM     21  C   UNL     1       0.040  -2.203  -0.472  1.00  0.00     0.000 A 
ATOM     22  C   UNL     1      -0.728   0.039  -0.187  1.00  0.00     0.026 A 
ATOM     23  C   UNL     1      -1.004  -1.316  -0.352  1.00  0.00     0.002 A 
ENDBRANCH  12  17
ENDBRANCH  10  11
ENDBRANCH   6  10
ENDBRANCH   3   5
ENDBRANCH   2   3
ENDBRANCH   1   2
BRANCH   1  24
ATOM     24  C   UNL     1      -4.958   3.879   6.321  1.00  0.00     0.275 C 
BRANCH  24  25
ATOM     25  O   UNL     1      -3.859   4.509   5.592  1.00  0.00    -0.458 OA
BRANCH  25  26
ATOM     26  C   UNL     1      -3.801   5.018   4.327  1.00  0.00     0.338 C 
ATOM     27  O   UNL     1      -2.730   5.057   3.719  1.00  0.00    -0.246 OA
BRANCH  26  28
ATOM     28  C   UNL     1      -5.066   5.325   3.625  1.00  0.00     0.060 A 
ATOM     29  C   UNL     1      -5.144   5.177   2.229  1.00  0.00     0.016 A 
ATOM     30  C   UNL     1      -6.213   5.561   4.354  1.00  0.00     0.016 A 
ATOM     31  C   UNL     1      -6.381   5.056   1.600  1.00  0.00     0.010 A 
ATOM     32  C   UNL     1      -7.417   5.229   3.792  1.00  0.00     0.010 A 
ATOM     33  C   UNL     1      -7.510   5.024   2.408  1.00  0.00    -0.014 A 
BRANCH  33  34
ATOM     34  C   UNL     1      -8.872   5.145   1.916  1.00  0.00     0.031 A 
ATOM     35  C   UNL     1      -9.601   4.017   1.314  1.00  0.00     0.074 A 
ATOM     36  C   UNL     1      -9.373   6.368   2.207  1.00  0.00     0.049 A 
ATOM     37  N   UNL     1     -10.583   4.145   0.496  1.00  0.00    -0.248 NA
ATOM     38  C   UNL     1      -9.270   2.611   1.542  1.00  0.00     0.031 C 
ATOM     39  C   UNL     1     -10.713   6.912   2.200  1.00  0.00     0.029 A 
ATOM     40  N   UNL     1      -8.587   7.485   2.479  1.00  0.00    -0.354 N 
ATOM     41  C   UNL     1     -11.226   2.921   0.425  1.00  0.00     0.074 A 
ATOM     42  C   UNL     1     -10.289   1.969   0.955  1.00  0.00     0.031 C 
ATOM     43  C   UNL     1     -10.624   8.261   2.144  1.00  0.00     0.029 A 
ATOM     44  C   UNL     1      -9.214   8.612   1.989  1.00  0.00     0.049 A 
ATOM     45  H   UNL     1      -7.721   7.473   2.947  1.00  0.00     0.167 HD
ATOM     46  C   UNL     1     -12.557   2.903   0.131  1.00  0.00     0.034 A 
ATOM     47  C   UNL     1      -8.625   9.191   0.897  1.00  0.00     0.034 A 
ATOM     48  C   UNL     1     -13.015   4.271  -0.073  1.00  0.00     0.049 A 
ATOM     49  C   UNL     1      -9.497   8.953  -0.315  1.00  0.00     0.074 A 
ATOM     50  C   UNL     1     -13.589   5.184   0.795  1.00  0.00     0.029 A 
ATOM     51  N   UNL     1     -12.516   4.991  -1.145  1.00  0.00    -0.354 N 
ATOM     52  N   UNL     1     -10.255   7.899  -0.484  1.00  0.00    -0.248 NA
ATOM     53  C   UNL     1      -9.683   9.960  -1.350  1.00  0.00     0.031 C 
ATOM     54  C   UNL     1     -13.326   6.481   0.280  1.00  0.00     0.029 A 
ATOM     55  C   UNL     1     -12.601   6.345  -0.892  1.00  0.00     0.049 A 
ATOM     56  H   UNL     1     -12.153   4.594  -1.970  1.00  0.00     0.167 HD
ATOM     57  C   UNL     1     -11.103   8.124  -1.536  1.00  0.00     0.074 A 
ATOM     58  C   UNL     1     -10.681   9.415  -2.063  1.00  0.00     0.031 C 
ATOM     59  C   UNL     1     -12.126   7.286  -1.884  1.00  0.00     0.034 A 
BRANCH  46  60
ATOM     60  C   UNL     1     -13.519   1.760   0.343  1.00  0.00     0.023 A 
ATOM     61  C   UNL     1     -14.864   2.073   0.646  1.00  0.00     0.031 A 
ATOM     62  C   UNL     1     -13.221   0.389   0.261  1.00  0.00     0.131 A 
ATOM     63  C   UNL     1     -15.825   1.083   0.902  1.00  0.00     0.055 A 
ATOM     64  C   UNL     1     -14.179  -0.607   0.530  1.00  0.00     0.041 A 
ATOM     65  F   UNL     1     -12.010  -0.043  -0.117  1.00  0.00    -0.206 F 
ATOM     66  C   UNL     1     -15.487  -0.263   0.858  1.00  0.00     0.022 A 
BRANCH  63  67
ATOM     67  S   UNL     1     -17.520   1.603   1.288  1.00  0.00     0.124 S 
ATOM     68  O   UNL     1     -17.336   2.360   2.523  1.00  0.00    -0.237 OA
ATOM     69  O   UNL     1     -17.886   2.377   0.108  1.00  0.00    -0.237 OA
ATOM     70  O   UNL     1     -18.236   0.338   1.442  1.00  0.00    -0.744 OA
ENDBRANCH  63  67
ENDBRANCH  46  60
BRANCH  47  71
ATOM     71  C   UNL     1      -7.111   9.168   0.943  1.00  0.00     0.023 A 
ATOM     72  C   UNL     1      -6.495   9.591   2.150  1.00  0.00     0.031 A 
ATOM     73  C   UNL     1      -6.299   8.473   0.037  1.00  0.00     0.131 A 
ATOM     74  C   UNL     1      -5.200   9.170   2.498  1.00  0.00     0.055 A 
ATOM     75  C   UNL     1      -4.966   8.136   0.348  1.00  0.00     0.041 A 
ATOM     76  F   UNL     1      -6.795   8.023  -1.125  1.00  0.00    -0.206 F 
ATOM     77  C   UNL     1      -4.423   8.446   1.598  1.00  0.00     0.022 A 
BRANCH  74  78
ATOM     78  S   UNL     1      -4.696   9.317   4.244  1.00  0.00     0.124 S 
ATOM     79  O   UNL     1      -4.266  10.708   4.324  1.00  0.00    -0.237 OA
ATOM     80  O   UNL     1      -5.931   8.987   4.955  1.00  0.00    -0.237 OA
ATOM     81  O   UNL     1      -3.642   8.319   4.388  1.00  0.00    -0.744 OA
ENDBRANCH  74  78
ENDBRANCH  47  71
BRANCH  59  82
ATOM     82  C   UNL     1     -12.842   7.318  -3.207  1.00  0.00     0.023 A 
ATOM     83  C   UNL     1     -12.286   7.938  -4.325  1.00  0.00     0.031 A 
ATOM     84  C   UNL     1     -14.051   6.611  -3.422  1.00  0.00     0.131 A 
ATOM     85  C   UNL     1     -12.967   7.959  -5.545  1.00  0.00     0.055 A 
ATOM     86  C   UNL     1     -14.656   6.515  -4.674  1.00  0.00     0.041 A 
ATOM     87  F   UNL     1     -14.691   5.971  -2.431  1.00  0.00    -0.206 F 
ATOM     88  C   UNL     1     -14.128   7.218  -5.744  1.00  0.00     0.022 A 
BRANCH  85  89
ATOM     89  S   UNL     1     -12.358   9.098  -6.805  1.00  0.00     0.124 S 
ATOM     90  O   UNL     1     -12.483  10.384  -6.123  1.00  0.00    -0.237 OA
ATOM     91  O   UNL     1     -10.994   8.628  -7.022  1.00  0.00    -0.237 OA
ATOM     92  O   UNL     1     -13.276   8.894  -7.922  1.00  0.00    -0.744 OA
ENDBRANCH  85  89
ENDBRANCH  59  82
ENDBRANCH  33  34
ENDBRANCH  26  28
ENDBRANCH  25  26
ENDBRANCH  24  25
ENDBRANCH   1  24
TORSDOF 17
