REMARK SMILES O=C(OCCOC(=O)c1cc2n[nH]cc2cc1[N+](=O)[O-])c1ccc(-c2c3nc(c(-c4cc(S(=O)(=O)[O-])ccc4F)c4ccc([nH]4)c(-c4cc(S(=O)(=O)[O-])ccc4F)c4nc(c(-c5cc(S(=O)(=O)[O-])ccc5F)c5ccc2[nH]5)C=C4)C=C3)cc1
REMARK SMILES IDX 4 1 3 2 2 3 1 4 21 5 22 6 83 7 23 8 82 9 24 10 25 11 26 12
REMARK SMILES IDX 76 13 27 14 81 15 75 16 77 17 28 18 80 19 74 20 73 21 29 23
REMARK SMILES IDX 61 24 41 25 60 26 42 27 45 28 59 29 78 30 43 31 44 32 58 34
REMARK SMILES IDX 79 35 46 36 30 37 31 38 39 39 32 40 38 41 40 42 37 43 33 44
REMARK SMILES IDX 34 45 35 46 36 47 62 48 63 49 71 50 64 51 70 52 72 53 69 54
REMARK SMILES IDX 65 55 66 56 67 57 68 58 47 59 48 60 56 61 49 62 55 63 57 64
REMARK SMILES IDX 54 65 50 66 51 67 52 68 53 69 5 70 6 71 7 72 8 73 9 74 10 75
REMARK SMILES IDX 17 76 11 77 16 78 12 79 15 80 13 81 14 82 18 84 19 85 20 86
REMARK H PARENT 77 22 45 33 13 83
REMARK Flexibility Score: inf
ROOT
ATOM      1  C   UNL     1       4.216  -1.392  -0.503  1.00  0.00     0.275 C 
ENDROOT
BRANCH   1   2
ATOM      2  O   UNL     1       3.161  -1.179   0.452  1.00  0.00    -0.458 OA
BRANCH   2   3
ATOM      3  C   UNL     1       2.886  -0.107   1.233  1.00  0.00     0.338 C 
ATOM      4  O   UNL     1       1.892  -0.169   1.957  1.00  0.00    -0.246 OA
BRANCH   3   5
ATOM      5  C   UNL     1       3.643   1.191   1.201  1.00  0.00     0.060 A 
ATOM      6  C   UNL     1       4.933   1.386   0.700  1.00  0.00     0.016 A 
ATOM      7  C   UNL     1       2.966   2.319   1.701  1.00  0.00     0.016 A 
ATOM      8  C   UNL     1       5.494   2.662   0.608  1.00  0.00     0.010 A 
ATOM      9  C   UNL     1       3.521   3.600   1.613  1.00  0.00     0.010 A 
ATOM     10  C   UNL     1       4.792   3.776   1.059  1.00  0.00    -0.014 A 
BRANCH  10  11
ATOM     11  C   UNL     1       5.476   5.085   1.123  1.00  0.00     0.031 A 
ATOM     12  C   UNL     1       6.019   5.520   2.447  1.00  0.00     0.074 A 
ATOM     13  C   UNL     1       5.679   5.822   0.017  1.00  0.00     0.049 A 
ATOM     14  N   UNL     1       6.697   6.592   2.747  1.00  0.00    -0.248 NA
ATOM     15  C   UNL     1       5.800   4.599   3.573  1.00  0.00     0.031 C 
ATOM     16  C   UNL     1       5.334   5.406  -1.338  1.00  0.00     0.029 A 
ATOM     17  N   UNL     1       6.224   7.068  -0.153  1.00  0.00    -0.354 N 
ATOM     18  C   UNL     1       7.036   6.449   4.086  1.00  0.00     0.074 A 
ATOM     19  C   UNL     1       6.406   5.236   4.559  1.00  0.00     0.031 C 
ATOM     20  C   UNL     1       5.593   6.407  -2.195  1.00  0.00     0.029 A 
ATOM     21  C   UNL     1       6.150   7.529  -1.449  1.00  0.00     0.049 A 
ATOM     22  H   UNL     1       6.629   7.584   0.580  1.00  0.00     0.167 HD
ATOM     23  C   UNL     1       7.838   7.240   4.836  1.00  0.00     0.034 A 
ATOM     24  C   UNL     1       6.500   8.721  -1.968  1.00  0.00     0.034 A 
ATOM     25  C   UNL     1       8.401   8.472   4.345  1.00  0.00     0.049 A 
ATOM     26  C   UNL     1       7.206   9.696  -1.061  1.00  0.00     0.074 A 
ATOM     27  C   UNL     1       9.183   9.393   5.014  1.00  0.00     0.029 A 
ATOM     28  N   UNL     1       8.213   8.968   3.058  1.00  0.00    -0.354 N 
ATOM     29  N   UNL     1       7.529   9.550   0.205  1.00  0.00    -0.248 NA
ATOM     30  C   UNL     1       7.636  10.965  -1.654  1.00  0.00     0.031 C 
ATOM     31  C   UNL     1       9.393  10.484   4.162  1.00  0.00     0.029 A 
ATOM     32  C   UNL     1       8.821  10.205   2.928  1.00  0.00     0.049 A 
ATOM     33  H   UNL     1       7.719   8.505   2.343  1.00  0.00     0.167 HD
ATOM     34  C   UNL     1       8.256  10.686   0.545  1.00  0.00     0.074 A 
ATOM     35  C   UNL     1       8.312  11.507  -0.651  1.00  0.00     0.031 C 
ATOM     36  C   UNL     1       8.843  11.011   1.726  1.00  0.00     0.034 A 
BRANCH  23  37
ATOM     37  C   UNL     1       8.060   6.805   6.263  1.00  0.00     0.023 A 
ATOM     38  C   UNL     1       8.676   5.576   6.567  1.00  0.00     0.031 A 
ATOM     39  C   UNL     1       7.532   7.558   7.324  1.00  0.00     0.131 A 
ATOM     40  C   UNL     1       8.646   5.086   7.881  1.00  0.00     0.055 A 
ATOM     41  C   UNL     1       7.592   7.108   8.644  1.00  0.00     0.041 A 
ATOM     42  F   UNL     1       6.905   8.721   7.090  1.00  0.00    -0.206 F 
ATOM     43  C   UNL     1       8.130   5.855   8.926  1.00  0.00     0.022 A 
BRANCH  40  44
ATOM     44  S   UNL     1       9.096   3.351   8.168  1.00  0.00     0.124 S 
ATOM     45  O   UNL     1       8.143   2.653   7.308  1.00  0.00    -0.237 OA
ATOM     46  O   UNL     1      10.489   3.310   7.740  1.00  0.00    -0.237 OA
ATOM     47  O   UNL     1       8.877   3.172   9.602  1.00  0.00    -0.744 OA
ENDBRANCH  40  44
ENDBRANCH  23  37
BRANCH  24  48
ATOM     48  C   UNL     1       6.199   9.051  -3.391  1.00  0.00     0.023 A 
ATOM     49  C   UNL     1       7.218   9.277  -4.329  1.00  0.00     0.031 A 
ATOM     50  C   UNL     1       4.866   9.178  -3.827  1.00  0.00     0.131 A 
ATOM     51  C   UNL     1       6.892   9.656  -5.642  1.00  0.00     0.055 A 
ATOM     52  C   UNL     1       4.545   9.517  -5.144  1.00  0.00     0.041 A 
ATOM     53  F   UNL     1       3.849   8.965  -2.974  1.00  0.00    -0.206 F 
ATOM     54  C   UNL     1       5.563   9.770  -6.058  1.00  0.00     0.022 A 
BRANCH  51  55
ATOM     55  S   UNL     1       8.236  10.072  -6.788  1.00  0.00     0.124 S 
ATOM     56  O   UNL     1       8.924  11.136  -6.067  1.00  0.00    -0.237 OA
ATOM     57  O   UNL     1       8.947   8.802  -6.891  1.00  0.00    -0.237 OA
ATOM     58  O   UNL     1       7.534  10.492  -8.000  1.00  0.00    -0.744 OA
ENDBRANCH  51  55
ENDBRANCH  24  48
BRANCH  36  59
ATOM     59  C   UNL     1       9.630  12.295   1.760  1.00  0.00     0.023 A 
ATOM     60  C   UNL     1       9.009  13.545   1.608  1.00  0.00     0.031 A 
ATOM     61  C   UNL     1      11.024  12.264   1.942  1.00  0.00     0.131 A 
ATOM     62  C   UNL     1       9.788  14.710   1.578  1.00  0.00     0.055 A 
ATOM     63  C   UNL     1      11.785  13.432   1.986  1.00  0.00     0.041 A 
ATOM     64  F   UNL     1      11.669  11.095   2.087  1.00  0.00    -0.206 F 
ATOM     65  C   UNL     1      11.168  14.664   1.789  1.00  0.00     0.022 A 
BRANCH  62  66
ATOM     66  S   UNL     1       8.982  16.277   1.151  1.00  0.00     0.124 S 
ATOM     67  O   UNL     1       8.443  15.986  -0.173  1.00  0.00    -0.237 OA
ATOM     68  O   UNL     1       8.000  16.424   2.220  1.00  0.00    -0.237 OA
ATOM     69  O   UNL     1      10.078  17.243   1.178  1.00  0.00    -0.744 OA
ENDBRANCH  62  66
ENDBRANCH  36  59
ENDBRANCH  10  11
ENDBRANCH   3   5
ENDBRANCH   2   3
ENDBRANCH   1   2
BRANCH   1  70
ATOM     70  C   UNL     1       3.978  -0.711  -1.852  1.00  0.00     0.275 C 
BRANCH  70  71
ATOM     71  O   UNL     1       3.478   0.626  -1.698  1.00  0.00    -0.458 OA
BRANCH  71  72
ATOM     72  C   UNL     1       2.276   0.905  -2.248  1.00  0.00     0.345 C 
ATOM     73  O   UNL     1       1.527   0.150  -2.843  1.00  0.00    -0.246 OA
BRANCH  72  74
ATOM     74  C   UNL     1       1.915   2.292  -1.904  1.00  0.00     0.139 A 
ATOM     75  C   UNL     1       0.960   2.417  -0.860  1.00  0.00     0.053 A 
ATOM     76  C   UNL     1       2.485   3.422  -2.581  1.00  0.00     0.284 A 
ATOM     77  C   UNL     1       0.708   3.746  -0.477  1.00  0.00     0.093 A 
ATOM     78  C   UNL     1       2.204   4.774  -2.245  1.00  0.00     0.098 A 
ATOM     79  N   UNL     1      -0.055   4.233   0.515  1.00  0.00    -0.176 NA
ATOM     80  C   UNL     1       1.336   4.842  -1.165  1.00  0.00     0.026 A 
ATOM     81  N   UNL     1       0.142   5.569   0.481  1.00  0.00    -0.285 N 
ATOM     82  C   UNL     1       0.960   5.989  -0.527  1.00  0.00     0.114 A 
ATOM     83  H   UNL     1      -0.270   6.186   1.128  1.00  0.00     0.189 HD
BRANCH  76  84
ATOM     84  N   UNL     1       3.398   3.225  -3.706  1.00  0.00     0.063 N 
ATOM     85  O   UNL     1       3.252   3.974  -4.681  1.00  0.00    -0.258 OA
ATOM     86  O   UNL     1       4.272   2.356  -3.609  1.00  0.00    -0.258 OA
ENDBRANCH  76  84
ENDBRANCH  72  74
ENDBRANCH  71  72
ENDBRANCH  70  71
ENDBRANCH   1  70
TORSDOF 15
