REMARK SMILES C[C@H](NC(=O)CCN1C(=O)/C(=C/c2ccc([N+](=O)[O-])cc2)SC1=S)C(=O)OCCOC(=O)c1ccc(-c2c3nc(c(-c4cc(S(=O)(=O)[O-])ccc4F)c4ccc([nH]4)c(-c4cc(S(=O)(=O)[O-])ccc4F)c4nc(c(-c5cc(S(=O)(=O)[O-])ccc5F)c5ccc2[nH]5)C=C4)C=C3)cc1
REMARK SMILES IDX 27 1 25 2 26 3 2 4 1 5 3 6 4 7 5 9 6 10 7 11 8 12 9 13 23 14
REMARK SMILES IDX 10 15 11 16 22 17 24 18 12 19 13 20 14 21 21 22 15 23 20 24
REMARK SMILES IDX 16 25 17 26 18 27 19 28 28 29 29 30 30 31 31 32 32 33 33 34
REMARK SMILES IDX 34 35 95 36 35 37 94 38 36 39 37 40 38 41 88 42 39 43 93 44
REMARK SMILES IDX 87 45 89 46 40 47 92 48 86 49 85 50 41 52 73 53 53 54 72 55
REMARK SMILES IDX 54 56 57 57 71 58 90 59 55 60 56 61 70 63 91 64 58 65 42 66
REMARK SMILES IDX 43 67 51 68 44 69 50 70 52 71 49 72 45 73 46 74 47 75 48 76
REMARK SMILES IDX 74 77 75 78 83 79 76 80 82 81 84 82 81 83 77 84 78 85 79 86
REMARK SMILES IDX 80 87 59 88 60 89 68 90 61 91 67 92 69 93 66 94 62 95 63 96
REMARK SMILES IDX 64 97 65 98
REMARK H PARENT 3 8 89 51 57 62
REMARK Flexibility Score: inf
ROOT
ATOM      1  O   UNL     1      -2.066   1.322   1.894  1.00  0.00    -0.461 OA
ENDROOT
BRANCH   1   2
ATOM      2  C   UNL     1      -0.310   1.227   2.661  1.00  0.00     0.328 C 
ATOM      3  O   UNL     1      -0.045   1.578   3.830  1.00  0.00    -0.250 OA
BRANCH   2   4
ATOM      4  C   UNL     1       1.159   0.728   1.814  1.00  0.00     0.189 C 
ATOM      5  C   UNL     1       2.354   1.394   2.517  1.00  0.00     0.043 C 
BRANCH   4   6
ATOM      6  N   UNL     1       1.525   0.610   0.381  1.00  0.00    -0.343 N 
ATOM      7  C   UNL     1       1.641   1.551  -0.594  1.00  0.00     0.222 C 
ATOM      8  H   UNL     1       1.717  -0.309   0.085  1.00  0.00     0.164 HD
ATOM      9  O   UNL     1       2.068   1.251  -1.706  1.00  0.00    -0.275 OA
BRANCH   7  10
ATOM     10  C   UNL     1       1.137   2.929  -0.302  1.00  0.00     0.122 C 
BRANCH  10  11
ATOM     11  C   UNL     1      -0.375   2.878  -0.217  1.00  0.00     0.137 C 
BRANCH  11  12
ATOM     12  N   UNL     1      -0.839   2.142   0.944  1.00  0.00    -0.292 N 
ATOM     13  C   UNL     1      -0.988   0.303   0.926  1.00  0.00     0.266 C 
ATOM     14  C   UNL     1      -1.518   3.030   2.338  1.00  0.00     0.148 C 
ATOM     15  O   UNL     1      -0.682  -0.385  -0.030  1.00  0.00    -0.268 OA
ATOM     16  C   UNL     1      -1.825  -0.278   2.680  1.00  0.00     0.081 C 
ATOM     17  S   UNL     1      -2.464   1.563   3.857  1.00  0.00    -0.054 SA
ATOM     18  S   UNL     1      -1.515   4.671   2.656  1.00  0.00    -0.052 S 
ATOM     19  C   UNL     1      -2.366  -1.443   3.075  1.00  0.00     0.029 C 
BRANCH  19  20
ATOM     20  C   UNL     1      -3.054  -2.002   4.252  1.00  0.00    -0.024 A 
ATOM     21  C   UNL     1      -2.907  -3.396   4.381  1.00  0.00     0.015 A 
ATOM     22  C   UNL     1      -3.823  -1.349   5.214  1.00  0.00     0.015 A 
ATOM     23  C   UNL     1      -3.392  -4.118   5.464  1.00  0.00     0.086 A 
ATOM     24  C   UNL     1      -4.326  -2.059   6.322  1.00  0.00     0.086 A 
ATOM     25  C   UNL     1      -4.085  -3.436   6.452  1.00  0.00     0.269 A 
BRANCH  25  26
ATOM     26  N   UNL     1      -4.567  -4.178   7.619  1.00  0.00     0.062 N 
ATOM     27  O   UNL     1      -4.557  -5.415   7.560  1.00  0.00    -0.258 OA
ATOM     28  O   UNL     1      -4.987  -3.520   8.582  1.00  0.00    -0.258 OA
ENDBRANCH  25  26
ENDBRANCH  19  20
ENDBRANCH  11  12
ENDBRANCH  10  11
ENDBRANCH   7  10
ENDBRANCH   4   6
ENDBRANCH   2   4
ENDBRANCH   1   2
BRANCH   1  29
ATOM     29  C   UNL     1      -3.294   0.977   0.727  1.00  0.00     0.274 C 
BRANCH  29  30
ATOM     30  C   UNL     1      -3.319  -0.282  -0.264  1.00  0.00     0.275 C 
BRANCH  30  31
ATOM     31  O   UNL     1      -2.951  -1.569   0.320  1.00  0.00    -0.458 OA
BRANCH  31  32
ATOM     32  C   UNL     1      -2.254  -2.487  -0.441  1.00  0.00     0.338 C 
ATOM     33  O   UNL     1      -2.181  -2.488  -1.657  1.00  0.00    -0.246 OA
BRANCH  32  34
ATOM     34  C   UNL     1      -1.518  -3.466   0.452  1.00  0.00     0.060 A 
ATOM     35  C   UNL     1      -0.256  -3.157   1.000  1.00  0.00     0.016 A 
ATOM     36  C   UNL     1      -2.109  -4.670   0.838  1.00  0.00     0.016 A 
ATOM     37  C   UNL     1       0.360  -3.973   1.975  1.00  0.00     0.010 A 
ATOM     38  C   UNL     1      -1.472  -5.508   1.791  1.00  0.00     0.010 A 
ATOM     39  C   UNL     1      -0.237  -5.166   2.393  1.00  0.00    -0.014 A 
BRANCH  39  40
ATOM     40  C   UNL     1       0.491  -6.120   3.309  1.00  0.00     0.031 A 
ATOM     41  C   UNL     1       1.040  -7.397   2.713  1.00  0.00     0.074 A 
ATOM     42  C   UNL     1       0.718  -5.893   4.626  1.00  0.00     0.049 A 
ATOM     43  N   UNL     1       1.654  -8.399   3.292  1.00  0.00    -0.248 NA
ATOM     44  C   UNL     1       0.863  -7.558   1.263  1.00  0.00     0.031 C 
ATOM     45  C   UNL     1       0.320  -4.702   5.374  1.00  0.00     0.029 A 
ATOM     46  N   UNL     1       1.345  -6.674   5.582  1.00  0.00    -0.354 N 
ATOM     47  C   UNL     1       1.939  -9.308   2.277  1.00  0.00     0.074 A 
ATOM     48  C   UNL     1       1.367  -8.764   1.062  1.00  0.00     0.031 C 
ATOM     49  C   UNL     1       0.684  -4.841   6.664  1.00  0.00     0.029 A 
ATOM     50  C   UNL     1       1.342  -6.134   6.854  1.00  0.00     0.049 A 
ATOM     51  H   UNL     1       1.758  -7.542   5.372  1.00  0.00     0.167 HD
ATOM     52  C   UNL     1       2.635 -10.472   2.325  1.00  0.00     0.034 A 
ATOM     53  C   UNL     1       1.805  -6.614   8.034  1.00  0.00     0.034 A 
ATOM     54  C   UNL     1       3.212 -11.039   3.518  1.00  0.00     0.049 A 
ATOM     55  C   UNL     1       2.498  -7.964   8.084  1.00  0.00     0.074 A 
ATOM     56  C   UNL     1       3.919 -12.223   3.652  1.00  0.00     0.029 A 
ATOM     57  N   UNL     1       3.154 -10.472   4.782  1.00  0.00    -0.354 N 
ATOM     58  N   UNL     1       2.760  -8.799   7.105  1.00  0.00    -0.248 NA
ATOM     59  C   UNL     1       2.974  -8.426   9.399  1.00  0.00     0.031 C 
ATOM     60  C   UNL     1       4.235 -12.402   5.003  1.00  0.00     0.029 A 
ATOM     61  C   UNL     1       3.791 -11.293   5.703  1.00  0.00     0.049 A 
ATOM     62  H   UNL     1       2.722  -9.614   4.996  1.00  0.00     0.167 HD
ATOM     63  C   UNL     1       3.460  -9.860   7.685  1.00  0.00     0.074 A 
ATOM     64  C   UNL     1       3.603  -9.548   9.089  1.00  0.00     0.031 C 
ATOM     65  C   UNL     1       3.939 -10.991   7.106  1.00  0.00     0.034 A 
BRANCH  52  66
ATOM     66  C   UNL     1       2.783 -11.226   1.026  1.00  0.00     0.023 A 
ATOM     67  C   UNL     1       3.510 -10.689  -0.051  1.00  0.00     0.031 A 
ATOM     68  C   UNL     1       2.154 -12.469   0.846  1.00  0.00     0.131 A 
ATOM     69  C   UNL     1       3.521 -11.352  -1.285  1.00  0.00     0.055 A 
ATOM     70  C   UNL     1       2.242 -13.167  -0.360  1.00  0.00     0.041 A 
ATOM     71  F   UNL     1       1.430 -13.019   1.833  1.00  0.00    -0.206 F 
ATOM     72  C   UNL     1       2.914 -12.601  -1.440  1.00  0.00     0.022 A 
BRANCH  69  73
ATOM     73  S   UNL     1       4.210 -10.488  -2.722  1.00  0.00     0.124 S 
ATOM     74  O   UNL     1       3.349  -9.310  -2.795  1.00  0.00    -0.237 OA
ATOM     75  O   UNL     1       5.589 -10.247  -2.315  1.00  0.00    -0.237 OA
ATOM     76  O   UNL     1       4.038 -11.447  -3.812  1.00  0.00    -0.744 OA
ENDBRANCH  69  73
ENDBRANCH  52  66
BRANCH  53  77
ATOM     77  C   UNL     1       1.607  -5.858   9.317  1.00  0.00     0.023 A 
ATOM     78  C   UNL     1       2.697  -5.439  10.103  1.00  0.00     0.031 A 
ATOM     79  C   UNL     1       0.316  -5.668   9.842  1.00  0.00     0.131 A 
ATOM     80  C   UNL     1       2.480  -4.919  11.392  1.00  0.00     0.055 A 
ATOM     81  C   UNL     1       0.103  -5.096  11.100  1.00  0.00     0.041 A 
ATOM     82  F   UNL     1      -0.764  -6.054   9.144  1.00  0.00    -0.206 F 
ATOM     83  C   UNL     1       1.189  -4.734  11.891  1.00  0.00     0.022 A 
BRANCH  80  84
ATOM     84  S   UNL     1       3.914  -4.599  12.462  1.00  0.00     0.124 S 
ATOM     85  O   UNL     1       4.550  -5.911  12.506  1.00  0.00    -0.237 OA
ATOM     86  O   UNL     1       4.624  -3.567  11.714  1.00  0.00    -0.237 OA
ATOM     87  O   UNL     1       3.312  -4.154  13.717  1.00  0.00    -0.744 OA
ENDBRANCH  80  84
ENDBRANCH  53  77
BRANCH  65  88
ATOM     88  C   UNL     1       4.713 -11.954   7.981  1.00  0.00     0.023 A 
ATOM     89  C   UNL     1       4.110 -12.634   9.056  1.00  0.00     0.031 A 
ATOM     90  C   UNL     1       6.082 -12.182   7.749  1.00  0.00     0.131 A 
ATOM     91  C   UNL     1       4.885 -13.453   9.894  1.00  0.00     0.055 A 
ATOM     92  C   UNL     1       6.834 -13.047   8.548  1.00  0.00     0.041 A 
ATOM     93  F   UNL     1       6.716 -11.564   6.740  1.00  0.00    -0.206 F 
ATOM     94  C   UNL     1       6.240 -13.676   9.637  1.00  0.00     0.022 A 
BRANCH  91  95
ATOM     95  S   UNL     1       4.123 -14.141  11.391  1.00  0.00     0.124 S 
ATOM     96  O   UNL     1       3.637 -12.942  12.065  1.00  0.00    -0.237 OA
ATOM     97  O   UNL     1       3.099 -15.024  10.842  1.00  0.00    -0.237 OA
ATOM     98  O   UNL     1       5.232 -14.821  12.060  1.00  0.00    -0.744 OA
ENDBRANCH  91  95
ENDBRANCH  65  88
ENDBRANCH  39  40
ENDBRANCH  32  34
ENDBRANCH  31  32
ENDBRANCH  30  31
ENDBRANCH  29  30
ENDBRANCH   1  29
TORSDOF 20
