REMARK SMILES CCOC(=O)CS[C@H]1CC(=O)N(c2ccc(C(=O)OCCOC(=O)c3ccc(-c4c5nc(c(-c6cc(S(=O)(=O)[O-])ccc6F)c6ccc([nH]6)c(-c6cc(S(=O)(=O)[O-])ccc6F)c6nc(c(-c7cc(S(=O)(=O)[O-])ccc7F)c7ccc4[nH]7)C=C6)C=C5)cc3)c(O)c2)C1=O
REMARK SMILES IDX 19 1 17 2 18 3 16 4 13 5 14 6 90 7 15 8 88 9 12 10 8 11 9 12
REMARK SMILES IDX 91 13 10 14 92 15 11 16 7 17 6 18 4 19 5 20 3 21 2 22 1 23
REMARK SMILES IDX 89 24 20 26 21 27 22 28 23 29 24 30 25 31 26 32 87 33 27 34
REMARK SMILES IDX 86 35 28 36 29 37 30 38 80 39 31 40 85 41 79 42 81 43 32 44
REMARK SMILES IDX 84 45 78 46 77 47 33 49 65 50 45 51 64 52 46 53 49 54 63 55
REMARK SMILES IDX 82 56 47 57 48 58 62 60 83 61 50 62 34 63 35 64 43 65 36 66
REMARK SMILES IDX 42 67 44 68 41 69 37 70 38 71 39 72 40 73 66 74 67 75 75 76
REMARK SMILES IDX 68 77 74 78 76 79 73 80 69 81 70 82 71 83 72 84 51 85 52 86
REMARK SMILES IDX 60 87 53 88 59 89 61 90 58 91 54 92 55 93 56 94 57 95
REMARK H PARENT 89 25 81 48 49 59
REMARK Flexibility Score: inf
ROOT
ATOM      1  O   UNL     1       7.682  -0.327  -3.103  1.00  0.00    -0.458 OA
ENDROOT
BRANCH   1   2
ATOM      2  C   UNL     1       8.067  -0.145  -1.810  1.00  0.00     0.342 C 
ATOM      3  O   UNL     1       9.174   0.183  -1.429  1.00  0.00    -0.246 OA
BRANCH   2   4
ATOM      4  C   UNL     1       6.918  -0.321  -0.890  1.00  0.00     0.101 A 
ATOM      5  C   UNL     1       4.866  -0.572   1.000  1.00  0.00     0.055 A 
ATOM      6  C   UNL     1       5.773   0.478   1.099  1.00  0.00     0.028 A 
ATOM      7  C   UNL     1       4.982  -1.502  -0.042  1.00  0.00     0.074 A 
ATOM      8  C   UNL     1       6.833   0.548   0.205  1.00  0.00     0.022 A 
ATOM      9  C   UNL     1       5.968  -1.336  -1.019  1.00  0.00     0.132 A 
BRANCH   5  10
ATOM     10  N   UNL     1       3.873  -0.690   1.982  1.00  0.00    -0.249 N 
ATOM     11  C   UNL     1       2.527  -1.556   3.665  1.00  0.00     0.146 C 
ATOM     12  C   UNL     1       2.182  -0.091   3.470  1.00  0.00     0.125 C 
ATOM     13  C   UNL     1       3.732  -1.792   2.787  1.00  0.00     0.247 C 
ATOM     14  C   UNL     1       3.010   0.326   2.298  1.00  0.00     0.235 C 
ATOM     15  O   UNL     1       4.415  -2.808   2.782  1.00  0.00    -0.273 OA
ATOM     16  O   UNL     1       2.884   1.407   1.742  1.00  0.00    -0.274 OA
BRANCH  11  17
ATOM     17  S   UNL     1       2.825  -1.986   5.415  1.00  0.00    -0.136 SA
BRANCH  17  18
ATOM     18  C   UNL     1       1.236  -1.472   6.174  1.00  0.00     0.192 C 
BRANCH  18  19
ATOM     19  C   UNL     1       0.093  -2.410   5.844  1.00  0.00     0.315 C 
ATOM     20  O   UNL     1      -0.624  -2.946   6.679  1.00  0.00    -0.251 OA
BRANCH  19  21
ATOM     21  O   UNL     1      -0.060  -2.541   4.499  1.00  0.00    -0.465 OA
BRANCH  21  22
ATOM     22  C   UNL     1      -0.989  -3.527   4.033  1.00  0.00     0.229 C 
ATOM     23  C   UNL     1      -0.434  -4.927   4.231  1.00  0.00     0.049 C 
ENDBRANCH  21  22
ENDBRANCH  19  21
ENDBRANCH  18  19
ENDBRANCH  17  18
ENDBRANCH  11  17
ENDBRANCH   5  10
BRANCH   9  24
ATOM     24  O   UNL     1       5.952  -2.218  -2.065  1.00  0.00    -0.507 OA
ATOM     25  H   UNL     1       6.591  -2.149  -2.746  1.00  0.00     0.293 HD
ENDBRANCH   9  24
ENDBRANCH   2   4
ENDBRANCH   1   2
BRANCH   1  26
ATOM     26  C   UNL     1       8.699  -0.046  -4.091  1.00  0.00     0.275 C 
BRANCH  26  27
ATOM     27  C   UNL     1       8.499   1.319  -4.756  1.00  0.00     0.275 C 
BRANCH  27  28
ATOM     28  O   UNL     1       8.757   2.391  -3.830  1.00  0.00    -0.458 OA
BRANCH  28  29
ATOM     29  C   UNL     1       7.653   3.034  -3.381  1.00  0.00     0.338 C 
ATOM     30  O   UNL     1       6.496   2.810  -3.698  1.00  0.00    -0.246 OA
BRANCH  29  31
ATOM     31  C   UNL     1       8.007   3.998  -2.328  1.00  0.00     0.060 A 
ATOM     32  C   UNL     1       8.244   3.486  -1.062  1.00  0.00     0.016 A 
ATOM     33  C   UNL     1       7.882   5.372  -2.503  1.00  0.00     0.016 A 
ATOM     34  C   UNL     1       8.172   4.307   0.057  1.00  0.00     0.010 A 
ATOM     35  C   UNL     1       7.980   6.219  -1.385  1.00  0.00     0.010 A 
ATOM     36  C   UNL     1       8.066   5.697  -0.079  1.00  0.00    -0.014 A 
BRANCH  36  37
ATOM     37  C   UNL     1       8.010   6.571   1.139  1.00  0.00     0.031 A 
ATOM     38  C   UNL     1       6.890   7.572   1.313  1.00  0.00     0.074 A 
ATOM     39  C   UNL     1       8.935   6.450   2.118  1.00  0.00     0.049 A 
ATOM     40  N   UNL     1       6.761   8.530   2.199  1.00  0.00    -0.248 NA
ATOM     41  C   UNL     1       5.778   7.499   0.354  1.00  0.00     0.031 C 
ATOM     42  C   UNL     1      10.042   5.489   2.127  1.00  0.00     0.029 A 
ATOM     43  N   UNL     1       9.088   7.127   3.306  1.00  0.00    -0.354 N 
ATOM     44  C   UNL     1       5.588   9.206   1.869  1.00  0.00     0.074 A 
ATOM     45  C   UNL     1       5.059   8.561   0.685  1.00  0.00     0.031 C 
ATOM     46  C   UNL     1      10.713   5.593   3.282  1.00  0.00     0.029 A 
ATOM     47  C   UNL     1      10.178   6.714   4.042  1.00  0.00     0.049 A 
ATOM     48  H   UNL     1       8.477   7.839   3.603  1.00  0.00     0.167 HD
ATOM     49  C   UNL     1       5.006  10.260   2.497  1.00  0.00     0.034 A 
ATOM     50  C   UNL     1      10.732   7.210   5.167  1.00  0.00     0.034 A 
ATOM     51  C   UNL     1       5.522  10.863   3.704  1.00  0.00     0.049 A 
ATOM     52  C   UNL     1      10.117   8.431   5.798  1.00  0.00     0.074 A 
ATOM     53  C   UNL     1       5.006  11.927   4.425  1.00  0.00     0.029 A 
ATOM     54  N   UNL     1       6.667  10.453   4.376  1.00  0.00    -0.354 N 
ATOM     55  N   UNL     1       9.047   9.099   5.433  1.00  0.00    -0.248 NA
ATOM     56  C   UNL     1      10.791   8.973   6.984  1.00  0.00     0.031 C 
ATOM     57  C   UNL     1       5.876  12.207   5.484  1.00  0.00     0.029 A 
ATOM     58  C   UNL     1       6.889  11.262   5.481  1.00  0.00     0.049 A 
ATOM     59  H   UNL     1       7.239   9.697   4.107  1.00  0.00     0.167 HD
ATOM     60  C   UNL     1       8.909  10.125   6.363  1.00  0.00     0.074 A 
ATOM     61  C   UNL     1       9.988   9.972   7.316  1.00  0.00     0.031 C 
ATOM     62  C   UNL     1       7.973  11.107   6.423  1.00  0.00     0.034 A 
BRANCH  49  63
ATOM     63  C   UNL     1       3.777  10.868   1.856  1.00  0.00     0.023 A 
ATOM     64  C   UNL     1       2.576  10.154   1.704  1.00  0.00     0.031 A 
ATOM     65  C   UNL     1       3.817  12.190   1.372  1.00  0.00     0.131 A 
ATOM     66  C   UNL     1       1.495  10.736   1.021  1.00  0.00     0.055 A 
ATOM     67  C   UNL     1       2.710  12.793   0.771  1.00  0.00     0.041 A 
ATOM     68  F   UNL     1       4.941  12.919   1.468  1.00  0.00    -0.206 F 
ATOM     69  C   UNL     1       1.545  12.060   0.579  1.00  0.00     0.022 A 
BRANCH  66  70
ATOM     70  S   UNL     1       0.078   9.690   0.587  1.00  0.00     0.124 S 
ATOM     71  O   UNL     1       0.715   8.649  -0.215  1.00  0.00    -0.237 OA
ATOM     72  O   UNL     1      -0.421   9.276   1.893  1.00  0.00    -0.237 OA
ATOM     73  O   UNL     1      -0.799  10.592  -0.159  1.00  0.00    -0.744 OA
ENDBRANCH  66  70
ENDBRANCH  49  63
BRANCH  50  74
ATOM     74  C   UNL     1      11.979   6.609   5.730  1.00  0.00     0.023 A 
ATOM     75  C   UNL     1      12.008   6.083   7.031  1.00  0.00     0.031 A 
ATOM     76  C   UNL     1      13.180   6.603   4.994  1.00  0.00     0.131 A 
ATOM     77  C   UNL     1      13.218   5.619   7.572  1.00  0.00     0.055 A 
ATOM     78  C   UNL     1      14.363   6.074   5.510  1.00  0.00     0.041 A 
ATOM     79  F   UNL     1      13.218   7.104   3.749  1.00  0.00    -0.206 F 
ATOM     80  C   UNL     1      14.390   5.591   6.814  1.00  0.00     0.022 A 
BRANCH  77  81
ATOM     81  S   UNL     1      13.263   5.156   9.325  1.00  0.00     0.124 S 
ATOM     82  O   UNL     1      12.809   6.385   9.967  1.00  0.00    -0.237 OA
ATOM     83  O   UNL     1      12.336   4.030   9.365  1.00  0.00    -0.237 OA
ATOM     84  O   UNL     1      14.666   4.815   9.551  1.00  0.00    -0.744 OA
ENDBRANCH  77  81
ENDBRANCH  50  74
BRANCH  62  85
ATOM     85  C   UNL     1       8.050  12.055   7.595  1.00  0.00     0.023 A 
ATOM     86  C   UNL     1       9.130  12.939   7.766  1.00  0.00     0.031 A 
ATOM     87  C   UNL     1       7.036  12.055   8.570  1.00  0.00     0.131 A 
ATOM     88  C   UNL     1       9.203  13.739   8.916  1.00  0.00     0.055 A 
ATOM     89  C   UNL     1       7.080  12.903   9.677  1.00  0.00     0.041 A 
ATOM     90  F   UNL     1       5.984  11.227   8.463  1.00  0.00    -0.206 F 
ATOM     91  C   UNL     1       8.176  13.741   9.863  1.00  0.00     0.022 A 
BRANCH  88  92
ATOM     92  S   UNL     1      10.714  14.698   9.214  1.00  0.00     0.124 S 
ATOM     93  O   UNL     1      11.735  13.656   9.233  1.00  0.00    -0.237 OA
ATOM     94  O   UNL     1      10.743  15.600   8.068  1.00  0.00    -0.237 OA
ATOM     95  O   UNL     1      10.462  15.342  10.502  1.00  0.00    -0.744 OA
ENDBRANCH  88  92
ENDBRANCH  62  85
ENDBRANCH  36  37
ENDBRANCH  29  31
ENDBRANCH  28  29
ENDBRANCH  27  28
ENDBRANCH  26  27
ENDBRANCH   1  26
TORSDOF 21
