REMARK SMILES O=C(Cn1c(=O)c2c3c(sc2n(Cc2ccc(Cl)cc2Cl)c1=O)CCCC3)OCCOC(=O)c1ccc(-c2c3nc(c(-c4cc(S(=O)(=O)[O-])ccc4F)c4ccc([nH]4)c(-c4cc(S(=O)(=O)[O-])ccc4F)c4nc(c(-c5cc(S(=O)(=O)[O-])ccc5F)c5ccc2[nH]5)C=C4)C=C3)cc1
REMARK SMILES IDX 29 1 28 2 2 3 1 4 3 5 4 6 5 7 22 8 6 9 7 10 12 11 23 12 8 13
REMARK SMILES IDX 11 14 9 15 27 16 10 17 24 18 26 19 25 20 13 21 14 22 15 23
REMARK SMILES IDX 20 24 16 25 19 26 21 27 17 28 18 29 30 30 31 31 32 32 33 33
REMARK SMILES IDX 34 34 35 35 96 36 36 37 95 38 37 39 38 40 39 41 89 42 40 43
REMARK SMILES IDX 94 44 88 45 90 46 41 47 93 48 87 49 86 50 42 52 74 53 54 54
REMARK SMILES IDX 73 55 55 56 58 57 72 58 91 59 56 60 57 61 71 63 92 64 59 65
REMARK SMILES IDX 43 66 44 67 52 68 45 69 51 70 53 71 50 72 46 73 47 74 48 75
REMARK SMILES IDX 49 76 75 77 76 78 84 79 77 80 83 81 85 82 82 83 78 84 79 85
REMARK SMILES IDX 80 86 81 87 60 88 61 89 69 90 62 91 68 92 70 93 67 94 63 95
REMARK SMILES IDX 64 96 65 97 66 98
REMARK H PARENT 90 51 58 62
REMARK Flexibility Score: inf
ROOT
ATOM      1  C   UNL     1       4.420  -0.485   0.881  1.00  0.00     0.274 C 
ENDROOT
BRANCH   1   2
ATOM      2  O   UNL     1       3.086   0.045   0.984  1.00  0.00    -0.461 OA
BRANCH   2   3
ATOM      3  C   UNL     1       2.333   0.579  -0.004  1.00  0.00     0.326 C 
ATOM      4  O   UNL     1       1.175   0.911   0.250  1.00  0.00    -0.250 OA
BRANCH   3   5
ATOM      5  C   UNL     1       2.885   0.736  -1.420  1.00  0.00     0.253 C 
BRANCH   5   6
ATOM      6  N   UNL     1       3.901   1.764  -1.617  1.00  0.00    -0.248 N 
ATOM      7  C   UNL     1       5.192   1.327  -1.930  1.00  0.00     0.265 A 
ATOM      8  C   UNL     1       3.466   3.094  -1.605  1.00  0.00     0.332 A 
ATOM      9  O   UNL     1       5.520   0.157  -2.015  1.00  0.00    -0.268 OA
ATOM     10  C   UNL     1       6.144   2.392  -2.135  1.00  0.00     0.079 A 
ATOM     11  N   UNL     1       4.402   4.097  -1.887  1.00  0.00    -0.280 N 
ATOM     12  O   UNL     1       2.292   3.373  -1.350  1.00  0.00    -0.247 OA
ATOM     13  C   UNL     1       7.573   2.318  -2.271  1.00  0.00    -0.019 A 
ATOM     14  C   UNL     1       5.700   3.686  -2.156  1.00  0.00     0.113 A 
ATOM     15  C   UNL     1       8.111   3.579  -2.450  1.00  0.00     0.011 A 
ATOM     16  C   UNL     1       8.445   1.101  -2.151  1.00  0.00     0.037 C 
ATOM     17  S   UNL     1       6.921   4.774  -2.572  1.00  0.00    -0.122 S 
ATOM     18  C   UNL     1       9.565   3.903  -2.554  1.00  0.00     0.047 C 
ATOM     19  C   UNL     1       9.893   1.388  -2.588  1.00  0.00     0.005 C 
ATOM     20  C   UNL     1      10.404   2.727  -2.037  1.00  0.00     0.006 C 
BRANCH  11  21
ATOM     21  C   UNL     1       3.963   5.506  -1.791  1.00  0.00     0.165 C 
BRANCH  21  22
ATOM     22  C   UNL     1       4.249   6.102  -0.420  1.00  0.00    -0.009 A 
ATOM     23  C   UNL     1       3.453   5.692   0.668  1.00  0.00     0.008 A 
ATOM     24  C   UNL     1       5.298   7.000  -0.158  1.00  0.00     0.047 A 
ATOM     25  C   UNL     1       3.750   6.089   1.974  1.00  0.00     0.021 A 
ATOM     26  C   UNL     1       5.634   7.347   1.155  1.00  0.00     0.041 A 
ATOM     27  Cl  UNL     1       6.173   7.817  -1.405  1.00  0.00    -0.084 Cl
ATOM     28  C   UNL     1       4.864   6.883   2.214  1.00  0.00     0.042 A 
ATOM     29  Cl  UNL     1       5.279   7.318   3.826  1.00  0.00    -0.084 Cl
ENDBRANCH  21  22
ENDBRANCH  11  21
ENDBRANCH   5   6
ENDBRANCH   3   5
ENDBRANCH   2   3
ENDBRANCH   1   2
BRANCH   1  30
ATOM     30  C   UNL     1       4.495  -1.964   0.495  1.00  0.00     0.275 C 
BRANCH  30  31
ATOM     31  O   UNL     1       3.754  -2.276  -0.690  1.00  0.00    -0.458 OA
BRANCH  31  32
ATOM     32  C   UNL     1       2.480  -2.678  -0.459  1.00  0.00     0.338 C 
ATOM     33  O   UNL     1       1.933  -2.771   0.627  1.00  0.00    -0.246 OA
BRANCH  32  34
ATOM     34  C   UNL     1       1.776  -2.828  -1.739  1.00  0.00     0.060 A 
ATOM     35  C   UNL     1       0.572  -2.139  -1.905  1.00  0.00     0.016 A 
ATOM     36  C   UNL     1       2.245  -3.700  -2.722  1.00  0.00     0.016 A 
ATOM     37  C   UNL     1      -0.191  -2.361  -3.046  1.00  0.00     0.010 A 
ATOM     38  C   UNL     1       1.453  -3.954  -3.842  1.00  0.00     0.010 A 
ATOM     39  C   UNL     1       0.212  -3.317  -3.996  1.00  0.00    -0.014 A 
BRANCH  39  40
ATOM     40  C   UNL     1      -0.753  -3.698  -5.058  1.00  0.00     0.031 A 
ATOM     41  C   UNL     1      -0.203  -4.071  -6.397  1.00  0.00     0.074 A 
ATOM     42  C   UNL     1      -1.946  -4.223  -4.687  1.00  0.00     0.049 A 
ATOM     43  N   UNL     1       0.424  -5.193  -6.595  1.00  0.00    -0.248 NA
ATOM     44  C   UNL     1      -0.132  -3.158  -7.537  1.00  0.00     0.031 C 
ATOM     45  C   UNL     1      -2.169  -4.852  -3.371  1.00  0.00     0.029 A 
ATOM     46  N   UNL     1      -3.091  -4.515  -5.389  1.00  0.00    -0.354 N 
ATOM     47  C   UNL     1       0.997  -5.145  -7.849  1.00  0.00     0.074 A 
ATOM     48  C   UNL     1       0.617  -3.863  -8.404  1.00  0.00     0.031 C 
ATOM     49  C   UNL     1      -3.295  -5.586  -3.418  1.00  0.00     0.029 A 
ATOM     50  C   UNL     1      -3.946  -5.390  -4.708  1.00  0.00     0.049 A 
ATOM     51  H   UNL     1      -3.291  -4.146  -6.279  1.00  0.00     0.167 HD
ATOM     52  C   UNL     1       1.752  -6.163  -8.341  1.00  0.00     0.034 A 
ATOM     53  C   UNL     1      -4.688  -6.367  -5.296  1.00  0.00     0.034 A 
ATOM     54  C   UNL     1       1.909  -7.286  -7.462  1.00  0.00     0.049 A 
ATOM     55  C   UNL     1      -3.618  -7.257  -5.884  1.00  0.00     0.074 A 
ATOM     56  C   UNL     1       2.807  -7.686  -6.495  1.00  0.00     0.029 A 
ATOM     57  N   UNL     1       0.908  -8.230  -7.413  1.00  0.00    -0.354 N 
ATOM     58  N   UNL     1      -2.874  -8.107  -5.227  1.00  0.00    -0.248 NA
ATOM     59  C   UNL     1      -3.127  -6.925  -7.222  1.00  0.00     0.031 C 
ATOM     60  C   UNL     1       2.065  -8.538  -5.619  1.00  0.00     0.029 A 
ATOM     61  C   UNL     1       0.752  -8.560  -6.089  1.00  0.00     0.049 A 
ATOM     62  H   UNL     1       0.404  -8.595  -8.176  1.00  0.00     0.167 HD
ATOM     63  C   UNL     1      -1.697  -8.230  -5.965  1.00  0.00     0.074 A 
ATOM     64  C   UNL     1      -1.927  -7.488  -7.191  1.00  0.00     0.031 C 
ATOM     65  C   UNL     1      -0.543  -8.773  -5.476  1.00  0.00     0.034 A 
BRANCH  52  66
ATOM     66  C   UNL     1       2.321  -6.234  -9.701  1.00  0.00     0.023 A 
ATOM     67  C   UNL     1       1.703  -7.087 -10.627  1.00  0.00     0.031 A 
ATOM     68  C   UNL     1       3.570  -5.689 -10.023  1.00  0.00     0.131 A 
ATOM     69  C   UNL     1       2.354  -7.418 -11.819  1.00  0.00     0.055 A 
ATOM     70  C   UNL     1       4.211  -6.009 -11.225  1.00  0.00     0.041 A 
ATOM     71  F   UNL     1       4.210  -4.889  -9.155  1.00  0.00    -0.206 F 
ATOM     72  C   UNL     1       3.610  -6.891 -12.123  1.00  0.00     0.022 A 
BRANCH  69  73
ATOM     73  S   UNL     1       1.566  -8.634 -12.907  1.00  0.00     0.124 S 
ATOM     74  O   UNL     1       1.343  -9.754 -11.999  1.00  0.00    -0.237 OA
ATOM     75  O   UNL     1       0.373  -7.912 -13.337  1.00  0.00    -0.237 OA
ATOM     76  O   UNL     1       2.569  -8.860 -13.945  1.00  0.00    -0.744 OA
ENDBRANCH  69  73
ENDBRANCH  52  66
BRANCH  53  77
ATOM     77  C   UNL     1      -5.896  -5.919  -6.060  1.00  0.00     0.023 A 
ATOM     78  C   UNL     1      -6.718  -4.909  -5.512  1.00  0.00     0.031 A 
ATOM     79  C   UNL     1      -6.309  -6.467  -7.285  1.00  0.00     0.131 A 
ATOM     80  C   UNL     1      -7.829  -4.418  -6.218  1.00  0.00     0.055 A 
ATOM     81  C   UNL     1      -7.394  -5.952  -8.005  1.00  0.00     0.041 A 
ATOM     82  F   UNL     1      -5.669  -7.510  -7.831  1.00  0.00    -0.206 F 
ATOM     83  C   UNL     1      -8.150  -4.911  -7.481  1.00  0.00     0.022 A 
BRANCH  80  84
ATOM     84  S   UNL     1      -8.828  -3.093  -5.483  1.00  0.00     0.124 S 
ATOM     85  O   UNL     1      -9.569  -3.808  -4.449  1.00  0.00    -0.237 OA
ATOM     86  O   UNL     1      -7.814  -2.156  -5.010  1.00  0.00    -0.237 OA
ATOM     87  O   UNL     1      -9.632  -2.611  -6.605  1.00  0.00    -0.744 OA
ENDBRANCH  80  84
ENDBRANCH  53  77
BRANCH  65  88
ATOM     88  C   UNL     1      -0.623  -9.396  -4.118  1.00  0.00     0.023 A 
ATOM     89  C   UNL     1      -1.290 -10.617  -3.939  1.00  0.00     0.031 A 
ATOM     90  C   UNL     1       0.016  -8.816  -3.006  1.00  0.00     0.131 A 
ATOM     91  C   UNL     1      -1.284 -11.239  -2.682  1.00  0.00     0.055 A 
ATOM     92  C   UNL     1       0.042  -9.451  -1.764  1.00  0.00     0.041 A 
ATOM     93  F   UNL     1       0.656  -7.639  -3.110  1.00  0.00    -0.206 F 
ATOM     94  C   UNL     1      -0.604 -10.673  -1.599  1.00  0.00     0.022 A 
BRANCH  91  95
ATOM     95  S   UNL     1      -2.116 -12.838  -2.485  1.00  0.00     0.124 S 
ATOM     96  O   UNL     1      -3.526 -12.463  -2.491  1.00  0.00    -0.237 OA
ATOM     97  O   UNL     1      -1.649 -13.592  -3.644  1.00  0.00    -0.237 OA
ATOM     98  O   UNL     1      -1.613 -13.326  -1.200  1.00  0.00    -0.744 OA
ENDBRANCH  91  95
ENDBRANCH  65  88
ENDBRANCH  39  40
ENDBRANCH  32  34
ENDBRANCH  31  32
ENDBRANCH  30  31
ENDBRANCH   1  30
TORSDOF 17
