REMARK SMILES COc1cc(OC)cc(-c2ccc(C(=O)OCCOC(=O)c3ccc(-c4c5nc(c(-c6cc(S(=O)(=O)[O-])ccc6F)c6ccc([nH]6)c(-c6cc(S(=O)(=O)[O-])ccc6F)c6nc(c(-c7cc(S(=O)(=O)[O-])ccc7F)c7ccc4[nH]7)C=C6)C=C5)cc3)o2)c1
REMARK SMILES IDX 18 1 17 2 16 3 14 4 15 5 13 6 10 7 11 8 85 9 12 10 9 11 3 12
REMARK SMILES IDX 4 13 86 14 5 15 8 16 2 17 1 18 6 19 7 20 19 21 20 22 21 23
REMARK SMILES IDX 22 24 23 25 84 26 24 27 83 28 25 29 26 30 27 31 77 32 28 33
REMARK SMILES IDX 82 34 76 35 78 36 29 37 81 38 75 39 74 40 30 42 62 43 42 44
REMARK SMILES IDX 61 45 43 46 46 47 60 48 79 49 44 50 45 51 59 53 80 54 47 55
REMARK SMILES IDX 31 56 32 57 40 58 33 59 39 60 41 61 38 62 34 63 35 64 36 65
REMARK SMILES IDX 37 66 63 67 64 68 72 69 65 70 71 71 73 72 70 73 66 74 67 75
REMARK SMILES IDX 68 76 69 77 48 78 49 79 57 80 50 81 56 82 58 83 55 84 51 85
REMARK SMILES IDX 52 86 53 87 54 88
REMARK H PARENT 78 41 46 52
REMARK Flexibility Score: inf
ROOT
ATOM      1  C   UNL     1       8.604   7.637  -0.615  1.00  0.00     0.275 C 
ENDROOT
BRANCH   1   2
ATOM      2  C   UNL     1       8.879   6.238  -0.050  1.00  0.00     0.275 C 
BRANCH   2   3
ATOM      3  O   UNL     1       8.143   5.227  -0.764  1.00  0.00    -0.456 OA
BRANCH   3   4
ATOM      4  C   UNL     1       6.966   4.827  -0.189  1.00  0.00     0.374 C 
ATOM      5  O   UNL     1       6.599   5.160   0.926  1.00  0.00    -0.242 OA
BRANCH   4   6
ATOM      6  C   UNL     1       6.208   4.032  -1.132  1.00  0.00     0.212 A 
ATOM      7  C   UNL     1       4.337   3.219  -1.967  1.00  0.00     0.135 A 
ATOM      8  C   UNL     1       5.326   2.920  -2.878  1.00  0.00     0.052 A 
ATOM      9  O   UNL     1       4.872   3.836  -0.880  1.00  0.00    -0.449 OA
ATOM     10  C   UNL     1       6.528   3.448  -2.345  1.00  0.00     0.059 A 
BRANCH   7  11
ATOM     11  C   UNL     1       2.895   3.053  -1.965  1.00  0.00     0.025 A 
ATOM     12  C   UNL     1       0.945   1.692  -1.520  1.00  0.00     0.123 A 
ATOM     13  C   UNL     1       0.143   2.666  -2.116  1.00  0.00     0.092 A 
ATOM     14  C   UNL     1       2.325   1.882  -1.451  1.00  0.00     0.058 A 
ATOM     15  C   UNL     1       0.696   3.846  -2.619  1.00  0.00     0.123 A 
ATOM     16  C   UNL     1       2.075   4.041  -2.536  1.00  0.00     0.058 A 
BRANCH  12  17
ATOM     17  O   UNL     1       0.294   0.562  -1.106  1.00  0.00    -0.497 OA
ATOM     18  C   UNL     1       0.826  -0.038   0.070  1.00  0.00     0.278 C 
ENDBRANCH  12  17
BRANCH  15  19
ATOM     19  O   UNL     1      -0.212   4.703  -3.173  1.00  0.00    -0.497 OA
ATOM     20  C   UNL     1       0.279   5.895  -3.774  1.00  0.00     0.278 C 
ENDBRANCH  15  19
ENDBRANCH   7  11
ENDBRANCH   4   6
ENDBRANCH   3   4
ENDBRANCH   2   3
ENDBRANCH   1   2
BRANCH   1  21
ATOM     21  O   UNL     1       7.284   8.106  -0.282  1.00  0.00    -0.458 OA
BRANCH  21  22
ATOM     22  C   UNL     1       6.325   7.836  -1.202  1.00  0.00     0.338 C 
ATOM     23  O   UNL     1       6.484   7.272  -2.272  1.00  0.00    -0.246 OA
BRANCH  22  24
ATOM     24  C   UNL     1       4.999   8.193  -0.663  1.00  0.00     0.060 A 
ATOM     25  C   UNL     1       4.026   7.192  -0.617  1.00  0.00     0.016 A 
ATOM     26  C   UNL     1       4.690   9.494  -0.260  1.00  0.00     0.016 A 
ATOM     27  C   UNL     1       2.742   7.477  -0.162  1.00  0.00     0.010 A 
ATOM     28  C   UNL     1       3.395   9.784   0.191  1.00  0.00     0.010 A 
ATOM     29  C   UNL     1       2.413   8.777   0.237  1.00  0.00    -0.014 A 
BRANCH  29  30
ATOM     30  C   UNL     1       1.020   9.078   0.650  1.00  0.00     0.031 A 
ATOM     31  C   UNL     1       0.096   9.774  -0.307  1.00  0.00     0.074 A 
ATOM     32  C   UNL     1       0.577   8.681   1.857  1.00  0.00     0.049 A 
ATOM     33  N   UNL     1      -1.140  10.164  -0.131  1.00  0.00    -0.248 NA
ATOM     34  C   UNL     1       0.637  10.069  -1.643  1.00  0.00     0.031 C 
ATOM     35  C   UNL     1       1.371   7.950   2.846  1.00  0.00     0.029 A 
ATOM     36  N   UNL     1      -0.647   8.832   2.457  1.00  0.00    -0.354 N 
ATOM     37  C   UNL     1      -1.529  10.749  -1.330  1.00  0.00     0.074 A 
ATOM     38  C   UNL     1      -0.384  10.692  -2.215  1.00  0.00     0.031 C 
ATOM     39  C   UNL     1       0.613   7.718   3.930  1.00  0.00     0.029 A 
ATOM     40  C   UNL     1      -0.704   8.319   3.733  1.00  0.00     0.049 A 
ATOM     41  H   UNL     1      -1.413   9.266   2.017  1.00  0.00     0.167 HD
ATOM     42  C   UNL     1      -2.732  11.279  -1.661  1.00  0.00     0.034 A 
ATOM     43  C   UNL     1      -1.695   8.354   4.645  1.00  0.00     0.034 A 
ATOM     44  C   UNL     1      -3.861  11.341  -0.764  1.00  0.00     0.049 A 
ATOM     45  C   UNL     1      -3.000   9.017   4.277  1.00  0.00     0.074 A 
ATOM     46  C   UNL     1      -5.115  11.882  -0.988  1.00  0.00     0.029 A 
ATOM     47  N   UNL     1      -3.871  10.844   0.533  1.00  0.00    -0.354 N 
ATOM     48  N   UNL     1      -3.343   9.596   3.149  1.00  0.00    -0.248 NA
ATOM     49  C   UNL     1      -4.052   9.028   5.302  1.00  0.00     0.031 C 
ATOM     50  C   UNL     1      -5.865  11.759   0.188  1.00  0.00     0.029 A 
ATOM     51  C   UNL     1      -5.101  11.085   1.127  1.00  0.00     0.049 A 
ATOM     52  H   UNL     1      -3.115  10.388   0.968  1.00  0.00     0.167 HD
ATOM     53  C   UNL     1      -4.658  10.017   3.324  1.00  0.00     0.074 A 
ATOM     54  C   UNL     1      -5.051   9.610   4.657  1.00  0.00     0.031 C 
ATOM     55  C   UNL     1      -5.471  10.680   2.462  1.00  0.00     0.034 A 
BRANCH  42  56
ATOM     56  C   UNL     1      -2.865  11.878  -3.039  1.00  0.00     0.023 A 
ATOM     57  C   UNL     1      -2.815  11.082  -4.196  1.00  0.00     0.031 A 
ATOM     58  C   UNL     1      -3.020  13.266  -3.198  1.00  0.00     0.131 A 
ATOM     59  C   UNL     1      -2.860  11.685  -5.462  1.00  0.00     0.055 A 
ATOM     60  C   UNL     1      -3.134  13.854  -4.459  1.00  0.00     0.041 A 
ATOM     61  F   UNL     1      -3.051  14.077  -2.128  1.00  0.00    -0.206 F 
ATOM     62  C   UNL     1      -3.042  13.064  -5.601  1.00  0.00     0.022 A 
BRANCH  59  63
ATOM     63  S   UNL     1      -2.553  10.658  -6.925  1.00  0.00     0.124 S 
ATOM     64  O   UNL     1      -1.213  10.145  -6.650  1.00  0.00    -0.237 OA
ATOM     65  O   UNL     1      -3.636   9.684  -6.860  1.00  0.00    -0.237 OA
ATOM     66  O   UNL     1      -2.633  11.608  -8.033  1.00  0.00    -0.744 OA
ENDBRANCH  59  63
ENDBRANCH  42  56
BRANCH  43  67
ATOM     67  C   UNL     1      -1.486   7.802   6.015  1.00  0.00     0.023 A 
ATOM     68  C   UNL     1      -2.251   6.728   6.496  1.00  0.00     0.031 A 
ATOM     69  C   UNL     1      -0.555   8.392   6.889  1.00  0.00     0.131 A 
ATOM     70  C   UNL     1      -2.109   6.311   7.829  1.00  0.00     0.055 A 
ATOM     71  C   UNL     1      -0.378   7.937   8.197  1.00  0.00     0.041 A 
ATOM     72  F   UNL     1       0.201   9.425   6.482  1.00  0.00    -0.206 F 
ATOM     73  C   UNL     1      -1.169   6.900   8.678  1.00  0.00     0.022 A 
BRANCH  70  74
ATOM     74  S   UNL     1      -3.247   5.053   8.474  1.00  0.00     0.124 S 
ATOM     75  O   UNL     1      -4.547   5.646   8.178  1.00  0.00    -0.237 OA
ATOM     76  O   UNL     1      -2.881   3.881   7.686  1.00  0.00    -0.237 OA
ATOM     77  O   UNL     1      -2.905   4.980   9.893  1.00  0.00    -0.744 OA
ENDBRANCH  70  74
ENDBRANCH  43  67
BRANCH  55  78
ATOM     78  C   UNL     1      -6.875  10.962   2.931  1.00  0.00     0.023 A 
ATOM     79  C   UNL     1      -7.138  11.886   3.957  1.00  0.00     0.031 A 
ATOM     80  C   UNL     1      -7.962  10.281   2.355  1.00  0.00     0.131 A 
ATOM     81  C   UNL     1      -8.453  12.066   4.413  1.00  0.00     0.055 A 
ATOM     82  C   UNL     1      -9.273  10.502   2.779  1.00  0.00     0.041 A 
ATOM     83  F   UNL     1      -7.765   9.389   1.371  1.00  0.00    -0.206 F 
ATOM     84  C   UNL     1      -9.523  11.389   3.822  1.00  0.00     0.022 A 
BRANCH  81  85
ATOM     85  S   UNL     1      -8.739  13.141   5.846  1.00  0.00     0.124 S 
ATOM     86  O   UNL     1      -7.933  12.496   6.878  1.00  0.00    -0.237 OA
ATOM     87  O   UNL     1      -8.252  14.432   5.371  1.00  0.00    -0.237 OA
ATOM     88  O   UNL     1     -10.185  13.064   6.050  1.00  0.00    -0.744 OA
ENDBRANCH  81  85
ENDBRANCH  55  78
ENDBRANCH  29  30
ENDBRANCH  22  24
ENDBRANCH  21  22
ENDBRANCH   1  21
TORSDOF 17
