REMARK SMILES O=C(OCCOC(=O)[C@@H]1CCC(=O)N(CCCOC2CCCCC2)[C@H]1c1ccco1)c1ccc(-c2c3nc(c(-c4cc(S(=O)(=O)[O-])ccc4F)c4ccc([nH]4)c(-c4cc(S(=O)(=O)[O-])ccc4F)c4nc(c(-c5cc(S(=O)(=O)[O-])ccc5F)c5ccc2[nH]5)C=C4)C=C3)cc1
REMARK SMILES IDX 5 1 4 2 3 3 2 4 1 5 31 6 32 7 93 8 33 9 92 10 34 11 35 12
REMARK SMILES IDX 36 13 86 14 37 15 91 16 85 17 87 18 38 19 90 20 84 21 83 22
REMARK SMILES IDX 39 24 71 25 51 26 70 27 52 28 55 29 69 30 88 31 53 32 54 33
REMARK SMILES IDX 68 35 89 36 56 37 40 38 41 39 49 40 42 41 48 42 50 43 47 44
REMARK SMILES IDX 43 45 44 46 45 47 46 48 72 49 73 50 81 51 74 52 80 53 82 54
REMARK SMILES IDX 79 55 75 56 76 57 77 58 78 59 57 60 58 61 66 62 59 63 65 64
REMARK SMILES IDX 67 65 64 66 60 67 61 68 62 69 63 70 6 71 7 72 8 73 9 74
REMARK SMILES IDX 10 75 25 76 11 77 14 78 12 79 13 80 26 81 27 82 30 83 28 84
REMARK SMILES IDX 29 85 15 86 16 87 17 88 18 89 19 90 20 91 24 92 21 93 23 94
REMARK SMILES IDX 22 95
REMARK H PARENT 87 23 55 34
REMARK Flexibility Score: inf
ROOT
ATOM      1  C   UNL     1       3.707  -0.724   1.353  1.00  0.00     0.274 C 
ENDROOT
BRANCH   1   2
ATOM      2  C   UNL     1       4.611   0.513   1.308  1.00  0.00     0.275 C 
BRANCH   2   3
ATOM      3  O   UNL     1       4.219   1.543   0.389  1.00  0.00    -0.458 OA
BRANCH   3   4
ATOM      4  C   UNL     1       4.281   1.567  -0.964  1.00  0.00     0.338 C 
ATOM      5  O   UNL     1       3.749   2.510  -1.549  1.00  0.00    -0.246 OA
BRANCH   4   6
ATOM      6  C   UNL     1       4.858   0.456  -1.791  1.00  0.00     0.060 A 
ATOM      7  C   UNL     1       5.743  -0.534  -1.348  1.00  0.00     0.016 A 
ATOM      8  C   UNL     1       4.375   0.354  -3.106  1.00  0.00     0.016 A 
ATOM      9  C   UNL     1       6.002  -1.680  -2.115  1.00  0.00     0.010 A 
ATOM     10  C   UNL     1       4.601  -0.806  -3.860  1.00  0.00     0.010 A 
ATOM     11  C   UNL     1       5.401  -1.850  -3.362  1.00  0.00    -0.014 A 
BRANCH  11  12
ATOM     12  C   UNL     1       5.771  -2.994  -4.243  1.00  0.00     0.031 A 
ATOM     13  C   UNL     1       6.483  -2.645  -5.523  1.00  0.00     0.074 A 
ATOM     14  C   UNL     1       5.493  -4.283  -3.943  1.00  0.00     0.049 A 
ATOM     15  N   UNL     1       6.801  -3.403  -6.535  1.00  0.00    -0.248 NA
ATOM     16  C   UNL     1       6.840  -1.226  -5.700  1.00  0.00     0.031 C 
ATOM     17  C   UNL     1       4.833  -4.759  -2.726  1.00  0.00     0.029 A 
ATOM     18  N   UNL     1       5.732  -5.443  -4.646  1.00  0.00    -0.354 N 
ATOM     19  C   UNL     1       7.350  -2.539  -7.476  1.00  0.00     0.074 A 
ATOM     20  C   UNL     1       7.211  -1.198  -6.965  1.00  0.00     0.031 C 
ATOM     21  C   UNL     1       4.712  -6.100  -2.773  1.00  0.00     0.029 A 
ATOM     22  C   UNL     1       5.277  -6.591  -4.026  1.00  0.00     0.049 A 
ATOM     23  H   UNL     1       6.190  -5.454  -5.518  1.00  0.00     0.167 HD
ATOM     24  C   UNL     1       7.984  -2.837  -8.633  1.00  0.00     0.034 A 
ATOM     25  C   UNL     1       5.320  -7.881  -4.430  1.00  0.00     0.034 A 
ATOM     26  C   UNL     1       8.201  -4.181  -9.080  1.00  0.00     0.049 A 
ATOM     27  C   UNL     1       5.990  -8.187  -5.756  1.00  0.00     0.074 A 
ATOM     28  C   UNL     1       8.897  -4.618 -10.189  1.00  0.00     0.029 A 
ATOM     29  N   UNL     1       7.728  -5.309  -8.424  1.00  0.00    -0.354 N 
ATOM     30  N   UNL     1       6.573  -7.360  -6.595  1.00  0.00    -0.248 NA
ATOM     31  C   UNL     1       6.021  -9.593  -6.184  1.00  0.00     0.031 C 
ATOM     32  C   UNL     1       8.798  -6.011 -10.234  1.00  0.00     0.029 A 
ATOM     33  C   UNL     1       8.090  -6.444  -9.122  1.00  0.00     0.049 A 
ATOM     34  H   UNL     1       7.211  -5.300  -7.585  1.00  0.00     0.167 HD
ATOM     35  C   UNL     1       7.079  -8.153  -7.622  1.00  0.00     0.074 A 
ATOM     36  C   UNL     1       6.743  -9.522  -7.293  1.00  0.00     0.031 C 
ATOM     37  C   UNL     1       7.759  -7.793  -8.739  1.00  0.00     0.034 A 
BRANCH  24  38
ATOM     38  C   UNL     1       8.471  -1.677  -9.459  1.00  0.00     0.023 A 
ATOM     39  C   UNL     1       9.440  -0.784  -8.967  1.00  0.00     0.031 A 
ATOM     40  C   UNL     1       7.879  -1.395 -10.700  1.00  0.00     0.131 A 
ATOM     41  C   UNL     1       9.701   0.408  -9.656  1.00  0.00     0.055 A 
ATOM     42  C   UNL     1       8.217  -0.254 -11.429  1.00  0.00     0.041 A 
ATOM     43  F   UNL     1       6.932  -2.202 -11.204  1.00  0.00    -0.206 F 
ATOM     44  C   UNL     1       9.116   0.667 -10.897  1.00  0.00     0.022 A 
BRANCH  41  45
ATOM     45  S   UNL     1      10.674   1.690  -8.818  1.00  0.00     0.124 S 
ATOM     46  O   UNL     1       9.802   2.029  -7.695  1.00  0.00    -0.237 OA
ATOM     47  O   UNL     1      11.904   0.984  -8.477  1.00  0.00    -0.237 OA
ATOM     48  O   UNL     1      10.812   2.732  -9.832  1.00  0.00    -0.744 OA
ENDBRANCH  41  45
ENDBRANCH  24  38
BRANCH  25  49
ATOM     49  C   UNL     1       4.702  -8.996  -3.636  1.00  0.00     0.023 A 
ATOM     50  C   UNL     1       5.458 -10.091  -3.180  1.00  0.00     0.031 A 
ATOM     51  C   UNL     1       3.310  -9.056  -3.449  1.00  0.00     0.131 A 
ATOM     52  C   UNL     1       4.815 -11.220  -2.638  1.00  0.00     0.055 A 
ATOM     53  C   UNL     1       2.678 -10.152  -2.854  1.00  0.00     0.041 A 
ATOM     54  F   UNL     1       2.533  -8.052  -3.875  1.00  0.00    -0.206 F 
ATOM     55  C   UNL     1       3.431 -11.254  -2.463  1.00  0.00     0.022 A 
BRANCH  52  56
ATOM     56  S   UNL     1       5.800 -12.709  -2.299  1.00  0.00     0.124 S 
ATOM     57  O   UNL     1       6.444 -12.936  -3.587  1.00  0.00    -0.237 OA
ATOM     58  O   UNL     1       6.665 -12.255  -1.217  1.00  0.00    -0.237 OA
ATOM     59  O   UNL     1       4.796 -13.701  -1.920  1.00  0.00    -0.744 OA
ENDBRANCH  52  56
ENDBRANCH  25  49
BRANCH  37  60
ATOM     60  C   UNL     1       8.224  -8.895  -9.651  1.00  0.00     0.023 A 
ATOM     61  C   UNL     1       7.317  -9.635 -10.424  1.00  0.00     0.031 A 
ATOM     62  C   UNL     1       9.598  -9.161  -9.792  1.00  0.00     0.131 A 
ATOM     63  C   UNL     1       7.793 -10.629 -11.289  1.00  0.00     0.055 A 
ATOM     64  C   UNL     1      10.069 -10.110 -10.697  1.00  0.00     0.041 A 
ATOM     65  F   UNL     1      10.503  -8.476  -9.075  1.00  0.00    -0.206 F 
ATOM     66  C   UNL     1       9.163 -10.855 -11.447  1.00  0.00     0.022 A 
BRANCH  63  67
ATOM     67  S   UNL     1       6.590 -11.654 -12.174  1.00  0.00     0.124 S 
ATOM     68  O   UNL     1       5.895 -12.320 -11.078  1.00  0.00    -0.237 OA
ATOM     69  O   UNL     1       5.813 -10.662 -12.911  1.00  0.00    -0.237 OA
ATOM     70  O   UNL     1       7.425 -12.524 -13.001  1.00  0.00    -0.744 OA
ENDBRANCH  63  67
ENDBRANCH  37  60
ENDBRANCH  11  12
ENDBRANCH   4   6
ENDBRANCH   3   4
ENDBRANCH   2   3
ENDBRANCH   1   2
BRANCH   1  71
ATOM     71  O   UNL     1       3.019  -1.007   0.119  1.00  0.00    -0.462 OA
BRANCH  71  72
ATOM     72  C   UNL     1       2.306  -2.173   0.120  1.00  0.00     0.311 C 
ATOM     73  O   UNL     1       2.215  -2.889   1.103  1.00  0.00    -0.252 OA
BRANCH  72  74
ATOM     74  C   UNL     1       1.787  -2.600  -1.256  1.00  0.00     0.130 C 
ATOM     75  C   UNL     1       1.925  -1.622  -2.386  1.00  0.00     0.028 C 
ATOM     76  C   UNL     1       0.376  -3.179  -1.257  1.00  0.00     0.166 C 
ATOM     77  C   UNL     1       0.782  -0.675  -2.647  1.00  0.00     0.101 C 
ATOM     78  N   UNL     1      -0.701  -2.187  -1.348  1.00  0.00    -0.332 N 
ATOM     79  C   UNL     1      -0.521  -0.950  -1.949  1.00  0.00     0.223 C 
ATOM     80  O   UNL     1      -1.400  -0.085  -1.958  1.00  0.00    -0.275 OA
BRANCH  76  81
ATOM     81  C   UNL     1       0.239  -4.206  -2.343  1.00  0.00     0.127 A 
ATOM     82  C   UNL     1       0.807  -5.453  -2.513  1.00  0.00     0.048 A 
ATOM     83  O   UNL     1      -0.557  -3.910  -3.412  1.00  0.00    -0.467 OA
ATOM     84  C   UNL     1       0.328  -5.942  -3.749  1.00  0.00     0.042 A 
ATOM     85  C   UNL     1      -0.499  -4.971  -4.255  1.00  0.00     0.195 A 
ENDBRANCH  76  81
BRANCH  78  86
ATOM     86  C   UNL     1      -2.078  -2.487  -0.924  1.00  0.00     0.122 C 
BRANCH  86  87
ATOM     87  C   UNL     1      -2.529  -3.891  -0.515  1.00  0.00     0.050 C 
BRANCH  87  88
ATOM     88  C   UNL     1      -1.873  -4.683   0.622  1.00  0.00     0.162 C 
BRANCH  88  89
ATOM     89  O   UNL     1      -1.907  -4.069   1.908  1.00  0.00    -0.378 OA
BRANCH  89  90
ATOM     90  C   UNL     1      -0.715  -3.376   2.312  1.00  0.00     0.118 C 
ATOM     91  C   UNL     1      -0.945  -1.881   2.104  1.00  0.00     0.032 C 
ATOM     92  C   UNL     1      -0.412  -3.708   3.777  1.00  0.00     0.032 C 
ATOM     93  C   UNL     1      -0.016  -0.932   2.831  1.00  0.00     0.003 C 
ATOM     94  C   UNL     1       0.647  -2.782   4.374  1.00  0.00     0.003 C 
ATOM     95  C   UNL     1       0.212  -1.326   4.274  1.00  0.00     0.000 C 
ENDBRANCH  89  90
ENDBRANCH  88  89
ENDBRANCH  87  88
ENDBRANCH  86  87
ENDBRANCH  78  86
ENDBRANCH  72  74
ENDBRANCH  71  72
ENDBRANCH   1  71
TORSDOF 20
