REMARK SMILES CC(C)(Cn1ccnc1C(N)=S)C(=O)OCCOC(=O)c1ccc(-c2c3nc(c(-c4cc(S(=O)(=O)[O-])ccc4F)c4ccc([nH]4)c(-c4cc(S(=O)(=O)[O-])ccc4F)c4nc(c(-c5cc(S(=O)(=O)[O-])ccc5F)c5ccc2[nH]5)C=C4)C=C3)cc1
REMARK SMILES IDX 16 1 15 2 13 3 14 4 2 5 1 6 3 7 4 8 5 9 6 10 9 11 7 12 8 13
REMARK SMILES IDX 10 14 12 15 11 16 17 19 18 20 19 21 20 22 21 23 22 24 83 25
REMARK SMILES IDX 23 26 82 27 24 28 25 29 26 30 76 31 27 32 81 33 75 34 77 35
REMARK SMILES IDX 28 36 80 37 74 38 73 39 29 41 61 42 41 43 60 44 42 45 45 46
REMARK SMILES IDX 59 47 78 48 43 49 44 50 58 52 79 53 46 54 30 55 31 56 39 57
REMARK SMILES IDX 32 58 38 59 40 60 37 61 33 62 34 63 35 64 36 65 62 66 63 67
REMARK SMILES IDX 71 68 64 69 70 70 72 71 69 72 65 73 66 74 67 75 68 76 47 77
REMARK SMILES IDX 48 78 56 79 49 80 55 81 57 82 54 83 50 84 51 85 52 86 53 87
REMARK H PARENT 11 17 11 18 77 40 45 51
REMARK Flexibility Score: inf
ROOT
ATOM      1  C   UNL     1       1.080  -4.482  -1.862  1.00  0.00     0.274 C 
ENDROOT
BRANCH   1   2
ATOM      2  O   UNL     1       0.449  -3.641  -0.868  1.00  0.00    -0.462 OA
BRANCH   2   3
ATOM      3  C   UNL     1       1.257  -2.700  -0.302  1.00  0.00     0.313 C 
ATOM      4  O   UNL     1       2.483  -2.714  -0.403  1.00  0.00    -0.252 OA
BRANCH   3   5
ATOM      5  C   UNL     1       0.499  -1.643   0.529  1.00  0.00     0.080 C 
ATOM      6  C   UNL     1       1.184  -0.272   0.344  1.00  0.00     0.025 C 
ATOM      7  C   UNL     1       0.773  -2.111   1.974  1.00  0.00     0.025 C 
BRANCH   5   8
ATOM      8  C   UNL     1      -1.056  -1.571   0.352  1.00  0.00     0.142 C 
BRANCH   8   9
ATOM      9  N   UNL     1      -1.681  -0.895  -0.778  1.00  0.00    -0.328 N 
ATOM     10  C   UNL     1      -2.334  -1.572  -1.791  1.00  0.00     0.108 A 
ATOM     11  C   UNL     1      -1.893   0.459  -1.007  1.00  0.00     0.167 A 
ATOM     12  C   UNL     1      -2.763  -0.613  -2.672  1.00  0.00     0.131 A 
ATOM     13  N   UNL     1      -2.451   0.627  -2.200  1.00  0.00    -0.235 NA
BRANCH  11  14
ATOM     14  C   UNL     1      -1.571   1.647  -0.244  1.00  0.00     0.140 C 
ATOM     15  S   UNL     1      -1.718   1.773   1.408  1.00  0.00    -0.057 S 
BRANCH  14  16
ATOM     16  N   UNL     1      -1.222   2.739  -0.997  1.00  0.00    -0.387 N 
ATOM     17  H   UNL     1      -1.138   2.656  -1.975  1.00  0.00     0.157 HD
ATOM     18  H   UNL     1      -1.057   3.606  -0.561  1.00  0.00     0.157 HD
ENDBRANCH  14  16
ENDBRANCH  11  14
ENDBRANCH   8   9
ENDBRANCH   5   8
ENDBRANCH   3   5
ENDBRANCH   2   3
ENDBRANCH   1   2
BRANCH   1  19
ATOM     19  C   UNL     1       0.702  -4.050  -3.281  1.00  0.00     0.275 C 
BRANCH  19  20
ATOM     20  O   UNL     1       1.489  -2.970  -3.809  1.00  0.00    -0.458 OA
BRANCH  20  21
ATOM     21  C   UNL     1       1.097  -1.757  -3.386  1.00  0.00     0.338 C 
ATOM     22  O   UNL     1       0.668  -1.479  -2.275  1.00  0.00    -0.246 OA
BRANCH  21  23
ATOM     23  C   UNL     1       0.888  -0.800  -4.452  1.00  0.00     0.060 A 
ATOM     24  C   UNL     1       0.308   0.419  -4.067  1.00  0.00     0.016 A 
ATOM     25  C   UNL     1       0.947  -1.219  -5.778  1.00  0.00     0.016 A 
ATOM     26  C   UNL     1      -0.383   1.147  -4.998  1.00  0.00     0.010 A 
ATOM     27  C   UNL     1       0.290  -0.466  -6.718  1.00  0.00     0.010 A 
ATOM     28  C   UNL     1      -0.417   0.670  -6.307  1.00  0.00    -0.014 A 
BRANCH  28  29
ATOM     29  C   UNL     1      -0.975   1.545  -7.316  1.00  0.00     0.031 A 
ATOM     30  C   UNL     1      -0.198   2.814  -7.418  1.00  0.00     0.074 A 
ATOM     31  C   UNL     1      -1.925   1.107  -8.163  1.00  0.00     0.049 A 
ATOM     32  N   UNL     1      -0.630   4.024  -7.288  1.00  0.00    -0.248 NA
ATOM     33  C   UNL     1       1.280   2.720  -7.436  1.00  0.00     0.031 C 
ATOM     34  C   UNL     1      -2.549  -0.216  -8.216  1.00  0.00     0.029 A 
ATOM     35  N   UNL     1      -2.422   1.709  -9.270  1.00  0.00    -0.354 N 
ATOM     36  C   UNL     1       0.483   4.837  -7.478  1.00  0.00     0.074 A 
ATOM     37  C   UNL     1       1.635   3.997  -7.317  1.00  0.00     0.031 C 
ATOM     38  C   UNL     1      -3.105  -0.396  -9.436  1.00  0.00     0.029 A 
ATOM     39  C   UNL     1      -2.968   0.831 -10.203  1.00  0.00     0.049 A 
ATOM     40  H   UNL     1      -2.401   2.684  -9.403  1.00  0.00     0.167 HD
ATOM     41  C   UNL     1       0.362   6.065  -8.046  1.00  0.00     0.034 A 
ATOM     42  C   UNL     1      -3.158   1.086 -11.529  1.00  0.00     0.034 A 
ATOM     43  C   UNL     1      -0.991   6.556  -7.928  1.00  0.00     0.049 A 
ATOM     44  C   UNL     1      -3.156   2.573 -11.665  1.00  0.00     0.074 A 
ATOM     45  C   UNL     1      -1.828   6.771  -6.848  1.00  0.00     0.029 A 
ATOM     46  N   UNL     1      -1.818   6.466  -9.027  1.00  0.00    -0.354 N 
ATOM     47  N   UNL     1      -4.071   3.333 -11.120  1.00  0.00    -0.248 NA
ATOM     48  C   UNL     1      -1.875   3.229 -11.905  1.00  0.00     0.031 C 
ATOM     49  C   UNL     1      -3.092   6.259  -7.264  1.00  0.00     0.029 A 
ATOM     50  C   UNL     1      -2.991   5.880  -8.605  1.00  0.00     0.049 A 
ATOM     51  H   UNL     1      -1.609   6.763  -9.941  1.00  0.00     0.167 HD
ATOM     52  C   UNL     1      -3.375   4.395 -10.560  1.00  0.00     0.074 A 
ATOM     53  C   UNL     1      -2.029   4.311 -11.133  1.00  0.00     0.031 C 
ATOM     54  C   UNL     1      -3.833   5.051  -9.450  1.00  0.00     0.034 A 
BRANCH  41  55
ATOM     55  C   UNL     1       1.363   6.625  -9.027  1.00  0.00     0.023 A 
ATOM     56  C   UNL     1       1.151   7.933  -9.496  1.00  0.00     0.031 A 
ATOM     57  C   UNL     1       2.329   5.866  -9.733  1.00  0.00     0.131 A 
ATOM     58  C   UNL     1       1.811   8.399 -10.646  1.00  0.00     0.055 A 
ATOM     59  C   UNL     1       3.034   6.359 -10.832  1.00  0.00     0.041 A 
ATOM     60  F   UNL     1       2.576   4.577  -9.473  1.00  0.00    -0.206 F 
ATOM     61  C   UNL     1       2.756   7.623 -11.314  1.00  0.00     0.022 A 
BRANCH  58  62
ATOM     62  S   UNL     1       1.283   9.976 -11.358  1.00  0.00     0.124 S 
ATOM     63  O   UNL     1      -0.147   9.753 -11.541  1.00  0.00    -0.237 OA
ATOM     64  O   UNL     1       1.661  10.919 -10.311  1.00  0.00    -0.237 OA
ATOM     65  O   UNL     1       2.063  10.068 -12.590  1.00  0.00    -0.744 OA
ENDBRANCH  58  62
ENDBRANCH  41  55
BRANCH  42  66
ATOM     66  C   UNL     1      -2.935   0.136 -12.668  1.00  0.00     0.023 A 
ATOM     67  C   UNL     1      -3.408   0.370 -13.981  1.00  0.00     0.031 A 
ATOM     68  C   UNL     1      -2.041  -0.952 -12.517  1.00  0.00     0.131 A 
ATOM     69  C   UNL     1      -2.997  -0.466 -15.054  1.00  0.00     0.055 A 
ATOM     70  C   UNL     1      -1.643  -1.772 -13.576  1.00  0.00     0.041 A 
ATOM     71  F   UNL     1      -1.447  -1.214 -11.343  1.00  0.00    -0.206 F 
ATOM     72  C   UNL     1      -2.113  -1.527 -14.853  1.00  0.00     0.022 A 
BRANCH  69  73
ATOM     73  S   UNL     1      -3.542  -0.140 -16.767  1.00  0.00     0.124 S 
ATOM     74  O   UNL     1      -4.951  -0.512 -16.719  1.00  0.00    -0.237 OA
ATOM     75  O   UNL     1      -3.249   1.280 -16.928  1.00  0.00    -0.237 OA
ATOM     76  O   UNL     1      -2.700  -1.030 -17.569  1.00  0.00    -0.744 OA
ENDBRANCH  69  73
ENDBRANCH  42  66
BRANCH  54  77
ATOM     77  C   UNL     1      -5.234   4.755  -8.935  1.00  0.00     0.023 A 
ATOM     78  C   UNL     1      -5.725   3.476  -8.573  1.00  0.00     0.031 A 
ATOM     79  C   UNL     1      -6.057   5.862  -8.660  1.00  0.00     0.131 A 
ATOM     80  C   UNL     1      -6.994   3.350  -7.966  1.00  0.00     0.055 A 
ATOM     81  C   UNL     1      -7.296   5.736  -8.035  1.00  0.00     0.041 A 
ATOM     82  F   UNL     1      -5.645   7.106  -8.958  1.00  0.00    -0.206 F 
ATOM     83  C   UNL     1      -7.772   4.478  -7.690  1.00  0.00     0.022 A 
BRANCH  80  84
ATOM     84  S   UNL     1      -7.679   1.711  -7.547  1.00  0.00     0.124 S 
ATOM     85  O   UNL     1      -7.449   0.927  -8.755  1.00  0.00    -0.237 OA
ATOM     86  O   UNL     1      -6.895   1.327  -6.377  1.00  0.00    -0.237 OA
ATOM     87  O   UNL     1      -9.089   1.993  -7.266  1.00  0.00    -0.744 OA
ENDBRANCH  80  84
ENDBRANCH  54  77
ENDBRANCH  28  29
ENDBRANCH  21  23
ENDBRANCH  20  21
ENDBRANCH  19  20
ENDBRANCH   1  19
TORSDOF 18
