REMARK SMILES Cc1c(C[NH2+][C@@H]2CCCc3ccccc32)c(C(=O)OCCOC(=O)c2ccc(-c3c4nc(c(-c5cc(S(=O)(=O)[O-])ccc5F)c5ccc([nH]5)c(-c5cc(S(=O)(=O)[O-])ccc5F)c5nc(c(-c6cc(S(=O)(=O)[O-])ccc6F)c6ccc3[nH]6)C=C5)C=C4)cc2)c(C)n1Cc1cccc(Cl)c1
REMARK SMILES IDX 20 1 19 2 17 3 18 4 16 5 1 6 2 7 3 8 90 9 88 10 89 11 4 12
REMARK SMILES IDX 5 13 6 16 7 17 15 18 8 19 10 20 14 21 9 22 11 23 13 24 12 25
REMARK SMILES IDX 91 26 92 27 93 28 98 29 94 30 96 31 95 32 97 33 21 34 22 35
REMARK SMILES IDX 23 36 24 37 25 38 26 39 87 40 27 41 86 42 28 43 29 44 30 45
REMARK SMILES IDX 80 46 31 47 85 48 79 49 81 50 32 51 84 52 78 53 77 54 33 56
REMARK SMILES IDX 65 57 45 58 64 59 46 60 49 61 63 62 82 63 47 64 48 65 62 67
REMARK SMILES IDX 83 68 50 69 34 70 35 71 43 72 36 73 42 74 44 75 41 76 37 77
REMARK SMILES IDX 38 78 39 79 40 80 66 81 67 82 75 83 68 84 74 85 76 86 73 87
REMARK SMILES IDX 69 88 70 89 71 90 72 91 51 92 52 93 60 94 53 95 59 96 61 97
REMARK SMILES IDX 58 98 54 99 55 100 56 101 57 102
REMARK H PARENT 5 14 5 15 81 55 49 66
REMARK Flexibility Score: inf
ROOT
ATOM      1  C   UNL     1       1.050  -7.100  -2.588  1.00  0.00     0.275 C 
ENDROOT
BRANCH   1   2
ATOM      2  O   UNL     1       0.909  -5.656  -2.476  1.00  0.00    -0.458 OA
BRANCH   2   3
ATOM      3  C   UNL     1       0.142  -5.164  -1.467  1.00  0.00     0.340 C 
ATOM      4  O   UNL     1      -0.506  -5.886  -0.679  1.00  0.00    -0.246 OA
BRANCH   3   5
ATOM      5  C   UNL     1       0.106  -3.703  -1.419  1.00  0.00     0.089 A 
ATOM      6  C   UNL     1       0.965  -0.308  -0.103  1.00  0.00     0.065 C 
ATOM      7  C   UNL     1       0.491  -1.536  -0.817  1.00  0.00     0.025 A 
ATOM      8  C   UNL     1       0.763  -2.860  -0.466  1.00  0.00     0.042 A 
ATOM      9  N   UNL     1      -0.296  -1.548  -1.967  1.00  0.00    -0.343 N 
ATOM     10  C   UNL     1      -0.680  -2.865  -2.212  1.00  0.00     0.030 A 
ATOM     11  C   UNL     1      -1.764  -3.282  -3.145  1.00  0.00     0.065 C 
BRANCH   8  12
ATOM     12  C   UNL     1       1.612  -3.350   0.681  1.00  0.00     0.300 C 
BRANCH  12  13
ATOM     13  N   UNL     1       0.785  -4.195   1.547  1.00  0.00    -0.336 N 
ATOM     14  H   UNL     1       0.349  -4.920   0.977  1.00  0.00     0.347 HD
ATOM     15  H   UNL     1       0.088  -3.596   1.989  1.00  0.00     0.347 HD
BRANCH  13  16
ATOM     16  C   UNL     1       1.562  -4.840   2.616  1.00  0.00     0.214 C 
ATOM     17  C   UNL     1       2.215  -6.146   2.114  1.00  0.00     0.070 C 
ATOM     18  C   UNL     1       0.671  -5.094   3.833  1.00  0.00     0.012 A 
ATOM     19  C   UNL     1       1.223  -7.303   2.049  1.00  0.00     0.011 C 
ATOM     20  C   UNL     1       0.222  -6.383   4.184  1.00  0.00    -0.039 A 
ATOM     21  C   UNL     1       0.263  -3.998   4.616  1.00  0.00     0.010 A 
ATOM     22  C   UNL     1       0.670  -7.612   3.435  1.00  0.00     0.036 C 
ATOM     23  C   UNL     1      -0.615  -6.546   5.301  1.00  0.00     0.004 A 
ATOM     24  C   UNL     1      -0.577  -4.173   5.716  1.00  0.00     0.001 A 
ATOM     25  C   UNL     1      -1.018  -5.447   6.058  1.00  0.00     0.000 A 
ENDBRANCH  13  16
ENDBRANCH  12  13
ENDBRANCH   8  12
BRANCH   9  26
ATOM     26  C   UNL     1      -0.810  -0.357  -2.671  1.00  0.00     0.157 C 
BRANCH  26  27
ATOM     27  C   UNL     1      -0.198  -0.051  -4.030  1.00  0.00    -0.027 A 
ATOM     28  C   UNL     1       0.389   1.203  -4.284  1.00  0.00     0.005 A 
ATOM     29  C   UNL     1      -0.316  -0.932  -5.116  1.00  0.00     0.026 A 
ATOM     30  C   UNL     1       0.835   1.552  -5.568  1.00  0.00     0.002 A 
ATOM     31  C   UNL     1       0.125  -0.584  -6.395  1.00  0.00     0.041 A 
ATOM     32  C   UNL     1       0.699   0.658  -6.628  1.00  0.00     0.020 A 
ATOM     33  Cl  UNL     1      -0.088  -1.691  -7.698  1.00  0.00    -0.084 Cl
ENDBRANCH  26  27
ENDBRANCH   9  26
ENDBRANCH   3   5
ENDBRANCH   2   3
ENDBRANCH   1   2
BRANCH   1  34
ATOM     34  C   UNL     1       2.531  -7.505  -2.889  1.00  0.00     0.275 C 
BRANCH  34  35
ATOM     35  O   UNL     1       3.347  -8.214  -1.859  1.00  0.00    -0.458 OA
BRANCH  35  36
ATOM     36  C   UNL     1       4.496  -7.591  -1.395  1.00  0.00     0.338 C 
ATOM     37  O   UNL     1       4.645  -6.380  -1.498  1.00  0.00    -0.246 OA
BRANCH  36  38
ATOM     38  C   UNL     1       5.579  -8.474  -0.670  1.00  0.00     0.060 A 
ATOM     39  C   UNL     1       5.792  -8.313   0.690  1.00  0.00     0.016 A 
ATOM     40  C   UNL     1       6.603  -9.254  -1.269  1.00  0.00     0.016 A 
ATOM     41  C   UNL     1       6.896  -8.974   1.401  1.00  0.00     0.010 A 
ATOM     42  C   UNL     1       7.794  -9.870  -0.531  1.00  0.00     0.010 A 
ATOM     43  C   UNL     1       8.004  -9.772   0.863  1.00  0.00    -0.014 A 
BRANCH  43  44
ATOM     44  C   UNL     1       9.415 -10.028   1.885  1.00  0.00     0.031 A 
ATOM     45  C   UNL     1       9.364  -8.746   2.644  1.00  0.00     0.074 A 
ATOM     46  C   UNL     1      10.614 -10.772   2.223  1.00  0.00     0.049 A 
ATOM     47  N   UNL     1       9.369  -7.642   1.950  1.00  0.00    -0.248 NA
ATOM     48  C   UNL     1       8.854  -8.590   4.007  1.00  0.00     0.031 C 
ATOM     49  C   UNL     1      11.235 -11.925   1.520  1.00  0.00     0.029 A 
ATOM     50  N   UNL     1      11.645 -10.668   3.306  1.00  0.00    -0.354 N 
ATOM     51  C   UNL     1       9.232  -6.612   2.835  1.00  0.00     0.074 A 
ATOM     52  C   UNL     1       8.676  -7.259   4.023  1.00  0.00     0.031 C 
ATOM     53  C   UNL     1      12.302 -12.486   2.191  1.00  0.00     0.029 A 
ATOM     54  C   UNL     1      12.648 -11.779   3.438  1.00  0.00     0.049 A 
ATOM     55  H   UNL     1      11.665  -9.894   3.913  1.00  0.00     0.167 HD
ATOM     56  C   UNL     1      10.235  -5.690   2.746  1.00  0.00     0.034 A 
ATOM     57  C   UNL     1      13.718 -12.056   4.367  1.00  0.00     0.034 A 
ATOM     58  C   UNL     1      11.264  -5.951   3.716  1.00  0.00     0.049 A 
ATOM     59  C   UNL     1      14.243 -10.757   4.766  1.00  0.00     0.074 A 
ATOM     60  C   UNL     1      11.227  -6.367   5.033  1.00  0.00     0.029 A 
ATOM     61  N   UNL     1      12.510  -6.280   3.229  1.00  0.00    -0.354 N 
ATOM     62  N   UNL     1      15.010 -10.061   3.989  1.00  0.00    -0.248 NA
ATOM     63  C   UNL     1      14.008 -10.212   6.095  1.00  0.00     0.031 C 
ATOM     64  C   UNL     1      12.190  -7.392   5.093  1.00  0.00     0.029 A 
ATOM     65  C   UNL     1      13.081  -7.234   4.038  1.00  0.00     0.049 A 
ATOM     66  H   UNL     1      12.927  -5.892   2.426  1.00  0.00     0.167 HD
ATOM     67  C   UNL     1      14.809  -8.806   4.469  1.00  0.00     0.074 A 
ATOM     68  C   UNL     1      14.464  -8.978   5.874  1.00  0.00     0.031 C 
ATOM     69  C   UNL     1      14.261  -7.936   3.585  1.00  0.00     0.034 A 
BRANCH  56  70
ATOM     70  C   UNL     1      10.522  -5.248   1.324  1.00  0.00     0.023 A 
ATOM     71  C   UNL     1      10.217  -3.938   0.949  1.00  0.00     0.031 A 
ATOM     72  C   UNL     1      11.000  -6.123   0.315  1.00  0.00     0.131 A 
ATOM     73  C   UNL     1      10.315  -3.560  -0.402  1.00  0.00     0.055 A 
ATOM     74  C   UNL     1      11.024  -5.766  -1.031  1.00  0.00     0.041 A 
ATOM     75  F   UNL     1      11.469  -7.344   0.622  1.00  0.00    -0.206 F 
ATOM     76  C   UNL     1      10.672  -4.476  -1.399  1.00  0.00     0.022 A 
BRANCH  73  77
ATOM     77  S   UNL     1      10.008  -1.830  -0.836  1.00  0.00     0.124 S 
ATOM     78  O   UNL     1       8.592  -1.675  -0.517  1.00  0.00    -0.237 OA
ATOM     79  O   UNL     1      10.931  -1.121   0.047  1.00  0.00    -0.237 OA
ATOM     80  O   UNL     1      10.339  -1.760  -2.257  1.00  0.00    -0.744 OA
ENDBRANCH  73  77
ENDBRANCH  56  70
BRANCH  57  81
ATOM     81  C   UNL     1      14.780 -13.126   5.050  1.00  0.00     0.023 A 
ATOM     82  C   UNL     1      16.113 -12.777   5.617  1.00  0.00     0.031 A 
ATOM     83  C   UNL     1      14.281 -14.324   5.581  1.00  0.00     0.131 A 
ATOM     84  C   UNL     1      16.798 -13.572   6.622  1.00  0.00     0.055 A 
ATOM     85  C   UNL     1      14.959 -15.092   6.578  1.00  0.00     0.041 A 
ATOM     86  F   UNL     1      13.055 -14.743   5.243  1.00  0.00    -0.206 F 
ATOM     87  C   UNL     1      16.194 -14.720   7.109  1.00  0.00     0.022 A 
BRANCH  84  88
ATOM     88  S   UNL     1      18.408 -13.101   7.474  1.00  0.00     0.124 S 
ATOM     89  O   UNL     1      19.409 -13.305   6.435  1.00  0.00    -0.237 OA
ATOM     90  O   UNL     1      18.173 -11.725   7.897  1.00  0.00    -0.237 OA
ATOM     91  O   UNL     1      18.505 -14.052   8.588  1.00  0.00    -0.744 OA
ENDBRANCH  84  88
ENDBRANCH  57  81
BRANCH  69  92
ATOM     92  C   UNL     1      14.817  -7.914   2.165  1.00  0.00     0.023 A 
ATOM     93  C   UNL     1      15.053  -9.031   1.318  1.00  0.00     0.031 A 
ATOM     94  C   UNL     1      15.191  -6.659   1.660  1.00  0.00     0.131 A 
ATOM     95  C   UNL     1      15.639  -8.861   0.044  1.00  0.00     0.055 A 
ATOM     96  C   UNL     1      15.732  -6.486   0.387  1.00  0.00     0.041 A 
ATOM     97  F   UNL     1      15.030  -5.558   2.412  1.00  0.00    -0.206 F 
ATOM     98  C   UNL     1      15.967  -7.588  -0.423  1.00  0.00     0.022 A 
BRANCH  95  99
ATOM     99  S   UNL     1      16.053 -10.300  -1.005  1.00  0.00     0.124 S 
ATOM    100  O   UNL     1      16.742 -11.201  -0.088  1.00  0.00    -0.237 OA
ATOM    101  O   UNL     1      14.743 -10.745  -1.470  1.00  0.00    -0.237 OA
ATOM    102  O   UNL     1      16.909  -9.728  -2.047  1.00  0.00    -0.744 OA
ENDBRANCH  95  99
ENDBRANCH  69  92
ENDBRANCH  43  44
ENDBRANCH  36  38
ENDBRANCH  35  36
ENDBRANCH  34  35
ENDBRANCH   1  34
TORSDOF 19
