REMARK SMILES CC(=O)Nc1cccc(-c2ccc(F)c(C(=O)OCCOC(=O)c3ccc(-c4c5nc(c(-c6cc(S(=O)(=O)[O-])ccc6F)c6ccc([nH]6)c(-c6cc(S(=O)(=O)[O-])ccc6F)c6nc(c(-c7cc(S(=O)(=O)[O-])ccc7F)c7ccc4[nH]7)C=C6)C=C5)cc3)c2)c1
REMARK SMILES IDX 20 1 19 2 18 3 16 4 17 5 15 6 10 7 11 8 87 9 12 10 13 11
REMARK SMILES IDX 14 12 9 13 5 14 6 15 88 16 7 17 8 18 4 19 1 20 2 21 3 22
REMARK SMILES IDX 21 24 22 25 23 26 24 27 25 28 86 29 26 30 85 31 27 32 28 33
REMARK SMILES IDX 29 34 79 35 30 36 84 37 78 38 80 39 31 40 83 41 77 42 76 43
REMARK SMILES IDX 32 45 64 46 44 47 63 48 45 49 48 50 62 51 81 52 46 53 47 54
REMARK SMILES IDX 61 56 82 57 49 58 33 59 34 60 42 61 35 62 41 63 43 64 40 65
REMARK SMILES IDX 36 66 37 67 38 68 39 69 65 70 66 71 74 72 67 73 73 74 75 75
REMARK SMILES IDX 72 76 68 77 69 78 70 79 71 80 50 81 51 82 59 83 52 84 58 85
REMARK SMILES IDX 60 86 57 87 53 88 54 89 55 90 56 91
REMARK H PARENT 4 23 80 44 48 55
REMARK Flexibility Score: inf
ROOT
ATOM      1  C   UNL     1       9.975   2.562  -1.089  1.00  0.00     0.275 C 
ENDROOT
BRANCH   1   2
ATOM      2  C   UNL     1       8.719   1.841  -1.583  1.00  0.00     0.275 C 
BRANCH   2   3
ATOM      3  O   UNL     1       7.780   1.656  -0.505  1.00  0.00    -0.458 OA
BRANCH   3   4
ATOM      4  C   UNL     1       7.530   0.374  -0.131  1.00  0.00     0.341 C 
ATOM      5  O   UNL     1       7.987  -0.627  -0.654  1.00  0.00    -0.246 OA
BRANCH   4   6
ATOM      6  C   UNL     1       6.639   0.366   1.053  1.00  0.00     0.096 A 
ATOM      7  C   UNL     1       4.827   1.333   2.368  1.00  0.00    -0.017 A 
ATOM      8  C   UNL     1       5.029   0.351   3.349  1.00  0.00     0.012 A 
ATOM      9  C   UNL     1       5.681   1.364   1.248  1.00  0.00     0.027 A 
ATOM     10  C   UNL     1       5.984  -0.646   3.157  1.00  0.00     0.041 A 
ATOM     11  C   UNL     1       6.745  -0.661   1.991  1.00  0.00     0.137 A 
ATOM     12  F   UNL     1       7.627  -1.657   1.829  1.00  0.00    -0.206 F 
BRANCH   7  13
ATOM     13  C   UNL     1       3.630   2.178   2.389  1.00  0.00    -0.016 A 
ATOM     14  C   UNL     1       1.500   2.706   1.307  1.00  0.00     0.041 A 
ATOM     15  C   UNL     1       1.268   3.683   2.274  1.00  0.00     0.026 A 
ATOM     16  C   UNL     1       2.690   1.992   1.359  1.00  0.00     0.034 A 
ATOM     17  C   UNL     1       2.181   3.876   3.318  1.00  0.00     0.003 A 
ATOM     18  C   UNL     1       3.354   3.117   3.384  1.00  0.00     0.009 A 
BRANCH  14  19
ATOM     19  N   UNL     1       0.553   2.524   0.286  1.00  0.00    -0.326 N 
ATOM     20  C   UNL     1       0.848   0.085  -0.178  1.00  0.00     0.114 C 
ATOM     21  C   UNL     1       0.312   1.451  -0.529  1.00  0.00     0.221 C 
ATOM     22  O   UNL     1      -0.409   1.605  -1.518  1.00  0.00    -0.275 OA
ATOM     23  H   UNL     1      -0.035   3.298   0.130  1.00  0.00     0.169 HD
ENDBRANCH  14  19
ENDBRANCH   7  13
ENDBRANCH   4   6
ENDBRANCH   3   4
ENDBRANCH   2   3
ENDBRANCH   1   2
BRANCH   1  24
ATOM     24  O   UNL     1      10.688   1.743  -0.142  1.00  0.00    -0.458 OA
BRANCH  24  25
ATOM     25  C   UNL     1      10.568   2.127   1.152  1.00  0.00     0.338 C 
ATOM     26  O   UNL     1      10.008   3.124   1.576  1.00  0.00    -0.246 OA
BRANCH  25  27
ATOM     27  C   UNL     1      11.046   1.049   2.031  1.00  0.00     0.060 A 
ATOM     28  C   UNL     1      10.068   0.230   2.584  1.00  0.00     0.016 A 
ATOM     29  C   UNL     1      12.376   0.904   2.415  1.00  0.00     0.016 A 
ATOM     30  C   UNL     1      10.393  -0.730   3.533  1.00  0.00     0.010 A 
ATOM     31  C   UNL     1      12.712  -0.080   3.362  1.00  0.00     0.010 A 
ATOM     32  C   UNL     1      11.719  -0.892   3.947  1.00  0.00    -0.014 A 
BRANCH  32  33
ATOM     33  C   UNL     1      12.004  -1.845   5.057  1.00  0.00     0.031 A 
ATOM     34  C   UNL     1      12.464  -1.330   6.395  1.00  0.00     0.074 A 
ATOM     35  C   UNL     1      11.759  -3.162   4.902  1.00  0.00     0.049 A 
ATOM     36  N   UNL     1      12.769  -1.993   7.483  1.00  0.00    -0.248 NA
ATOM     37  C   UNL     1      12.609   0.126   6.518  1.00  0.00     0.031 C 
ATOM     38  C   UNL     1      11.267  -3.786   3.673  1.00  0.00     0.029 A 
ATOM     39  N   UNL     1      11.870  -4.208   5.785  1.00  0.00    -0.354 N 
ATOM     40  C   UNL     1      13.174  -1.038   8.411  1.00  0.00     0.074 A 
ATOM     41  C   UNL     1      13.109   0.244   7.739  1.00  0.00     0.031 C 
ATOM     42  C   UNL     1      11.096  -5.100   3.887  1.00  0.00     0.029 A 
ATOM     43  C   UNL     1      11.525  -5.425   5.244  1.00  0.00     0.049 A 
ATOM     44  H   UNL     1      12.168  -4.098   6.717  1.00  0.00     0.167 HD
ATOM     45  C   UNL     1      13.555  -1.212   9.704  1.00  0.00     0.034 A 
ATOM     46  C   UNL     1      11.575  -6.667   5.765  1.00  0.00     0.034 A 
ATOM     47  C   UNL     1      13.602  -2.497  10.364  1.00  0.00     0.049 A 
ATOM     48  C   UNL     1      12.037  -6.846   7.187  1.00  0.00     0.074 A 
ATOM     49  C   UNL     1      13.961  -2.785  11.670  1.00  0.00     0.029 A 
ATOM     50  N   UNL     1      13.287  -3.715   9.769  1.00  0.00    -0.354 N 
ATOM     51  N   UNL     1      12.436  -5.938   8.047  1.00  0.00    -0.248 NA
ATOM     52  C   UNL     1      12.046  -8.217   7.709  1.00  0.00     0.031 C 
ATOM     53  C   UNL     1      13.935  -4.175  11.841  1.00  0.00     0.029 A 
ATOM     54  C   UNL     1      13.474  -4.755  10.671  1.00  0.00     0.049 A 
ATOM     55  H   UNL     1      12.975  -3.824   8.841  1.00  0.00     0.167 HD
ATOM     56  C   UNL     1      12.733  -6.629   9.219  1.00  0.00     0.074 A 
ATOM     57  C   UNL     1      12.437  -8.024   8.960  1.00  0.00     0.031 C 
ATOM     58  C   UNL     1      13.207  -6.152  10.400  1.00  0.00     0.034 A 
BRANCH  45  59
ATOM     59  C   UNL     1      14.021   0.019  10.453  1.00  0.00     0.023 A 
ATOM     60  C   UNL     1      13.180   1.125  10.673  1.00  0.00     0.031 A 
ATOM     61  C   UNL     1      15.356   0.119  10.887  1.00  0.00     0.131 A 
ATOM     62  C   UNL     1      13.706   2.313  11.205  1.00  0.00     0.055 A 
ATOM     63  C   UNL     1      15.848   1.270  11.507  1.00  0.00     0.041 A 
ATOM     64  F   UNL     1      16.217  -0.892  10.690  1.00  0.00    -0.206 F 
ATOM     65  C   UNL     1      15.029   2.385  11.647  1.00  0.00     0.022 A 
BRANCH  62  66
ATOM     66  S   UNL     1      12.697   3.820  11.123  1.00  0.00     0.124 S 
ATOM     67  O   UNL     1      12.382   3.888   9.697  1.00  0.00    -0.237 OA
ATOM     68  O   UNL     1      11.584   3.503  12.009  1.00  0.00    -0.237 OA
ATOM     69  O   UNL     1      13.601   4.865  11.601  1.00  0.00    -0.744 OA
ENDBRANCH  62  66
ENDBRANCH  45  59
BRANCH  46  70
ATOM     70  C   UNL     1      11.234  -7.842   4.911  1.00  0.00     0.023 A 
ATOM     71  C   UNL     1      10.125  -8.660   5.182  1.00  0.00     0.031 A 
ATOM     72  C   UNL     1      12.036  -8.165   3.800  1.00  0.00     0.131 A 
ATOM     73  C   UNL     1       9.863  -9.772   4.365  1.00  0.00     0.055 A 
ATOM     74  C   UNL     1      11.741  -9.240   2.962  1.00  0.00     0.041 A 
ATOM     75  F   UNL     1      13.110  -7.418   3.499  1.00  0.00    -0.206 F 
ATOM     76  C   UNL     1      10.652 -10.056   3.247  1.00  0.00     0.022 A 
BRANCH  73  77
ATOM     77  S   UNL     1       8.498 -10.883   4.810  1.00  0.00     0.124 S 
ATOM     78  O   UNL     1       8.919 -11.362   6.121  1.00  0.00    -0.237 OA
ATOM     79  O   UNL     1       7.352  -9.979   4.795  1.00  0.00    -0.237 OA
ATOM     80  O   UNL     1       8.512 -11.883   3.745  1.00  0.00    -0.744 OA
ENDBRANCH  73  77
ENDBRANCH  46  70
BRANCH  58  81
ATOM     81  C   UNL     1      13.402  -7.158  11.513  1.00  0.00     0.023 A 
ATOM     82  C   UNL     1      14.331  -8.210  11.409  1.00  0.00     0.031 A 
ATOM     83  C   UNL     1      12.611  -7.093  12.675  1.00  0.00     0.131 A 
ATOM     84  C   UNL     1      14.389  -9.195  12.408  1.00  0.00     0.055 A 
ATOM     85  C   UNL     1      12.726  -8.035  13.699  1.00  0.00     0.041 A 
ATOM     86  F   UNL     1      11.704  -6.116  12.831  1.00  0.00    -0.206 F 
ATOM     87  C   UNL     1      13.605  -9.105  13.560  1.00  0.00     0.022 A 
BRANCH  84  88
ATOM     88  S   UNL     1      15.402 -10.673  12.117  1.00  0.00     0.124 S 
ATOM     89  O   UNL     1      14.877 -11.154  10.842  1.00  0.00    -0.237 OA
ATOM     90  O   UNL     1      16.753 -10.123  12.084  1.00  0.00    -0.237 OA
ATOM     91  O   UNL     1      15.106 -11.524  13.268  1.00  0.00    -0.744 OA
ENDBRANCH  84  88
ENDBRANCH  58  81
ENDBRANCH  32  33
ENDBRANCH  25  27
ENDBRANCH  24  25
ENDBRANCH   1  24
TORSDOF 16
