REMARK SMILES C=CCN(CC(=O)OCCOC(=O)c1ccc(-c2c3nc(c(-c4cc(S(=O)(=O)[O-])ccc4F)c4ccc([nH]4)c(-c4cc(S(=O)(=O)[O-])ccc4F)c4nc(c(-c5cc(S(=O)(=O)[O-])ccc5F)c5ccc2[nH]5)C=C4)C=C3)cc1)C(=O)[C@@H](C[NH3+])C(C)C
REMARK SMILES IDX 9 1 8 2 6 3 7 4 5 5 4 6 3 7 2 8 1 9 77 10 78 11 79 12 80 13
REMARK SMILES IDX 81 14 82 18 83 19 84 20 10 21 11 22 12 23 13 24 14 25 15 26
REMARK SMILES IDX 76 27 16 28 75 29 17 30 18 31 19 32 69 33 20 34 74 35 68 36
REMARK SMILES IDX 70 37 21 38 73 39 67 40 66 41 22 43 54 44 34 45 53 46 35 47
REMARK SMILES IDX 38 48 52 49 71 50 36 51 37 52 51 54 72 55 39 56 23 57 24 58
REMARK SMILES IDX 32 59 25 60 31 61 33 62 30 63 26 64 27 65 28 66 29 67 55 68
REMARK SMILES IDX 56 69 64 70 57 71 63 72 65 73 62 74 58 75 59 76 60 77 61 78
REMARK SMILES IDX 40 79 41 80 49 81 42 82 48 83 50 84 47 85 43 86 44 87 45 88
REMARK SMILES IDX 46 89
REMARK H PARENT 81 15 81 16 81 17 70 42 38 53
REMARK Flexibility Score: inf
ROOT
ATOM      1  C   UNL     1      -6.008  -2.600   0.023  1.00  0.00     0.274 C 
ENDROOT
BRANCH   1   2
ATOM      2  O   UNL     1      -4.639  -2.158  -0.062  1.00  0.00    -0.461 OA
BRANCH   2   3
ATOM      3  C   UNL     1      -4.005  -1.940   1.125  1.00  0.00     0.325 C 
ATOM      4  O   UNL     1      -4.567  -1.681   2.183  1.00  0.00    -0.250 OA
BRANCH   3   5
ATOM      5  C   UNL     1      -2.509  -2.257   1.002  1.00  0.00     0.242 C 
BRANCH   5   6
ATOM      6  N   UNL     1      -1.720  -1.410   0.095  1.00  0.00    -0.327 N 
BRANCH   6   7
ATOM      7  C   UNL     1      -1.269  -0.140   0.663  1.00  0.00     0.147 C 
BRANCH   7   8
ATOM      8  C   UNL     1       0.173  -0.303   1.071  1.00  0.00    -0.014 C 
ATOM      9  C   UNL     1       1.204   0.253   0.417  1.00  0.00     0.006 C 
ENDBRANCH   7   8
ENDBRANCH   6   7
BRANCH   6  10
ATOM     10  C   UNL     1      -1.324  -1.666  -1.210  1.00  0.00     0.232 C 
ATOM     11  O   UNL     1      -0.865  -0.741  -1.900  1.00  0.00    -0.274 OA
BRANCH  10  12
ATOM     12  C   UNL     1      -1.427  -3.039  -1.894  1.00  0.00     0.136 C 
BRANCH  12  13
ATOM     13  C   UNL     1      -0.954  -4.275  -1.110  1.00  0.00     0.272 C 
BRANCH  13  14
ATOM     14  N   UNL     1       0.036  -4.104  -0.058  1.00  0.00    -0.357 N 
ATOM     15  H   UNL     1       0.916  -3.791  -0.467  1.00  0.00     0.344 HD
ATOM     16  H   UNL     1       0.181  -4.993   0.421  1.00  0.00     0.344 HD
ATOM     17  H   UNL     1      -0.294  -3.408   0.610  1.00  0.00     0.344 HD
ENDBRANCH  13  14
ENDBRANCH  12  13
BRANCH  12  18
ATOM     18  C   UNL     1      -2.816  -3.237  -2.562  1.00  0.00     0.001 C 
ATOM     19  C   UNL     1      -3.164  -2.092  -3.521  1.00  0.00     0.008 C 
ATOM     20  C   UNL     1      -2.948  -4.560  -3.325  1.00  0.00     0.008 C 
ENDBRANCH  12  18
ENDBRANCH  10  12
ENDBRANCH   6  10
ENDBRANCH   5   6
ENDBRANCH   3   5
ENDBRANCH   2   3
ENDBRANCH   1   2
BRANCH   1  21
ATOM     21  C   UNL     1      -6.245  -3.717  -1.018  1.00  0.00     0.275 C 
BRANCH  21  22
ATOM     22  O   UNL     1      -5.506  -4.972  -0.925  1.00  0.00    -0.458 OA
BRANCH  22  23
ATOM     23  C   UNL     1      -4.804  -5.285   0.180  1.00  0.00     0.338 C 
ATOM     24  O   UNL     1      -4.785  -4.650   1.227  1.00  0.00    -0.246 OA
BRANCH  23  25
ATOM     25  C   UNL     1      -3.884  -6.432   0.000  1.00  0.00     0.060 A 
ATOM     26  C   UNL     1      -2.816  -6.481   0.910  1.00  0.00     0.016 A 
ATOM     27  C   UNL     1      -3.995  -7.415  -0.991  1.00  0.00     0.016 A 
ATOM     28  C   UNL     1      -1.855  -7.473   0.825  1.00  0.00     0.010 A 
ATOM     29  C   UNL     1      -3.068  -8.471  -1.023  1.00  0.00     0.010 A 
ATOM     30  C   UNL     1      -2.013  -8.515  -0.095  1.00  0.00    -0.014 A 
BRANCH  30  31
ATOM     31  C   UNL     1      -1.222  -9.743   0.152  1.00  0.00     0.031 A 
ATOM     32  C   UNL     1      -0.042 -10.118  -0.685  1.00  0.00     0.074 A 
ATOM     33  C   UNL     1      -1.564 -10.453   1.246  1.00  0.00     0.049 A 
ATOM     34  N   UNL     1       0.734 -11.165  -0.578  1.00  0.00    -0.248 NA
ATOM     35  C   UNL     1       0.315  -9.209  -1.781  1.00  0.00     0.031 C 
ATOM     36  C   UNL     1      -2.671 -10.105   2.150  1.00  0.00     0.029 A 
ATOM     37  N   UNL     1      -1.020 -11.572   1.813  1.00  0.00    -0.354 N 
ATOM     38  C   UNL     1       1.661 -11.062  -1.608  1.00  0.00     0.074 A 
ATOM     39  C   UNL     1       1.347  -9.843  -2.328  1.00  0.00     0.031 C 
ATOM     40  C   UNL     1      -2.692 -10.964   3.175  1.00  0.00     0.029 A 
ATOM     41  C   UNL     1      -1.674 -11.977   2.953  1.00  0.00     0.049 A 
ATOM     42  H   UNL     1      -0.238 -12.040   1.442  1.00  0.00     0.167 HD
ATOM     43  C   UNL     1       2.663 -11.925  -1.915  1.00  0.00     0.034 A 
ATOM     44  C   UNL     1      -1.506 -13.073   3.714  1.00  0.00     0.034 A 
ATOM     45  C   UNL     1       2.932 -13.130  -1.158  1.00  0.00     0.049 A 
ATOM     46  C   UNL     1      -0.421 -14.029   3.322  1.00  0.00     0.074 A 
ATOM     47  C   UNL     1       3.916 -14.082  -1.367  1.00  0.00     0.029 A 
ATOM     48  N   UNL     1       2.208 -13.555  -0.047  1.00  0.00    -0.354 N 
ATOM     49  N   UNL     1       0.420 -13.944   2.317  1.00  0.00    -0.248 NA
ATOM     50  C   UNL     1      -0.262 -15.221   4.156  1.00  0.00     0.031 C 
ATOM     51  C   UNL     1       3.742 -15.110  -0.431  1.00  0.00     0.029 A 
ATOM     52  C   UNL     1       2.700 -14.768   0.416  1.00  0.00     0.049 A 
ATOM     53  H   UNL     1       1.454 -13.064   0.354  1.00  0.00     0.167 HD
ATOM     54  C   UNL     1       1.211 -15.081   2.393  1.00  0.00     0.074 A 
ATOM     55  C   UNL     1       0.768 -15.810   3.569  1.00  0.00     0.031 C 
ATOM     56  C   UNL     1       2.206 -15.493   1.566  1.00  0.00     0.034 A 
BRANCH  43  57
ATOM     57  C   UNL     1       3.481 -11.647  -3.157  1.00  0.00     0.023 A 
ATOM     58  C   UNL     1       4.320 -10.525  -3.277  1.00  0.00     0.031 A 
ATOM     59  C   UNL     1       3.417 -12.535  -4.248  1.00  0.00     0.131 A 
ATOM     60  C   UNL     1       5.023 -10.299  -4.474  1.00  0.00     0.055 A 
ATOM     61  C   UNL     1       4.169 -12.340  -5.409  1.00  0.00     0.041 A 
ATOM     62  F   UNL     1       2.615 -13.611  -4.206  1.00  0.00    -0.206 F 
ATOM     63  C   UNL     1       4.971 -11.211  -5.531  1.00  0.00     0.022 A 
BRANCH  60  64
ATOM     64  S   UNL     1       5.925  -8.737  -4.680  1.00  0.00     0.124 S 
ATOM     65  O   UNL     1       4.857  -7.755  -4.511  1.00  0.00    -0.237 OA
ATOM     66  O   UNL     1       6.913  -8.800  -3.610  1.00  0.00    -0.237 OA
ATOM     67  O   UNL     1       6.467  -8.829  -6.035  1.00  0.00    -0.744 OA
ENDBRANCH  60  64
ENDBRANCH  43  57
BRANCH  44  68
ATOM     68  C   UNL     1      -2.428 -13.332   4.854  1.00  0.00     0.023 A 
ATOM     69  C   UNL     1      -1.966 -13.352   6.177  1.00  0.00     0.031 A 
ATOM     70  C   UNL     1      -3.805 -13.527   4.631  1.00  0.00     0.131 A 
ATOM     71  C   UNL     1      -2.872 -13.576   7.226  1.00  0.00     0.055 A 
ATOM     72  C   UNL     1      -4.708 -13.695   5.680  1.00  0.00     0.041 A 
ATOM     73  F   UNL     1      -4.301 -13.511   3.382  1.00  0.00    -0.206 F 
ATOM     74  C   UNL     1      -4.241 -13.727   6.988  1.00  0.00     0.022 A 
BRANCH  71  75
ATOM     75  S   UNL     1      -2.226 -13.721   8.914  1.00  0.00     0.124 S 
ATOM     76  O   UNL     1      -1.253 -14.798   8.770  1.00  0.00    -0.237 OA
ATOM     77  O   UNL     1      -1.679 -12.388   9.143  1.00  0.00    -0.237 OA
ATOM     78  O   UNL     1      -3.410 -14.052   9.704  1.00  0.00    -0.744 OA
ENDBRANCH  71  75
ENDBRANCH  44  68
BRANCH  56  79
ATOM     79  C   UNL     1       2.866 -16.795   1.937  1.00  0.00     0.023 A 
ATOM     80  C   UNL     1       2.161 -18.010   1.877  1.00  0.00     0.031 A 
ATOM     81  C   UNL     1       4.182 -16.812   2.426  1.00  0.00     0.131 A 
ATOM     82  C   UNL     1       2.748 -19.180   2.377  1.00  0.00     0.055 A 
ATOM     83  C   UNL     1       4.786 -17.992   2.860  1.00  0.00     0.041 A 
ATOM     84  F   UNL     1       4.895 -15.677   2.510  1.00  0.00    -0.206 F 
ATOM     85  C   UNL     1       4.062 -19.182   2.854  1.00  0.00     0.022 A 
BRANCH  82  86
ATOM     86  S   UNL     1       1.726 -20.672   2.514  1.00  0.00     0.124 S 
ATOM     87  O   UNL     1       0.646 -20.218   3.385  1.00  0.00    -0.237 OA
ATOM     88  O   UNL     1       1.359 -20.928   1.125  1.00  0.00    -0.237 OA
ATOM     89  O   UNL     1       2.631 -21.654   3.108  1.00  0.00    -0.744 OA
ENDBRANCH  82  86
ENDBRANCH  56  79
ENDBRANCH  30  31
ENDBRANCH  23  25
ENDBRANCH  22  23
ENDBRANCH  21  22
ENDBRANCH   1  21
TORSDOF 22
