REMARK SMILES COc1ncnc(N2CCSC[C@@H]2CC(=O)OCCOC(=O)c2ccc(-c3c4nc(c(-c5cc(S(=O)(=O)[O-])ccc5F)c5ccc([nH]5)c(-c5cc(S(=O)(=O)[O-])ccc5F)c5nc(c(-c6cc(S(=O)(=O)[O-])ccc6F)c6ccc3[nH]6)C=C5)C=C4)cc2)c1[N+](=O)[O-]
REMARK SMILES IDX 18 1 17 2 15 3 16 4 14 5 13 6 8 7 9 8 10 9 12 10 11 11 7 12
REMARK SMILES IDX 3 13 4 14 86 15 5 16 6 17 2 18 1 19 87 20 88 21 89 22 19 23
REMARK SMILES IDX 20 24 21 25 22 26 23 27 24 28 85 29 25 30 84 31 26 32 27 33
REMARK SMILES IDX 28 34 78 35 29 36 83 37 77 38 79 39 30 40 82 41 76 42 75 43
REMARK SMILES IDX 31 45 63 46 43 47 62 48 44 49 47 50 61 51 80 52 45 53 46 54
REMARK SMILES IDX 60 56 81 57 48 58 32 59 33 60 41 61 34 62 40 63 42 64 39 65
REMARK SMILES IDX 35 66 36 67 37 68 38 69 64 70 65 71 73 72 66 73 72 74 74 75
REMARK SMILES IDX 71 76 67 77 68 78 69 79 70 80 49 81 50 82 58 83 51 84 57 85
REMARK SMILES IDX 59 86 56 87 52 88 53 89 54 90 55 91
REMARK H PARENT 79 44 47 55
REMARK Flexibility Score: inf
ROOT
ATOM      1  C   UNL     1       8.583   6.253   2.297  1.00  0.00     0.274 C 
ENDROOT
BRANCH   1   2
ATOM      2  O   UNL     1       7.412   5.713   1.659  1.00  0.00    -0.462 OA
BRANCH   2   3
ATOM      3  C   UNL     1       6.793   4.692   2.288  1.00  0.00     0.308 C 
ATOM      4  O   UNL     1       7.188   4.191   3.335  1.00  0.00    -0.252 OA
BRANCH   3   5
ATOM      5  C   UNL     1       5.653   4.102   1.506  1.00  0.00     0.148 C 
BRANCH   5   6
ATOM      6  C   UNL     1       4.641   4.971   0.727  1.00  0.00     0.105 C 
ATOM      7  N   UNL     1       4.158   4.144  -0.414  1.00  0.00    -0.345 N 
ATOM      8  C   UNL     1       5.020   3.985  -1.593  1.00  0.00     0.129 C 
ATOM      9  C   UNL     1       5.330   5.320  -2.267  1.00  0.00     0.091 C 
ATOM     10  C   UNL     1       5.015   6.384   0.235  1.00  0.00     0.095 C 
ATOM     11  S   UNL     1       6.206   6.452  -1.153  1.00  0.00    -0.158 SA
BRANCH   7  12
ATOM     12  C   UNL     1       2.846   3.723  -0.442  1.00  0.00     0.215 A 
ATOM     13  C   UNL     1       1.123   2.112  -0.673  1.00  0.00     0.299 A 
ATOM     14  N   UNL     1       0.165   3.040  -0.509  1.00  0.00    -0.196 NA
ATOM     15  C   UNL     1       2.461   2.417  -0.672  1.00  0.00     0.372 A 
ATOM     16  C   UNL     1       0.610   4.283  -0.281  1.00  0.00     0.228 A 
ATOM     17  N   UNL     1       1.901   4.664  -0.234  1.00  0.00    -0.212 NA
BRANCH  13  18
ATOM     18  O   UNL     1       0.686   0.837  -0.934  1.00  0.00    -0.476 OA
ATOM     19  C   UNL     1       0.301   0.203   0.286  1.00  0.00     0.280 C 
ENDBRANCH  13  18
BRANCH  15  20
ATOM     20  N   UNL     1       3.416   1.366  -0.774  1.00  0.00     0.072 N 
ATOM     21  O   UNL     1       3.914   0.947   0.280  1.00  0.00    -0.258 OA
ATOM     22  O   UNL     1       3.685   0.951  -1.911  1.00  0.00    -0.258 OA
ENDBRANCH  15  20
ENDBRANCH   7  12
ENDBRANCH   5   6
ENDBRANCH   3   5
ENDBRANCH   2   3
ENDBRANCH   1   2
BRANCH   1  23
ATOM     23  C   UNL     1       8.254   7.445   3.201  1.00  0.00     0.275 C 
BRANCH  23  24
ATOM     24  O   UNL     1       7.595   7.043   4.417  1.00  0.00    -0.458 OA
BRANCH  24  25
ATOM     25  C   UNL     1       6.244   7.006   4.341  1.00  0.00     0.338 C 
ATOM     26  O   UNL     1       5.554   7.316   3.384  1.00  0.00    -0.246 OA
BRANCH  25  27
ATOM     27  C   UNL     1       5.663   6.398   5.545  1.00  0.00     0.060 A 
ATOM     28  C   UNL     1       4.866   5.263   5.370  1.00  0.00     0.016 A 
ATOM     29  C   UNL     1       5.772   7.010   6.794  1.00  0.00     0.016 A 
ATOM     30  C   UNL     1       4.140   4.753   6.437  1.00  0.00     0.010 A 
ATOM     31  C   UNL     1       5.043   6.492   7.870  1.00  0.00     0.010 A 
ATOM     32  C   UNL     1       4.202   5.380   7.688  1.00  0.00    -0.014 A 
BRANCH  32  33
ATOM     33  C   UNL     1       3.300   4.910   8.765  1.00  0.00     0.031 A 
ATOM     34  C   UNL     1       2.083   5.718   9.116  1.00  0.00     0.074 A 
ATOM     35  C   UNL     1       3.539   3.730   9.366  1.00  0.00     0.049 A 
ATOM     36  N   UNL     1       1.181   5.502  10.038  1.00  0.00    -0.248 NA
ATOM     37  C   UNL     1       1.854   6.934   8.322  1.00  0.00     0.031 C 
ATOM     38  C   UNL     1       4.662   2.843   9.059  1.00  0.00     0.029 A 
ATOM     39  N   UNL     1       2.846   3.069  10.346  1.00  0.00    -0.354 N 
ATOM     40  C   UNL     1       0.286   6.564   9.950  1.00  0.00     0.074 A 
ATOM     41  C   UNL     1       0.772   7.434   8.899  1.00  0.00     0.031 C 
ATOM     42  C   UNL     1       4.573   1.745   9.828  1.00  0.00     0.029 A 
ATOM     43  C   UNL     1       3.417   1.873  10.711  1.00  0.00     0.049 A 
ATOM     44  H   UNL     1       2.018   3.417  10.750  1.00  0.00     0.167 HD
ATOM     45  C   UNL     1      -0.836   6.787  10.679  1.00  0.00     0.034 A 
ATOM     46  C   UNL     1       3.058   0.992  11.664  1.00  0.00     0.034 A 
ATOM     47  C   UNL     1      -1.299   5.904  11.723  1.00  0.00     0.049 A 
ATOM     48  C   UNL     1       1.827   1.277  12.483  1.00  0.00     0.074 A 
ATOM     49  C   UNL     1      -2.400   6.041  12.551  1.00  0.00     0.029 A 
ATOM     50  N   UNL     1      -0.683   4.710  12.082  1.00  0.00    -0.354 N 
ATOM     51  N   UNL     1       1.014   2.308  12.422  1.00  0.00    -0.248 NA
ATOM     52  C   UNL     1       1.460   0.277  13.492  1.00  0.00     0.031 C 
ATOM     53  C   UNL     1      -2.421   4.958  13.440  1.00  0.00     0.029 A 
ATOM     54  C   UNL     1      -1.373   4.109  13.125  1.00  0.00     0.049 A 
ATOM     55  H   UNL     1       0.126   4.343  11.658  1.00  0.00     0.167 HD
ATOM     56  C   UNL     1       0.027   2.068  13.372  1.00  0.00     0.074 A 
ATOM     57  C   UNL     1       0.335   0.786  13.974  1.00  0.00     0.031 C 
ATOM     58  C   UNL     1      -1.039   2.836  13.719  1.00  0.00     0.034 A 
BRANCH  45  59
ATOM     59  C   UNL     1      -1.588   8.069  10.409  1.00  0.00     0.023 A 
ATOM     60  C   UNL     1      -2.217   8.317   9.176  1.00  0.00     0.031 A 
ATOM     61  C   UNL     1      -1.631   9.081  11.385  1.00  0.00     0.131 A 
ATOM     62  C   UNL     1      -2.797   9.571   8.925  1.00  0.00     0.055 A 
ATOM     63  C   UNL     1      -2.276  10.298  11.156  1.00  0.00     0.041 A 
ATOM     64  F   UNL     1      -1.028   8.912  12.572  1.00  0.00    -0.206 F 
ATOM     65  C   UNL     1      -2.851  10.555   9.915  1.00  0.00     0.022 A 
BRANCH  62  66
ATOM     66  S   UNL     1      -3.353   9.951   7.240  1.00  0.00     0.124 S 
ATOM     67  O   UNL     1      -2.117   9.786   6.477  1.00  0.00    -0.237 OA
ATOM     68  O   UNL     1      -4.383   8.946   7.012  1.00  0.00    -0.237 OA
ATOM     69  O   UNL     1      -3.834  11.328   7.340  1.00  0.00    -0.744 OA
ENDBRANCH  62  66
ENDBRANCH  45  59
BRANCH  46  70
ATOM     70  C   UNL     1       3.888  -0.219  11.918  1.00  0.00     0.023 A 
ATOM     71  C   UNL     1       3.387  -1.509  11.688  1.00  0.00     0.031 A 
ATOM     72  C   UNL     1       5.194  -0.098  12.427  1.00  0.00     0.131 A 
ATOM     73  C   UNL     1       4.173  -2.629  12.001  1.00  0.00     0.055 A 
ATOM     74  C   UNL     1       5.989  -1.214  12.691  1.00  0.00     0.041 A 
ATOM     75  F   UNL     1       5.722   1.114  12.662  1.00  0.00    -0.206 F 
ATOM     76  C   UNL     1       5.474  -2.490  12.488  1.00  0.00     0.022 A 
BRANCH  73  77
ATOM     77  S   UNL     1       3.441  -4.280  11.828  1.00  0.00     0.124 S 
ATOM     78  O   UNL     1       2.280  -4.186  12.704  1.00  0.00    -0.237 OA
ATOM     79  O   UNL     1       3.162  -4.339  10.397  1.00  0.00    -0.237 OA
ATOM     80  O   UNL     1       4.502  -5.173  12.290  1.00  0.00    -0.744 OA
ENDBRANCH  73  77
ENDBRANCH  46  70
BRANCH  58  81
ATOM     81  C   UNL     1      -1.960   2.271  14.771  1.00  0.00     0.023 A 
ATOM     82  C   UNL     1      -1.545   2.105  16.104  1.00  0.00     0.031 A 
ATOM     83  C   UNL     1      -3.256   1.852  14.422  1.00  0.00     0.131 A 
ATOM     84  C   UNL     1      -2.393   1.472  17.025  1.00  0.00     0.055 A 
ATOM     85  C   UNL     1      -4.116   1.275  15.357  1.00  0.00     0.041 A 
ATOM     86  F   UNL     1      -3.702   1.988  13.163  1.00  0.00    -0.206 F 
ATOM     87  C   UNL     1      -3.680   1.066  16.662  1.00  0.00     0.022 A 
BRANCH  84  88
ATOM     88  S   UNL     1      -1.748   1.080  18.674  1.00  0.00     0.124 S 
ATOM     89  O   UNL     1      -0.550   0.307  18.359  1.00  0.00    -0.237 OA
ATOM     90  O   UNL     1      -1.520   2.405  19.241  1.00  0.00    -0.237 OA
ATOM     91  O   UNL     1      -2.831   0.319  19.294  1.00  0.00    -0.744 OA
ENDBRANCH  84  88
ENDBRANCH  58  81
ENDBRANCH  32  33
ENDBRANCH  25  27
ENDBRANCH  24  25
ENDBRANCH  23  24
ENDBRANCH   1  23
TORSDOF 18
