REMARK SMILES Cc1ccccc1CNc1ccc(C(=O)OCCOC(=O)c2ccc(-c3c4nc(c(-c5cc(S(=O)(=O)[O-])ccc5F)c5ccc([nH]5)c(-c5cc(S(=O)(=O)[O-])ccc5F)c5nc(c(-c6cc(S(=O)(=O)[O-])ccc6F)c6ccc3[nH]6)C=C5)C=C4)cc2)c(F)c1F
REMARK SMILES IDX 17 1 16 2 14 3 15 4 13 5 10 6 11 7 87 8 12 9 85 10 88 11
REMARK SMILES IDX 86 12 9 13 8 15 7 16 1 17 2 18 3 19 4 20 6 21 5 22 18 23
REMARK SMILES IDX 19 24 20 25 21 26 22 27 23 28 84 29 24 30 83 31 25 32 26 33
REMARK SMILES IDX 27 34 77 35 28 36 82 37 76 38 78 39 29 40 81 41 75 42 74 43
REMARK SMILES IDX 30 45 62 46 42 47 61 48 43 49 46 50 60 51 79 52 44 53 45 54
REMARK SMILES IDX 59 56 80 57 47 58 31 59 32 60 40 61 33 62 39 63 41 64 38 65
REMARK SMILES IDX 34 66 35 67 36 68 37 69 63 70 64 71 72 72 65 73 71 74 73 75
REMARK SMILES IDX 70 76 66 77 67 78 68 79 69 80 48 81 49 82 57 83 50 84 56 85
REMARK SMILES IDX 58 86 55 87 51 88 52 89 53 90 54 91
REMARK H PARENT 9 14 78 44 46 55
REMARK Flexibility Score: inf
ROOT
ATOM      1  C   UNL     1       0.171  10.844  -1.064  1.00  0.00     0.275 C 
ENDROOT
BRANCH   1   2
ATOM      2  O   UNL     1       0.364   9.474  -1.450  1.00  0.00    -0.458 OA
BRANCH   2   3
ATOM      3  C   UNL     1       0.501   8.657  -0.372  1.00  0.00     0.341 C 
ATOM      4  O   UNL     1       0.518   9.015   0.788  1.00  0.00    -0.246 OA
BRANCH   3   5
ATOM      5  C   UNL     1       0.761   7.245  -0.722  1.00  0.00     0.099 A 
ATOM      6  C   UNL     1       1.074   4.449  -0.973  1.00  0.00     0.074 A 
ATOM      7  C   UNL     1       1.750   5.156   0.025  1.00  0.00     0.030 A 
ATOM      8  C   UNL     1       0.320   5.188  -1.900  1.00  0.00     0.182 A 
ATOM      9  C   UNL     1       1.579   6.533   0.165  1.00  0.00     0.021 A 
ATOM     10  C   UNL     1       0.170   6.572  -1.784  1.00  0.00     0.175 A 
ATOM     11  F   UNL     1      -0.326   4.535  -2.882  1.00  0.00    -0.201 F 
ATOM     12  F   UNL     1      -0.587   7.210  -2.680  1.00  0.00    -0.203 F 
BRANCH   6  13
ATOM     13  N   UNL     1       1.083   3.055  -1.012  1.00  0.00    -0.379 N 
ATOM     14  H   UNL     1       1.092   2.577  -1.873  1.00  0.00     0.161 HD
BRANCH  13  15
ATOM     15  C   UNL     1       1.079   2.322   0.245  1.00  0.00     0.149 C 
BRANCH  15  16
ATOM     16  C   UNL     1       0.369   0.998   0.084  1.00  0.00    -0.026 A 
ATOM     17  C   UNL     1       2.536  -0.364  -0.075  1.00  0.00     0.044 C 
ATOM     18  C   UNL     1       1.038  -0.234  -0.054  1.00  0.00    -0.046 A 
ATOM     19  C   UNL     1       0.278  -1.416  -0.118  1.00  0.00     0.004 A 
ATOM     20  C   UNL     1      -1.117  -1.381  -0.089  1.00  0.00     0.000 A 
ATOM     21  C   UNL     1      -1.041   1.016   0.086  1.00  0.00     0.006 A 
ATOM     22  C   UNL     1      -1.777  -0.163   0.002  1.00  0.00     0.000 A 
ENDBRANCH  15  16
ENDBRANCH  13  15
ENDBRANCH   6  13
ENDBRANCH   3   5
ENDBRANCH   2   3
ENDBRANCH   1   2
BRANCH   1  23
ATOM     23  C   UNL     1      -0.278  11.746  -2.226  1.00  0.00     0.275 C 
BRANCH  23  24
ATOM     24  O   UNL     1      -1.524  11.491  -2.914  1.00  0.00    -0.458 OA
BRANCH  24  25
ATOM     25  C   UNL     1      -1.970  10.215  -3.041  1.00  0.00     0.338 C 
ATOM     26  O   UNL     1      -1.677   9.487  -3.977  1.00  0.00    -0.246 OA
BRANCH  25  27
ATOM     27  C   UNL     1      -2.716   9.807  -1.822  1.00  0.00     0.060 A 
ATOM     28  C   UNL     1      -2.951   8.449  -1.557  1.00  0.00     0.016 A 
ATOM     29  C   UNL     1      -2.959  10.770  -0.843  1.00  0.00     0.016 A 
ATOM     30  C   UNL     1      -3.324   8.043  -0.274  1.00  0.00     0.010 A 
ATOM     31  C   UNL     1      -3.195  10.367   0.446  1.00  0.00     0.010 A 
ATOM     32  C   UNL     1      -3.415   9.012   0.727  1.00  0.00    -0.014 A 
BRANCH  32  33
ATOM     33  C   UNL     1      -4.052   8.811   2.018  1.00  0.00     0.031 A 
ATOM     34  C   UNL     1      -3.369   8.257   3.198  1.00  0.00     0.074 A 
ATOM     35  C   UNL     1      -5.274   9.387   2.079  1.00  0.00     0.049 A 
ATOM     36  N   UNL     1      -3.983   7.816   4.242  1.00  0.00    -0.248 NA
ATOM     37  C   UNL     1      -1.919   8.144   3.309  1.00  0.00     0.031 C 
ATOM     38  C   UNL     1      -6.107   9.701   3.224  1.00  0.00     0.029 A 
ATOM     39  N   UNL     1      -6.095   9.696   0.989  1.00  0.00    -0.354 N 
ATOM     40  C   UNL     1      -3.056   7.701   5.260  1.00  0.00     0.074 A 
ATOM     41  C   UNL     1      -1.777   7.796   4.597  1.00  0.00     0.031 C 
ATOM     42  C   UNL     1      -7.380   9.809   2.793  1.00  0.00     0.029 A 
ATOM     43  C   UNL     1      -7.385   9.385   1.395  1.00  0.00     0.049 A 
ATOM     44  H   UNL     1      -5.816  10.058   0.117  1.00  0.00     0.167 HD
ATOM     45  C   UNL     1      -3.496   7.718   6.554  1.00  0.00     0.034 A 
ATOM     46  C   UNL     1      -8.034   8.289   0.897  1.00  0.00     0.034 A 
ATOM     47  C   UNL     1      -4.959   7.777   6.590  1.00  0.00     0.049 A 
ATOM     48  C   UNL     1      -8.396   7.346   2.021  1.00  0.00     0.074 A 
ATOM     49  C   UNL     1      -5.840   8.831   6.774  1.00  0.00     0.029 A 
ATOM     50  N   UNL     1      -5.706   6.721   6.080  1.00  0.00    -0.354 N 
ATOM     51  N   UNL     1      -7.686   7.184   3.106  1.00  0.00    -0.248 NA
ATOM     52  C   UNL     1      -9.639   6.589   2.033  1.00  0.00     0.031 C 
ATOM     53  C   UNL     1      -7.105   8.430   6.268  1.00  0.00     0.029 A 
ATOM     54  C   UNL     1      -7.000   7.124   5.815  1.00  0.00     0.049 A 
ATOM     55  H   UNL     1      -5.361   5.811   5.929  1.00  0.00     0.167 HD
ATOM     56  C   UNL     1      -8.399   6.423   3.998  1.00  0.00     0.074 A 
ATOM     57  C   UNL     1      -9.603   6.056   3.265  1.00  0.00     0.031 C 
ATOM     58  C   UNL     1      -7.982   6.191   5.282  1.00  0.00     0.034 A 
BRANCH  45  59
ATOM     59  C   UNL     1      -2.648   8.011   7.783  1.00  0.00     0.023 A 
ATOM     60  C   UNL     1      -3.268   8.579   8.923  1.00  0.00     0.031 A 
ATOM     61  C   UNL     1      -1.261   7.810   7.903  1.00  0.00     0.131 A 
ATOM     62  C   UNL     1      -2.527   9.006  10.043  1.00  0.00     0.055 A 
ATOM     63  C   UNL     1      -0.515   8.263   9.005  1.00  0.00     0.041 A 
ATOM     64  F   UNL     1      -0.566   7.125   6.987  1.00  0.00    -0.206 F 
ATOM     65  C   UNL     1      -1.145   8.879  10.078  1.00  0.00     0.022 A 
BRANCH  62  66
ATOM     66  S   UNL     1      -3.400   9.741  11.457  1.00  0.00     0.124 S 
ATOM     67  O   UNL     1      -4.021  10.919  10.860  1.00  0.00    -0.237 OA
ATOM     68  O   UNL     1      -4.302   8.667  11.859  1.00  0.00    -0.237 OA
ATOM     69  O   UNL     1      -2.326  10.028  12.408  1.00  0.00    -0.744 OA
ENDBRANCH  62  66
ENDBRANCH  45  59
BRANCH  46  70
ATOM     70  C   UNL     1      -7.641   7.867  -0.490  1.00  0.00     0.023 A 
ATOM     71  C   UNL     1      -7.652   8.849  -1.507  1.00  0.00     0.031 A 
ATOM     72  C   UNL     1      -6.978   6.663  -0.772  1.00  0.00     0.131 A 
ATOM     73  C   UNL     1      -6.893   8.684  -2.676  1.00  0.00     0.055 A 
ATOM     74  C   UNL     1      -6.276   6.473  -1.974  1.00  0.00     0.041 A 
ATOM     75  F   UNL     1      -6.913   5.685   0.142  1.00  0.00    -0.206 F 
ATOM     76  C   UNL     1      -6.199   7.499  -2.916  1.00  0.00     0.022 A 
BRANCH  73  77
ATOM     77  S   UNL     1      -6.602  10.139  -3.732  1.00  0.00     0.124 S 
ATOM     78  O   UNL     1      -7.798  10.151  -4.566  1.00  0.00    -0.237 OA
ATOM     79  O   UNL     1      -6.492  11.219  -2.756  1.00  0.00    -0.237 OA
ATOM     80  O   UNL     1      -5.355   9.810  -4.417  1.00  0.00    -0.744 OA
ENDBRANCH  73  77
ENDBRANCH  46  70
BRANCH  58  81
ATOM     81  C   UNL     1      -8.555   5.144   6.212  1.00  0.00     0.023 A 
ATOM     82  C   UNL     1      -9.409   4.127   5.771  1.00  0.00     0.031 A 
ATOM     83  C   UNL     1      -8.185   5.077   7.579  1.00  0.00     0.131 A 
ATOM     84  C   UNL     1      -9.952   3.191   6.663  1.00  0.00     0.055 A 
ATOM     85  C   UNL     1      -8.645   4.081   8.445  1.00  0.00     0.041 A 
ATOM     86  F   UNL     1      -7.345   5.962   8.134  1.00  0.00    -0.206 F 
ATOM     87  C   UNL     1      -9.556   3.141   7.995  1.00  0.00     0.022 A 
BRANCH  84  88
ATOM     88  S   UNL     1     -11.257   2.103   6.043  1.00  0.00     0.124 S 
ATOM     89  O   UNL     1     -12.299   3.063   5.685  1.00  0.00    -0.237 OA
ATOM     90  O   UNL     1     -10.603   1.435   4.923  1.00  0.00    -0.237 OA
ATOM     91  O   UNL     1     -11.565   1.248   7.186  1.00  0.00    -0.744 OA
ENDBRANCH  84  88
ENDBRANCH  58  81
ENDBRANCH  32  33
ENDBRANCH  25  27
ENDBRANCH  24  25
ENDBRANCH  23  24
ENDBRANCH   1  23
TORSDOF 17
