REMARK SMILES O=C(OCCOC(=O)c1cc(-c2cc(Cl)ccc2Cl)cc([N+](=O)[O-])c1)c1ccc(-c2c3nc(c(-c4cc(S(=O)(=O)[O-])ccc4F)c4ccc([nH]4)c(-c4cc(S(=O)(=O)[O-])ccc4F)c4nc(c(-c5cc(S(=O)(=O)[O-])ccc5F)c5ccc2[nH]5)C=C4)C=C3)cc1
REMARK SMILES IDX 4 1 3 2 2 3 1 4 26 5 27 6 88 7 28 8 87 9 29 10 30 11 31 12
REMARK SMILES IDX 81 13 32 14 86 15 80 16 82 17 33 18 85 19 79 20 78 21 34 23
REMARK SMILES IDX 66 24 46 25 65 26 47 27 50 28 64 29 83 30 48 31 49 32 63 34
REMARK SMILES IDX 84 35 51 36 35 37 36 38 44 39 37 40 43 41 45 42 42 43 38 44
REMARK SMILES IDX 39 45 40 46 41 47 67 48 68 49 76 50 69 51 75 52 77 53 74 54
REMARK SMILES IDX 70 55 71 56 72 57 73 58 52 59 53 60 61 61 54 62 60 63 62 64
REMARK SMILES IDX 59 65 55 66 56 67 57 68 58 69 5 70 6 71 7 72 8 73 9 74 10 75
REMARK SMILES IDX 25 76 11 77 21 78 20 79 12 80 13 81 18 82 14 83 17 84 19 85
REMARK SMILES IDX 15 86 16 87 22 88 23 89 24 90
REMARK H PARENT 82 22 50 33
REMARK Flexibility Score: inf
ROOT
ATOM      1  C   UNL     1       3.967   1.468  -0.608  1.00  0.00     0.275 C 
ENDROOT
BRANCH   1   2
ATOM      2  O   UNL     1       2.853   0.639  -0.990  1.00  0.00    -0.458 OA
BRANCH   2   3
ATOM      3  C   UNL     1       2.654  -0.694  -0.853  1.00  0.00     0.338 C 
ATOM      4  O   UNL     1       1.646  -1.189  -1.360  1.00  0.00    -0.246 OA
BRANCH   3   5
ATOM      5  C   UNL     1       3.509  -1.587  -0.007  1.00  0.00     0.060 A 
ATOM      6  C   UNL     1       4.851  -1.375   0.306  1.00  0.00     0.016 A 
ATOM      7  C   UNL     1       2.890  -2.742   0.515  1.00  0.00     0.016 A 
ATOM      8  C   UNL     1       5.530  -2.227   1.176  1.00  0.00     0.010 A 
ATOM      9  C   UNL     1       3.564  -3.601   1.390  1.00  0.00     0.010 A 
ATOM     10  C   UNL     1       4.892  -3.336   1.732  1.00  0.00    -0.014 A 
BRANCH  10  11
ATOM     11  C   UNL     1       5.686  -4.249   2.581  1.00  0.00     0.031 A 
ATOM     12  C   UNL     1       6.244  -5.499   1.975  1.00  0.00     0.074 A 
ATOM     13  C   UNL     1       6.009  -3.888   3.837  1.00  0.00     0.049 A 
ATOM     14  N   UNL     1       7.069  -6.367   2.495  1.00  0.00    -0.248 NA
ATOM     15  C   UNL     1       5.859  -5.784   0.584  1.00  0.00     0.031 C 
ATOM     16  C   UNL     1       5.614  -2.632   4.473  1.00  0.00     0.029 A 
ATOM     17  N   UNL     1       6.750  -4.523   4.798  1.00  0.00    -0.354 N 
ATOM     18  C   UNL     1       7.362  -7.260   1.475  1.00  0.00     0.074 A 
ATOM     19  C   UNL     1       6.556  -6.881   0.334  1.00  0.00     0.031 C 
ATOM     20  C   UNL     1       6.069  -2.613   5.737  1.00  0.00     0.029 A 
ATOM     21  C   UNL     1       6.788  -3.851   5.999  1.00  0.00     0.049 A 
ATOM     22  H   UNL     1       7.211  -5.379   4.644  1.00  0.00     0.167 HD
ATOM     23  C   UNL     1       8.258  -8.276   1.481  1.00  0.00     0.034 A 
ATOM     24  C   UNL     1       7.337  -4.201   7.178  1.00  0.00     0.034 A 
ATOM     25  C   UNL     1       9.000  -8.671   2.651  1.00  0.00     0.049 A 
ATOM     26  C   UNL     1       8.166  -5.456   7.219  1.00  0.00     0.074 A 
ATOM     27  C   UNL     1       9.883  -9.725   2.801  1.00  0.00     0.029 A 
ATOM     28  N   UNL     1       8.929  -8.034   3.886  1.00  0.00    -0.354 N 
ATOM     29  N   UNL     1       8.445  -6.288   6.241  1.00  0.00    -0.248 NA
ATOM     30  C   UNL     1       8.794  -5.792   8.500  1.00  0.00     0.031 C 
ATOM     31  C   UNL     1      10.293  -9.764   4.139  1.00  0.00     0.029 A 
ATOM     32  C   UNL     1       9.726  -8.692   4.810  1.00  0.00     0.049 A 
ATOM     33  H   UNL     1       8.390  -7.233   4.076  1.00  0.00     0.167 HD
ATOM     34  C   UNL     1       9.320  -7.224   6.780  1.00  0.00     0.074 A 
ATOM     35  C   UNL     1       9.531  -6.840   8.163  1.00  0.00     0.031 C 
ATOM     36  C   UNL     1       9.906  -8.297   6.188  1.00  0.00     0.034 A 
BRANCH  23  37
ATOM     37  C   UNL     1       8.430  -9.031   0.189  1.00  0.00     0.023 A 
ATOM     38  C   UNL     1       8.965  -8.406  -0.954  1.00  0.00     0.031 A 
ATOM     39  C   UNL     1       7.998 -10.361   0.073  1.00  0.00     0.131 A 
ATOM     40  C   UNL     1       8.989  -9.089  -2.179  1.00  0.00     0.055 A 
ATOM     41  C   UNL     1       8.091 -11.060  -1.133  1.00  0.00     0.041 A 
ATOM     42  F   UNL     1       7.452 -10.996   1.122  1.00  0.00    -0.206 F 
ATOM     43  C   UNL     1       8.577 -10.420  -2.271  1.00  0.00     0.022 A 
BRANCH  40  44
ATOM     44  S   UNL     1       9.439  -8.171  -3.677  1.00  0.00     0.124 S 
ATOM     45  O   UNL     1       8.393  -7.151  -3.724  1.00  0.00    -0.237 OA
ATOM     46  O   UNL     1      10.781  -7.693  -3.366  1.00  0.00    -0.237 OA
ATOM     47  O   UNL     1       9.364  -9.179  -4.732  1.00  0.00    -0.744 OA
ENDBRANCH  40  44
ENDBRANCH  23  37
BRANCH  24  48
ATOM     48  C   UNL     1       7.091  -3.393   8.408  1.00  0.00     0.023 A 
ATOM     49  C   UNL     1       8.132  -2.777   9.120  1.00  0.00     0.031 A 
ATOM     50  C   UNL     1       5.790  -3.299   8.937  1.00  0.00     0.131 A 
ATOM     51  C   UNL     1       7.863  -2.143  10.346  1.00  0.00     0.055 A 
ATOM     52  C   UNL     1       5.518  -2.619  10.125  1.00  0.00     0.041 A 
ATOM     53  F   UNL     1       4.762  -3.889   8.307  1.00  0.00    -0.206 F 
ATOM     54  C   UNL     1       6.562  -2.051  10.847  1.00  0.00     0.022 A 
BRANCH  51  55
ATOM     55  S   UNL     1       9.257  -1.540  11.339  1.00  0.00     0.124 S 
ATOM     56  O   UNL     1      10.098  -2.728  11.429  1.00  0.00    -0.237 OA
ATOM     57  O   UNL     1       9.771  -0.454  10.510  1.00  0.00    -0.237 OA
ATOM     58  O   UNL     1       8.630  -1.123  12.591  1.00  0.00    -0.744 OA
ENDBRANCH  51  55
ENDBRANCH  24  48
BRANCH  36  59
ATOM     59  C   UNL     1      10.859  -9.093   7.042  1.00  0.00     0.023 A 
ATOM     60  C   UNL     1      10.416  -9.800   8.172  1.00  0.00     0.031 A 
ATOM     61  C   UNL     1      12.234  -9.102   6.749  1.00  0.00     0.131 A 
ATOM     62  C   UNL     1      11.348 -10.418   9.016  1.00  0.00     0.055 A 
ATOM     63  C   UNL     1      13.149  -9.784   7.552  1.00  0.00     0.041 A 
ATOM     64  F   UNL     1      12.711  -8.440   5.683  1.00  0.00    -0.206 F 
ATOM     65  C   UNL     1      12.710 -10.431   8.704  1.00  0.00     0.022 A 
BRANCH  62  66
ATOM     66  S   UNL     1      10.768 -11.094  10.595  1.00  0.00     0.124 S 
ATOM     67  O   UNL     1      10.179  -9.919  11.228  1.00  0.00    -0.237 OA
ATOM     68  O   UNL     1       9.829 -12.125  10.166  1.00  0.00    -0.237 OA
ATOM     69  O   UNL     1      11.990 -11.592  11.223  1.00  0.00    -0.744 OA
ENDBRANCH  62  66
ENDBRANCH  36  59
ENDBRANCH  10  11
ENDBRANCH   3   5
ENDBRANCH   2   3
ENDBRANCH   1   2
BRANCH   1  70
ATOM     70  C   UNL     1       3.957   1.949   0.847  1.00  0.00     0.275 C 
BRANCH  70  71
ATOM     71  O   UNL     1       3.545   0.947   1.788  1.00  0.00    -0.458 OA
BRANCH  71  72
ATOM     72  C   UNL     1       2.222   0.946   2.068  1.00  0.00     0.338 C 
ATOM     73  O   UNL     1       1.377   1.719   1.628  1.00  0.00    -0.246 OA
BRANCH  72  74
ATOM     74  C   UNL     1       1.877  -0.215   2.906  1.00  0.00     0.067 A 
ATOM     75  C   UNL     1       0.757  -0.976   2.539  1.00  0.00     0.025 A 
ATOM     76  C   UNL     1       2.570  -0.497   4.085  1.00  0.00     0.101 A 
ATOM     77  C   UNL     1       0.330  -2.053   3.328  1.00  0.00    -0.009 A 
ATOM     78  C   UNL     1       2.139  -1.572   4.875  1.00  0.00     0.270 A 
ATOM     79  C   UNL     1       1.063  -2.377   4.478  1.00  0.00     0.094 A 
BRANCH  77  80
ATOM     80  C   UNL     1      -0.949  -2.719   3.050  1.00  0.00     0.002 A 
ATOM     81  C   UNL     1      -1.076  -3.608   1.969  1.00  0.00     0.030 A 
ATOM     82  C   UNL     1      -2.092  -2.463   3.841  1.00  0.00     0.048 A 
ATOM     83  C   UNL     1      -2.305  -4.214   1.692  1.00  0.00     0.041 A 
ATOM     84  C   UNL     1      -3.314  -3.077   3.561  1.00  0.00     0.023 A 
ATOM     85  Cl  UNL     1      -2.058  -1.352   5.173  1.00  0.00    -0.084 Cl
ATOM     86  Cl  UNL     1      -2.451  -5.287   0.356  1.00  0.00    -0.084 Cl
ATOM     87  C   UNL     1      -3.421  -3.953   2.483  1.00  0.00     0.022 A 
ENDBRANCH  77  80
BRANCH  78  88
ATOM     88  N   UNL     1       2.714  -1.776   6.211  1.00  0.00     0.062 N 
ATOM     89  O   UNL     1       2.396  -2.805   6.820  1.00  0.00    -0.258 OA
ATOM     90  O   UNL     1       3.422  -0.866   6.665  1.00  0.00    -0.258 OA
ENDBRANCH  78  88
ENDBRANCH  72  74
ENDBRANCH  71  72
ENDBRANCH  70  71
ENDBRANCH   1  70
TORSDOF 16
