REMARK SMILES O=C(OCCOC(=O)c1ccc(-c2c3nc(c(-c4cc(S(=O)(=O)[O-])ccc4F)c4ccc([nH]4)c(-c4cc(S(=O)(=O)[O-])ccc4F)c4nc(c(-c5cc(S(=O)(=O)[O-])ccc5F)c5ccc2[nH]5)C=C4)C=C3)cc1)C1=Cc2cc(Cl)cc(Cl)c2O[C@@H]1C(F)(F)F
REMARK SMILES IDX 5 1 4 2 3 3 2 4 1 5 72 6 73 7 83 8 74 9 82 10 75 11 81 12
REMARK SMILES IDX 76 13 79 14 77 15 78 16 80 17 84 18 85 19 86 20 87 21 6 22
REMARK SMILES IDX 7 23 8 24 9 25 10 26 71 27 11 28 70 29 12 30 13 31 14 32
REMARK SMILES IDX 64 33 15 34 69 35 63 36 65 37 16 38 68 39 62 40 61 41 17 43
REMARK SMILES IDX 49 44 29 45 48 46 30 47 33 48 47 49 66 50 31 51 32 52 46 54
REMARK SMILES IDX 67 55 34 56 18 57 19 58 27 59 20 60 26 61 28 62 25 63 21 64
REMARK SMILES IDX 22 65 23 66 24 67 50 68 51 69 59 70 52 71 58 72 60 73 57 74
REMARK SMILES IDX 53 75 54 76 55 77 56 78 35 79 36 80 44 81 37 82 43 83 45 84
REMARK SMILES IDX 42 85 38 86 39 87 40 88 41 89
REMARK H PARENT 65 42 33 53
REMARK Flexibility Score: inf
ROOT
ATOM      1  C   UNL     1       4.621   0.039   0.943  1.00  0.00     0.275 C 
ENDROOT
BRANCH   1   2
ATOM      2  C   UNL     1       3.848  -0.697  -0.935  1.00  0.00     0.275 C 
BRANCH   2   3
ATOM      3  O   UNL     1       3.067  -2.031  -1.154  1.00  0.00    -0.459 OA
BRANCH   3   4
ATOM      4  C   UNL     1       3.300  -2.943  -0.203  1.00  0.00     0.338 C 
ATOM      5  O   UNL     1       2.828  -4.035  -0.028  1.00  0.00    -0.246 OA
BRANCH   4   6
ATOM      6  C   UNL     1       4.068  -2.060   0.634  1.00  0.00     0.087 C 
ATOM      7  C   UNL     1       5.439  -1.897   0.101  1.00  0.00     0.027 C 
ATOM      8  C   UNL     1       2.747  -0.652   0.756  1.00  0.00     0.316 C 
ATOM      9  C   UNL     1       6.024  -0.369  -0.675  1.00  0.00     0.020 A 
ATOM     10  O   UNL     1       3.345   0.965  -0.098  1.00  0.00    -0.474 OA
ATOM     11  C   UNL     1       7.216  -0.407  -1.347  1.00  0.00     0.032 A 
ATOM     12  C   UNL     1       5.001   1.026  -0.857  1.00  0.00     0.146 A 
ATOM     13  C   UNL     1       7.480   0.721  -2.141  1.00  0.00     0.043 A 
ATOM     14  C   UNL     1       5.363   2.083  -1.649  1.00  0.00     0.085 A 
ATOM     15  Cl  UNL     1       8.942   0.675  -3.079  1.00  0.00    -0.084 Cl
ATOM     16  C   UNL     1       6.618   1.890  -2.284  1.00  0.00     0.045 A 
ATOM     17  Cl  UNL     1       4.421   3.462  -1.950  1.00  0.00    -0.080 Cl
BRANCH   8  18
ATOM     18  C   UNL     1       2.187  -0.955   2.189  1.00  0.00     0.430 C 
ATOM     19  F   UNL     1       0.945  -0.482   2.350  1.00  0.00    -0.167 F 
ATOM     20  F   UNL     1       2.054  -2.312   2.302  1.00  0.00    -0.167 F 
ATOM     21  F   UNL     1       2.974  -0.644   3.231  1.00  0.00    -0.167 F 
ENDBRANCH   8  18
ENDBRANCH   4   6
ENDBRANCH   3   4
ENDBRANCH   2   3
ENDBRANCH   1   2
BRANCH   1  22
ATOM     22  O   UNL     1       3.809   1.066   2.032  1.00  0.00    -0.458 OA
BRANCH  22  23
ATOM     23  C   UNL     1       3.021   2.184   2.113  1.00  0.00     0.338 C 
ATOM     24  O   UNL     1       2.704   2.977   1.248  1.00  0.00    -0.246 OA
BRANCH  23  25
ATOM     25  C   UNL     1       2.317   2.051   3.425  1.00  0.00     0.060 A 
ATOM     26  C   UNL     1       0.939   1.779   3.430  1.00  0.00     0.016 A 
ATOM     27  C   UNL     1       3.075   1.817   4.574  1.00  0.00     0.016 A 
ATOM     28  C   UNL     1       0.373   1.070   4.506  1.00  0.00     0.010 A 
ATOM     29  C   UNL     1       2.505   1.127   5.647  1.00  0.00     0.010 A 
ATOM     30  C   UNL     1       1.169   0.689   5.598  1.00  0.00    -0.014 A 
BRANCH  30  31
ATOM     31  C   UNL     1       0.563   0.091   6.819  1.00  0.00     0.031 A 
ATOM     32  C   UNL     1       0.093   1.078   7.847  1.00  0.00     0.074 A 
ATOM     33  C   UNL     1       0.488  -1.236   7.060  1.00  0.00     0.049 A 
ATOM     34  N   UNL     1      -0.402   0.882   9.038  1.00  0.00    -0.248 NA
ATOM     35  C   UNL     1       0.248   2.494   7.475  1.00  0.00     0.031 C 
ATOM     36  C   UNL     1       0.915  -2.301   6.153  1.00  0.00     0.029 A 
ATOM     37  N   UNL     1       0.029  -1.917   8.167  1.00  0.00    -0.354 N 
ATOM     38  C   UNL     1      -0.627   2.154   9.551  1.00  0.00     0.074 A 
ATOM     39  C   UNL     1      -0.126   3.102   8.583  1.00  0.00     0.031 C 
ATOM     40  C   UNL     1       0.699  -3.497   6.740  1.00  0.00     0.029 A 
ATOM     41  C   UNL     1       0.134  -3.291   8.074  1.00  0.00     0.049 A 
ATOM     42  H   UNL     1      -0.342  -1.463   8.958  1.00  0.00     0.167 HD
ATOM     43  C   UNL     1      -1.228   2.509  10.710  1.00  0.00     0.034 A 
ATOM     44  C   UNL     1      -0.190  -4.255   8.968  1.00  0.00     0.034 A 
ATOM     45  C   UNL     1      -1.669   1.559  11.691  1.00  0.00     0.049 A 
ATOM     46  C   UNL     1      -0.769  -3.835  10.309  1.00  0.00     0.074 A 
ATOM     47  C   UNL     1      -2.262   1.793  12.917  1.00  0.00     0.029 A 
ATOM     48  N   UNL     1      -1.540   0.181  11.562  1.00  0.00    -0.354 N 
ATOM     49  N   UNL     1      -1.034  -2.628  10.759  1.00  0.00    -0.248 NA
ATOM     50  C   UNL     1      -1.105  -4.909  11.257  1.00  0.00     0.031 C 
ATOM     51  C   UNL     1      -2.433   0.560  13.556  1.00  0.00     0.029 A 
ATOM     52  C   UNL     1      -2.022  -0.448  12.697  1.00  0.00     0.049 A 
ATOM     53  H   UNL     1      -1.161  -0.280  10.779  1.00  0.00     0.167 HD
ATOM     54  C   UNL     1      -1.616  -2.805  12.015  1.00  0.00     0.074 A 
ATOM     55  C   UNL     1      -1.666  -4.233  12.248  1.00  0.00     0.031 C 
ATOM     56  C   UNL     1      -2.075  -1.878  12.895  1.00  0.00     0.034 A 
BRANCH  43  57
ATOM     57  C   UNL     1      -1.367   3.991  10.953  1.00  0.00     0.023 A 
ATOM     58  C   UNL     1      -2.101   4.801  10.065  1.00  0.00     0.031 A 
ATOM     59  C   UNL     1      -0.637   4.620  11.973  1.00  0.00     0.131 A 
ATOM     60  C   UNL     1      -1.980   6.195  10.133  1.00  0.00     0.055 A 
ATOM     61  C   UNL     1      -0.609   6.010  12.100  1.00  0.00     0.041 A 
ATOM     62  F   UNL     1       0.106   3.900  12.827  1.00  0.00    -0.206 F 
ATOM     63  C   UNL     1      -1.261   6.807  11.162  1.00  0.00     0.022 A 
BRANCH  60  64
ATOM     64  S   UNL     1      -2.583   7.180   8.733  1.00  0.00     0.124 S 
ATOM     65  O   UNL     1      -1.765   6.664   7.637  1.00  0.00    -0.237 OA
ATOM     66  O   UNL     1      -3.999   6.836   8.689  1.00  0.00    -0.237 OA
ATOM     67  O   UNL     1      -2.286   8.555   9.129  1.00  0.00    -0.744 OA
ENDBRANCH  60  64
ENDBRANCH  43  57
BRANCH  44  68
ATOM     68  C   UNL     1       0.014  -5.714   8.678  1.00  0.00     0.023 A 
ATOM     69  C   UNL     1      -1.072  -6.611   8.659  1.00  0.00     0.031 A 
ATOM     70  C   UNL     1       1.304  -6.258   8.539  1.00  0.00     0.131 A 
ATOM     71  C   UNL     1      -0.847  -7.998   8.569  1.00  0.00     0.055 A 
ATOM     72  C   UNL     1       1.519  -7.633   8.396  1.00  0.00     0.041 A 
ATOM     73  F   UNL     1       2.383  -5.460   8.563  1.00  0.00    -0.206 F 
ATOM     74  C   UNL     1       0.441  -8.513   8.426  1.00  0.00     0.022 A 
BRANCH  71  75
ATOM     75  S   UNL     1      -2.257  -9.130   8.753  1.00  0.00     0.124 S 
ATOM     76  O   UNL     1      -2.748  -8.779  10.081  1.00  0.00    -0.237 OA
ATOM     77  O   UNL     1      -3.105  -8.745   7.631  1.00  0.00    -0.237 OA
ATOM     78  O   UNL     1      -1.647 -10.455   8.645  1.00  0.00    -0.744 OA
ENDBRANCH  71  75
ENDBRANCH  44  68
BRANCH  56  79
ATOM     79  C   UNL     1      -2.744  -2.380  14.153  1.00  0.00     0.023 A 
ATOM     80  C   UNL     1      -2.037  -3.069  15.153  1.00  0.00     0.031 A 
ATOM     81  C   UNL     1      -4.114  -2.135  14.360  1.00  0.00     0.131 A 
ATOM     82  C   UNL     1      -2.714  -3.533  16.292  1.00  0.00     0.055 A 
ATOM     83  C   UNL     1      -4.767  -2.542  15.524  1.00  0.00     0.041 A 
ATOM     84  F   UNL     1      -4.839  -1.481  13.438  1.00  0.00    -0.206 F 
ATOM     85  C   UNL     1      -4.069  -3.256  16.493  1.00  0.00     0.022 A 
BRANCH  82  86
ATOM     86  S   UNL     1      -1.819  -4.581  17.471  1.00  0.00     0.124 S 
ATOM     87  O   UNL     1      -1.376  -5.683  16.624  1.00  0.00    -0.237 OA
ATOM     88  O   UNL     1      -0.772  -3.686  17.952  1.00  0.00    -0.237 OA
ATOM     89  O   UNL     1      -2.837  -4.930  18.461  1.00  0.00    -0.744 OA
ENDBRANCH  82  86
ENDBRANCH  56  79
ENDBRANCH  30  31
ENDBRANCH  23  25
ENDBRANCH  22  23
ENDBRANCH   1  22
TORSDOF 15
