REMARK SMILES COc1cc2ccccc2cc1C(=O)Nc1cc(C(=O)OCCOC(=O)c2ccc(-c3c4nc(c(-c5cc(S(=O)(=O)[O-])ccc5F)c5ccc([nH]5)c(-c5cc(S(=O)(=O)[O-])ccc5F)c5nc(c(-c6cc(S(=O)(=O)[O-])ccc6F)c6ccc3[nH]6)C=C5)C=C4)cc2)ccc1C
REMARK SMILES IDX 22 1 21 2 19 3 20 4 18 5 16 6 17 7 92 8 91 9 93 10 90 11
REMARK SMILES IDX 15 12 13 13 14 14 12 16 3 17 4 18 5 19 11 20 6 21 10 22 7 23
REMARK SMILES IDX 9 24 8 25 2 26 1 27 23 28 24 29 25 30 26 31 27 32 28 33
REMARK SMILES IDX 89 34 29 35 88 36 30 37 31 38 32 39 82 40 33 41 87 42 81 43
REMARK SMILES IDX 83 44 34 45 86 46 80 47 79 48 35 50 67 51 47 52 66 53 48 54
REMARK SMILES IDX 51 55 65 56 84 57 49 58 50 59 64 61 85 62 52 63 36 64 37 65
REMARK SMILES IDX 45 66 38 67 44 68 46 69 43 70 39 71 40 72 41 73 42 74 68 75
REMARK SMILES IDX 69 76 77 77 70 78 76 79 78 80 75 81 71 82 72 83 73 84 74 85
REMARK SMILES IDX 53 86 54 87 62 88 55 89 61 90 63 91 60 92 56 93 57 94 58 95
REMARK SMILES IDX 59 96
REMARK H PARENT 15 15 83 49 51 60
REMARK Flexibility Score: inf
ROOT
ATOM      1  C   UNL     1       0.318   0.970  -6.146  1.00  0.00     0.275 C 
ENDROOT
BRANCH   1   2
ATOM      2  O   UNL     1       0.837  -0.058  -5.283  1.00  0.00    -0.458 OA
BRANCH   2   3
ATOM      3  C   UNL     1       0.904   0.359  -4.000  1.00  0.00     0.338 C 
ATOM      4  O   UNL     1       0.582   1.467  -3.603  1.00  0.00    -0.246 OA
BRANCH   3   5
ATOM      5  C   UNL     1       1.529  -0.581  -3.064  1.00  0.00     0.062 A 
ATOM      6  C   UNL     1       3.003  -0.560  -1.144  1.00  0.00     0.045 A 
ATOM      7  C   UNL     1       2.643  -0.068  -2.397  1.00  0.00     0.042 A 
ATOM      8  C   UNL     1       2.368  -1.715  -0.641  1.00  0.00    -0.027 A 
ATOM      9  C   UNL     1       1.292  -2.269  -1.369  1.00  0.00     0.006 A 
ATOM     10  C   UNL     1       2.611  -2.250   0.746  1.00  0.00     0.046 C 
ATOM     11  C   UNL     1       0.850  -1.689  -2.563  1.00  0.00     0.016 A 
BRANCH   6  12
ATOM     12  N   UNL     1       3.903   0.169  -0.340  1.00  0.00    -0.322 N 
ATOM     13  C   UNL     1       4.097   1.540  -0.219  1.00  0.00     0.259 C 
ATOM     14  O   UNL     1       5.112   1.928   0.366  1.00  0.00    -0.269 OA
ATOM     15  H   UNL     1       4.488  -0.382   0.228  1.00  0.00     0.170 HD
BRANCH  13  16
ATOM     16  C   UNL     1       3.114   2.565  -0.693  1.00  0.00     0.082 A 
ATOM     17  C   UNL     1       1.737   2.363  -0.762  1.00  0.00     0.132 A 
ATOM     18  C   UNL     1       0.956   3.257  -1.490  1.00  0.00     0.056 A 
ATOM     19  C   UNL     1       1.453   4.477  -1.948  1.00  0.00    -0.015 A 
ATOM     20  C   UNL     1       3.613   3.831  -1.077  1.00  0.00     0.026 A 
ATOM     21  C   UNL     1       0.626   5.378  -2.635  1.00  0.00     0.009 A 
ATOM     22  C   UNL     1       2.777   4.822  -1.648  1.00  0.00    -0.017 A 
ATOM     23  C   UNL     1       1.036   6.686  -2.868  1.00  0.00     0.001 A 
ATOM     24  C   UNL     1       3.194   6.140  -1.926  1.00  0.00     0.009 A 
ATOM     25  C   UNL     1       2.315   7.074  -2.491  1.00  0.00     0.001 A 
BRANCH  17  26
ATOM     26  O   UNL     1       1.057   1.289  -0.255  1.00  0.00    -0.496 OA
ATOM     27  C   UNL     1       1.058   1.266   1.169  1.00  0.00     0.278 C 
ENDBRANCH  17  26
ENDBRANCH  13  16
ENDBRANCH   6  12
ENDBRANCH   3   5
ENDBRANCH   2   3
ENDBRANCH   1   2
BRANCH   1  28
ATOM     28  C   UNL     1      -0.781   0.462  -7.079  1.00  0.00     0.275 C 
BRANCH  28  29
ATOM     29  O   UNL     1      -1.923  -0.247  -6.539  1.00  0.00    -0.458 OA
BRANCH  29  30
ATOM     30  C   UNL     1      -1.992  -0.623  -5.238  1.00  0.00     0.338 C 
ATOM     31  O   UNL     1      -1.721  -1.755  -4.855  1.00  0.00    -0.246 OA
BRANCH  30  32
ATOM     32  C   UNL     1      -2.356   0.484  -4.312  1.00  0.00     0.060 A 
ATOM     33  C   UNL     1      -2.364   0.268  -2.921  1.00  0.00     0.016 A 
ATOM     34  C   UNL     1      -2.547   1.770  -4.809  1.00  0.00     0.016 A 
ATOM     35  C   UNL     1      -2.539   1.340  -2.033  1.00  0.00     0.010 A 
ATOM     36  C   UNL     1      -2.583   2.838  -3.939  1.00  0.00     0.010 A 
ATOM     37  C   UNL     1      -2.642   2.633  -2.550  1.00  0.00    -0.014 A 
BRANCH  37  38
ATOM     38  C   UNL     1      -3.132   3.815  -1.828  1.00  0.00     0.031 A 
ATOM     39  C   UNL     1      -2.302   4.679  -0.967  1.00  0.00     0.074 A 
ATOM     40  C   UNL     1      -4.391   4.134  -2.184  1.00  0.00     0.049 A 
ATOM     41  N   UNL     1      -2.081   5.943  -1.160  1.00  0.00    -0.248 NA
ATOM     42  C   UNL     1      -1.615   4.117   0.202  1.00  0.00     0.031 C 
ATOM     43  C   UNL     1      -5.170   5.325  -1.937  1.00  0.00     0.029 A 
ATOM     44  N   UNL     1      -5.319   3.200  -2.641  1.00  0.00    -0.354 N 
ATOM     45  C   UNL     1      -1.274   6.392  -0.115  1.00  0.00     0.074 A 
ATOM     46  C   UNL     1      -0.950   5.185   0.651  1.00  0.00     0.031 C 
ATOM     47  C   UNL     1      -6.472   4.974  -1.929  1.00  0.00     0.029 A 
ATOM     48  C   UNL     1      -6.535   3.516  -2.044  1.00  0.00     0.049 A 
ATOM     49  H   UNL     1      -5.147   2.460  -3.266  1.00  0.00     0.167 HD
ATOM     50  C   UNL     1      -1.640   7.489   0.608  1.00  0.00     0.034 A 
ATOM     51  C   UNL     1      -6.975   2.659  -1.072  1.00  0.00     0.034 A 
ATOM     52  C   UNL     1      -3.063   7.557   0.799  1.00  0.00     0.049 A 
ATOM     53  C   UNL     1      -6.925   3.320   0.284  1.00  0.00     0.074 A 
ATOM     54  C   UNL     1      -4.101   8.156   0.115  1.00  0.00     0.029 A 
ATOM     55  N   UNL     1      -3.623   6.687   1.713  1.00  0.00    -0.354 N 
ATOM     56  N   UNL     1      -6.059   4.236   0.633  1.00  0.00    -0.248 NA
ATOM     57  C   UNL     1      -7.919   3.052   1.314  1.00  0.00     0.031 C 
ATOM     58  C   UNL     1      -5.306   7.561   0.575  1.00  0.00     0.029 A 
ATOM     59  C   UNL     1      -4.987   6.634   1.554  1.00  0.00     0.049 A 
ATOM     60  H   UNL     1      -3.116   6.175   2.385  1.00  0.00     0.167 HD
ATOM     61  C   UNL     1      -6.424   4.749   1.852  1.00  0.00     0.074 A 
ATOM     62  C   UNL     1      -7.580   3.959   2.243  1.00  0.00     0.031 C 
ATOM     63  C   UNL     1      -5.782   5.805   2.436  1.00  0.00     0.034 A 
BRANCH  50  64
ATOM     64  C   UNL     1      -0.686   8.647   0.608  1.00  0.00     0.023 A 
ATOM     65  C   UNL     1      -1.163   9.969   0.537  1.00  0.00     0.031 A 
ATOM     66  C   UNL     1       0.713   8.482   0.660  1.00  0.00     0.131 A 
ATOM     67  C   UNL     1      -0.274  11.055   0.455  1.00  0.00     0.055 A 
ATOM     68  C   UNL     1       1.599   9.564   0.578  1.00  0.00     0.041 A 
ATOM     69  F   UNL     1       1.259   7.264   0.811  1.00  0.00    -0.206 F 
ATOM     70  C   UNL     1       1.107  10.859   0.462  1.00  0.00     0.022 A 
BRANCH  67  71
ATOM     71  S   UNL     1      -0.953  12.732   0.304  1.00  0.00     0.124 S 
ATOM     72  O   UNL     1      -1.773  12.631  -0.899  1.00  0.00    -0.237 OA
ATOM     73  O   UNL     1      -1.674  12.889   1.563  1.00  0.00    -0.237 OA
ATOM     74  O   UNL     1       0.237  13.571   0.168  1.00  0.00    -0.744 OA
ENDBRANCH  67  71
ENDBRANCH  50  64
BRANCH  51  75
ATOM     75  C   UNL     1      -6.684   1.208  -1.351  1.00  0.00     0.023 A 
ATOM     76  C   UNL     1      -7.002   0.718  -2.641  1.00  0.00     0.031 A 
ATOM     77  C   UNL     1      -5.870   0.397  -0.548  1.00  0.00     0.131 A 
ATOM     78  C   UNL     1      -6.394  -0.440  -3.148  1.00  0.00     0.055 A 
ATOM     79  C   UNL     1      -5.330  -0.809  -1.029  1.00  0.00     0.041 A 
ATOM     80  F   UNL     1      -5.505   0.792   0.680  1.00  0.00    -0.206 F 
ATOM     81  C   UNL     1      -5.558  -1.214  -2.347  1.00  0.00     0.022 A 
BRANCH  78  82
ATOM     82  S   UNL     1      -6.497  -0.751  -4.937  1.00  0.00     0.124 S 
ATOM     83  O   UNL     1      -7.780  -1.437  -5.053  1.00  0.00    -0.237 OA
ATOM     84  O   UNL     1      -6.443   0.597  -5.499  1.00  0.00    -0.237 OA
ATOM     85  O   UNL     1      -5.318  -1.569  -5.207  1.00  0.00    -0.744 OA
ENDBRANCH  78  82
ENDBRANCH  51  75
BRANCH  63  86
ATOM     86  C   UNL     1      -5.910   6.207   3.886  1.00  0.00     0.023 A 
ATOM     87  C   UNL     1      -6.464   5.357   4.846  1.00  0.00     0.031 A 
ATOM     88  C   UNL     1      -5.376   7.423   4.380  1.00  0.00     0.131 A 
ATOM     89  C   UNL     1      -6.593   5.755   6.183  1.00  0.00     0.055 A 
ATOM     90  C   UNL     1      -5.404   7.771   5.734  1.00  0.00     0.041 A 
ATOM     91  F   UNL     1      -4.784   8.319   3.576  1.00  0.00    -0.206 F 
ATOM     92  C   UNL     1      -6.041   6.944   6.645  1.00  0.00     0.022 A 
BRANCH  89  93
ATOM     93  S   UNL     1      -7.603   4.713   7.261  1.00  0.00     0.124 S 
ATOM     94  O   UNL     1      -8.889   4.730   6.569  1.00  0.00    -0.237 OA
ATOM     95  O   UNL     1      -6.884   3.443   7.226  1.00  0.00    -0.237 OA
ATOM     96  O   UNL     1      -7.575   5.414   8.541  1.00  0.00    -0.744 OA
ENDBRANCH  89  93
ENDBRANCH  63  86
ENDBRANCH  37  38
ENDBRANCH  30  32
ENDBRANCH  29  30
ENDBRANCH  28  29
ENDBRANCH   1  28
TORSDOF 17
