REMARK SMILES Cc1cccc(-c2ncc(C[NH+]3CCC4(CC3)NC(=O)C[C@H]4C(=O)OCCOC(=O)c3ccc(-c4c5nc(c(-c6cc(S(=O)(=O)[O-])ccc6F)c6ccc([nH]6)c(-c6cc(S(=O)(=O)[O-])ccc6F)c6nc(c(-c7cc(S(=O)(=O)[O-])ccc7F)c7ccc4[nH]7)C=C6)C=C5)cc3)cn2)c1
REMARK SMILES IDX 26 1 25 2 23 3 24 4 22 5 12 6 13 7 17 8 14 10 16 11 15 12
REMARK SMILES IDX 18 13 19 14 21 16 20 17 11 18 10 19 7 20 8 21 95 22 9 23
REMARK SMILES IDX 94 24 6 25 1 26 2 27 3 28 96 29 4 30 5 31 27 32 28 33 29 34
REMARK SMILES IDX 30 35 31 36 32 37 93 38 33 39 92 40 34 41 35 42 36 43 86 44
REMARK SMILES IDX 37 45 91 46 85 47 87 48 38 49 90 50 84 51 83 52 39 54 71 55
REMARK SMILES IDX 51 56 70 57 52 58 55 59 69 60 88 61 53 62 54 63 68 65 89 66
REMARK SMILES IDX 56 67 40 68 41 69 49 70 42 71 48 72 50 73 47 74 43 75 44 76
REMARK SMILES IDX 45 77 46 78 72 79 73 80 81 81 74 82 80 83 82 84 79 85 75 86
REMARK SMILES IDX 76 87 77 88 78 89 57 90 58 91 66 92 59 93 65 94 67 95 64 96
REMARK SMILES IDX 60 97 61 98 62 99 63 100
REMARK H PARENT 12 9 18 15 87 53 55 64
REMARK Flexibility Score: inf
ROOT
ATOM      1  C   UNL     1      -0.527   4.631  -4.464  1.00  0.00     0.274 C 
ENDROOT
BRANCH   1   2
ATOM      2  O   UNL     1       0.309   4.775  -3.263  1.00  0.00    -0.462 OA
BRANCH   2   3
ATOM      3  C   UNL     1      -0.379   5.217  -2.213  1.00  0.00     0.311 C 
ATOM      4  O   UNL     1      -1.582   5.329  -2.388  1.00  0.00    -0.252 OA
BRANCH   3   5
ATOM      5  C   UNL     1       0.284   5.623  -0.867  1.00  0.00     0.134 C 
ATOM      6  N   UNL     1      -3.418   6.220   0.801  1.00  0.00    -0.331 N 
ATOM      7  C   UNL     1      -2.353   6.641   1.718  1.00  0.00     0.264 C 
ATOM      8  C   UNL     1      -2.802   5.826  -0.431  1.00  0.00     0.264 C 
ATOM      9  H   UNL     1      -3.979   7.072   0.817  1.00  0.00     0.348 HD
ATOM     10  C   UNL     1      -0.862   6.094   1.552  1.00  0.00     0.091 C 
ATOM     11  C   UNL     1      -1.864   4.635  -0.094  1.00  0.00     0.091 C 
ATOM     12  C   UNL     1      -0.537   5.137   0.354  1.00  0.00     0.064 C 
ATOM     13  N   UNL     1       0.271   4.037   0.846  1.00  0.00    -0.349 N 
ATOM     14  C   UNL     1       1.525   3.982   0.316  1.00  0.00     0.221 C 
ATOM     15  H   UNL     1      -0.058   3.386   1.507  1.00  0.00     0.164 HD
ATOM     16  C   UNL     1       1.706   5.132  -0.613  1.00  0.00     0.117 C 
ATOM     17  O   UNL     1       2.370   3.137   0.617  1.00  0.00    -0.275 OA
BRANCH   6  18
ATOM     18  C   UNL     1      -4.574   5.353   1.133  1.00  0.00     0.302 C 
BRANCH  18  19
ATOM     19  C   UNL     1      -4.402   3.841   0.965  1.00  0.00     0.043 A 
ATOM     20  C   UNL     1      -3.043   1.510   0.483  1.00  0.00     0.159 A 
ATOM     21  N   UNL     1      -3.121   1.950   1.758  1.00  0.00    -0.236 NA
ATOM     22  N   UNL     1      -3.751   2.036  -0.537  1.00  0.00    -0.236 NA
ATOM     23  C   UNL     1      -3.827   3.090   1.973  1.00  0.00     0.124 A 
ATOM     24  C   UNL     1      -4.417   3.196  -0.273  1.00  0.00     0.124 A 
BRANCH  20  25
ATOM     25  C   UNL     1      -2.072   0.429   0.196  1.00  0.00     0.019 A 
ATOM     26  C   UNL     1       1.736  -0.269   0.123  1.00  0.00     0.044 C 
ATOM     27  C   UNL     1       0.242  -0.453   0.063  1.00  0.00    -0.050 A 
ATOM     28  C   UNL     1      -0.267  -1.734  -0.147  1.00  0.00     0.003 A 
ATOM     29  C   UNL     1      -0.667   0.617   0.220  1.00  0.00     0.015 A 
ATOM     30  C   UNL     1      -1.644  -1.936  -0.224  1.00  0.00     0.001 A 
ATOM     31  C   UNL     1      -2.532  -0.867  -0.063  1.00  0.00     0.012 A 
ENDBRANCH  20  25
ENDBRANCH  18  19
ENDBRANCH   6  18
ENDBRANCH   3   5
ENDBRANCH   2   3
ENDBRANCH   1   2
BRANCH   1  32
ATOM     32  C   UNL     1      -1.819   5.540  -4.817  1.00  0.00     0.275 C 
BRANCH  32  33
ATOM     33  O   UNL     1      -2.272   6.842  -4.232  1.00  0.00    -0.458 OA
BRANCH  33  34
ATOM     34  C   UNL     1      -1.700   7.865  -3.526  1.00  0.00     0.338 C 
ATOM     35  O   UNL     1      -2.319   8.530  -2.705  1.00  0.00    -0.246 OA
BRANCH  34  36
ATOM     36  C   UNL     1      -0.246   7.980  -3.652  1.00  0.00     0.060 A 
ATOM     37  C   UNL     1       0.585   8.319  -2.566  1.00  0.00     0.016 A 
ATOM     38  C   UNL     1       0.267   7.433  -4.797  1.00  0.00     0.016 A 
ATOM     39  C   UNL     1       1.921   7.906  -2.571  1.00  0.00     0.010 A 
ATOM     40  C   UNL     1       1.446   6.770  -4.673  1.00  0.00     0.010 A 
ATOM     41  C   UNL     1       2.311   7.058  -3.604  1.00  0.00    -0.014 A 
BRANCH  41  42
ATOM     42  C   UNL     1       3.669   6.756  -4.030  1.00  0.00     0.031 A 
ATOM     43  C   UNL     1       4.365   5.548  -3.545  1.00  0.00     0.074 A 
ATOM     44  C   UNL     1       3.912   7.527  -5.120  1.00  0.00     0.049 A 
ATOM     45  N   UNL     1       5.538   5.515  -3.001  1.00  0.00    -0.248 NA
ATOM     46  C   UNL     1       3.714   4.225  -3.536  1.00  0.00     0.031 C 
ATOM     47  C   UNL     1       4.812   7.445  -6.243  1.00  0.00     0.029 A 
ATOM     48  N   UNL     1       3.198   8.692  -5.417  1.00  0.00    -0.354 N 
ATOM     49  C   UNL     1       5.917   4.178  -3.060  1.00  0.00     0.074 A 
ATOM     50  C   UNL     1       4.686   3.427  -3.075  1.00  0.00     0.031 C 
ATOM     51  C   UNL     1       4.829   8.651  -6.864  1.00  0.00     0.029 A 
ATOM     52  C   UNL     1       3.955   9.576  -6.136  1.00  0.00     0.049 A 
ATOM     53  H   UNL     1       2.266   8.855  -5.143  1.00  0.00     0.167 HD
ATOM     54  C   UNL     1       7.070   3.818  -3.708  1.00  0.00     0.034 A 
ATOM     55  C   UNL     1       4.268  10.699  -5.423  1.00  0.00     0.034 A 
ATOM     56  C   UNL     1       7.554   4.948  -4.490  1.00  0.00     0.049 A 
ATOM     57  C   UNL     1       5.674  10.511  -4.917  1.00  0.00     0.074 A 
ATOM     58  C   UNL     1       7.489   5.218  -5.846  1.00  0.00     0.029 A 
ATOM     59  N   UNL     1       7.901   6.130  -3.862  1.00  0.00    -0.354 N 
ATOM     60  N   UNL     1       6.205   9.357  -4.611  1.00  0.00    -0.248 NA
ATOM     61  C   UNL     1       6.624  11.609  -4.891  1.00  0.00     0.031 C 
ATOM     62  C   UNL     1       7.797   6.590  -6.025  1.00  0.00     0.029 A 
ATOM     63  C   UNL     1       7.992   7.155  -4.776  1.00  0.00     0.049 A 
ATOM     64  H   UNL     1       8.061   6.225  -2.896  1.00  0.00     0.167 HD
ATOM     65  C   UNL     1       7.558   9.510  -4.497  1.00  0.00     0.074 A 
ATOM     66  C   UNL     1       7.765  10.944  -4.654  1.00  0.00     0.031 C 
ATOM     67  C   UNL     1       8.427   8.466  -4.341  1.00  0.00     0.034 A 
BRANCH  54  68
ATOM     68  C   UNL     1       7.554   2.408  -3.989  1.00  0.00     0.023 A 
ATOM     69  C   UNL     1       8.499   2.201  -5.019  1.00  0.00     0.031 A 
ATOM     70  C   UNL     1       7.213   1.264  -3.244  1.00  0.00     0.131 A 
ATOM     71  C   UNL     1       9.010   0.928  -5.322  1.00  0.00     0.055 A 
ATOM     72  C   UNL     1       7.714  -0.015  -3.551  1.00  0.00     0.041 A 
ATOM     73  F   UNL     1       6.415   1.342  -2.169  1.00  0.00    -0.206 F 
ATOM     74  C   UNL     1       8.614  -0.190  -4.598  1.00  0.00     0.022 A 
BRANCH  71  75
ATOM     75  S   UNL     1      10.220   0.776  -6.666  1.00  0.00     0.124 S 
ATOM     76  O   UNL     1       9.439   1.191  -7.828  1.00  0.00    -0.237 OA
ATOM     77  O   UNL     1      11.278   1.686  -6.242  1.00  0.00    -0.237 OA
ATOM     78  O   UNL     1      10.579  -0.641  -6.640  1.00  0.00    -0.744 OA
ENDBRANCH  71  75
ENDBRANCH  54  68
BRANCH  55  79
ATOM     79  C   UNL     1       3.094  11.258  -4.630  1.00  0.00     0.023 A 
ATOM     80  C   UNL     1       1.873  11.461  -5.325  1.00  0.00     0.031 A 
ATOM     81  C   UNL     1       3.025  11.310  -3.229  1.00  0.00     0.131 A 
ATOM     82  C   UNL     1       0.645  11.573  -4.646  1.00  0.00     0.055 A 
ATOM     83  C   UNL     1       1.800  11.495  -2.550  1.00  0.00     0.041 A 
ATOM     84  F   UNL     1       4.113  11.089  -2.479  1.00  0.00    -0.206 F 
ATOM     85  C   UNL     1       0.599  11.595  -3.256  1.00  0.00     0.022 A 
BRANCH  82  86
ATOM     86  S   UNL     1      -0.889  11.422  -5.619  1.00  0.00     0.124 S 
ATOM     87  O   UNL     1      -0.960  12.719  -6.282  1.00  0.00    -0.237 OA
ATOM     88  O   UNL     1      -0.590  10.277  -6.479  1.00  0.00    -0.237 OA
ATOM     89  O   UNL     1      -1.915  11.176  -4.613  1.00  0.00    -0.744 OA
ENDBRANCH  82  86
ENDBRANCH  55  79
BRANCH  67  90
ATOM     90  C   UNL     1       9.839   8.605  -3.846  1.00  0.00     0.023 A 
ATOM     91  C   UNL     1      10.282   9.784  -3.253  1.00  0.00     0.031 A 
ATOM     92  C   UNL     1      10.764   7.533  -3.857  1.00  0.00     0.131 A 
ATOM     93  C   UNL     1      11.612   9.939  -2.863  1.00  0.00     0.055 A 
ATOM     94  C   UNL     1      12.052   7.644  -3.333  1.00  0.00     0.041 A 
ATOM     95  F   UNL     1      10.462   6.327  -4.359  1.00  0.00    -0.206 F 
ATOM     96  C   UNL     1      12.498   8.868  -2.864  1.00  0.00     0.022 A 
BRANCH  93  97
ATOM     97  S   UNL     1      12.152  11.620  -2.496  1.00  0.00     0.124 S 
ATOM     98  O   UNL     1      11.929  12.287  -3.778  1.00  0.00    -0.237 OA
ATOM     99  O   UNL     1      11.250  12.013  -1.419  1.00  0.00    -0.237 OA
ATOM    100  O   UNL     1      13.551  11.453  -2.115  1.00  0.00    -0.744 OA
ENDBRANCH  93  97
ENDBRANCH  67  90
ENDBRANCH  41  42
ENDBRANCH  34  36
ENDBRANCH  33  34
ENDBRANCH  32  33
ENDBRANCH   1  32
TORSDOF 17
