REMARK SMILES O=C(OCCOC(=O)C1CCN(c2ccc(C(F)(F)F)cc2[N+](=O)[O-])CC1)c1ccc(-c2c3nc(c(-c4cc(S(=O)(=O)[O-])ccc4F)c4ccc([nH]4)c(-c4cc(S(=O)(=O)[O-])ccc4F)c4nc(c(-c5cc(S(=O)(=O)[O-])ccc5F)c5ccc2[nH]5)C=C4)C=C3)cc1
REMARK SMILES IDX 4 1 3 2 2 3 1 4 28 5 29 6 90 7 30 8 89 9 31 10 32 11 33 12
REMARK SMILES IDX 83 13 34 14 88 15 82 16 84 17 35 18 87 19 81 20 80 21 36 23
REMARK SMILES IDX 68 24 48 25 67 26 49 27 52 28 66 29 85 30 50 31 51 32 65 34
REMARK SMILES IDX 86 35 53 36 37 37 38 38 46 39 39 40 45 41 47 42 44 43 40 44
REMARK SMILES IDX 41 45 42 46 43 47 69 48 70 49 78 50 71 51 77 52 79 53 76 54
REMARK SMILES IDX 72 55 73 56 74 57 75 58 54 59 55 60 63 61 56 62 62 63 64 64
REMARK SMILES IDX 61 65 57 66 58 67 59 68 60 69 5 70 6 71 7 72 8 73 9 74 10 75
REMARK SMILES IDX 27 76 11 77 26 78 12 79 13 80 14 81 22 82 15 83 21 84 16 85
REMARK SMILES IDX 23 86 24 87 25 88 17 89 18 90 19 91 20 92
REMARK H PARENT 84 22 52 33
REMARK Flexibility Score: inf
ROOT
ATOM      1  C   UNL     1       4.506  -1.116  -1.239  1.00  0.00     0.275 C 
ENDROOT
BRANCH   1   2
ATOM      2  O   UNL     1       3.289  -1.333  -0.496  1.00  0.00    -0.458 OA
BRANCH   2   3
ATOM      3  C   UNL     1       2.986  -1.070   0.800  1.00  0.00     0.338 C 
ATOM      4  O   UNL     1       1.979  -1.591   1.278  1.00  0.00    -0.246 OA
BRANCH   3   5
ATOM      5  C   UNL     1       3.694  -0.041   1.633  1.00  0.00     0.060 A 
ATOM      6  C   UNL     1       5.007   0.398   1.451  1.00  0.00     0.016 A 
ATOM      7  C   UNL     1       2.930   0.584   2.645  1.00  0.00     0.016 A 
ATOM      8  C   UNL     1       5.524   1.462   2.193  1.00  0.00     0.010 A 
ATOM      9  C   UNL     1       3.442   1.657   3.391  1.00  0.00     0.010 A 
ATOM     10  C   UNL     1       4.754   2.090   3.174  1.00  0.00    -0.014 A 
BRANCH  10  11
ATOM     11  C   UNL     1       5.457   2.992   4.117  1.00  0.00     0.031 A 
ATOM     12  C   UNL     1       5.953   2.377   5.392  1.00  0.00     0.074 A 
ATOM     13  C   UNL     1       5.782   4.254   3.780  1.00  0.00     0.049 A 
ATOM     14  N   UNL     1       6.752   2.873   6.297  1.00  0.00    -0.248 NA
ATOM     15  C   UNL     1       5.506   1.001   5.667  1.00  0.00     0.031 C 
ATOM     16  C   UNL     1       5.407   4.910   2.530  1.00  0.00     0.029 A 
ATOM     17  N   UNL     1       6.528   5.200   4.436  1.00  0.00    -0.354 N 
ATOM     18  C   UNL     1       6.926   1.860   7.232  1.00  0.00     0.074 A 
ATOM     19  C   UNL     1       6.100   0.749   6.819  1.00  0.00     0.031 C 
ATOM     20  C   UNL     1       5.930   6.148   2.502  1.00  0.00     0.029 A 
ATOM     21  C   UNL     1       6.674   6.379   3.736  1.00  0.00     0.049 A 
ATOM     22  H   UNL     1       6.922   5.052   5.325  1.00  0.00     0.167 HD
ATOM     23  C   UNL     1       7.723   1.850   8.326  1.00  0.00     0.034 A 
ATOM     24  C   UNL     1       7.344   7.505   4.056  1.00  0.00     0.034 A 
ATOM     25  C   UNL     1       8.495   2.990   8.742  1.00  0.00     0.049 A 
ATOM     26  C   UNL     1       8.128   7.514   5.348  1.00  0.00     0.074 A 
ATOM     27  C   UNL     1       9.290   3.134   9.862  1.00  0.00     0.029 A 
ATOM     28  N   UNL     1       8.547   4.199   8.055  1.00  0.00    -0.354 N 
ATOM     29  N   UNL     1       8.292   6.544   6.221  1.00  0.00    -0.248 NA
ATOM     30  C   UNL     1       8.835   8.754   5.687  1.00  0.00     0.031 C 
ATOM     31  C   UNL     1       9.762   4.452   9.892  1.00  0.00     0.029 A 
ATOM     32  C   UNL     1       9.334   5.105   8.745  1.00  0.00     0.049 A 
ATOM     33  H   UNL     1       8.089   4.384   7.203  1.00  0.00     0.167 HD
ATOM     34  C   UNL     1       9.156   7.046   7.191  1.00  0.00     0.074 A 
ATOM     35  C   UNL     1       9.487   8.398   6.784  1.00  0.00     0.031 C 
ATOM     36  C   UNL     1       9.641   6.449   8.311  1.00  0.00     0.034 A 
BRANCH  23  37
ATOM     37  C   UNL     1       7.701   0.594   9.160  1.00  0.00     0.023 A 
ATOM     38  C   UNL     1       8.136  -0.641   8.644  1.00  0.00     0.031 A 
ATOM     39  C   UNL     1       7.122   0.608  10.440  1.00  0.00     0.131 A 
ATOM     40  C   UNL     1       7.894  -1.822   9.363  1.00  0.00     0.055 A 
ATOM     41  C   UNL     1       6.967  -0.560  11.188  1.00  0.00     0.041 A 
ATOM     42  F   UNL     1       6.657   1.751  10.967  1.00  0.00    -0.206 F 
ATOM     43  C   UNL     1       7.335  -1.787  10.642  1.00  0.00     0.022 A 
BRANCH  40  44
ATOM     44  S   UNL     1       8.146  -3.413   8.526  1.00  0.00     0.124 S 
ATOM     45  O   UNL     1       7.225  -3.300   7.397  1.00  0.00    -0.237 OA
ATOM     46  O   UNL     1       9.566  -3.377   8.197  1.00  0.00    -0.237 OA
ATOM     47  O   UNL     1       7.763  -4.396   9.537  1.00  0.00    -0.744 OA
ENDBRANCH  40  44
ENDBRANCH  23  37
BRANCH  24  48
ATOM     48  C   UNL     1       7.307   8.711   3.171  1.00  0.00     0.023 A 
ATOM     49  C   UNL     1       8.477   9.252   2.609  1.00  0.00     0.031 A 
ATOM     50  C   UNL     1       6.097   9.389   2.932  1.00  0.00     0.131 A 
ATOM     51  C   UNL     1       8.420  10.456   1.885  1.00  0.00     0.055 A 
ATOM     52  C   UNL     1       6.038  10.557   2.167  1.00  0.00     0.041 A 
ATOM     53  F   UNL     1       4.946   8.925   3.444  1.00  0.00    -0.206 F 
ATOM     54  C   UNL     1       7.207  11.105   1.651  1.00  0.00     0.022 A 
BRANCH  51  55
ATOM     55  S   UNL     1       9.973  11.218   1.331  1.00  0.00     0.124 S 
ATOM     56  O   UNL     1      10.699  11.360   2.587  1.00  0.00    -0.237 OA
ATOM     57  O   UNL     1      10.485  10.216   0.402  1.00  0.00    -0.237 OA
ATOM     58  O   UNL     1       9.537  12.470   0.716  1.00  0.00    -0.744 OA
ENDBRANCH  51  55
ENDBRANCH  24  48
BRANCH  36  59
ATOM     59  C   UNL     1      10.621   7.243   9.136  1.00  0.00     0.023 A 
ATOM     60  C   UNL     1      10.245   8.420   9.805  1.00  0.00     0.031 A 
ATOM     61  C   UNL     1      11.957   6.816   9.246  1.00  0.00     0.131 A 
ATOM     62  C   UNL     1      11.210   9.167  10.496  1.00  0.00     0.055 A 
ATOM     63  C   UNL     1      12.895   7.524   9.996  1.00  0.00     0.041 A 
ATOM     64  F   UNL     1      12.370   5.698   8.627  1.00  0.00    -0.206 F 
ATOM     65  C   UNL     1      12.527   8.716  10.613  1.00  0.00     0.022 A 
BRANCH  62  66
ATOM     66  S   UNL     1      10.744  10.795  11.144  1.00  0.00     0.124 S 
ATOM     67  O   UNL     1      10.276  11.476   9.941  1.00  0.00    -0.237 OA
ATOM     68  O   UNL     1       9.718  10.458  12.125  1.00  0.00    -0.237 OA
ATOM     69  O   UNL     1      11.992  11.310  11.704  1.00  0.00    -0.744 OA
ENDBRANCH  62  66
ENDBRANCH  36  59
ENDBRANCH  10  11
ENDBRANCH   3   5
ENDBRANCH   2   3
ENDBRANCH   1   2
BRANCH   1  70
ATOM     70  C   UNL     1       4.548   0.213  -2.000  1.00  0.00     0.274 C 
BRANCH  70  71
ATOM     71  O   UNL     1       4.111   1.315  -1.195  1.00  0.00    -0.462 OA
BRANCH  71  72
ATOM     72  C   UNL     1       2.791   1.635  -1.313  1.00  0.00     0.309 C 
ATOM     73  O   UNL     1       2.030   1.154  -2.143  1.00  0.00    -0.252 OA
BRANCH  72  74
ATOM     74  C   UNL     1       2.375   2.582  -0.203  1.00  0.00     0.103 C 
ATOM     75  C   UNL     1       0.854   2.665  -0.086  1.00  0.00     0.037 C 
ATOM     76  C   UNL     1       3.024   3.956  -0.303  1.00  0.00     0.037 C 
ATOM     77  C   UNL     1       0.270   3.510  -1.208  1.00  0.00     0.117 C 
ATOM     78  C   UNL     1       2.407   4.793  -1.410  1.00  0.00     0.117 C 
ATOM     79  N   UNL     1       0.958   4.802  -1.230  1.00  0.00    -0.366 N 
BRANCH  79  80
ATOM     80  C   UNL     1       0.192   5.920  -1.494  1.00  0.00     0.116 A 
ATOM     81  C   UNL     1      -0.785   6.264  -0.540  1.00  0.00     0.034 A 
ATOM     82  C   UNL     1       0.288   6.756  -2.617  1.00  0.00     0.293 A 
ATOM     83  C   UNL     1      -1.631   7.363  -0.701  1.00  0.00     0.016 A 
ATOM     84  C   UNL     1      -0.551   7.872  -2.792  1.00  0.00     0.101 A 
ATOM     85  C   UNL     1      -1.526   8.177  -1.834  1.00  0.00     0.062 A 
BRANCH  82  86
ATOM     86  N   UNL     1       1.202   6.461  -3.708  1.00  0.00     0.064 N 
ATOM     87  O   UNL     1       1.961   7.375  -4.064  1.00  0.00    -0.258 OA
ATOM     88  O   UNL     1       1.116   5.354  -4.257  1.00  0.00    -0.258 OA
ENDBRANCH  82  86
BRANCH  85  89
ATOM     89  C   UNL     1      -2.475   9.332  -2.017  1.00  0.00     0.416 C 
ATOM     90  F   UNL     1      -3.768   8.918  -2.131  1.00  0.00    -0.166 F 
ATOM     91  F   UNL     1      -2.452  10.204  -0.974  1.00  0.00    -0.166 F 
ATOM     92  F   UNL     1      -2.224  10.069  -3.133  1.00  0.00    -0.166 F 
ENDBRANCH  85  89
ENDBRANCH  79  80
ENDBRANCH  72  74
ENDBRANCH  71  72
ENDBRANCH  70  71
ENDBRANCH   1  70
TORSDOF 17
