REMARK SMILES C[C@@H]1CN(C(=O)Nc2ccc(O)c(C(=O)OCCOC(=O)c3ccc(-c4c5nc(c(-c6cc(S(=O)(=O)[O-])ccc6F)c6ccc([nH]6)c(-c6cc(S(=O)(=O)[O-])ccc6F)c6nc(c(-c7cc(S(=O)(=O)[O-])ccc7F)c7ccc4[nH]7)C=C6)C=C5)cc3)c2)C[C@H]1C
REMARK SMILES IDX 18 1 17 2 16 3 14 4 15 5 13 6 8 7 9 8 85 9 10 10 11 11 7 12
REMARK SMILES IDX 1 13 2 14 3 15 87 16 4 17 86 18 88 19 5 20 6 21 12 23 19 25
REMARK SMILES IDX 20 26 21 27 22 28 23 29 84 30 24 31 83 32 25 33 26 34 27 35
REMARK SMILES IDX 77 36 28 37 82 38 76 39 78 40 29 41 81 42 75 43 74 44 30 46
REMARK SMILES IDX 62 47 42 48 61 49 43 50 46 51 60 52 79 53 44 54 45 55 59 57
REMARK SMILES IDX 80 58 47 59 31 60 32 61 40 62 33 63 39 64 41 65 38 66 34 67
REMARK SMILES IDX 35 68 36 69 37 70 63 71 64 72 72 73 65 74 71 75 73 76 70 77
REMARK SMILES IDX 66 78 67 79 68 80 69 81 48 82 49 83 57 84 50 85 56 86 58 87
REMARK SMILES IDX 55 88 51 89 52 90 53 91 54 92
REMARK H PARENT 7 22 12 24 78 45 46 56
REMARK Flexibility Score: inf
ROOT
ATOM      1  C   UNL     1       0.507   3.858  -8.820  1.00  0.00     0.275 C 
ENDROOT
BRANCH   1   2
ATOM      2  C   UNL     1       0.727   2.545  -8.072  1.00  0.00     0.275 C 
BRANCH   2   3
ATOM      3  O   UNL     1       0.001   2.559  -6.831  1.00  0.00    -0.458 OA
BRANCH   3   4
ATOM      4  C   UNL     1       0.739   2.548  -5.696  1.00  0.00     0.342 C 
ATOM      5  O   UNL     1       1.955   2.519  -5.623  1.00  0.00    -0.246 OA
BRANCH   4   6
ATOM      6  C   UNL     1      -0.125   2.747  -4.509  1.00  0.00     0.103 A 
ATOM      7  C   UNL     1      -0.367   3.828  -2.352  1.00  0.00     0.044 A 
ATOM      8  C   UNL     1      -1.643   3.284  -2.218  1.00  0.00     0.030 A 
ATOM      9  C   UNL     1       0.379   3.575  -3.497  1.00  0.00     0.045 A 
ATOM     10  C   UNL     1      -2.142   2.428  -3.205  1.00  0.00     0.049 A 
ATOM     11  C   UNL     1      -1.375   2.144  -4.340  1.00  0.00     0.130 A 
BRANCH   7  12
ATOM     12  N   UNL     1       0.192   4.652  -1.376  1.00  0.00    -0.308 N 
ATOM     13  C   UNL     1       1.266  -0.384   0.374  1.00  0.00     0.010 C 
ATOM     14  C   UNL     1       0.634   0.894   0.900  1.00  0.00     0.010 C 
ATOM     15  C   UNL     1       0.456   1.936  -0.198  1.00  0.00     0.125 C 
ATOM     16  C   UNL     1       1.472   1.655   1.931  1.00  0.00     0.010 C 
ATOM     17  N   UNL     1       0.421   3.216   0.493  1.00  0.00    -0.324 N 
ATOM     18  C   UNL     1       0.858   3.058   1.874  1.00  0.00     0.125 C 
ATOM     19  C   UNL     1       1.427   1.046   3.321  1.00  0.00     0.010 C 
ATOM     20  C   UNL     1       0.321   4.479  -0.033  1.00  0.00     0.321 C 
ATOM     21  O   UNL     1       0.489   5.482   0.662  1.00  0.00    -0.248 OA
ATOM     22  H   UNL     1       0.553   5.502  -1.716  1.00  0.00     0.171 HD
ENDBRANCH   7  12
BRANCH  11  23
ATOM     23  O   UNL     1      -1.836   1.232  -5.246  1.00  0.00    -0.507 OA
ATOM     24  H   UNL     1      -2.675   0.833  -5.124  1.00  0.00     0.293 HD
ENDBRANCH  11  23
ENDBRANCH   4   6
ENDBRANCH   3   4
ENDBRANCH   2   3
ENDBRANCH   1   2
BRANCH   1  25
ATOM     25  O   UNL     1       1.167   4.935  -8.127  1.00  0.00    -0.458 OA
BRANCH  25  26
ATOM     26  C   UNL     1       0.344   5.794  -7.485  1.00  0.00     0.338 C 
ATOM     27  O   UNL     1      -0.876   5.790  -7.479  1.00  0.00    -0.246 OA
BRANCH  26  28
ATOM     28  C   UNL     1       1.135   6.748  -6.694  1.00  0.00     0.060 A 
ATOM     29  C   UNL     1       1.592   6.342  -5.444  1.00  0.00     0.016 A 
ATOM     30  C   UNL     1       1.261   8.077  -7.088  1.00  0.00     0.016 A 
ATOM     31  C   UNL     1       2.058   7.282  -4.527  1.00  0.00     0.010 A 
ATOM     32  C   UNL     1       1.820   9.005  -6.200  1.00  0.00     0.010 A 
ATOM     33  C   UNL     1       2.165   8.633  -4.885  1.00  0.00    -0.014 A 
BRANCH  33  34
ATOM     34  C   UNL     1       2.515   9.665  -3.858  1.00  0.00     0.031 A 
ATOM     35  C   UNL     1       1.544  10.786  -3.563  1.00  0.00     0.074 A 
ATOM     36  C   UNL     1       3.663   9.591  -3.153  1.00  0.00     0.049 A 
ATOM     37  N   UNL     1       1.711  11.869  -2.846  1.00  0.00    -0.248 NA
ATOM     38  C   UNL     1       0.213  10.679  -4.180  1.00  0.00     0.031 C 
ATOM     39  C   UNL     1       4.673   8.539  -3.283  1.00  0.00     0.029 A 
ATOM     40  N   UNL     1       4.167  10.410  -2.171  1.00  0.00    -0.354 N 
ATOM     41  C   UNL     1       0.533  12.602  -2.979  1.00  0.00     0.074 A 
ATOM     42  C   UNL     1      -0.328  11.845  -3.864  1.00  0.00     0.031 C 
ATOM     43  C   UNL     1       5.649   8.751  -2.386  1.00  0.00     0.029 A 
ATOM     44  C   UNL     1       5.383   9.998  -1.675  1.00  0.00     0.049 A 
ATOM     45  H   UNL     1       3.702  11.217  -1.853  1.00  0.00     0.167 HD
ATOM     46  C   UNL     1       0.199  13.792  -2.416  1.00  0.00     0.034 A 
ATOM     47  C   UNL     1       6.210  10.572  -0.777  1.00  0.00     0.034 A 
ATOM     48  C   UNL     1       1.042  14.507  -1.486  1.00  0.00     0.049 A 
ATOM     49  C   UNL     1       5.823  11.895  -0.167  1.00  0.00     0.074 A 
ATOM     50  C   UNL     1       0.807  15.722  -0.862  1.00  0.00     0.029 A 
ATOM     51  N   UNL     1       2.273  14.060  -1.023  1.00  0.00    -0.354 N 
ATOM     52  N   UNL     1       4.750  12.622  -0.378  1.00  0.00    -0.248 NA
ATOM     53  C   UNL     1       6.764  12.477   0.798  1.00  0.00     0.031 C 
ATOM     54  C   UNL     1       1.914  16.031  -0.062  1.00  0.00     0.029 A 
ATOM     55  C   UNL     1       2.812  14.978  -0.132  1.00  0.00     0.049 A 
ATOM     56  H   UNL     1       2.702  13.215  -1.289  1.00  0.00     0.167 HD
ATOM     57  C   UNL     1       4.883  13.740   0.442  1.00  0.00     0.074 A 
ATOM     58  C   UNL     1       6.125  13.575   1.170  1.00  0.00     0.031 C 
ATOM     59  C   UNL     1       4.059  14.810   0.577  1.00  0.00     0.034 A 
BRANCH  46  60
ATOM     60  C   UNL     1      -1.109  14.420  -2.845  1.00  0.00     0.023 A 
ATOM     61  C   UNL     1      -2.353  13.822  -2.580  1.00  0.00     0.031 A 
ATOM     62  C   UNL     1      -1.102  15.621  -3.579  1.00  0.00     0.131 A 
ATOM     63  C   UNL     1      -3.526  14.380  -3.114  1.00  0.00     0.055 A 
ATOM     64  C   UNL     1      -2.280  16.217  -4.033  1.00  0.00     0.041 A 
ATOM     65  F   UNL     1       0.055  16.230  -3.883  1.00  0.00    -0.206 F 
ATOM     66  C   UNL     1      -3.501  15.587  -3.816  1.00  0.00     0.022 A 
BRANCH  63  67
ATOM     67  S   UNL     1      -5.067  13.426  -3.012  1.00  0.00     0.124 S 
ATOM     68  O   UNL     1      -4.702  12.200  -3.718  1.00  0.00    -0.237 OA
ATOM     69  O   UNL     1      -5.268  13.301  -1.573  1.00  0.00    -0.237 OA
ATOM     70  O   UNL     1      -6.039  14.269  -3.707  1.00  0.00    -0.744 OA
ENDBRANCH  63  67
ENDBRANCH  46  60
BRANCH  47  71
ATOM     71  C   UNL     1       7.519   9.938  -0.438  1.00  0.00     0.023 A 
ATOM     72  C   UNL     1       7.798   9.495   0.865  1.00  0.00     0.031 A 
ATOM     73  C   UNL     1       8.532   9.816  -1.406  1.00  0.00     0.131 A 
ATOM     74  C   UNL     1       9.072   8.991   1.175  1.00  0.00     0.055 A 
ATOM     75  C   UNL     1       9.777   9.261  -1.107  1.00  0.00     0.041 A 
ATOM     76  F   UNL     1       8.320  10.227  -2.667  1.00  0.00    -0.206 F 
ATOM     77  C   UNL     1      10.057   8.857   0.193  1.00  0.00     0.022 A 
BRANCH  74  78
ATOM     78  S   UNL     1       9.457   8.592   2.902  1.00  0.00     0.124 S 
ATOM     79  O   UNL     1       9.224   9.871   3.563  1.00  0.00    -0.237 OA
ATOM     80  O   UNL     1       8.494   7.534   3.192  1.00  0.00    -0.237 OA
ATOM     81  O   UNL     1      10.853   8.162   2.850  1.00  0.00    -0.744 OA
ENDBRANCH  74  78
ENDBRANCH  47  71
BRANCH  59  82
ATOM     82  C   UNL     1       4.467  15.858   1.584  1.00  0.00     0.023 A 
ATOM     83  C   UNL     1       5.616  16.648   1.405  1.00  0.00     0.031 A 
ATOM     84  C   UNL     1       3.723  16.031   2.765  1.00  0.00     0.131 A 
ATOM     85  C   UNL     1       6.029  17.524   2.420  1.00  0.00     0.055 A 
ATOM     86  C   UNL     1       4.106  16.947   3.746  1.00  0.00     0.041 A 
ATOM     87  F   UNL     1       2.618  15.303   2.989  1.00  0.00    -0.206 F 
ATOM     88  C   UNL     1       5.274  17.687   3.585  1.00  0.00     0.022 A 
BRANCH  85  89
ATOM     89  S   UNL     1       7.631  18.360   2.253  1.00  0.00     0.124 S 
ATOM     90  O   UNL     1       8.540  17.239   2.041  1.00  0.00    -0.237 OA
ATOM     91  O   UNL     1       7.409  19.229   1.102  1.00  0.00    -0.237 OA
ATOM     92  O   UNL     1       7.790  19.054   3.530  1.00  0.00    -0.744 OA
ENDBRANCH  85  89
ENDBRANCH  59  82
ENDBRANCH  33  34
ENDBRANCH  26  28
ENDBRANCH  25  26
ENDBRANCH   1  25
TORSDOF 16
