REMARK SMILES COc1ccc(CCN2/C(=[NH+]/C(=O)CCC(=O)OCCOC(=O)c3ccc(-c4c5nc(c(-c6cc(S(=O)(=O)[O-])ccc6F)c6ccc([nH]6)c(-c6cc(S(=O)(=O)[O-])ccc6F)c6nc(c(-c7cc(S(=O)(=O)[O-])ccc7F)c7ccc4[nH]7)C=C6)C=C5)cc3)S[C@@H]3CS(=O)(=O)C[C@@H]32)cc1
REMARK SMILES IDX 18 1 16 2 17 3 15 4 14 5 12 6 9 7 10 8 94 9 11 10 87 11
REMARK SMILES IDX 88 12 93 13 89 15 90 16 13 17 91 18 92 19 8 20 7 21 6 22
REMARK SMILES IDX 3 23 4 24 96 25 5 26 95 27 2 28 1 29 19 30 20 31 21 32 22 33
REMARK SMILES IDX 23 34 24 35 25 36 86 37 26 38 85 39 27 40 28 41 29 42 79 43
REMARK SMILES IDX 30 44 84 45 78 46 80 47 31 48 83 49 77 50 76 51 32 53 64 54
REMARK SMILES IDX 44 55 63 56 45 57 48 58 62 59 81 60 46 61 47 62 61 64 82 65
REMARK SMILES IDX 49 66 33 67 34 68 42 69 35 70 41 71 43 72 40 73 36 74 37 75
REMARK SMILES IDX 38 76 39 77 65 78 66 79 74 80 67 81 73 82 75 83 72 84 68 85
REMARK SMILES IDX 69 86 70 87 71 88 50 89 51 90 59 91 52 92 58 93 60 94 57 95
REMARK SMILES IDX 53 96 54 97 55 98 56 99
REMARK H PARENT 11 14 80 52 48 63
REMARK Flexibility Score: inf
ROOT
ATOM      1  O   UNL     1       2.316  -2.876   8.341  1.00  0.00    -0.462 OA
ENDROOT
BRANCH   1   2
ATOM      2  C   UNL     1       2.341  -1.942   9.323  1.00  0.00     0.306 C 
ATOM      3  O   UNL     1       3.280  -1.758  10.086  1.00  0.00    -0.252 OA
BRANCH   2   4
ATOM      4  C   UNL     1       1.037  -1.188   9.429  1.00  0.00     0.135 C 
BRANCH   4   5
ATOM      5  C   UNL     1       0.561  -0.586   8.114  1.00  0.00     0.139 C 
BRANCH   5   6
ATOM      6  C   UNL     1      -0.513  -1.448   7.484  1.00  0.00     0.308 C 
ATOM      7  N   UNL     1      -0.151  -4.661   5.814  1.00  0.00    -0.251 N 
ATOM      8  C   UNL     1      -0.701  -3.504   6.358  1.00  0.00     0.314 C 
ATOM      9  C   UNL     1      -1.089  -5.766   5.573  1.00  0.00     0.206 C 
ATOM     10  N   UNL     1      -0.001  -2.521   6.805  1.00  0.00    -0.205 N 
ATOM     11  S   UNL     1      -2.457  -3.676   6.417  1.00  0.00    -0.030 SA
ATOM     12  C   UNL     1      -2.324  -5.473   6.441  1.00  0.00     0.120 C 
ATOM     13  C   UNL     1      -0.586  -7.152   5.951  1.00  0.00     0.187 C 
ATOM     14  H   UNL     1       0.971  -2.542   6.648  1.00  0.00     0.316 HD
ATOM     15  C   UNL     1      -2.020  -5.949   7.854  1.00  0.00     0.156 C 
ATOM     16  S   UNL     1      -1.179  -7.485   7.593  1.00  0.00     0.155 S 
ATOM     17  O   UNL     1      -1.696  -1.188   7.688  1.00  0.00    -0.247 OA
ATOM     18  O   UNL     1      -0.049  -7.576   8.492  1.00  0.00    -0.229 OA
ATOM     19  O   UNL     1      -2.176  -8.533   7.500  1.00  0.00    -0.229 OA
BRANCH   7  20
ATOM     20  C   UNL     1       1.246  -4.717   5.370  1.00  0.00     0.242 C 
BRANCH  20  21
ATOM     21  C   UNL     1       1.426  -4.972   3.864  1.00  0.00     0.081 C 
BRANCH  21  22
ATOM     22  C   UNL     1       1.181  -3.748   3.015  1.00  0.00    -0.044 A 
ATOM     23  C   UNL     1       0.738  -1.388   1.548  1.00  0.00     0.118 A 
ATOM     24  C   UNL     1      -0.321  -2.037   2.176  1.00  0.00     0.046 A 
ATOM     25  C   UNL     1       2.025  -1.915   1.651  1.00  0.00     0.046 A 
ATOM     26  C   UNL     1      -0.107  -3.219   2.882  1.00  0.00     0.007 A 
ATOM     27  C   UNL     1       2.245  -3.089   2.382  1.00  0.00     0.007 A 
BRANCH  23  28
ATOM     28  O   UNL     1       0.411  -0.221   0.919  1.00  0.00    -0.497 OA
ATOM     29  C   UNL     1       1.150   0.059  -0.262  1.00  0.00     0.278 C 
ENDBRANCH  23  28
ENDBRANCH  21  22
ENDBRANCH  20  21
ENDBRANCH   7  20
ENDBRANCH   5   6
ENDBRANCH   4   5
ENDBRANCH   2   4
ENDBRANCH   1   2
BRANCH   1  30
ATOM     30  C   UNL     1       3.514  -3.648   8.141  1.00  0.00     0.274 C 
BRANCH  30  31
ATOM     31  C   UNL     1       4.339  -3.094   6.979  1.00  0.00     0.275 C 
BRANCH  31  32
ATOM     32  O   UNL     1       4.977  -1.868   7.357  1.00  0.00    -0.458 OA
BRANCH  32  33
ATOM     33  C   UNL     1       4.376  -0.740   6.913  1.00  0.00     0.338 C 
ATOM     34  O   UNL     1       3.419  -0.649   6.169  1.00  0.00    -0.246 OA
BRANCH  33  35
ATOM     35  C   UNL     1       5.042   0.403   7.541  1.00  0.00     0.060 A 
ATOM     36  C   UNL     1       4.405   1.075   8.587  1.00  0.00     0.016 A 
ATOM     37  C   UNL     1       6.285   0.817   7.062  1.00  0.00     0.016 A 
ATOM     38  C   UNL     1       5.020   2.182   9.166  1.00  0.00     0.010 A 
ATOM     39  C   UNL     1       6.902   1.918   7.650  1.00  0.00     0.010 A 
ATOM     40  C   UNL     1       6.268   2.613   8.695  1.00  0.00    -0.014 A 
BRANCH  40  41
ATOM     41  C   UNL     1       6.892   3.841   9.237  1.00  0.00     0.031 A 
ATOM     42  C   UNL     1       6.900   5.083   8.394  1.00  0.00     0.074 A 
ATOM     43  C   UNL     1       7.459   3.825  10.457  1.00  0.00     0.049 A 
ATOM     44  N   UNL     1       7.510   6.220   8.599  1.00  0.00    -0.248 NA
ATOM     45  C   UNL     1       6.125   5.028   7.144  1.00  0.00     0.031 C 
ATOM     46  C   UNL     1       7.466   2.679  11.369  1.00  0.00     0.029 A 
ATOM     47  N   UNL     1       8.149   4.796  11.136  1.00  0.00    -0.354 N 
ATOM     48  C   UNL     1       7.199   7.016   7.502  1.00  0.00     0.074 A 
ATOM     49  C   UNL     1       6.379   6.217   6.617  1.00  0.00     0.031 C 
ATOM     50  C   UNL     1       8.138   3.012  12.484  1.00  0.00     0.029 A 
ATOM     51  C   UNL     1       8.651   4.372  12.344  1.00  0.00     0.049 A 
ATOM     52  H   UNL     1       8.274   5.709  10.790  1.00  0.00     0.167 HD
ATOM     53  C   UNL     1       7.562   8.301   7.265  1.00  0.00     0.034 A 
ATOM     54  C   UNL     1       9.461   5.003  13.218  1.00  0.00     0.034 A 
ATOM     55  C   UNL     1       8.389   9.071   8.161  1.00  0.00     0.049 A 
ATOM     56  C   UNL     1       9.907   6.410  12.896  1.00  0.00     0.074 A 
ATOM     57  C   UNL     1       8.847  10.369   8.016  1.00  0.00     0.029 A 
ATOM     58  N   UNL     1       8.880   8.611   9.377  1.00  0.00    -0.354 N 
ATOM     59  N   UNL     1       9.629   7.145  11.843  1.00  0.00    -0.248 NA
ATOM     60  C   UNL     1      10.765   7.076  13.884  1.00  0.00     0.031 C 
ATOM     61  C   UNL     1       9.655  10.675   9.116  1.00  0.00     0.029 A 
ATOM     62  C   UNL     1       9.643   9.595   9.985  1.00  0.00     0.049 A 
ATOM     63  H   UNL     1       8.711   7.717   9.752  1.00  0.00     0.167 HD
ATOM     64  C   UNL     1      10.244   8.375  12.066  1.00  0.00     0.074 A 
ATOM     65  C   UNL     1      10.894   8.284  13.357  1.00  0.00     0.031 C 
ATOM     66  C   UNL     1      10.271   9.482  11.280  1.00  0.00     0.034 A 
BRANCH  53  67
ATOM     67  C   UNL     1       7.100   8.926   5.973  1.00  0.00     0.023 A 
ATOM     68  C   UNL     1       5.738   9.161   5.713  1.00  0.00     0.031 A 
ATOM     69  C   UNL     1       8.031   9.278   4.980  1.00  0.00     0.131 A 
ATOM     70  C   UNL     1       5.342   9.678   4.470  1.00  0.00     0.055 A 
ATOM     71  C   UNL     1       7.636   9.860   3.774  1.00  0.00     0.041 A 
ATOM     72  F   UNL     1       9.342   9.054   5.162  1.00  0.00    -0.206 F 
ATOM     73  C   UNL     1       6.284  10.053   3.508  1.00  0.00     0.022 A 
BRANCH  70  74
ATOM     74  S   UNL     1       3.572   9.748   4.080  1.00  0.00     0.124 S 
ATOM     75  O   UNL     1       3.205   8.334   4.126  1.00  0.00    -0.237 OA
ATOM     76  O   UNL     1       3.044  10.581   5.155  1.00  0.00    -0.237 OA
ATOM     77  O   UNL     1       3.538  10.351   2.749  1.00  0.00    -0.744 OA
ENDBRANCH  70  74
ENDBRANCH  53  67
BRANCH  54  78
ATOM     78  C   UNL     1       9.941   4.316  14.453  1.00  0.00     0.023 A 
ATOM     79  C   UNL     1       9.647   4.827  15.727  1.00  0.00     0.031 A 
ATOM     80  C   UNL     1      10.770   3.181  14.377  1.00  0.00     0.131 A 
ATOM     81  C   UNL     1      10.231   4.251  16.866  1.00  0.00     0.055 A 
ATOM     82  C   UNL     1      11.295   2.571  15.518  1.00  0.00     0.041 A 
ATOM     83  F   UNL     1      11.087   2.649  13.186  1.00  0.00    -0.206 F 
ATOM     84  C   UNL     1      11.042   3.119  16.771  1.00  0.00     0.022 A 
BRANCH  81  85
ATOM     85  S   UNL     1      10.022   5.087  18.463  1.00  0.00     0.124 S 
ATOM     86  O   UNL     1      10.489   6.434  18.157  1.00  0.00    -0.237 OA
ATOM     87  O   UNL     1       8.588   4.941  18.694  1.00  0.00    -0.237 OA
ATOM     88  O   UNL     1      10.879   4.318  19.363  1.00  0.00    -0.744 OA
ENDBRANCH  81  85
ENDBRANCH  54  78
BRANCH  66  89
ATOM     89  C   UNL     1      10.963  10.699  11.840  1.00  0.00     0.023 A 
ATOM     90  C   UNL     1      12.352  10.732  12.052  1.00  0.00     0.031 A 
ATOM     91  C   UNL     1      10.212  11.838  12.180  1.00  0.00     0.131 A 
ATOM     92  C   UNL     1      12.939  11.858  12.648  1.00  0.00     0.055 A 
ATOM     93  C   UNL     1      10.810  12.979  12.715  1.00  0.00     0.041 A 
ATOM     94  F   UNL     1       8.882  11.859  11.997  1.00  0.00    -0.206 F 
ATOM     95  C   UNL     1      12.179  12.988  12.966  1.00  0.00     0.022 A 
BRANCH  92  96
ATOM     96  S   UNL     1      14.697  11.792  13.090  1.00  0.00     0.124 S 
ATOM     97  O   UNL     1      14.743  10.636  13.980  1.00  0.00    -0.237 OA
ATOM     98  O   UNL     1      15.339  11.622  11.791  1.00  0.00    -0.237 OA
ATOM     99  O   UNL     1      14.937  13.082  13.735  1.00  0.00    -0.744 OA
ENDBRANCH  92  96
ENDBRANCH  66  89
ENDBRANCH  40  41
ENDBRANCH  33  35
ENDBRANCH  32  33
ENDBRANCH  31  32
ENDBRANCH  30  31
ENDBRANCH   1  30
TORSDOF 20
