REMARK SMILES Cc1cc(C(=O)Nc2nc(CC(=O)OCCOC(=O)c3ccc(-c4c5nc(c(-c6cc(S(=O)(=O)[O-])ccc6F)c6ccc([nH]6)c(-c6cc(S(=O)(=O)[O-])ccc6F)c6nc(c(-c7cc(S(=O)(=O)[O-])ccc7F)c7ccc4[nH]7)C=C6)C=C5)cc3)cs2)sc1C
REMARK SMILES IDX 15 1 14 2 12 3 13 4 11 5 10 6 8 7 9 8 84 9 83 10 7 11 5 12
REMARK SMILES IDX 6 13 4 15 1 16 2 17 3 18 86 19 85 20 87 21 16 22 17 23 18 24
REMARK SMILES IDX 19 25 20 26 21 27 82 28 22 29 81 30 23 31 24 32 25 33 75 34
REMARK SMILES IDX 26 35 80 36 74 37 76 38 27 39 79 40 73 41 72 42 28 44 60 45
REMARK SMILES IDX 40 46 59 47 41 48 44 49 58 50 77 51 42 52 43 53 57 55 78 56
REMARK SMILES IDX 45 57 29 58 30 59 38 60 31 61 37 62 39 63 36 64 32 65 33 66
REMARK SMILES IDX 34 67 35 68 61 69 62 70 70 71 63 72 69 73 71 74 68 75 64 76
REMARK SMILES IDX 65 77 66 78 67 79 46 80 47 81 55 82 48 83 54 84 56 85 53 86
REMARK SMILES IDX 49 87 50 88 51 89 52 90
REMARK H PARENT 7 14 76 43 44 54
REMARK Flexibility Score: inf
ROOT
ATOM      1  C   UNL     1       6.452   2.875   3.813  1.00  0.00     0.274 C 
ENDROOT
BRANCH   1   2
ATOM      2  O   UNL     1       5.479   2.146   3.044  1.00  0.00    -0.462 OA
BRANCH   2   3
ATOM      3  C   UNL     1       4.298   2.784   2.832  1.00  0.00     0.312 C 
ATOM      4  O   UNL     1       3.991   3.859   3.340  1.00  0.00    -0.252 OA
BRANCH   3   5
ATOM      5  C   UNL     1       3.357   2.042   1.924  1.00  0.00     0.179 C 
BRANCH   5   6
ATOM      6  C   UNL     1       3.954   0.974   1.070  1.00  0.00     0.065 A 
ATOM      7  C   UNL     1       3.792  -0.990   0.095  1.00  0.00     0.189 A 
ATOM      8  N   UNL     1       3.288  -0.240   1.037  1.00  0.00    -0.224 NA
ATOM      9  S   UNL     1       5.242  -0.454  -0.609  1.00  0.00    -0.105 S 
ATOM     10  C   UNL     1       5.021   1.056   0.189  1.00  0.00     0.093 A 
BRANCH   7  11
ATOM     11  N   UNL     1       3.268  -2.131  -0.426  1.00  0.00    -0.297 N 
ATOM     12  C   UNL     1       1.939  -2.491  -0.356  1.00  0.00     0.267 C 
ATOM     13  O   UNL     1       1.690  -3.699  -0.445  1.00  0.00    -0.268 OA
ATOM     14  H   UNL     1       3.883  -2.746  -0.888  1.00  0.00     0.172 HD
BRANCH  12  15
ATOM     15  C   UNL     1       0.862  -1.496  -0.287  1.00  0.00     0.093 A 
ATOM     16  C   UNL     1      -2.737  -0.546   0.348  1.00  0.00     0.045 C 
ATOM     17  C   UNL     1      -1.279  -0.547   0.031  1.00  0.00    -0.037 A 
ATOM     18  C   UNL     1      -0.449  -1.720   0.098  1.00  0.00     0.029 A 
ATOM     19  C   UNL     1      -0.535   0.554  -0.354  1.00  0.00     0.005 A 
ATOM     20  S   UNL     1       0.999   0.088  -0.934  1.00  0.00    -0.135 S 
ATOM     21  C   UNL     1      -0.923   1.996  -0.400  1.00  0.00     0.056 C 
ENDBRANCH  12  15
ENDBRANCH   7  11
ENDBRANCH   5   6
ENDBRANCH   3   5
ENDBRANCH   2   3
ENDBRANCH   1   2
BRANCH   1  22
ATOM     22  C   UNL     1       7.430   3.587   2.882  1.00  0.00     0.275 C 
BRANCH  22  23
ATOM     23  O   UNL     1       6.719   4.522   2.051  1.00  0.00    -0.458 OA
BRANCH  23  24
ATOM     24  C   UNL     1       6.898   4.390   0.716  1.00  0.00     0.338 C 
ATOM     25  O   UNL     1       7.615   3.592   0.140  1.00  0.00    -0.246 OA
BRANCH  24  26
ATOM     26  C   UNL     1       6.089   5.403   0.020  1.00  0.00     0.060 A 
ATOM     27  C   UNL     1       4.694   5.370   0.082  1.00  0.00     0.016 A 
ATOM     28  C   UNL     1       6.741   6.374  -0.740  1.00  0.00     0.016 A 
ATOM     29  C   UNL     1       3.943   6.317  -0.615  1.00  0.00     0.010 A 
ATOM     30  C   UNL     1       5.989   7.354  -1.392  1.00  0.00     0.010 A 
ATOM     31  C   UNL     1       4.585   7.338  -1.332  1.00  0.00    -0.014 A 
BRANCH  31  32
ATOM     32  C   UNL     1       3.811   8.429  -1.980  1.00  0.00     0.031 A 
ATOM     33  C   UNL     1       3.819   8.580  -3.475  1.00  0.00     0.074 A 
ATOM     34  C   UNL     1       3.155   9.322  -1.212  1.00  0.00     0.049 A 
ATOM     35  N   UNL     1       3.389   9.574  -4.208  1.00  0.00    -0.248 NA
ATOM     36  C   UNL     1       4.396   7.467  -4.244  1.00  0.00     0.031 C 
ATOM     37  C   UNL     1       3.045   9.261   0.248  1.00  0.00     0.029 A 
ATOM     38  N   UNL     1       2.480  10.470  -1.546  1.00  0.00    -0.354 N 
ATOM     39  C   UNL     1       3.655   9.219  -5.526  1.00  0.00     0.074 A 
ATOM     40  C   UNL     1       4.305   7.924  -5.486  1.00  0.00     0.031 C 
ATOM     41  C   UNL     1       2.353  10.326   0.681  1.00  0.00     0.029 A 
ATOM     42  C   UNL     1       2.037  11.183  -0.456  1.00  0.00     0.049 A 
ATOM     43  H   UNL     1       2.327  10.755  -2.476  1.00  0.00     0.167 HD
ATOM     44  C   UNL     1       3.380   9.911  -6.659  1.00  0.00     0.034 A 
ATOM     45  C   UNL     1       1.492  12.413  -0.373  1.00  0.00     0.034 A 
ATOM     46  C   UNL     1       2.734  11.201  -6.678  1.00  0.00     0.049 A 
ATOM     47  C   UNL     1       1.294  13.207  -1.639  1.00  0.00     0.074 A 
ATOM     48  C   UNL     1       2.389  11.978  -7.771  1.00  0.00     0.029 A 
ATOM     49  N   UNL     1       2.341  11.911  -5.550  1.00  0.00    -0.354 N 
ATOM     50  N   UNL     1       1.567  12.866  -2.877  1.00  0.00    -0.248 NA
ATOM     51  C   UNL     1       0.726  14.553  -1.494  1.00  0.00     0.031 C 
ATOM     52  C   UNL     1       1.848  13.181  -7.303  1.00  0.00     0.029 A 
ATOM     53  C   UNL     1       1.793  13.130  -5.920  1.00  0.00     0.049 A 
ATOM     54  H   UNL     1       2.438  11.594  -4.623  1.00  0.00     0.167 HD
ATOM     55  C   UNL     1       1.189  13.954  -3.659  1.00  0.00     0.074 A 
ATOM     56  C   UNL     1       0.648  14.948  -2.756  1.00  0.00     0.031 C 
ATOM     57  C   UNL     1       1.280  14.118  -5.003  1.00  0.00     0.034 A 
BRANCH  44  58
ATOM     58  C   UNL     1       3.819   9.308  -7.970  1.00  0.00     0.023 A 
ATOM     59  C   UNL     1       3.236   8.134  -8.477  1.00  0.00     0.031 A 
ATOM     60  C   UNL     1       4.833   9.922  -8.726  1.00  0.00     0.131 A 
ATOM     61  C   UNL     1       3.704   7.585  -9.681  1.00  0.00     0.055 A 
ATOM     62  C   UNL     1       5.250   9.407  -9.955  1.00  0.00     0.041 A 
ATOM     63  F   UNL     1       5.439  11.034  -8.280  1.00  0.00    -0.206 F 
ATOM     64  C   UNL     1       4.691   8.226 -10.435  1.00  0.00     0.022 A 
BRANCH  61  65
ATOM     65  S   UNL     1       3.075   5.966 -10.202  1.00  0.00     0.124 S 
ATOM     66  O   UNL     1       3.493   5.116  -9.091  1.00  0.00    -0.237 OA
ATOM     67  O   UNL     1       1.641   6.207 -10.318  1.00  0.00    -0.237 OA
ATOM     68  O   UNL     1       3.769   5.718 -11.464  1.00  0.00    -0.744 OA
ENDBRANCH  61  65
ENDBRANCH  44  58
BRANCH  45  69
ATOM     69  C   UNL     1       1.169  13.012   0.954  1.00  0.00     0.023 A 
ATOM     70  C   UNL     1      -0.150  13.351   1.292  1.00  0.00     0.031 A 
ATOM     71  C   UNL     1       2.185  13.313   1.880  1.00  0.00     0.131 A 
ATOM     72  C   UNL     1      -0.413  14.014   2.501  1.00  0.00     0.055 A 
ATOM     73  C   UNL     1       1.911  13.919   3.106  1.00  0.00     0.041 A 
ATOM     74  F   UNL     1       3.465  13.015   1.605  1.00  0.00    -0.206 F 
ATOM     75  C   UNL     1       0.606  14.287   3.416  1.00  0.00     0.022 A 
BRANCH  72  76
ATOM     76  S   UNL     1      -2.098  14.608   2.814  1.00  0.00     0.124 S 
ATOM     77  O   UNL     1      -2.344  15.436   1.638  1.00  0.00    -0.237 OA
ATOM     78  O   UNL     1      -2.849  13.360   2.889  1.00  0.00    -0.237 OA
ATOM     79  O   UNL     1      -1.973  15.336   4.074  1.00  0.00    -0.744 OA
ENDBRANCH  72  76
ENDBRANCH  45  69
BRANCH  57  80
ATOM     80  C   UNL     1       0.757  15.416  -5.563  1.00  0.00     0.023 A 
ATOM     81  C   UNL     1       1.410  16.636  -5.318  1.00  0.00     0.031 A 
ATOM     82  C   UNL     1      -0.423  15.435  -6.327  1.00  0.00     0.131 A 
ATOM     83  C   UNL     1       0.851  17.833  -5.790  1.00  0.00     0.055 A 
ATOM     84  C   UNL     1      -0.945  16.623  -6.840  1.00  0.00     0.041 A 
ATOM     85  F   UNL     1      -1.087  14.297  -6.587  1.00  0.00    -0.206 F 
ATOM     86  C   UNL     1      -0.314  17.833  -6.562  1.00  0.00     0.022 A 
BRANCH  83  87
ATOM     87  S   UNL     1       1.626  19.403  -5.316  1.00  0.00     0.124 S 
ATOM     88  O   UNL     1       1.503  19.375  -3.862  1.00  0.00    -0.237 OA
ATOM     89  O   UNL     1       2.979  19.257  -5.844  1.00  0.00    -0.237 OA
ATOM     90  O   UNL     1       0.805  20.408  -5.988  1.00  0.00    -0.744 OA
ENDBRANCH  83  87
ENDBRANCH  57  80
ENDBRANCH  31  32
ENDBRANCH  24  26
ENDBRANCH  23  24
ENDBRANCH  22  23
ENDBRANCH   1  22
TORSDOF 17
