REMARK SMILES COc1ccc(-c2nc3ccc(C)cc3[nH]2)c(C(=O)OCCOC(=O)c2ccc(-c3c4nc(c(-c5cc(S(=O)(=O)[O-])ccc5F)c5ccc([nH]5)c(-c5cc(S(=O)(=O)[O-])ccc5F)c5nc(c(-c6cc(S(=O)(=O)[O-])ccc6F)c6ccc3[nH]6)C=C5)C=C4)cc2)c1OC
REMARK SMILES IDX 22 1 21 2 20 3 18 4 19 5 17 6 3 7 4 8 89 9 5 10 6 11 2 12
REMARK SMILES IDX 1 13 90 14 91 15 7 16 8 17 16 18 9 19 15 20 10 22 14 23
REMARK SMILES IDX 11 24 12 25 13 26 23 27 24 28 25 29 26 30 27 31 88 32 28 33
REMARK SMILES IDX 87 34 29 35 30 36 31 37 81 38 32 39 86 40 80 41 82 42 33 43
REMARK SMILES IDX 85 44 79 45 78 46 34 48 66 49 46 50 65 51 47 52 50 53 64 54
REMARK SMILES IDX 83 55 48 56 49 57 63 59 84 60 51 61 35 62 36 63 44 64 37 65
REMARK SMILES IDX 43 66 45 67 42 68 38 69 39 70 40 71 41 72 67 73 68 74 76 75
REMARK SMILES IDX 69 76 75 77 77 78 74 79 70 80 71 81 72 82 73 83 52 84 53 85
REMARK SMILES IDX 61 86 54 87 60 88 62 89 59 90 55 91 56 92 57 93 58 94
REMARK H PARENT 16 21 82 47 50 58
REMARK Flexibility Score: inf
ROOT
ATOM      1  C   UNL     1       6.689  -0.060  -4.994  1.00  0.00     0.275 C 
ENDROOT
BRANCH   1   2
ATOM      2  C   UNL     1       6.336   0.968  -3.916  1.00  0.00     0.275 C 
BRANCH   2   3
ATOM      3  O   UNL     1       4.990   0.722  -3.519  1.00  0.00    -0.458 OA
BRANCH   3   4
ATOM      4  C   UNL     1       4.336   1.777  -2.986  1.00  0.00     0.342 C 
ATOM      5  O   UNL     1       4.793   2.792  -2.509  1.00  0.00    -0.246 OA
BRANCH   4   6
ATOM      6  C   UNL     1       2.899   1.505  -3.160  1.00  0.00     0.116 A 
ATOM      7  C   UNL     1       0.943   0.319  -2.426  1.00  0.00     0.161 A 
ATOM      8  C   UNL     1       0.194   0.995  -3.401  1.00  0.00     0.051 A 
ATOM      9  C   UNL     1       2.315   0.537  -2.331  1.00  0.00     0.176 A 
ATOM     10  C   UNL     1       0.806   1.914  -4.277  1.00  0.00     0.017 A 
ATOM     11  C   UNL     1       2.177   2.191  -4.167  1.00  0.00     0.036 A 
BRANCH   7  12
ATOM     12  O   UNL     1       0.317  -0.639  -1.673  1.00  0.00    -0.493 OA
ATOM     13  C   UNL     1      -0.145  -0.099  -0.434  1.00  0.00     0.278 C 
ENDBRANCH   7  12
BRANCH   9  14
ATOM     14  O   UNL     1       3.157  -0.317  -1.668  1.00  0.00    -0.492 OA
ATOM     15  C   UNL     1       3.083  -0.293  -0.256  1.00  0.00     0.278 C 
ENDBRANCH   9  14
BRANCH  11  16
ATOM     16  C   UNL     1       2.930   2.948  -5.188  1.00  0.00     0.139 A 
ATOM     17  N   UNL     1       4.161   2.615  -5.526  1.00  0.00    -0.228 NA
ATOM     18  N   UNL     1       2.515   4.006  -5.973  1.00  0.00    -0.338 N 
ATOM     19  C   UNL     1       4.509   3.364  -6.602  1.00  0.00     0.089 A 
ATOM     20  C   UNL     1       3.509   4.269  -6.902  1.00  0.00     0.066 A 
ATOM     21  H   UNL     1       1.662   4.489  -5.888  1.00  0.00     0.168 HD
ATOM     22  C   UNL     1       5.652   3.267  -7.404  1.00  0.00     0.031 A 
ATOM     23  C   UNL     1       3.608   5.127  -8.000  1.00  0.00     0.031 A 
ATOM     24  C   UNL     1       5.686   3.987  -8.595  1.00  0.00     0.006 A 
ATOM     25  C   UNL     1       4.655   4.874  -8.913  1.00  0.00    -0.049 A 
ATOM     26  C   UNL     1       4.632   5.475 -10.288  1.00  0.00     0.044 C 
ENDBRANCH  11  16
ENDBRANCH   4   6
ENDBRANCH   3   4
ENDBRANCH   2   3
ENDBRANCH   1   2
BRANCH   1  27
ATOM     27  O   UNL     1       5.923   0.148  -6.204  1.00  0.00    -0.458 OA
BRANCH  27  28
ATOM     28  C   UNL     1       4.731  -0.506  -6.298  1.00  0.00     0.338 C 
ATOM     29  O   UNL     1       4.319  -1.372  -5.543  1.00  0.00    -0.246 OA
BRANCH  28  30
ATOM     30  C   UNL     1       3.929   0.038  -7.432  1.00  0.00     0.060 A 
ATOM     31  C   UNL     1       2.546   0.206  -7.268  1.00  0.00     0.016 A 
ATOM     32  C   UNL     1       4.521   0.424  -8.636  1.00  0.00     0.016 A 
ATOM     33  C   UNL     1       1.772   0.826  -8.265  1.00  0.00     0.010 A 
ATOM     34  C   UNL     1       3.746   1.039  -9.633  1.00  0.00     0.010 A 
ATOM     35  C   UNL     1       2.365   1.263  -9.455  1.00  0.00    -0.014 A 
BRANCH  35  36
ATOM     36  C   UNL     1       1.566   1.807 -10.596  1.00  0.00     0.031 A 
ATOM     37  C   UNL     1       1.208   0.880 -11.717  1.00  0.00     0.074 A 
ATOM     38  C   UNL     1       1.147   3.088 -10.679  1.00  0.00     0.049 A 
ATOM     39  N   UNL     1       0.593   1.151 -12.837  1.00  0.00    -0.248 NA
ATOM     40  C   UNL     1       1.518  -0.543 -11.518  1.00  0.00     0.031 C 
ATOM     41  C   UNL     1       1.167   4.049  -9.592  1.00  0.00     0.029 A 
ATOM     42  N   UNL     1       0.652   3.821 -11.736  1.00  0.00    -0.354 N 
ATOM     43  C   UNL     1       0.372  -0.074 -13.444  1.00  0.00     0.074 A 
ATOM     44  C   UNL     1       0.995  -1.081 -12.610  1.00  0.00     0.031 C 
ATOM     45  C   UNL     1       0.868   5.275 -10.062  1.00  0.00     0.029 A 
ATOM     46  C   UNL     1       0.609   5.181 -11.489  1.00  0.00     0.049 A 
ATOM     47  H   UNL     1       0.357   3.417 -12.584  1.00  0.00     0.167 HD
ATOM     48  C   UNL     1      -0.329  -0.332 -14.573  1.00  0.00     0.034 A 
ATOM     49  C   UNL     1       0.406   6.228 -12.317  1.00  0.00     0.034 A 
ATOM     50  C   UNL     1      -0.901   0.685 -15.418  1.00  0.00     0.049 A 
ATOM     51  C   UNL     1      -0.060   5.938 -13.716  1.00  0.00     0.074 A 
ATOM     52  C   UNL     1      -1.633   0.524 -16.581  1.00  0.00     0.029 A 
ATOM     53  N   UNL     1      -0.772   2.054 -15.219  1.00  0.00    -0.354 N 
ATOM     54  N   UNL     1      -0.297   4.773 -14.267  1.00  0.00    -0.248 NA
ATOM     55  C   UNL     1      -0.366   7.090 -14.572  1.00  0.00     0.031 C 
ATOM     56  C   UNL     1      -1.858   1.789 -17.136  1.00  0.00     0.029 A 
ATOM     57  C   UNL     1      -1.344   2.746 -16.276  1.00  0.00     0.049 A 
ATOM     58  H   UNL     1      -0.338   2.472 -14.440  1.00  0.00     0.167 HD
ATOM     59  C   UNL     1      -0.873   5.053 -15.499  1.00  0.00     0.074 A 
ATOM     60  C   UNL     1      -0.909   6.496 -15.625  1.00  0.00     0.031 C 
ATOM     61  C   UNL     1      -1.369   4.184 -16.414  1.00  0.00     0.034 A 
BRANCH  48  62
ATOM     62  C   UNL     1      -0.453  -1.776 -14.974  1.00  0.00     0.023 A 
ATOM     63  C   UNL     1      -1.174  -2.699 -14.195  1.00  0.00     0.031 A 
ATOM     64  C   UNL     1       0.202  -2.244 -16.124  1.00  0.00     0.131 A 
ATOM     65  C   UNL     1      -1.167  -4.057 -14.542  1.00  0.00     0.055 A 
ATOM     66  C   UNL     1       0.144  -3.584 -16.505  1.00  0.00     0.041 A 
ATOM     67  F   UNL     1       0.928  -1.408 -16.884  1.00  0.00    -0.206 F 
ATOM     68  C   UNL     1      -0.532  -4.501 -15.705  1.00  0.00     0.022 A 
BRANCH  65  69
ATOM     69  S   UNL     1      -1.879  -5.255 -13.382  1.00  0.00     0.124 S 
ATOM     70  O   UNL     1      -1.067  -5.030 -12.189  1.00  0.00    -0.237 OA
ATOM     71  O   UNL     1      -3.270  -4.826 -13.298  1.00  0.00    -0.237 OA
ATOM     72  O   UNL     1      -1.661  -6.541 -14.041  1.00  0.00    -0.744 OA
ENDBRANCH  65  69
ENDBRANCH  48  62
BRANCH  49  73
ATOM     73  C   UNL     1       0.639   7.641 -11.889  1.00  0.00     0.023 A 
ATOM     74  C   UNL     1      -0.411   8.560 -11.746  1.00  0.00     0.031 A 
ATOM     75  C   UNL     1       1.952   8.132 -11.762  1.00  0.00     0.131 A 
ATOM     76  C   UNL     1      -0.128   9.919 -11.512  1.00  0.00     0.055 A 
ATOM     77  C   UNL     1       2.228   9.467 -11.453  1.00  0.00     0.041 A 
ATOM     78  F   UNL     1       2.998   7.331 -12.012  1.00  0.00    -0.206 F 
ATOM     79  C   UNL     1       1.182  10.373 -11.337  1.00  0.00     0.022 A 
BRANCH  76  80
ATOM     80  S   UNL     1      -1.490  11.117 -11.584  1.00  0.00     0.124 S 
ATOM     81  O   UNL     1      -2.036  10.862 -12.912  1.00  0.00    -0.237 OA
ATOM     82  O   UNL     1      -2.315  10.700 -10.456  1.00  0.00    -0.237 OA
ATOM     83  O   UNL     1      -0.819  12.406 -11.422  1.00  0.00    -0.744 OA
ENDBRANCH  76  80
ENDBRANCH  49  73
BRANCH  61  84
ATOM     84  C   UNL     1      -2.055   4.778 -17.616  1.00  0.00     0.023 A 
ATOM     85  C   UNL     1      -1.353   5.528 -18.574  1.00  0.00     0.031 A 
ATOM     86  C   UNL     1      -3.439   4.598 -17.799  1.00  0.00     0.131 A 
ATOM     87  C   UNL     1      -2.045   6.113 -19.644  1.00  0.00     0.055 A 
ATOM     88  C   UNL     1      -4.109   5.124 -18.903  1.00  0.00     0.041 A 
ATOM     89  F   UNL     1      -4.161   3.901 -16.907  1.00  0.00    -0.206 F 
ATOM     90  C   UNL     1      -3.413   5.896 -19.828  1.00  0.00     0.022 A 
BRANCH  87  91
ATOM     91  S   UNL     1      -1.144   7.234 -20.747  1.00  0.00     0.124 S 
ATOM     92  O   UNL     1      -0.735   8.294 -19.830  1.00  0.00    -0.237 OA
ATOM     93  O   UNL     1      -0.073   6.383 -21.254  1.00  0.00    -0.237 OA
ATOM     94  O   UNL     1      -2.148   7.622 -21.736  1.00  0.00    -0.744 OA
ENDBRANCH  87  91
ENDBRANCH  61  84
ENDBRANCH  35  36
ENDBRANCH  28  30
ENDBRANCH  27  28
ENDBRANCH   1  27
TORSDOF 17
