REMARK SMILES COc1ccc(/C=C2/C(=O)N(c3ccccc3)C(=O)N=C2OCCOC(=O)c2ccc(-c3c4nc(c(-c5cc(S(=O)(=O)[O-])ccc5F)c5ccc([nH]5)c(-c5cc(S(=O)(=O)[O-])ccc5F)c5nc(c(-c6cc(S(=O)(=O)[O-])ccc6F)c6ccc3[nH]6)C=C5)C=C4)cc2)cc1C(=O)[O-]
REMARK SMILES IDX 24 1 23 2 22 3 21 4 7 5 8 6 9 7 10 8 11 9 20 10 18 11 19 12
REMARK SMILES IDX 6 13 3 14 4 15 92 16 5 17 91 18 2 19 1 20 93 21 94 22 95 23
REMARK SMILES IDX 12 24 13 25 17 26 14 27 16 28 15 29 25 30 26 31 27 32 28 33
REMARK SMILES IDX 29 34 90 35 30 36 89 37 31 38 32 39 33 40 83 41 34 42 88 43
REMARK SMILES IDX 82 44 84 45 35 46 87 47 81 48 80 49 36 51 68 52 48 53 67 54
REMARK SMILES IDX 49 55 52 56 66 57 85 58 50 59 51 60 65 62 86 63 53 64 37 65
REMARK SMILES IDX 38 66 46 67 39 68 45 69 47 70 44 71 40 72 41 73 42 74 43 75
REMARK SMILES IDX 69 76 70 77 78 78 71 79 77 80 79 81 76 82 72 83 73 84 74 85
REMARK SMILES IDX 75 86 54 87 55 88 63 89 56 90 62 91 64 92 61 93 57 94 58 95
REMARK SMILES IDX 59 96 60 97
REMARK H PARENT 84 50 52 61
REMARK Flexibility Score: inf
ROOT
ATOM      1  C   UNL     1      -3.074  -3.441   5.621  1.00  0.00     0.274 C 
ENDROOT
BRANCH   1   2
ATOM      2  C   UNL     1      -1.950  -2.508   6.080  1.00  0.00     0.273 C 
BRANCH   2   3
ATOM      3  O   UNL     1      -0.658  -3.038   5.695  1.00  0.00    -0.473 OA
BRANCH   3   4
ATOM      4  C   UNL     1       0.322  -3.185   6.613  1.00  0.00     0.231 C 
ATOM      5  C   UNL     1       2.217  -3.237   4.923  1.00  0.00     0.027 C 
ATOM      6  C   UNL     1       1.587  -3.643   6.044  1.00  0.00     0.103 C 
ATOM      7  C   UNL     1       2.306  -4.607   6.935  1.00  0.00     0.272 C 
ATOM      8  O   UNL     1       3.174  -5.345   6.473  1.00  0.00    -0.268 OA
ATOM      9  N   UNL     1       1.948  -4.501   8.278  1.00  0.00    -0.226 N 
ATOM     10  N   UNL     1       0.132  -3.043   7.875  1.00  0.00    -0.156 NA
ATOM     11  C   UNL     1       1.175  -3.409   8.703  1.00  0.00     0.358 C 
ATOM     12  O   UNL     1       1.345  -2.802   9.755  1.00  0.00    -0.245 OA
BRANCH   5  13
ATOM     13  C   UNL     1       1.900  -2.230   3.884  1.00  0.00    -0.024 A 
ATOM     14  C   UNL     1       1.466  -0.352   1.788  1.00  0.00     0.127 A 
ATOM     15  C   UNL     1       0.672  -0.343   2.935  1.00  0.00     0.048 A 
ATOM     16  C   UNL     1       2.533  -1.250   1.720  1.00  0.00     0.040 A 
ATOM     17  C   UNL     1       0.914  -1.245   3.982  1.00  0.00     0.012 A 
ATOM     18  C   UNL     1       2.724  -2.195   2.747  1.00  0.00     0.022 A 
BRANCH  14  19
ATOM     19  O   UNL     1       1.238   0.656   0.894  1.00  0.00    -0.496 OA
ATOM     20  C   UNL     1       0.731   0.192  -0.359  1.00  0.00     0.278 C 
ENDBRANCH  14  19
BRANCH  16  21
ATOM     21  C   UNL     1       3.606  -1.168   0.715  1.00  0.00     0.075 C 
ATOM     22  O   UNL     1       4.798  -1.154   0.966  1.00  0.00    -0.545 OA
ATOM     23  O   UNL     1       3.166  -1.226  -0.550  1.00  0.00    -0.545 OA
ENDBRANCH  16  21
ENDBRANCH   5  13
BRANCH   9  24
ATOM     24  C   UNL     1       2.429  -5.479   9.222  1.00  0.00     0.054 A 
ATOM     25  C   UNL     1       2.416  -6.843   8.862  1.00  0.00     0.027 A 
ATOM     26  C   UNL     1       2.763  -5.161  10.545  1.00  0.00     0.027 A 
ATOM     27  C   UNL     1       2.647  -7.847   9.810  1.00  0.00     0.002 A 
ATOM     28  C   UNL     1       3.038  -6.165  11.482  1.00  0.00     0.002 A 
ATOM     29  C   UNL     1       2.952  -7.506  11.123  1.00  0.00     0.000 A 
ENDBRANCH   9  24
ENDBRANCH   3   4
ENDBRANCH   2   3
ENDBRANCH   1   2
BRANCH   1  30
ATOM     30  O   UNL     1      -3.278  -4.468   6.607  1.00  0.00    -0.458 OA
BRANCH  30  31
ATOM     31  C   UNL     1      -2.637  -5.634   6.366  1.00  0.00     0.338 C 
ATOM     32  O   UNL     1      -2.055  -5.963   5.348  1.00  0.00    -0.246 OA
BRANCH  31  33
ATOM     33  C   UNL     1      -2.499  -6.341   7.646  1.00  0.00     0.060 A 
ATOM     34  C   UNL     1      -1.280  -6.176   8.291  1.00  0.00     0.016 A 
ATOM     35  C   UNL     1      -3.471  -7.186   8.178  1.00  0.00     0.016 A 
ATOM     36  C   UNL     1      -1.004  -6.876   9.454  1.00  0.00     0.010 A 
ATOM     37  C   UNL     1      -3.183  -7.902   9.354  1.00  0.00     0.010 A 
ATOM     38  C   UNL     1      -1.928  -7.780   9.982  1.00  0.00    -0.014 A 
BRANCH  38  39
ATOM     39  C   UNL     1      -1.451  -8.706  11.050  1.00  0.00     0.031 A 
ATOM     40  C   UNL     1      -1.283 -10.167  10.717  1.00  0.00     0.074 A 
ATOM     41  C   UNL     1      -0.991  -8.241  12.230  1.00  0.00     0.049 A 
ATOM     42  N   UNL     1      -0.969 -11.167  11.499  1.00  0.00    -0.248 NA
ATOM     43  C   UNL     1      -1.488 -10.551   9.311  1.00  0.00     0.031 C 
ATOM     44  C   UNL     1      -0.936  -6.830  12.618  1.00  0.00     0.029 A 
ATOM     45  N   UNL     1      -0.431  -8.896  13.301  1.00  0.00    -0.354 N 
ATOM     46  C   UNL     1      -1.018 -12.305  10.699  1.00  0.00     0.074 A 
ATOM     47  C   UNL     1      -1.362 -11.868   9.364  1.00  0.00     0.031 C 
ATOM     48  C   UNL     1      -0.317  -6.723  13.805  1.00  0.00     0.029 A 
ATOM     49  C   UNL     1      -0.025  -8.058  14.318  1.00  0.00     0.049 A 
ATOM     50  H   UNL     1      -0.329  -9.874  13.338  1.00  0.00     0.167 HD
ATOM     51  C   UNL     1      -0.816 -13.596  11.057  1.00  0.00     0.034 A 
ATOM     52  C   UNL     1       0.486  -8.338  15.536  1.00  0.00     0.034 A 
ATOM     53  C   UNL     1      -0.408 -14.007  12.378  1.00  0.00     0.049 A 
ATOM     54  C   UNL     1       0.654  -9.790  15.926  1.00  0.00     0.074 A 
ATOM     55  C   UNL     1      -0.228 -15.289  12.866  1.00  0.00     0.029 A 
ATOM     56  N   UNL     1      -0.095 -13.140  13.416  1.00  0.00    -0.354 N 
ATOM     57  N   UNL     1       0.466 -10.870  15.202  1.00  0.00    -0.248 NA
ATOM     58  C   UNL     1       1.084 -10.059  17.305  1.00  0.00     0.031 C 
ATOM     59  C   UNL     1       0.139 -15.199  14.213  1.00  0.00     0.029 A 
ATOM     60  C   UNL     1       0.260 -13.859  14.546  1.00  0.00     0.049 A 
ATOM     61  H   UNL     1      -0.121 -12.158  13.358  1.00  0.00     0.167 HD
ATOM     62  C   UNL     1       0.766 -11.943  16.039  1.00  0.00     0.074 A 
ATOM     63  C   UNL     1       1.194 -11.378  17.301  1.00  0.00     0.031 C 
ATOM     64  C   UNL     1       0.680 -13.277  15.798  1.00  0.00     0.034 A 
BRANCH  51  65
ATOM     65  C   UNL     1      -1.149 -14.659  10.040  1.00  0.00     0.023 A 
ATOM     66  C   UNL     1      -0.390 -14.870   8.877  1.00  0.00     0.031 A 
ATOM     67  C   UNL     1      -2.283 -15.467  10.247  1.00  0.00     0.131 A 
ATOM     68  C   UNL     1      -0.804 -15.836   7.944  1.00  0.00     0.055 A 
ATOM     69  C   UNL     1      -2.649 -16.470   9.350  1.00  0.00     0.041 A 
ATOM     70  F   UNL     1      -3.061 -15.287  11.326  1.00  0.00    -0.206 F 
ATOM     71  C   UNL     1      -1.912 -16.653   8.185  1.00  0.00     0.022 A 
BRANCH  68  72
ATOM     72  S   UNL     1       0.061 -15.942   6.352  1.00  0.00     0.124 S 
ATOM     73  O   UNL     1      -0.174 -14.610   5.800  1.00  0.00    -0.237 OA
ATOM     74  O   UNL     1       1.431 -16.235   6.756  1.00  0.00    -0.237 OA
ATOM     75  O   UNL     1      -0.630 -17.027   5.658  1.00  0.00    -0.744 OA
ENDBRANCH  68  72
ENDBRANCH  51  65
BRANCH  52  76
ATOM     76  C   UNL     1       0.794  -7.253  16.522  1.00  0.00     0.023 A 
ATOM     77  C   UNL     1       2.067  -7.138  17.107  1.00  0.00     0.031 A 
ATOM     78  C   UNL     1      -0.212  -6.381  16.981  1.00  0.00     0.131 A 
ATOM     79  C   UNL     1       2.282  -6.224  18.153  1.00  0.00     0.055 A 
ATOM     80  C   UNL     1       0.028  -5.420  17.965  1.00  0.00     0.041 A 
ATOM     81  F   UNL     1      -1.458  -6.456  16.485  1.00  0.00    -0.206 F 
ATOM     82  C   UNL     1       1.276  -5.351  18.571  1.00  0.00     0.022 A 
BRANCH  79  83
ATOM     83  S   UNL     1       3.850  -6.294  19.064  1.00  0.00     0.124 S 
ATOM     84  O   UNL     1       3.902  -7.697  19.459  1.00  0.00    -0.237 OA
ATOM     85  O   UNL     1       4.809  -5.878  18.047  1.00  0.00    -0.237 OA
ATOM     86  O   UNL     1       3.651  -5.345  20.158  1.00  0.00    -0.744 OA
ENDBRANCH  79  83
ENDBRANCH  52  76
BRANCH  64  87
ATOM     87  C   UNL     1       1.094 -14.200  16.918  1.00  0.00     0.023 A 
ATOM     88  C   UNL     1       0.376 -14.260  18.126  1.00  0.00     0.031 A 
ATOM     89  C   UNL     1       2.240 -15.004  16.789  1.00  0.00     0.131 A 
ATOM     90  C   UNL     1       0.853 -15.048  19.184  1.00  0.00     0.055 A 
ATOM     91  C   UNL     1       2.673 -15.836  17.822  1.00  0.00     0.041 A 
ATOM     92  F   UNL     1       2.962 -14.989  15.657  1.00  0.00    -0.206 F 
ATOM     93  C   UNL     1       1.989 -15.847  19.035  1.00  0.00     0.022 A 
BRANCH  90  94
ATOM     94  S   UNL     1       0.036 -14.921  20.799  1.00  0.00     0.124 S 
ATOM     95  O   UNL     1       0.098 -13.486  21.061  1.00  0.00    -0.237 OA
ATOM     96  O   UNL     1      -1.291 -15.460  20.519  1.00  0.00    -0.237 OA
ATOM     97  O   UNL     1       0.869 -15.747  21.670  1.00  0.00    -0.744 OA
ENDBRANCH  90  94
ENDBRANCH  64  87
ENDBRANCH  38  39
ENDBRANCH  31  33
ENDBRANCH  30  31
ENDBRANCH   1  30
TORSDOF 17
