REMARK SMILES CC1=C(C)C[C@@H](C(=O)OCCOC(=O)c2ccc(-c3c4nc(c(-c5cc(S(=O)(=O)[O-])ccc5F)c5ccc([nH]5)c(-c5cc(S(=O)(=O)[O-])ccc5F)c5nc(c(-c6cc(S(=O)(=O)[O-])ccc6F)c6ccc3[nH]6)C=C5)C=C4)cc2)[C@H](C(=O)NCc2cccnc2)C1
REMARK SMILES IDX 10 1 9 2 7 3 8 4 6 5 1 6 2 7 3 8 89 9 4 10 5 11 78 12 79 13
REMARK SMILES IDX 80 14 81 15 82 17 83 18 84 19 88 20 85 21 87 22 86 23 11 24
REMARK SMILES IDX 12 25 13 26 14 27 15 28 16 29 77 30 17 31 76 32 18 33 19 34
REMARK SMILES IDX 20 35 70 36 21 37 75 38 69 39 71 40 22 41 74 42 68 43 67 44
REMARK SMILES IDX 23 46 55 47 35 48 54 49 36 50 39 51 53 52 72 53 37 54 38 55
REMARK SMILES IDX 52 57 73 58 40 59 24 60 25 61 33 62 26 63 32 64 34 65 31 66
REMARK SMILES IDX 27 67 28 68 29 69 30 70 56 71 57 72 65 73 58 74 64 75 66 76
REMARK SMILES IDX 63 77 59 78 60 79 61 80 62 81 41 82 42 83 50 84 43 85 49 86
REMARK SMILES IDX 51 87 48 88 44 89 45 90 46 91 47 92
REMARK H PARENT 81 16 71 45 39 56
REMARK Flexibility Score: inf
ROOT
ATOM      1  C   UNL     1       3.214  -1.381   5.615  1.00  0.00     0.274 C 
ENDROOT
BRANCH   1   2
ATOM      2  O   UNL     1       2.251  -1.218   4.555  1.00  0.00    -0.462 OA
BRANCH   2   3
ATOM      3  C   UNL     1       1.385  -2.251   4.377  1.00  0.00     0.310 C 
ATOM      4  O   UNL     1       1.403  -3.288   5.031  1.00  0.00    -0.252 OA
BRANCH   3   5
ATOM      5  C   UNL     1       0.464  -2.066   3.178  1.00  0.00     0.116 C 
ATOM      6  C   UNL     1       1.175   0.290  -0.568  1.00  0.00     0.039 C 
ATOM      7  C   UNL     1       0.984  -0.553   0.667  1.00  0.00    -0.074 C 
ATOM      8  C   UNL     1       1.339  -1.851   0.729  1.00  0.00    -0.073 C 
ATOM      9  C   UNL     1       0.377   0.183   1.832  1.00  0.00     0.045 C 
ATOM     10  C   UNL     1       1.941  -2.618  -0.424  1.00  0.00     0.039 C 
ATOM     11  C   UNL     1       1.194  -2.678   1.978  1.00  0.00     0.046 C 
ATOM     12  C   UNL     1      -0.079  -0.638   3.038  1.00  0.00     0.097 C 
BRANCH  12  13
ATOM     13  C   UNL     1      -1.595  -0.554   3.229  1.00  0.00     0.224 C 
ATOM     14  O   UNL     1      -2.056   0.079   4.182  1.00  0.00    -0.275 OA
ATOM     15  N   UNL     1      -2.504  -1.134   2.414  1.00  0.00    -0.352 N 
ATOM     16  H   UNL     1      -3.433  -1.034   2.727  1.00  0.00     0.163 HD
BRANCH  15  17
ATOM     17  C   UNL     1      -2.388  -1.870   1.177  1.00  0.00     0.153 C 
BRANCH  17  18
ATOM     18  C   UNL     1      -2.906  -3.274   1.292  1.00  0.00    -0.010 A 
ATOM     19  C   UNL     1      -2.125  -4.374   0.924  1.00  0.00     0.009 A 
ATOM     20  C   UNL     1      -4.200  -3.542   1.729  1.00  0.00     0.116 A 
ATOM     21  C   UNL     1      -2.631  -5.665   1.053  1.00  0.00     0.020 A 
ATOM     22  N   UNL     1      -4.724  -4.783   1.840  1.00  0.00    -0.264 NA
ATOM     23  C   UNL     1      -3.923  -5.819   1.520  1.00  0.00     0.111 A 
ENDBRANCH  17  18
ENDBRANCH  15  17
ENDBRANCH  12  13
ENDBRANCH   3   5
ENDBRANCH   2   3
ENDBRANCH   1   2
BRANCH   1  24
ATOM     24  C   UNL     1       2.764  -0.742   6.933  1.00  0.00     0.275 C 
BRANCH  24  25
ATOM     25  O   UNL     1       1.605  -1.394   7.479  1.00  0.00    -0.458 OA
BRANCH  25  26
ATOM     26  C   UNL     1       0.427  -0.810   7.155  1.00  0.00     0.338 C 
ATOM     27  O   UNL     1       0.285   0.218   6.509  1.00  0.00    -0.246 OA
BRANCH  26  28
ATOM     28  C   UNL     1      -0.691  -1.666   7.580  1.00  0.00     0.060 A 
ATOM     29  C   UNL     1      -1.524  -2.202   6.595  1.00  0.00     0.016 A 
ATOM     30  C   UNL     1      -0.972  -1.873   8.931  1.00  0.00     0.016 A 
ATOM     31  C   UNL     1      -2.655  -2.932   6.948  1.00  0.00     0.010 A 
ATOM     32  C   UNL     1      -2.110  -2.606   9.287  1.00  0.00     0.010 A 
ATOM     33  C   UNL     1      -2.966  -3.124   8.298  1.00  0.00    -0.014 A 
BRANCH  33  34
ATOM     34  C   UNL     1      -4.242  -3.779   8.670  1.00  0.00     0.031 A 
ATOM     35  C   UNL     1      -5.392  -2.934   9.138  1.00  0.00     0.074 A 
ATOM     36  C   UNL     1      -4.378  -5.113   8.559  1.00  0.00     0.049 A 
ATOM     37  N   UNL     1      -6.552  -3.300   9.618  1.00  0.00    -0.248 NA
ATOM     38  C   UNL     1      -5.202  -1.478   9.059  1.00  0.00     0.031 C 
ATOM     39  C   UNL     1      -3.355  -6.025   8.045  1.00  0.00     0.029 A 
ATOM     40  N   UNL     1      -5.431  -5.933   8.874  1.00  0.00    -0.354 N 
ATOM     41  C   UNL     1      -7.228  -2.122   9.915  1.00  0.00     0.074 A 
ATOM     42  C   UNL     1      -6.334  -1.031   9.582  1.00  0.00     0.031 C 
ATOM     43  C   UNL     1      -3.832  -7.280   8.085  1.00  0.00     0.029 A 
ATOM     44  C   UNL     1      -5.170  -7.267   8.671  1.00  0.00     0.049 A 
ATOM     45  H   UNL     1      -6.293  -5.598   9.213  1.00  0.00     0.167 HD
ATOM     46  C   UNL     1      -8.477  -1.967  10.420  1.00  0.00     0.034 A 
ATOM     47  C   UNL     1      -5.912  -8.354   8.960  1.00  0.00     0.034 A 
ATOM     48  C   UNL     1      -9.351  -3.069  10.748  1.00  0.00     0.049 A 
ATOM     49  C   UNL     1      -7.266  -8.163   9.597  1.00  0.00     0.074 A 
ATOM     50  C   UNL     1     -10.627  -3.033  11.283  1.00  0.00     0.029 A 
ATOM     51  N   UNL     1      -9.034  -4.411  10.573  1.00  0.00    -0.354 N 
ATOM     52  N   UNL     1      -7.874  -7.047   9.927  1.00  0.00    -0.248 NA
ATOM     53  C   UNL     1      -8.029  -9.379   9.903  1.00  0.00     0.031 C 
ATOM     54  C   UNL     1     -11.059  -4.351  11.480  1.00  0.00     0.029 A 
ATOM     55  C   UNL     1     -10.080  -5.211  11.009  1.00  0.00     0.049 A 
ATOM     56  H   UNL     1      -8.190  -4.746  10.193  1.00  0.00     0.167 HD
ATOM     57  C   UNL     1      -9.102  -7.428  10.460  1.00  0.00     0.074 A 
ATOM     58  C   UNL     1      -9.151  -8.875  10.396  1.00  0.00     0.031 C 
ATOM     59  C   UNL     1     -10.103  -6.653  10.952  1.00  0.00     0.034 A 
BRANCH  46  60
ATOM     60  C   UNL     1      -8.931  -0.557  10.709  1.00  0.00     0.023 A 
ATOM     61  C   UNL     1      -9.127   0.386   9.684  1.00  0.00     0.031 A 
ATOM     62  C   UNL     1      -9.119  -0.136  12.037  1.00  0.00     0.131 A 
ATOM     63  C   UNL     1      -9.428   1.718  10.008  1.00  0.00     0.055 A 
ATOM     64  C   UNL     1      -9.491   1.173  12.349  1.00  0.00     0.041 A 
ATOM     65  F   UNL     1      -8.925  -0.986  13.058  1.00  0.00    -0.206 F 
ATOM     66  C   UNL     1      -9.632   2.113  11.332  1.00  0.00     0.022 A 
BRANCH  63  67
ATOM     67  S   UNL     1      -9.414   2.962   8.686  1.00  0.00     0.124 S 
ATOM     68  O   UNL     1      -8.046   2.848   8.187  1.00  0.00    -0.237 OA
ATOM     69  O   UNL     1     -10.463   2.485   7.793  1.00  0.00    -0.237 OA
ATOM     70  O   UNL     1      -9.711   4.210   9.386  1.00  0.00    -0.744 OA
ENDBRANCH  63  67
ENDBRANCH  46  60
BRANCH  47  71
ATOM     71  C   UNL     1      -5.377  -9.721   8.707  1.00  0.00     0.023 A 
ATOM     72  C   UNL     1      -5.972 -10.573   7.764  1.00  0.00     0.031 A 
ATOM     73  C   UNL     1      -4.283 -10.210   9.443  1.00  0.00     0.131 A 
ATOM     74  C   UNL     1      -5.492 -11.883   7.605  1.00  0.00     0.055 A 
ATOM     75  C   UNL     1      -3.780 -11.498   9.250  1.00  0.00     0.041 A 
ATOM     76  F   UNL     1      -3.679  -9.436  10.359  1.00  0.00    -0.206 F 
ATOM     77  C   UNL     1      -4.393 -12.346   8.334  1.00  0.00     0.022 A 
BRANCH  74  78
ATOM     78  S   UNL     1      -6.367 -13.002   6.478  1.00  0.00     0.124 S 
ATOM     79  O   UNL     1      -7.709 -13.013   7.049  1.00  0.00    -0.237 OA
ATOM     80  O   UNL     1      -6.220 -12.319   5.197  1.00  0.00    -0.237 OA
ATOM     81  O   UNL     1      -5.627 -14.256   6.600  1.00  0.00    -0.744 OA
ENDBRANCH  74  78
ENDBRANCH  47  71
BRANCH  59  82
ATOM     82  C   UNL     1     -11.347  -7.367  11.416  1.00  0.00     0.023 A 
ATOM     83  C   UNL     1     -11.353  -8.167  12.572  1.00  0.00     0.031 A 
ATOM     84  C   UNL     1     -12.536  -7.261  10.674  1.00  0.00     0.131 A 
ATOM     85  C   UNL     1     -12.514  -8.872  12.926  1.00  0.00     0.055 A 
ATOM     86  C   UNL     1     -13.702  -7.926  11.058  1.00  0.00     0.041 A 
ATOM     87  F   UNL     1     -12.583  -6.512   9.561  1.00  0.00    -0.206 F 
ATOM     88  C   UNL     1     -13.692  -8.746  12.183  1.00  0.00     0.022 A 
BRANCH  85  89
ATOM     89  S   UNL     1     -12.445 -10.023  14.326  1.00  0.00     0.124 S 
ATOM     90  O   UNL     1     -11.395 -10.947  13.910  1.00  0.00    -0.237 OA
ATOM     91  O   UNL     1     -12.113  -9.140  15.440  1.00  0.00    -0.237 OA
ATOM     92  O   UNL     1     -13.790 -10.594  14.369  1.00  0.00    -0.744 OA
ENDBRANCH  85  89
ENDBRANCH  59  82
ENDBRANCH  33  34
ENDBRANCH  26  28
ENDBRANCH  25  26
ENDBRANCH  24  25
ENDBRANCH   1  24
TORSDOF 17
