REMARK SMILES COC(=O)c1ccc([C@H]2CC(=O)Nc3c(C(=O)OCCOC(=O)c4ccc(-c5c6nc(c(-c7cc(S(=O)(=O)[O-])ccc7F)c7ccc([nH]7)c(-c7cc(S(=O)(=O)[O-])ccc7F)c7nc(c(-c8cc(S(=O)(=O)[O-])ccc8F)c8ccc5[nH]8)C=C7)C=C6)cc4)cn(-c4ccccc4)c32)cc1
REMARK SMILES IDX 19 1 18 2 16 3 17 4 15 5 9 6 10 7 95 8 11 9 14 10 88 11
REMARK SMILES IDX 12 12 13 13 87 14 8 16 5 17 6 18 97 19 7 20 96 21 3 22 4 23
REMARK SMILES IDX 2 24 1 25 89 26 90 27 94 28 91 29 93 30 92 31 20 32 21 33
REMARK SMILES IDX 22 34 23 35 24 36 25 37 86 38 26 39 85 40 27 41 28 42 29 43
REMARK SMILES IDX 79 44 30 45 84 46 78 47 80 48 31 49 83 50 77 51 76 52 32 54
REMARK SMILES IDX 64 55 44 56 63 57 45 58 48 59 62 60 81 61 46 62 47 63 61 65
REMARK SMILES IDX 82 66 49 67 33 68 34 69 42 70 35 71 41 72 43 73 40 74 36 75
REMARK SMILES IDX 37 76 38 77 39 78 65 79 66 80 74 81 67 82 73 83 75 84 72 85
REMARK SMILES IDX 68 86 69 87 70 88 71 89 50 90 51 91 59 92 52 93 58 94 60 95
REMARK SMILES IDX 57 96 53 97 54 98 55 99 56 100
REMARK H PARENT 13 15 80 53 48 64
REMARK Flexibility Score: inf
ROOT
ATOM      1  C   UNL     1      -7.615   8.689   0.476  1.00  0.00     0.275 C 
ENDROOT
BRANCH   1   2
ATOM      2  O   UNL     1      -6.220   8.362   0.577  1.00  0.00    -0.458 OA
BRANCH   2   3
ATOM      3  C   UNL     1      -5.396   9.132  -0.210  1.00  0.00     0.341 C 
ATOM      4  O   UNL     1      -5.779   9.849  -1.109  1.00  0.00    -0.246 OA
BRANCH   3   5
ATOM      5  C   UNL     1      -3.998   9.041   0.196  1.00  0.00     0.102 A 
ATOM      6  C   UNL     1      -0.992   7.724   1.957  1.00  0.00     0.078 C 
ATOM      7  C   UNL     1      -1.722   6.840   2.978  1.00  0.00     0.115 C 
ATOM      8  C   UNL     1      -1.994   8.471   1.106  1.00  0.00     0.055 A 
ATOM      9  C   UNL     1      -3.000   6.205   2.449  1.00  0.00     0.225 C 
ATOM     10  C   UNL     1      -3.319   8.105   1.004  1.00  0.00     0.078 A 
ATOM     11  N   UNL     1      -1.813   9.608   0.329  1.00  0.00    -0.317 N 
ATOM     12  O   UNL     1      -3.378   5.097   2.830  1.00  0.00    -0.275 OA
ATOM     13  N   UNL     1      -3.781   6.963   1.615  1.00  0.00    -0.324 N 
ATOM     14  C   UNL     1      -3.052   9.999  -0.132  1.00  0.00     0.109 A 
ATOM     15  H   UNL     1      -4.708   6.678   1.446  1.00  0.00     0.170 HD
BRANCH   6  16
ATOM     16  C   UNL     1       0.049   8.596   2.654  1.00  0.00    -0.038 A 
ATOM     17  C   UNL     1       2.067  10.468   3.170  1.00  0.00     0.060 A 
ATOM     18  C   UNL     1       2.402   9.139   2.886  1.00  0.00     0.016 A 
ATOM     19  C   UNL     1       0.729  10.804   3.400  1.00  0.00     0.016 A 
ATOM     20  C   UNL     1       1.396   8.204   2.633  1.00  0.00     0.005 A 
ATOM     21  C   UNL     1      -0.277   9.860   3.172  1.00  0.00     0.005 A 
BRANCH  17  22
ATOM     22  C   UNL     1       3.134  11.500   3.036  1.00  0.00     0.337 C 
ATOM     23  O   UNL     1       4.308  11.235   2.825  1.00  0.00    -0.246 OA
BRANCH  22  24
ATOM     24  O   UNL     1       2.586  12.740   3.027  1.00  0.00    -0.465 OA
ATOM     25  C   UNL     1       3.466  13.779   2.598  1.00  0.00     0.282 C 
ENDBRANCH  22  24
ENDBRANCH  17  22
ENDBRANCH   6  16
BRANCH  11  26
ATOM     26  C   UNL     1      -0.615  10.296   0.015  1.00  0.00     0.045 A 
ATOM     27  C   UNL     1       0.523   9.584  -0.373  1.00  0.00     0.026 A 
ATOM     28  C   UNL     1      -0.572  11.692   0.134  1.00  0.00     0.026 A 
ATOM     29  C   UNL     1       1.718  10.267  -0.602  1.00  0.00     0.002 A 
ATOM     30  C   UNL     1       0.635  12.363  -0.069  1.00  0.00     0.002 A 
ATOM     31  C   UNL     1       1.778  11.651  -0.434  1.00  0.00     0.000 A 
ENDBRANCH  11  26
ENDBRANCH   3   5
ENDBRANCH   2   3
ENDBRANCH   1   2
BRANCH   1  32
ATOM     32  C   UNL     1      -7.998   9.812   1.431  1.00  0.00     0.275 C 
BRANCH  32  33
ATOM     33  O   UNL     1      -7.437  11.066   1.041  1.00  0.00    -0.458 OA
BRANCH  33  34
ATOM     34  C   UNL     1      -6.321  11.418   1.722  1.00  0.00     0.338 C 
ATOM     35  O   UNL     1      -5.510  10.662   2.232  1.00  0.00    -0.246 OA
BRANCH  34  36
ATOM     36  C   UNL     1      -6.350  12.861   1.985  1.00  0.00     0.060 A 
ATOM     37  C   UNL     1      -5.234  13.436   2.602  1.00  0.00     0.016 A 
ATOM     38  C   UNL     1      -7.564  13.554   1.868  1.00  0.00     0.016 A 
ATOM     39  C   UNL     1      -5.377  14.665   3.218  1.00  0.00     0.010 A 
ATOM     40  C   UNL     1      -7.712  14.762   2.507  1.00  0.00     0.010 A 
ATOM     41  C   UNL     1      -6.634  15.282   3.221  1.00  0.00    -0.014 A 
BRANCH  41  42
ATOM     42  C   UNL     1      -6.765  16.598   3.820  1.00  0.00     0.031 A 
ATOM     43  C   UNL     1      -6.129  17.650   2.994  1.00  0.00     0.074 A 
ATOM     44  C   UNL     1      -7.530  16.851   4.899  1.00  0.00     0.049 A 
ATOM     45  N   UNL     1      -5.064  18.327   3.264  1.00  0.00    -0.248 NA
ATOM     46  C   UNL     1      -6.604  17.817   1.609  1.00  0.00     0.031 C 
ATOM     47  C   UNL     1      -8.418  15.924   5.602  1.00  0.00     0.029 A 
ATOM     48  N   UNL     1      -7.765  18.035   5.530  1.00  0.00    -0.354 N 
ATOM     49  C   UNL     1      -4.909  19.203   2.197  1.00  0.00     0.074 A 
ATOM     50  C   UNL     1      -5.696  18.664   1.126  1.00  0.00     0.031 C 
ATOM     51  C   UNL     1      -9.253  16.627   6.401  1.00  0.00     0.029 A 
ATOM     52  C   UNL     1      -8.890  18.035   6.353  1.00  0.00     0.049 A 
ATOM     53  H   UNL     1      -7.189  18.825   5.414  1.00  0.00     0.167 HD
ATOM     54  C   UNL     1      -4.409  20.453   2.395  1.00  0.00     0.034 A 
ATOM     55  C   UNL     1      -9.516  19.121   6.889  1.00  0.00     0.034 A 
ATOM     56  C   UNL     1      -3.700  20.528   3.657  1.00  0.00     0.049 A 
ATOM     57  C   UNL     1      -8.534  20.236   6.876  1.00  0.00     0.074 A 
ATOM     58  C   UNL     1      -2.657  19.815   4.220  1.00  0.00     0.029 A 
ATOM     59  N   UNL     1      -4.306  21.183   4.709  1.00  0.00    -0.354 N 
ATOM     60  N   UNL     1      -7.448  20.242   7.600  1.00  0.00    -0.248 NA
ATOM     61  C   UNL     1      -8.497  21.102   5.706  1.00  0.00     0.031 C 
ATOM     62  C   UNL     1      -3.004  19.677   5.596  1.00  0.00     0.029 A 
ATOM     63  C   UNL     1      -4.184  20.388   5.822  1.00  0.00     0.049 A 
ATOM     64  H   UNL     1      -4.746  22.062   4.669  1.00  0.00     0.167 HD
ATOM     65  C   UNL     1      -6.460  20.733   6.760  1.00  0.00     0.074 A 
ATOM     66  C   UNL     1      -7.183  21.341   5.644  1.00  0.00     0.031 C 
ATOM     67  C   UNL     1      -5.157  20.345   6.899  1.00  0.00     0.034 A 
BRANCH  54  68
ATOM     68  C   UNL     1      -4.922  21.689   1.679  1.00  0.00     0.023 A 
ATOM     69  C   UNL     1      -4.353  22.916   2.066  1.00  0.00     0.031 A 
ATOM     70  C   UNL     1      -6.102  21.785   0.902  1.00  0.00     0.131 A 
ATOM     71  C   UNL     1      -5.019  24.128   1.828  1.00  0.00     0.055 A 
ATOM     72  C   UNL     1      -6.721  23.002   0.603  1.00  0.00     0.041 A 
ATOM     73  F   UNL     1      -6.777  20.723   0.453  1.00  0.00    -0.206 F 
ATOM     74  C   UNL     1      -6.205  24.181   1.103  1.00  0.00     0.022 A 
BRANCH  71  75
ATOM     75  S   UNL     1      -4.404  25.607   2.667  1.00  0.00     0.124 S 
ATOM     76  O   UNL     1      -4.425  25.172   4.059  1.00  0.00    -0.237 OA
ATOM     77  O   UNL     1      -3.087  25.767   2.060  1.00  0.00    -0.237 OA
ATOM     78  O   UNL     1      -5.386  26.628   2.312  1.00  0.00    -0.744 OA
ENDBRANCH  71  75
ENDBRANCH  54  68
BRANCH  55  79
ATOM     79  C   UNL     1     -10.981  19.323   7.104  1.00  0.00     0.023 A 
ATOM     80  C   UNL     1     -11.508  20.338   7.937  1.00  0.00     0.031 A 
ATOM     81  C   UNL     1     -11.909  18.649   6.277  1.00  0.00     0.131 A 
ATOM     82  C   UNL     1     -12.894  20.635   7.917  1.00  0.00     0.055 A 
ATOM     83  C   UNL     1     -13.275  18.942   6.266  1.00  0.00     0.041 A 
ATOM     84  F   UNL     1     -11.508  17.736   5.378  1.00  0.00    -0.206 F 
ATOM     85  C   UNL     1     -13.773  19.945   7.079  1.00  0.00     0.022 A 
BRANCH  82  86
ATOM     86  S   UNL     1     -13.576  22.001   8.918  1.00  0.00     0.124 S 
ATOM     87  O   UNL     1     -13.455  21.483  10.275  1.00  0.00    -0.237 OA
ATOM     88  O   UNL     1     -12.705  23.116   8.566  1.00  0.00    -0.237 OA
ATOM     89  O   UNL     1     -14.952  22.127   8.432  1.00  0.00    -0.744 OA
ENDBRANCH  82  86
ENDBRANCH  55  79
BRANCH  67  90
ATOM     90  C   UNL     1      -4.740  19.642   8.176  1.00  0.00     0.023 A 
ATOM     91  C   UNL     1      -5.328  18.462   8.690  1.00  0.00     0.031 A 
ATOM     92  C   UNL     1      -3.613  20.151   8.847  1.00  0.00     0.131 A 
ATOM     93  C   UNL     1      -4.792  17.851   9.841  1.00  0.00     0.055 A 
ATOM     94  C   UNL     1      -3.072  19.530   9.971  1.00  0.00     0.041 A 
ATOM     95  F   UNL     1      -2.992  21.254   8.396  1.00  0.00    -0.206 F 
ATOM     96  C   UNL     1      -3.665  18.381  10.478  1.00  0.00     0.022 A 
BRANCH  93  97
ATOM     97  S   UNL     1      -5.565  16.363  10.556  1.00  0.00     0.124 S 
ATOM     98  O   UNL     1      -6.988  16.680  10.554  1.00  0.00    -0.237 OA
ATOM     99  O   UNL     1      -5.142  15.315   9.631  1.00  0.00    -0.237 OA
ATOM    100  O   UNL     1      -4.963  16.275  11.888  1.00  0.00    -0.744 OA
ENDBRANCH  93  97
ENDBRANCH  67  90
ENDBRANCH  41  42
ENDBRANCH  34  36
ENDBRANCH  33  34
ENDBRANCH  32  33
ENDBRANCH   1  32
TORSDOF 18
