REMARK SMILES C=CCOC(=O)N[C@@H](Cc1ccccc1)C(=O)OCCOC(=O)c1ccc(-c2c3nc(c(-c4cc(S(=O)(=O)[O-])ccc4F)c4ccc([nH]4)c(-c4cc(S(=O)(=O)[O-])ccc4F)c4nc(c(-c5cc(S(=O)(=O)[O-])ccc5F)c5ccc2[nH]5)C=C4)C=C3)cc1
REMARK SMILES IDX 19 1 18 2 16 3 17 4 8 5 7 6 5 7 6 8 4 10 3 11 2 12 1 13 9 14
REMARK SMILES IDX 10 15 11 16 15 17 12 18 14 19 13 20 20 21 21 22 22 23 23 24
REMARK SMILES IDX 24 25 25 26 86 27 26 28 85 29 27 30 28 31 29 32 79 33 30 34
REMARK SMILES IDX 84 35 78 36 80 37 31 38 83 39 77 40 76 41 32 43 64 44 44 45
REMARK SMILES IDX 63 46 45 47 48 48 62 49 81 50 46 51 47 52 61 54 82 55 49 56
REMARK SMILES IDX 33 57 34 58 42 59 35 60 41 61 43 62 40 63 36 64 37 65 38 66
REMARK SMILES IDX 39 67 65 68 66 69 74 70 67 71 73 72 75 73 72 74 68 75 69 76
REMARK SMILES IDX 70 77 71 78 50 79 51 80 59 81 52 82 58 83 60 84 57 85 53 86
REMARK SMILES IDX 54 87 55 88 56 89
REMARK H PARENT 7 9 80 42 48 53
REMARK Flexibility Score: inf
ROOT
ATOM      1  C   UNL     1      -0.795  -4.460  -6.558  1.00  0.00     0.274 C 
ENDROOT
BRANCH   1   2
ATOM      2  O   UNL     1      -1.323  -3.389  -5.753  1.00  0.00    -0.461 OA
BRANCH   2   3
ATOM      3  C   UNL     1      -2.424  -3.681  -5.005  1.00  0.00     0.329 C 
ATOM      4  O   UNL     1      -2.973  -4.779  -4.984  1.00  0.00    -0.250 OA
BRANCH   3   5
ATOM      5  C   UNL     1      -3.009  -2.452  -4.294  1.00  0.00     0.199 C 
BRANCH   5   6
ATOM      6  N   UNL     1      -2.111  -1.298  -4.210  1.00  0.00    -0.308 N 
ATOM      7  C   UNL     1      -1.537  -0.767  -3.092  1.00  0.00     0.408 C 
ATOM      8  O   UNL     1      -0.920   0.287  -3.145  1.00  0.00    -0.225 OA
ATOM      9  H   UNL     1      -1.896  -0.853  -5.061  1.00  0.00     0.168 HD
BRANCH   7  10
ATOM     10  O   UNL     1      -1.772  -1.497  -1.979  1.00  0.00    -0.445 OA
BRANCH  10  11
ATOM     11  C   UNL     1      -1.300  -0.952  -0.737  1.00  0.00     0.262 C 
BRANCH  11  12
ATOM     12  C   UNL     1       0.170  -1.175  -0.552  1.00  0.00     0.006 C 
ATOM     13  C   UNL     1       1.022  -0.214  -0.169  1.00  0.00     0.007 C 
ENDBRANCH  11  12
ENDBRANCH  10  11
ENDBRANCH   7  10
ENDBRANCH   5   6
BRANCH   5  14
ATOM     14  C   UNL     1      -4.346  -2.076  -4.967  1.00  0.00     0.072 C 
BRANCH  14  15
ATOM     15  C   UNL     1      -4.179  -1.517  -6.364  1.00  0.00    -0.045 A 
ATOM     16  C   UNL     1      -3.978  -2.370  -7.458  1.00  0.00     0.004 A 
ATOM     17  C   UNL     1      -4.145  -0.131  -6.567  1.00  0.00     0.004 A 
ATOM     18  C   UNL     1      -3.697  -1.848  -8.719  1.00  0.00     0.000 A 
ATOM     19  C   UNL     1      -3.880   0.390  -7.833  1.00  0.00     0.000 A 
ATOM     20  C   UNL     1      -3.643  -0.469  -8.905  1.00  0.00     0.000 A 
ENDBRANCH  14  15
ENDBRANCH   5  14
ENDBRANCH   3   5
ENDBRANCH   2   3
ENDBRANCH   1   2
BRANCH   1  21
ATOM     21  C   UNL     1       0.525  -4.991  -6.000  1.00  0.00     0.275 C 
BRANCH  21  22
ATOM     22  O   UNL     1       0.350  -5.538  -4.683  1.00  0.00    -0.458 OA
BRANCH  22  23
ATOM     23  C   UNL     1       0.559  -4.647  -3.685  1.00  0.00     0.338 C 
ATOM     24  O   UNL     1       0.938  -3.494  -3.794  1.00  0.00    -0.246 OA
BRANCH  23  25
ATOM     25  C   UNL     1       0.106  -5.216  -2.411  1.00  0.00     0.060 A 
ATOM     26  C   UNL     1      -1.038  -4.665  -1.837  1.00  0.00     0.016 A 
ATOM     27  C   UNL     1       0.854  -6.170  -1.727  1.00  0.00     0.016 A 
ATOM     28  C   UNL     1      -1.420  -5.015  -0.551  1.00  0.00     0.010 A 
ATOM     29  C   UNL     1       0.458  -6.544  -0.438  1.00  0.00     0.010 A 
ATOM     30  C   UNL     1      -0.662  -5.944   0.167  1.00  0.00    -0.014 A 
BRANCH  30  31
ATOM     31  C   UNL     1      -0.992  -6.186   1.592  1.00  0.00     0.031 A 
ATOM     32  C   UNL     1      -0.087  -5.635   2.658  1.00  0.00     0.074 A 
ATOM     33  C   UNL     1      -2.123  -6.836   1.920  1.00  0.00     0.049 A 
ATOM     34  N   UNL     1      -0.140  -5.794   3.954  1.00  0.00    -0.248 NA
ATOM     35  C   UNL     1       1.030  -4.797   2.197  1.00  0.00     0.031 C 
ATOM     36  C   UNL     1      -3.108  -7.347   0.965  1.00  0.00     0.029 A 
ATOM     37  N   UNL     1      -2.639  -7.172   3.144  1.00  0.00    -0.354 N 
ATOM     38  C   UNL     1       0.954  -5.102   4.465  1.00  0.00     0.074 A 
ATOM     39  C   UNL     1       1.662  -4.543   3.332  1.00  0.00     0.031 C 
ATOM     40  C   UNL     1      -4.112  -7.928   1.641  1.00  0.00     0.029 A 
ATOM     41  C   UNL     1      -3.814  -7.883   3.069  1.00  0.00     0.049 A 
ATOM     42  H   UNL     1      -2.210  -6.928   3.996  1.00  0.00     0.167 HD
ATOM     43  C   UNL     1       1.327  -4.951   5.760  1.00  0.00     0.034 A 
ATOM     44  C   UNL     1      -4.546  -8.461   4.041  1.00  0.00     0.034 A 
ATOM     45  C   UNL     1       0.594  -5.511   6.871  1.00  0.00     0.049 A 
ATOM     46  C   UNL     1      -4.079  -8.330   5.468  1.00  0.00     0.074 A 
ATOM     47  C   UNL     1       0.876  -5.428   8.223  1.00  0.00     0.029 A 
ATOM     48  N   UNL     1      -0.572  -6.261   6.756  1.00  0.00    -0.354 N 
ATOM     49  N   UNL     1      -3.021  -7.710   5.939  1.00  0.00    -0.248 NA
ATOM     50  C   UNL     1      -4.906  -8.975   6.495  1.00  0.00     0.031 C 
ATOM     51  C   UNL     1      -0.080  -6.178   8.918  1.00  0.00     0.029 A 
ATOM     52  C   UNL     1      -1.005  -6.667   8.009  1.00  0.00     0.049 A 
ATOM     53  H   UNL     1      -1.024  -6.473   5.908  1.00  0.00     0.167 HD
ATOM     54  C   UNL     1      -3.068  -7.872   7.320  1.00  0.00     0.074 A 
ATOM     55  C   UNL     1      -4.271  -8.629   7.605  1.00  0.00     0.031 C 
ATOM     56  C   UNL     1      -2.199  -7.437   8.269  1.00  0.00     0.034 A 
BRANCH  43  57
ATOM     57  C   UNL     1       2.618  -4.213   6.026  1.00  0.00     0.023 A 
ATOM     58  C   UNL     1       2.783  -2.854   5.702  1.00  0.00     0.031 A 
ATOM     59  C   UNL     1       3.721  -4.897   6.568  1.00  0.00     0.131 A 
ATOM     60  C   UNL     1       4.040  -2.247   5.851  1.00  0.00     0.055 A 
ATOM     61  C   UNL     1       4.946  -4.265   6.790  1.00  0.00     0.041 A 
ATOM     62  F   UNL     1       3.632  -6.201   6.874  1.00  0.00    -0.206 F 
ATOM     63  C   UNL     1       5.116  -2.936   6.415  1.00  0.00     0.022 A 
BRANCH  60  64
ATOM     64  S   UNL     1       4.292  -0.588   5.160  1.00  0.00     0.124 S 
ATOM     65  O   UNL     1       3.981  -0.806   3.749  1.00  0.00    -0.237 OA
ATOM     66  O   UNL     1       3.333   0.215   5.910  1.00  0.00    -0.237 OA
ATOM     67  O   UNL     1       5.698  -0.307   5.444  1.00  0.00    -0.744 OA
ENDBRANCH  60  64
ENDBRANCH  43  57
BRANCH  44  68
ATOM     68  C   UNL     1      -5.758  -9.259   3.699  1.00  0.00     0.023 A 
ATOM     69  C   UNL     1      -7.034  -8.873   4.138  1.00  0.00     0.031 A 
ATOM     70  C   UNL     1      -5.648 -10.449   2.955  1.00  0.00     0.131 A 
ATOM     71  C   UNL     1      -8.143  -9.689   3.864  1.00  0.00     0.055 A 
ATOM     72  C   UNL     1      -6.761 -11.228   2.640  1.00  0.00     0.041 A 
ATOM     73  F   UNL     1      -4.451 -10.864   2.511  1.00  0.00    -0.206 F 
ATOM     74  C   UNL     1      -8.018 -10.856   3.106  1.00  0.00     0.022 A 
BRANCH  71  75
ATOM     75  S   UNL     1      -9.749  -9.242   4.580  1.00  0.00     0.124 S 
ATOM     76  O   UNL     1      -9.445  -9.228   6.006  1.00  0.00    -0.237 OA
ATOM     77  O   UNL     1     -10.004  -7.944   3.965  1.00  0.00    -0.237 OA
ATOM     78  O   UNL     1     -10.630 -10.322   4.139  1.00  0.00    -0.744 OA
ENDBRANCH  71  75
ENDBRANCH  44  68
BRANCH  56  79
ATOM     79  C   UNL     1      -2.555  -7.743   9.704  1.00  0.00     0.023 A 
ATOM     80  C   UNL     1      -2.574  -9.060  10.196  1.00  0.00     0.031 A 
ATOM     81  C   UNL     1      -2.913  -6.703  10.580  1.00  0.00     0.131 A 
ATOM     82  C   UNL     1      -3.006  -9.309  11.507  1.00  0.00     0.055 A 
ATOM     83  C   UNL     1      -3.281  -6.952  11.903  1.00  0.00     0.041 A 
ATOM     84  F   UNL     1      -2.915  -5.427  10.162  1.00  0.00    -0.206 F 
ATOM     85  C   UNL     1      -3.344  -8.262  12.369  1.00  0.00     0.022 A 
BRANCH  82  86
ATOM     86  S   UNL     1      -3.225 -11.029  12.039  1.00  0.00     0.124 S 
ATOM     87  O   UNL     1      -4.167 -11.536  11.046  1.00  0.00    -0.237 OA
ATOM     88  O   UNL     1      -1.867 -11.556  11.958  1.00  0.00    -0.237 OA
ATOM     89  O   UNL     1      -3.761 -10.904  13.393  1.00  0.00    -0.744 OA
ENDBRANCH  82  86
ENDBRANCH  56  79
ENDBRANCH  30  31
ENDBRANCH  23  25
ENDBRANCH  22  23
ENDBRANCH  21  22
ENDBRANCH   1  21
TORSDOF 20
