REMARK SMILES CNS(=O)(=O)c1ccc(Oc2csc(C(=O)OCCOC(=O)c3ccc(-c4c5nc(c(-c6cc(S(=O)(=O)[O-])ccc6F)c6ccc([nH]6)c(-c6cc(S(=O)(=O)[O-])ccc6F)c6nc(c(-c7cc(S(=O)(=O)[O-])ccc7F)c7ccc4[nH]7)C=C6)C=C5)cc3)c2)cc1
REMARK SMILES IDX 18 1 17 2 15 3 16 4 14 5 11 6 12 7 86 8 13 9 10 10 9 11 6 12
REMARK SMILES IDX 7 13 88 14 8 15 87 16 3 17 4 18 5 19 2 20 1 21 19 23 20 24
REMARK SMILES IDX 21 25 22 26 23 27 24 28 85 29 25 30 84 31 26 32 27 33 28 34
REMARK SMILES IDX 78 35 29 36 83 37 77 38 79 39 30 40 82 41 76 42 75 43 31 45
REMARK SMILES IDX 63 46 43 47 62 48 44 49 47 50 61 51 80 52 45 53 46 54 60 56
REMARK SMILES IDX 81 57 48 58 32 59 33 60 41 61 34 62 40 63 42 64 39 65 35 66
REMARK SMILES IDX 36 67 37 68 38 69 64 70 65 71 73 72 66 73 72 74 74 75 71 76
REMARK SMILES IDX 67 77 68 78 69 79 70 80 49 81 50 82 58 83 51 84 57 85 59 86
REMARK SMILES IDX 56 87 52 88 53 89 54 90 55 91
REMARK H PARENT 2 22 79 44 47 55
REMARK Flexibility Score: inf
ROOT
ATOM      1  C   UNL     1      -2.160  -1.121 -10.609  1.00  0.00     0.275 C 
ENDROOT
BRANCH   1   2
ATOM      2  O   UNL     1      -2.472  -0.552  -9.322  1.00  0.00    -0.458 OA
BRANCH   2   3
ATOM      3  C   UNL     1      -3.768  -0.678  -8.901  1.00  0.00     0.348 C 
ATOM      4  O   UNL     1      -4.652  -1.200  -9.567  1.00  0.00    -0.245 OA
BRANCH   3   5
ATOM      5  C   UNL     1      -3.915  -0.131  -7.562  1.00  0.00     0.116 A 
ATOM      6  C   UNL     1      -3.535   0.943  -5.525  1.00  0.00     0.138 A 
ATOM      7  C   UNL     1      -4.752   0.355  -5.275  1.00  0.00     0.112 A 
ATOM      8  C   UNL     1      -3.052   0.666  -6.835  1.00  0.00     0.074 A 
ATOM      9  S   UNL     1      -5.349  -0.445  -6.664  1.00  0.00    -0.133 S 
BRANCH   6  10
ATOM     10  O   UNL     1      -2.898   1.792  -4.691  1.00  0.00    -0.456 OA
BRANCH  10  11
ATOM     11  C   UNL     1      -2.699   1.560  -3.353  1.00  0.00     0.127 A 
ATOM     12  C   UNL     1      -1.923   1.329  -0.691  1.00  0.00     0.082 A 
ATOM     13  C   UNL     1      -2.066   2.597  -1.255  1.00  0.00     0.025 A 
ATOM     14  C   UNL     1      -2.225   0.178  -1.429  1.00  0.00     0.025 A 
ATOM     15  C   UNL     1      -2.452   2.706  -2.590  1.00  0.00     0.048 A 
ATOM     16  C   UNL     1      -2.600   0.294  -2.772  1.00  0.00     0.048 A 
BRANCH  12  17
ATOM     17  S   UNL     1      -1.316   1.178   0.968  1.00  0.00     0.240 S 
ATOM     18  O   UNL     1      -1.694  -0.111   1.501  1.00  0.00    -0.207 OA
ATOM     19  O   UNL     1      -1.615   2.405   1.673  1.00  0.00    -0.207 OA
BRANCH  17  20
ATOM     20  N   UNL     1       0.355   1.181   0.733  1.00  0.00    -0.214 NA
ATOM     21  C   UNL     1       0.971  -0.008   0.148  1.00  0.00     0.120 C 
ATOM     22  H   UNL     1       0.573   1.967   0.121  1.00  0.00     0.141 HD
ENDBRANCH  17  20
ENDBRANCH  12  17
ENDBRANCH  10  11
ENDBRANCH   6  10
ENDBRANCH   3   5
ENDBRANCH   2   3
ENDBRANCH   1   2
BRANCH   1  23
ATOM     23  C   UNL     1      -1.508  -2.504 -10.495  1.00  0.00     0.275 C 
BRANCH  23  24
ATOM     24  O   UNL     1      -2.439  -3.509 -10.054  1.00  0.00    -0.458 OA
BRANCH  24  25
ATOM     25  C   UNL     1      -2.451  -3.713  -8.715  1.00  0.00     0.338 C 
ATOM     26  O   UNL     1      -1.756  -3.148  -7.887  1.00  0.00    -0.246 OA
BRANCH  25  27
ATOM     27  C   UNL     1      -3.547  -4.621  -8.344  1.00  0.00     0.060 A 
ATOM     28  C   UNL     1      -4.602  -4.072  -7.619  1.00  0.00     0.016 A 
ATOM     29  C   UNL     1      -3.487  -5.995  -8.565  1.00  0.00     0.016 A 
ATOM     30  C   UNL     1      -5.580  -4.886  -7.063  1.00  0.00     0.010 A 
ATOM     31  C   UNL     1      -4.494  -6.816  -8.034  1.00  0.00     0.010 A 
ATOM     32  C   UNL     1      -5.532  -6.271  -7.253  1.00  0.00    -0.014 A 
BRANCH  32  33
ATOM     33  C   UNL     1      -6.521  -7.136  -6.551  1.00  0.00     0.031 A 
ATOM     34  C   UNL     1      -6.056  -8.079  -5.474  1.00  0.00     0.074 A 
ATOM     35  C   UNL     1      -7.835  -7.032  -6.829  1.00  0.00     0.049 A 
ATOM     36  N   UNL     1      -6.731  -8.982  -4.809  1.00  0.00    -0.248 NA
ATOM     37  C   UNL     1      -4.635  -7.998  -5.104  1.00  0.00     0.031 C 
ATOM     38  C   UNL     1      -8.422  -6.101  -7.795  1.00  0.00     0.029 A 
ATOM     39  N   UNL     1      -8.918  -7.704  -6.318  1.00  0.00    -0.354 N 
ATOM     40  C   UNL     1      -5.812  -9.599  -3.965  1.00  0.00     0.074 A 
ATOM     41  C   UNL     1      -4.526  -8.989  -4.233  1.00  0.00     0.031 C 
ATOM     42  C   UNL     1      -9.757  -6.243  -7.787  1.00  0.00     0.029 A 
ATOM     43  C   UNL     1     -10.117  -7.327  -6.879  1.00  0.00     0.049 A 
ATOM     44  H   UNL     1      -8.844  -8.391  -5.617  1.00  0.00     0.167 HD
ATOM     45  C   UNL     1      -6.025 -10.578  -3.048  1.00  0.00     0.034 A 
ATOM     46  C   UNL     1     -11.359  -7.822  -6.710  1.00  0.00     0.034 A 
ATOM     47  C   UNL     1      -7.320 -11.163  -2.788  1.00  0.00     0.049 A 
ATOM     48  C   UNL     1     -11.558  -8.972  -5.755  1.00  0.00     0.074 A 
ATOM     49  C   UNL     1      -7.652 -12.166  -1.893  1.00  0.00     0.029 A 
ATOM     50  N   UNL     1      -8.503 -10.797  -3.422  1.00  0.00    -0.354 N 
ATOM     51  N   UNL     1     -10.673  -9.587  -5.004  1.00  0.00    -0.248 NA
ATOM     52  C   UNL     1     -12.925  -9.492  -5.624  1.00  0.00     0.031 C 
ATOM     53  C   UNL     1      -9.012 -12.458  -2.041  1.00  0.00     0.029 A 
ATOM     54  C   UNL     1      -9.555 -11.573  -2.958  1.00  0.00     0.049 A 
ATOM     55  H   UNL     1      -8.581 -10.090  -4.103  1.00  0.00     0.167 HD
ATOM     56  C   UNL     1     -11.386 -10.542  -4.283  1.00  0.00     0.074 A 
ATOM     57  C   UNL     1     -12.772 -10.412  -4.683  1.00  0.00     0.031 C 
ATOM     58  C   UNL     1     -10.936 -11.439  -3.367  1.00  0.00     0.034 A 
BRANCH  45  59
ATOM     59  C   UNL     1      -4.816 -11.116  -2.315  1.00  0.00     0.023 A 
ATOM     60  C   UNL     1      -4.021 -10.304  -1.485  1.00  0.00     0.031 A 
ATOM     61  C   UNL     1      -4.418 -12.454  -2.492  1.00  0.00     0.131 A 
ATOM     62  C   UNL     1      -2.829 -10.808  -0.944  1.00  0.00     0.055 A 
ATOM     63  C   UNL     1      -3.282 -12.977  -1.872  1.00  0.00     0.041 A 
ATOM     64  F   UNL     1      -5.119 -13.276  -3.290  1.00  0.00    -0.206 F 
ATOM     65  C   UNL     1      -2.468 -12.147  -1.108  1.00  0.00     0.022 A 
BRANCH  62  66
ATOM     66  S   UNL     1      -1.667  -9.646  -0.173  1.00  0.00     0.124 S 
ATOM     67  O   UNL     1      -1.430  -8.700  -1.262  1.00  0.00    -0.237 OA
ATOM     68  O   UNL     1      -2.432  -9.139   0.960  1.00  0.00    -0.237 OA
ATOM     69  O   UNL     1      -0.520 -10.484   0.171  1.00  0.00    -0.744 OA
ENDBRANCH  62  66
ENDBRANCH  45  59
BRANCH  46  70
ATOM     70  C   UNL     1     -12.505  -7.273  -7.494  1.00  0.00     0.023 A 
ATOM     71  C   UNL     1     -13.600  -6.669  -6.856  1.00  0.00     0.031 A 
ATOM     72  C   UNL     1     -12.541  -7.386  -8.896  1.00  0.00     0.131 A 
ATOM     73  C   UNL     1     -14.702  -6.242  -7.613  1.00  0.00     0.055 A 
ATOM     74  C   UNL     1     -13.612  -6.903  -9.650  1.00  0.00     0.041 A 
ATOM     75  F   UNL     1     -11.525  -7.961  -9.559  1.00  0.00    -0.206 F 
ATOM     76  C   UNL     1     -14.708  -6.338  -9.006  1.00  0.00     0.022 A 
BRANCH  73  77
ATOM     77  S   UNL     1     -16.174  -5.639  -6.741  1.00  0.00     0.124 S 
ATOM     78  O   UNL     1     -16.523  -6.791  -5.918  1.00  0.00    -0.237 OA
ATOM     79  O   UNL     1     -15.652  -4.476  -6.031  1.00  0.00    -0.237 OA
ATOM     80  O   UNL     1     -17.110  -5.338  -7.823  1.00  0.00    -0.744 OA
ENDBRANCH  73  77
ENDBRANCH  46  70
BRANCH  58  81
ATOM     81  C   UNL     1     -11.972 -12.301  -2.684  1.00  0.00     0.023 A 
ATOM     82  C   UNL     1     -12.738 -13.248  -3.385  1.00  0.00     0.031 A 
ATOM     83  C   UNL     1     -12.211 -12.150  -1.305  1.00  0.00     0.131 A 
ATOM     84  C   UNL     1     -13.751 -13.959  -2.721  1.00  0.00     0.055 A 
ATOM     85  C   UNL     1     -13.170 -12.911  -0.636  1.00  0.00     0.041 A 
ATOM     86  F   UNL     1     -11.513 -11.258  -0.584  1.00  0.00    -0.206 F 
ATOM     87  C   UNL     1     -13.958 -13.810  -1.347  1.00  0.00     0.022 A 
BRANCH  84  88
ATOM     88  S   UNL     1     -14.873 -14.996  -3.698  1.00  0.00     0.124 S 
ATOM     89  O   UNL     1     -15.409 -14.040  -4.662  1.00  0.00    -0.237 OA
ATOM     90  O   UNL     1     -13.972 -16.009  -4.238  1.00  0.00    -0.237 OA
ATOM     91  O   UNL     1     -15.834 -15.486  -2.711  1.00  0.00    -0.744 OA
ENDBRANCH  84  88
ENDBRANCH  58  81
ENDBRANCH  32  33
ENDBRANCH  25  27
ENDBRANCH  24  25
ENDBRANCH  23  24
ENDBRANCH   1  23
TORSDOF 18
