REMARK SMILES Nc1c(N2CCCC2)ncnc1N1CCC(C(=O)OCCOC(=O)c2ccc(-c3c4nc(c(-c5cc(S(=O)(=O)[O-])ccc5F)c5ccc([nH]5)c(-c5cc(S(=O)(=O)[O-])ccc5F)c5nc(c(-c6cc(S(=O)(=O)[O-])ccc6F)c6ccc3[nH]6)C=C5)C=C4)cc2)CC1
REMARK SMILES IDX 21 1 20 2 19 3 17 4 18 5 16 6 13 7 14 8 89 9 15 10 88 11
REMARK SMILES IDX 12 12 2 13 3 14 9 15 11 16 10 17 1 18 4 21 5 22 8 23 6 24
REMARK SMILES IDX 7 25 22 26 23 27 24 28 25 29 26 30 87 31 27 32 86 33 28 34
REMARK SMILES IDX 29 35 30 36 80 37 31 38 85 39 79 40 81 41 32 42 84 43 78 44
REMARK SMILES IDX 77 45 33 47 65 48 45 49 64 50 46 51 49 52 63 53 82 54 47 55
REMARK SMILES IDX 48 56 62 58 83 59 50 60 34 61 35 62 43 63 36 64 42 65 44 66
REMARK SMILES IDX 41 67 37 68 38 69 39 70 40 71 66 72 67 73 75 74 68 75 74 76
REMARK SMILES IDX 76 77 73 78 69 79 70 80 71 81 72 82 51 83 52 84 60 85 53 86
REMARK SMILES IDX 59 87 61 88 58 89 54 90 55 91 56 92 57 93
REMARK H PARENT 1 19 1 20 81 46 49 57
REMARK Flexibility Score: inf
ROOT
ATOM      1  C   UNL     1       3.812  -0.854  -9.091  1.00  0.00     0.275 C 
ENDROOT
BRANCH   1   2
ATOM      2  C   UNL     1       2.534  -1.336  -8.400  1.00  0.00     0.274 C 
BRANCH   2   3
ATOM      3  O   UNL     1       2.435  -0.803  -7.067  1.00  0.00    -0.462 OA
BRANCH   3   4
ATOM      4  C   UNL     1       2.728  -1.664  -6.061  1.00  0.00     0.309 C 
ATOM      5  O   UNL     1       2.973  -2.856  -6.213  1.00  0.00    -0.252 OA
BRANCH   4   6
ATOM      6  C   UNL     1       2.751  -1.011  -4.698  1.00  0.00     0.103 C 
ATOM      7  N   UNL     1       1.954   0.325  -2.314  1.00  0.00    -0.355 N 
ATOM      8  C   UNL     1       2.844   1.018  -3.243  1.00  0.00     0.119 C 
ATOM      9  C   UNL     1       1.892  -1.135  -2.367  1.00  0.00     0.119 C 
ATOM     10  C   UNL     1       2.658   0.516  -4.673  1.00  0.00     0.037 C 
ATOM     11  C   UNL     1       1.674  -1.612  -3.799  1.00  0.00     0.037 C 
BRANCH   7  12
ATOM     12  C   UNL     1       0.797   0.991  -1.902  1.00  0.00     0.157 A 
ATOM     13  C   UNL     1       0.353   0.841  -0.573  1.00  0.00     0.118 A 
ATOM     14  C   UNL     1      -0.845   1.488  -0.237  1.00  0.00     0.157 A 
ATOM     15  N   UNL     1      -1.567   2.155  -1.157  1.00  0.00    -0.217 NA
ATOM     16  N   UNL     1       0.122   1.723  -2.804  1.00  0.00    -0.217 NA
ATOM     17  C   UNL     1      -1.027   2.259  -2.379  1.00  0.00     0.226 A 
BRANCH  13  18
ATOM     18  N   UNL     1       1.114   0.117   0.358  1.00  0.00    -0.393 N 
ATOM     19  H   UNL     1       0.795   0.018   1.285  1.00  0.00     0.156 HD
ATOM     20  H   UNL     1       1.967  -0.292   0.086  1.00  0.00     0.156 HD
ENDBRANCH  13  18
BRANCH  14  21
ATOM     21  N   UNL     1      -1.371   1.437   1.030  1.00  0.00    -0.355 N 
ATOM     22  C   UNL     1      -0.653   1.740   2.252  1.00  0.00     0.118 C 
ATOM     23  C   UNL     1      -2.614   0.727   1.259  1.00  0.00     0.118 C 
ATOM     24  C   UNL     1      -1.228   0.715   3.226  1.00  0.00     0.023 C 
ATOM     25  C   UNL     1      -2.685   0.616   2.785  1.00  0.00     0.023 C 
ENDBRANCH  14  21
ENDBRANCH   7  12
ENDBRANCH   4   6
ENDBRANCH   3   4
ENDBRANCH   2   3
ENDBRANCH   1   2
BRANCH   1  26
ATOM     26  O   UNL     1       4.994  -1.395  -8.470  1.00  0.00    -0.458 OA
BRANCH  26  27
ATOM     27  C   UNL     1       5.578  -0.590  -7.551  1.00  0.00     0.338 C 
ATOM     28  O   UNL     1       5.222   0.524  -7.213  1.00  0.00    -0.246 OA
BRANCH  27  29
ATOM     29  C   UNL     1       6.693  -1.301  -6.907  1.00  0.00     0.060 A 
ATOM     30  C   UNL     1       6.530  -1.719  -5.586  1.00  0.00     0.016 A 
ATOM     31  C   UNL     1       7.919  -1.460  -7.554  1.00  0.00     0.016 A 
ATOM     32  C   UNL     1       7.594  -2.287  -4.894  1.00  0.00     0.010 A 
ATOM     33  C   UNL     1       8.987  -2.043  -6.861  1.00  0.00     0.010 A 
ATOM     34  C   UNL     1       8.834  -2.448  -5.523  1.00  0.00    -0.014 A 
BRANCH  34  35
ATOM     35  C   UNL     1       9.974  -2.999  -4.752  1.00  0.00     0.031 A 
ATOM     36  C   UNL     1      11.068  -2.084  -4.277  1.00  0.00     0.074 A 
ATOM     37  C   UNL     1       9.993  -4.305  -4.428  1.00  0.00     0.049 A 
ATOM     38  N   UNL     1      12.174  -2.379  -3.645  1.00  0.00    -0.248 NA
ATOM     39  C   UNL     1      10.888  -0.649  -4.543  1.00  0.00     0.031 C 
ATOM     40  C   UNL     1       8.949  -5.273  -4.769  1.00  0.00     0.029 A 
ATOM     41  N   UNL     1      10.914  -5.041  -3.727  1.00  0.00    -0.354 N 
ATOM     42  C   UNL     1      12.829  -1.170  -3.444  1.00  0.00     0.074 A 
ATOM     43  C   UNL     1      12.005  -0.140  -4.041  1.00  0.00     0.031 C 
ATOM     44  C   UNL     1       9.278  -6.470  -4.256  1.00  0.00     0.029 A 
ATOM     45  C   UNL     1      10.578  -6.368  -3.600  1.00  0.00     0.049 A 
ATOM     46  H   UNL     1      11.737  -4.655  -3.349  1.00  0.00     0.167 HD
ATOM     47  C   UNL     1      14.008  -0.943  -2.816  1.00  0.00     0.034 A 
ATOM     48  C   UNL     1      11.254  -7.391  -3.042  1.00  0.00     0.034 A 
ATOM     49  C   UNL     1      14.819  -1.977  -2.225  1.00  0.00     0.049 A 
ATOM     50  C   UNL     1      12.609  -7.130  -2.440  1.00  0.00     0.074 A 
ATOM     51  C   UNL     1      16.041  -1.856  -1.585  1.00  0.00     0.029 A 
ATOM     52  N   UNL     1      14.489  -3.325  -2.199  1.00  0.00    -0.354 N 
ATOM     53  N   UNL     1      13.254  -5.993  -2.329  1.00  0.00    -0.248 NA
ATOM     54  C   UNL     1      13.333  -8.291  -1.906  1.00  0.00     0.031 C 
ATOM     55  C   UNL     1      16.472  -3.135  -1.216  1.00  0.00     0.029 A 
ATOM     56  C   UNL     1      15.493  -4.048  -1.575  1.00  0.00     0.049 A 
ATOM     57  H   UNL     1      13.663  -3.711  -2.569  1.00  0.00     0.167 HD
ATOM     58  C   UNL     1      14.457  -6.301  -1.702  1.00  0.00     0.074 A 
ATOM     59  C   UNL     1      14.446  -7.728  -1.454  1.00  0.00     0.031 C 
ATOM     60  C   UNL     1      15.476  -5.474  -1.358  1.00  0.00     0.034 A 
BRANCH  47  61
ATOM     61  C   UNL     1      14.513   0.475  -2.784  1.00  0.00     0.023 A 
ATOM     62  C   UNL     1      13.895   1.460  -1.996  1.00  0.00     0.031 A 
ATOM     63  C   UNL     1      15.629   0.844  -3.555  1.00  0.00     0.131 A 
ATOM     64  C   UNL     1      14.370   2.780  -2.032  1.00  0.00     0.055 A 
ATOM     65  C   UNL     1      16.134   2.145  -3.541  1.00  0.00     0.041 A 
ATOM     66  F   UNL     1      16.244  -0.056  -4.340  1.00  0.00    -0.206 F 
ATOM     67  C   UNL     1      15.498   3.124  -2.783  1.00  0.00     0.022 A 
BRANCH  64  68
ATOM     68  S   UNL     1      13.447   4.064  -1.146  1.00  0.00     0.124 S 
ATOM     69  O   UNL     1      12.187   4.083  -1.885  1.00  0.00    -0.237 OA
ATOM     70  O   UNL     1      13.383   3.533   0.210  1.00  0.00    -0.237 OA
ATOM     71  O   UNL     1      14.277   5.256  -1.309  1.00  0.00    -0.744 OA
ENDBRANCH  64  68
ENDBRANCH  47  61
BRANCH  48  72
ATOM     72  C   UNL     1      10.684  -8.765  -3.074  1.00  0.00     0.023 A 
ATOM     73  C   UNL     1      10.241  -9.392  -1.900  1.00  0.00     0.031 A 
ATOM     74  C   UNL     1      10.576  -9.469  -4.287  1.00  0.00     0.131 A 
ATOM     75  C   UNL     1       9.724 -10.695  -1.961  1.00  0.00     0.055 A 
ATOM     76  C   UNL     1      10.028 -10.750  -4.347  1.00  0.00     0.041 A 
ATOM     77  F   UNL     1      10.983  -8.906  -5.436  1.00  0.00    -0.206 F 
ATOM     78  C   UNL     1       9.603 -11.373  -3.177  1.00  0.00     0.022 A 
BRANCH  75  79
ATOM     79  S   UNL     1       9.223 -11.508  -0.419  1.00  0.00     0.124 S 
ATOM     80  O   UNL     1      10.499 -11.638   0.276  1.00  0.00    -0.237 OA
ATOM     81  O   UNL     1       8.281 -10.547   0.143  1.00  0.00    -0.237 OA
ATOM     82  O   UNL     1       8.629 -12.764  -0.874  1.00  0.00    -0.744 OA
ENDBRANCH  75  79
ENDBRANCH  48  72
BRANCH  60  83
ATOM     83  C   UNL     1      16.655  -6.092  -0.658  1.00  0.00     0.023 A 
ATOM     84  C   UNL     1      17.597  -6.865  -1.357  1.00  0.00     0.031 A 
ATOM     85  C   UNL     1      16.853  -5.873   0.716  1.00  0.00     0.131 A 
ATOM     86  C   UNL     1      18.688  -7.417  -0.669  1.00  0.00     0.055 A 
ATOM     87  C   UNL     1      17.961  -6.392   1.385  1.00  0.00     0.041 A 
ATOM     88  F   UNL     1      15.980  -5.138   1.422  1.00  0.00    -0.206 F 
ATOM     89  C   UNL     1      18.884  -7.172   0.693  1.00  0.00     0.022 A 
BRANCH  86  90
ATOM     90  S   UNL     1      19.847  -8.478  -1.575  1.00  0.00     0.124 S 
ATOM     91  O   UNL     1      19.017  -9.639  -1.879  1.00  0.00    -0.237 OA
ATOM     92  O   UNL     1      20.218  -7.644  -2.714  1.00  0.00    -0.237 OA
ATOM     93  O   UNL     1      20.919  -8.716  -0.610  1.00  0.00    -0.744 OA
ENDBRANCH  86  90
ENDBRANCH  60  83
ENDBRANCH  34  35
ENDBRANCH  27  29
ENDBRANCH  26  27
ENDBRANCH   1  26
TORSDOF 17
