REMARK SMILES Cc1nc([C@]2(C)CCCO2)nc(C)c1C(=O)OCCOC(=O)c1ccc(-c2c3nc(c(-c4cc(S(=O)(=O)[O-])ccc4F)c4ccc([nH]4)c(-c4cc(S(=O)(=O)[O-])ccc4F)c4nc(c(-c5cc(S(=O)(=O)[O-])ccc5F)c5ccc2[nH]5)C=C4)C=C3)cc1
REMARK SMILES IDX 19 1 18 2 17 3 15 4 16 5 14 6 1 7 2 8 3 9 4 10 12 11 11 12
REMARK SMILES IDX 13 13 5 14 7 15 10 16 6 17 8 18 9 19 20 20 21 21 22 22 23 23
REMARK SMILES IDX 24 24 85 25 25 26 84 27 26 28 27 29 28 30 78 31 29 32 83 33
REMARK SMILES IDX 77 34 79 35 30 36 82 37 76 38 75 39 31 41 63 42 43 43 62 44
REMARK SMILES IDX 44 45 47 46 61 47 80 48 45 49 46 50 60 52 81 53 48 54 32 55
REMARK SMILES IDX 33 56 41 57 34 58 40 59 42 60 39 61 35 62 36 63 37 64 38 65
REMARK SMILES IDX 64 66 65 67 73 68 66 69 72 70 74 71 71 72 67 73 68 74 69 75
REMARK SMILES IDX 70 76 49 77 50 78 58 79 51 80 57 81 59 82 56 83 52 84 53 85
REMARK SMILES IDX 54 86 55 87
REMARK H PARENT 79 40 47 51
REMARK Flexibility Score: inf
ROOT
ATOM      1  C   UNL     1      -6.993  -3.463   4.540  1.00  0.00     0.275 C 
ENDROOT
BRANCH   1   2
ATOM      2  C   UNL     1      -6.881  -3.987   3.110  1.00  0.00     0.275 C 
BRANCH   2   3
ATOM      3  O   UNL     1      -5.506  -3.998   2.661  1.00  0.00    -0.458 OA
BRANCH   3   4
ATOM      4  C   UNL     1      -5.199  -3.152   1.643  1.00  0.00     0.341 C 
ATOM      5  O   UNL     1      -5.965  -2.352   1.142  1.00  0.00    -0.246 OA
BRANCH   4   6
ATOM      6  C   UNL     1      -3.798  -3.306   1.184  1.00  0.00     0.102 A 
ATOM      7  C   UNL     1      -3.802  -5.840   1.342  1.00  0.00     0.068 C 
ATOM      8  C   UNL     1      -3.154  -4.527   1.016  1.00  0.00     0.056 A 
ATOM      9  N   UNL     1      -1.873  -4.622   0.555  1.00  0.00    -0.234 NA
ATOM     10  C   UNL     1      -1.229  -3.477   0.239  1.00  0.00     0.160 A 
ATOM     11  C   UNL     1      -3.060  -2.196   0.796  1.00  0.00     0.056 A 
ATOM     12  N   UNL     1      -1.817  -2.283   0.293  1.00  0.00    -0.234 NA
ATOM     13  C   UNL     1      -3.431  -0.784   1.075  1.00  0.00     0.068 C 
BRANCH  10  14
ATOM     14  C   UNL     1       0.245  -3.476  -0.181  1.00  0.00     0.125 C 
ATOM     15  C   UNL     1       0.426  -3.973  -1.611  1.00  0.00     0.046 C 
ATOM     16  O   UNL     1       1.008  -4.394   0.634  1.00  0.00    -0.367 OA
ATOM     17  C   UNL     1       0.860  -2.077  -0.006  1.00  0.00     0.051 C 
ATOM     18  C   UNL     1       0.492  -5.471  -1.437  1.00  0.00     0.032 C 
ATOM     19  C   UNL     1       1.094  -5.645  -0.055  1.00  0.00     0.161 C 
ENDBRANCH  10  14
ENDBRANCH   4   6
ENDBRANCH   3   4
ENDBRANCH   2   3
ENDBRANCH   1   2
BRANCH   1  20
ATOM     20  O   UNL     1      -6.715  -2.052   4.565  1.00  0.00    -0.458 OA
BRANCH  20  21
ATOM     21  C   UNL     1      -5.544  -1.702   5.145  1.00  0.00     0.338 C 
ATOM     22  O   UNL     1      -4.748  -2.443   5.701  1.00  0.00    -0.246 OA
BRANCH  21  23
ATOM     23  C   UNL     1      -5.281  -0.269   4.930  1.00  0.00     0.060 A 
ATOM     24  C   UNL     1      -5.178   0.182   3.625  1.00  0.00     0.016 A 
ATOM     25  C   UNL     1      -4.899   0.566   5.977  1.00  0.00     0.016 A 
ATOM     26  C   UNL     1      -4.498   1.372   3.363  1.00  0.00     0.010 A 
ATOM     27  C   UNL     1      -4.380   1.845   5.700  1.00  0.00     0.010 A 
ATOM     28  C   UNL     1      -4.095   2.247   4.381  1.00  0.00    -0.014 A 
BRANCH  28  29
ATOM     29  C   UNL     1      -3.331   3.509   4.063  1.00  0.00     0.031 A 
ATOM     30  C   UNL     1      -2.109   3.899   4.876  1.00  0.00     0.074 A 
ATOM     31  C   UNL     1      -3.668   4.305   3.020  1.00  0.00     0.049 A 
ATOM     32  N   UNL     1      -1.500   5.057   4.961  1.00  0.00    -0.248 NA
ATOM     33  C   UNL     1      -1.506   2.854   5.719  1.00  0.00     0.031 C 
ATOM     34  C   UNL     1      -4.751   4.056   2.064  1.00  0.00     0.029 A 
ATOM     35  N   UNL     1      -3.120   5.489   2.570  1.00  0.00    -0.354 N 
ATOM     36  C   UNL     1      -0.506   4.904   5.927  1.00  0.00     0.074 A 
ATOM     37  C   UNL     1      -0.596   3.538   6.398  1.00  0.00     0.031 C 
ATOM     38  C   UNL     1      -4.729   4.988   1.104  1.00  0.00     0.029 A 
ATOM     39  C   UNL     1      -3.768   6.016   1.472  1.00  0.00     0.049 A 
ATOM     40  H   UNL     1      -2.341   5.917   2.992  1.00  0.00     0.167 HD
ATOM     41  C   UNL     1       0.391   5.819   6.380  1.00  0.00     0.034 A 
ATOM     42  C   UNL     1      -3.690   7.223   0.874  1.00  0.00     0.034 A 
ATOM     43  C   UNL     1       0.522   7.154   5.840  1.00  0.00     0.049 A 
ATOM     44  C   UNL     1      -2.756   8.254   1.444  1.00  0.00     0.074 A 
ATOM     45  C   UNL     1       1.393   8.160   6.228  1.00  0.00     0.029 A 
ATOM     46  N   UNL     1      -0.217   7.665   4.780  1.00  0.00    -0.354 N 
ATOM     47  N   UNL     1      -1.925   8.146   2.454  1.00  0.00    -0.248 NA
ATOM     48  C   UNL     1      -2.768   9.579   0.812  1.00  0.00     0.031 C 
ATOM     49  C   UNL     1       1.132   9.296   5.454  1.00  0.00     0.029 A 
ATOM     50  C   UNL     1       0.160   8.975   4.522  1.00  0.00     0.049 A 
ATOM     51  H   UNL     1      -0.907   7.168   4.285  1.00  0.00     0.167 HD
ATOM     52  C   UNL     1      -1.304   9.386   2.565  1.00  0.00     0.074 A 
ATOM     53  C   UNL     1      -1.836  10.215   1.505  1.00  0.00     0.031 C 
ATOM     54  C   UNL     1      -0.379   9.801   3.468  1.00  0.00     0.034 A 
BRANCH  41  55
ATOM     55  C   UNL     1       1.252   5.442   7.567  1.00  0.00     0.023 A 
ATOM     56  C   UNL     1       2.213   4.418   7.515  1.00  0.00     0.031 A 
ATOM     57  C   UNL     1       1.099   6.133   8.785  1.00  0.00     0.131 A 
ATOM     58  C   UNL     1       2.933   4.073   8.673  1.00  0.00     0.055 A 
ATOM     59  C   UNL     1       1.876   5.841   9.908  1.00  0.00     0.041 A 
ATOM     60  F   UNL     1       0.184   7.108   8.906  1.00  0.00    -0.206 F 
ATOM     61  C   UNL     1       2.791   4.796   9.860  1.00  0.00     0.022 A 
BRANCH  58  62
ATOM     62  S   UNL     1       3.958   2.577   8.648  1.00  0.00     0.124 S 
ATOM     63  O   UNL     1       2.974   1.552   8.306  1.00  0.00    -0.237 OA
ATOM     64  O   UNL     1       4.944   2.887   7.619  1.00  0.00    -0.237 OA
ATOM     65  O   UNL     1       4.482   2.496  10.010  1.00  0.00    -0.744 OA
ENDBRANCH  58  62
ENDBRANCH  41  55
BRANCH  42  66
ATOM     66  C   UNL     1      -4.616   7.573  -0.248  1.00  0.00     0.023 A 
ATOM     67  C   UNL     1      -4.128   7.947  -1.510  1.00  0.00     0.031 A 
ATOM     68  C   UNL     1      -6.013   7.586  -0.057  1.00  0.00     0.131 A 
ATOM     69  C   UNL     1      -5.023   8.353  -2.514  1.00  0.00     0.055 A 
ATOM     70  C   UNL     1      -6.900   7.913  -1.082  1.00  0.00     0.041 A 
ATOM     71  F   UNL     1      -6.541   7.257   1.133  1.00  0.00    -0.206 F 
ATOM     72  C   UNL     1      -6.406   8.315  -2.316  1.00  0.00     0.022 A 
BRANCH  69  73
ATOM     73  S   UNL     1      -4.352   9.044  -4.050  1.00  0.00     0.124 S 
ATOM     74  O   UNL     1      -3.545  10.151  -3.549  1.00  0.00    -0.237 OA
ATOM     75  O   UNL     1      -3.617   7.909  -4.598  1.00  0.00    -0.237 OA
ATOM     76  O   UNL     1      -5.546   9.431  -4.799  1.00  0.00    -0.744 OA
ENDBRANCH  69  73
ENDBRANCH  42  66
BRANCH  54  77
ATOM     77  C   UNL     1       0.155  11.202   3.301  1.00  0.00     0.023 A 
ATOM     78  C   UNL     1      -0.660  12.333   3.483  1.00  0.00     0.031 A 
ATOM     79  C   UNL     1       1.494  11.405   2.923  1.00  0.00     0.131 A 
ATOM     80  C   UNL     1      -0.145  13.613   3.224  1.00  0.00     0.055 A 
ATOM     81  C   UNL     1       2.019  12.684   2.733  1.00  0.00     0.041 A 
ATOM     82  F   UNL     1       2.316  10.361   2.728  1.00  0.00    -0.206 F 
ATOM     83  C   UNL     1       1.194  13.796   2.869  1.00  0.00     0.022 A 
BRANCH  80  84
ATOM     84  S   UNL     1      -1.278  15.029   3.254  1.00  0.00     0.124 S 
ATOM     85  O   UNL     1      -2.264  14.650   2.246  1.00  0.00    -0.237 OA
ATOM     86  O   UNL     1      -1.746  15.027   4.636  1.00  0.00    -0.237 OA
ATOM     87  O   UNL     1      -0.424  16.159   2.892  1.00  0.00    -0.744 OA
ENDBRANCH  80  84
ENDBRANCH  54  77
ENDBRANCH  28  29
ENDBRANCH  21  23
ENDBRANCH  20  21
ENDBRANCH   1  20
TORSDOF 15
