REMARK SMILES CCCOc1cccc([C@H]2CC[NH2+][C@@H]2C(=O)OCCOC(=O)c2ccc(-c3c4nc(c(-c5cc(S(=O)(=O)[O-])ccc5F)c5ccc([nH]5)c(-c5cc(S(=O)(=O)[O-])ccc5F)c5nc(c(-c6cc(S(=O)(=O)[O-])ccc6F)c6ccc3[nH]6)C=C5)C=C4)cc2)c1
REMARK SMILES IDX 18 1 17 2 15 3 16 4 14 5 10 6 11 7 12 8 13 9 9 12 5 13 6 14
REMARK SMILES IDX 86 15 7 16 8 17 4 18 3 19 2 20 1 21 19 22 20 23 21 24 22 25
REMARK SMILES IDX 23 26 24 27 85 28 25 29 84 30 26 31 27 32 28 33 78 34 29 35
REMARK SMILES IDX 83 36 77 37 79 38 30 39 82 40 76 41 75 42 31 44 63 45 43 46
REMARK SMILES IDX 62 47 44 48 47 49 61 50 80 51 45 52 46 53 60 55 81 56 48 57
REMARK SMILES IDX 32 58 33 59 41 60 34 61 40 62 42 63 39 64 35 65 36 66 37 67
REMARK SMILES IDX 38 68 64 69 65 70 73 71 66 72 72 73 74 74 71 75 67 76 68 77
REMARK SMILES IDX 69 78 70 79 49 80 50 81 58 82 51 83 57 84 59 85 56 86 52 87
REMARK SMILES IDX 53 88 54 89 55 90
REMARK H PARENT 13 10 13 11 79 43 47 54
REMARK Flexibility Score: inf
ROOT
ATOM      1  C   UNL     1       4.425  -0.232   1.415  1.00  0.00     0.274 C 
ENDROOT
BRANCH   1   2
ATOM      2  O   UNL     1       3.357  -0.303   2.385  1.00  0.00    -0.458 OA
BRANCH   2   3
ATOM      3  C   UNL     1       2.168   0.268   2.024  1.00  0.00     0.365 C 
ATOM      4  O   UNL     1       1.946   0.756   0.923  1.00  0.00    -0.245 OA
BRANCH   3   5
ATOM      5  C   UNL     1       1.165   0.204   3.199  1.00  0.00     0.301 C 
ATOM      6  C   UNL     1       0.369  -1.122   3.202  1.00  0.00     0.095 C 
ATOM      7  C   UNL     1      -1.094  -0.679   3.168  1.00  0.00     0.076 C 
ATOM      8  C   UNL     1      -1.023   0.656   2.456  1.00  0.00     0.262 C 
ATOM      9  N   UNL     1       0.149   1.296   3.067  1.00  0.00    -0.334 N 
ATOM     10  H   UNL     1      -0.088   1.677   3.983  1.00  0.00     0.347 HD
ATOM     11  H   UNL     1       0.495   2.074   2.506  1.00  0.00     0.347 HD
BRANCH   6  12
ATOM     12  C   UNL     1       0.651  -2.195   4.232  1.00  0.00    -0.034 A 
ATOM     13  C   UNL     1       1.949  -3.088   6.094  1.00  0.00     0.119 A 
ATOM     14  C   UNL     1       1.363  -4.339   5.900  1.00  0.00     0.046 A 
ATOM     15  C   UNL     1       1.553  -2.020   5.290  1.00  0.00     0.050 A 
ATOM     16  C   UNL     1       0.401  -4.521   4.910  1.00  0.00     0.004 A 
ATOM     17  C   UNL     1       0.059  -3.460   4.072  1.00  0.00     0.004 A 
BRANCH  13  18
ATOM     18  O   UNL     1       2.928  -3.046   7.045  1.00  0.00    -0.494 OA
BRANCH  18  19
ATOM     19  C   UNL     1       3.413  -1.784   7.503  1.00  0.00     0.229 C 
BRANCH  19  20
ATOM     20  C   UNL     1       4.706  -1.355   6.798  1.00  0.00     0.038 C 
ATOM     21  C   UNL     1       4.496  -0.385   5.644  1.00  0.00     0.007 C 
ENDBRANCH  19  20
ENDBRANCH  18  19
ENDBRANCH  13  18
ENDBRANCH   6  12
ENDBRANCH   3   5
ENDBRANCH   2   3
ENDBRANCH   1   2
BRANCH   1  22
ATOM     22  C   UNL     1       4.695  -1.602   0.803  1.00  0.00     0.275 C 
BRANCH  22  23
ATOM     23  O   UNL     1       3.520  -2.020   0.095  1.00  0.00    -0.458 OA
BRANCH  23  24
ATOM     24  C   UNL     1       3.080  -3.269   0.368  1.00  0.00     0.338 C 
ATOM     25  O   UNL     1       3.648  -4.120   1.028  1.00  0.00    -0.246 OA
BRANCH  24  26
ATOM     26  C   UNL     1       1.754  -3.462  -0.251  1.00  0.00     0.060 A 
ATOM     27  C   UNL     1       0.787  -2.461  -0.164  1.00  0.00     0.016 A 
ATOM     28  C   UNL     1       1.431  -4.692  -0.818  1.00  0.00     0.016 A 
ATOM     29  C   UNL     1      -0.533  -2.735  -0.502  1.00  0.00     0.010 A 
ATOM     30  C   UNL     1       0.135  -4.912  -1.295  1.00  0.00     0.010 A 
ATOM     31  C   UNL     1      -0.877  -3.955  -1.099  1.00  0.00    -0.014 A 
BRANCH  31  32
ATOM     32  C   UNL     1      -2.290  -4.245  -1.482  1.00  0.00     0.031 A 
ATOM     33  C   UNL     1      -2.965  -5.493  -0.970  1.00  0.00     0.074 A 
ATOM     34  C   UNL     1      -2.975  -3.398  -2.277  1.00  0.00     0.049 A 
ATOM     35  N   UNL     1      -4.078  -6.056  -1.365  1.00  0.00    -0.248 NA
ATOM     36  C   UNL     1      -2.281  -6.215   0.114  1.00  0.00     0.031 C 
ATOM     37  C   UNL     1      -2.471  -2.125  -2.800  1.00  0.00     0.029 A 
ATOM     38  N   UNL     1      -4.250  -3.474  -2.781  1.00  0.00    -0.354 N 
ATOM     39  C   UNL     1      -4.191  -7.234  -0.631  1.00  0.00     0.074 A 
ATOM     40  C   UNL     1      -3.029  -7.302   0.230  1.00  0.00     0.031 C 
ATOM     41  C   UNL     1      -3.439  -1.519  -3.501  1.00  0.00     0.029 A 
ATOM     42  C   UNL     1      -4.590  -2.408  -3.583  1.00  0.00     0.049 A 
ATOM     43  H   UNL     1      -4.863  -4.219  -2.587  1.00  0.00     0.167 HD
ATOM     44  C   UNL     1      -5.170  -8.172  -0.682  1.00  0.00     0.034 A 
ATOM     45  C   UNL     1      -5.676  -2.192  -4.351  1.00  0.00     0.034 A 
ATOM     46  C   UNL     1      -6.348  -8.055  -1.510  1.00  0.00     0.049 A 
ATOM     47  C   UNL     1      -6.736  -3.257  -4.416  1.00  0.00     0.074 A 
ATOM     48  C   UNL     1      -7.404  -8.940  -1.643  1.00  0.00     0.029 A 
ATOM     49  N   UNL     1      -6.633  -6.974  -2.335  1.00  0.00    -0.354 N 
ATOM     50  N   UNL     1      -6.779  -4.415  -3.800  1.00  0.00    -0.248 NA
ATOM     51  C   UNL     1      -7.879  -2.996  -5.299  1.00  0.00     0.031 C 
ATOM     52  C   UNL     1      -8.302  -8.417  -2.582  1.00  0.00     0.029 A 
ATOM     53  C   UNL     1      -7.839  -7.176  -2.989  1.00  0.00     0.049 A 
ATOM     54  H   UNL     1      -6.062  -6.179  -2.441  1.00  0.00     0.167 HD
ATOM     55  C   UNL     1      -7.957  -5.022  -4.221  1.00  0.00     0.074 A 
ATOM     56  C   UNL     1      -8.606  -4.089  -5.121  1.00  0.00     0.031 C 
ATOM     57  C   UNL     1      -8.457  -6.242  -3.899  1.00  0.00     0.034 A 
BRANCH  44  58
ATOM     58  C   UNL     1      -4.970  -9.432   0.127  1.00  0.00     0.023 A 
ATOM     59  C   UNL     1      -4.934  -9.424   1.532  1.00  0.00     0.031 A 
ATOM     60  C   UNL     1      -4.771 -10.661  -0.528  1.00  0.00     0.131 A 
ATOM     61  C   UNL     1      -4.634 -10.604   2.231  1.00  0.00     0.055 A 
ATOM     62  C   UNL     1      -4.550 -11.847   0.176  1.00  0.00     0.041 A 
ATOM     63  F   UNL     1      -4.773 -10.728  -1.869  1.00  0.00    -0.206 F 
ATOM     64  C   UNL     1      -4.464 -11.820   1.564  1.00  0.00     0.022 A 
BRANCH  61  65
ATOM     65  S   UNL     1      -4.325 -10.502   4.016  1.00  0.00     0.124 S 
ATOM     66  O   UNL     1      -3.219  -9.549   4.070  1.00  0.00    -0.237 OA
ATOM     67  O   UNL     1      -5.604 -10.025   4.530  1.00  0.00    -0.237 OA
ATOM     68  O   UNL     1      -3.976 -11.872   4.384  1.00  0.00    -0.744 OA
ENDBRANCH  61  65
ENDBRANCH  44  58
BRANCH  45  69
ATOM     69  C   UNL     1      -5.773  -0.959  -5.184  1.00  0.00     0.023 A 
ATOM     70  C   UNL     1      -6.772  -0.002  -4.950  1.00  0.00     0.031 A 
ATOM     71  C   UNL     1      -4.873  -0.729  -6.241  1.00  0.00     0.131 A 
ATOM     72  C   UNL     1      -6.861   1.130  -5.776  1.00  0.00     0.055 A 
ATOM     73  C   UNL     1      -4.933   0.423  -7.025  1.00  0.00     0.041 A 
ATOM     74  F   UNL     1      -3.900  -1.615  -6.509  1.00  0.00    -0.206 F 
ATOM     75  C   UNL     1      -5.939   1.357  -6.800  1.00  0.00     0.022 A 
BRANCH  72  76
ATOM     76  S   UNL     1      -8.246   2.276  -5.535  1.00  0.00     0.124 S 
ATOM     77  O   UNL     1      -9.396   1.401  -5.738  1.00  0.00    -0.237 OA
ATOM     78  O   UNL     1      -8.024   2.736  -4.168  1.00  0.00    -0.237 OA
ATOM     79  O   UNL     1      -8.038   3.284  -6.571  1.00  0.00    -0.744 OA
ENDBRANCH  72  76
ENDBRANCH  45  69
BRANCH  57  80
ATOM     80  C   UNL     1      -9.784  -6.606  -4.510  1.00  0.00     0.023 A 
ATOM     81  C   UNL     1      -9.911  -6.875  -5.883  1.00  0.00     0.031 A 
ATOM     82  C   UNL     1     -10.940  -6.651  -3.712  1.00  0.00     0.131 A 
ATOM     83  C   UNL     1     -11.179  -7.124  -6.429  1.00  0.00     0.055 A 
ATOM     84  C   UNL     1     -12.191  -6.950  -4.252  1.00  0.00     0.041 A 
ATOM     85  F   UNL     1     -10.870  -6.399  -2.395  1.00  0.00    -0.206 F 
ATOM     86  C   UNL     1     -12.317  -7.176  -5.620  1.00  0.00     0.022 A 
BRANCH  83  87
ATOM     87  S   UNL     1     -11.334  -7.296  -8.228  1.00  0.00     0.124 S 
ATOM     88  O   UNL     1     -10.832  -6.010  -8.701  1.00  0.00    -0.237 OA
ATOM     89  O   UNL     1     -10.488  -8.453  -8.506  1.00  0.00    -0.237 OA
ATOM     90  O   UNL     1     -12.765  -7.514  -8.430  1.00  0.00    -0.744 OA
ENDBRANCH  83  87
ENDBRANCH  57  80
ENDBRANCH  31  32
ENDBRANCH  24  26
ENDBRANCH  23  24
ENDBRANCH  22  23
ENDBRANCH   1  22
TORSDOF 18
