REMARK SMILES O=C(Cc1ccc(=O)n(C(F)F)c1)OCCOC(=O)c1ccc(-c2c3nc(c(-c4cc(S(=O)(=O)[O-])ccc4F)c4ccc([nH]4)c(-c4cc(S(=O)(=O)[O-])ccc4F)c4nc(c(-c5cc(S(=O)(=O)[O-])ccc5F)c5ccc2[nH]5)C=C4)C=C3)cc1
REMARK SMILES IDX 16 1 15 2 14 3 2 4 1 5 3 6 4 7 5 8 13 9 6 10 9 11 7 12 8 13
REMARK SMILES IDX 10 14 11 15 12 16 17 17 18 18 19 19 20 20 21 21 82 22 22 23
REMARK SMILES IDX 81 24 23 25 24 26 25 27 75 28 26 29 80 30 74 31 76 32 27 33
REMARK SMILES IDX 79 34 73 35 72 36 28 38 60 39 40 40 59 41 41 42 44 43 58 44
REMARK SMILES IDX 77 45 42 46 43 47 57 49 78 50 45 51 29 52 30 53 38 54 31 55
REMARK SMILES IDX 37 56 39 57 36 58 32 59 33 60 34 61 35 62 61 63 62 64 70 65
REMARK SMILES IDX 63 66 69 67 71 68 68 69 64 70 65 71 66 72 67 73 46 74 47 75
REMARK SMILES IDX 55 76 48 77 54 78 56 79 53 80 49 81 50 82 51 83 52 84
REMARK H PARENT 76 37 44 48
REMARK Flexibility Score: inf
ROOT
ATOM      1  C   UNL     1       4.042  -2.051  -1.109  1.00  0.00     0.275 C 
ENDROOT
BRANCH   1   2
ATOM      2  C   UNL     1       3.917  -1.462   0.298  1.00  0.00     0.274 C 
BRANCH   2   3
ATOM      3  O   UNL     1       2.625  -0.871   0.539  1.00  0.00    -0.462 OA
BRANCH   3   4
ATOM      4  C   UNL     1       2.527   0.429   0.929  1.00  0.00     0.310 C 
ATOM      5  O   UNL     1       1.795   0.751   1.860  1.00  0.00    -0.252 OA
BRANCH   4   6
ATOM      6  C   UNL     1       3.242   1.451   0.057  1.00  0.00     0.159 C 
BRANCH   6   7
ATOM      7  C   UNL     1       4.161   2.370   0.813  1.00  0.00    -0.020 A 
ATOM      8  C   UNL     1       3.760   3.748   1.016  1.00  0.00     0.011 A 
ATOM      9  C   UNL     1       5.390   1.996   1.203  1.00  0.00     0.099 A 
ATOM     10  C   UNL     1       4.601   4.633   1.569  1.00  0.00     0.072 A 
ATOM     11  N   UNL     1       6.265   2.876   1.809  1.00  0.00    -0.258 N 
ATOM     12  C   UNL     1       5.957   4.210   2.019  1.00  0.00     0.254 A 
ATOM     13  O   UNL     1       6.702   5.035   2.536  1.00  0.00    -0.269 OA
BRANCH  11  14
ATOM     14  C   UNL     1       7.566   2.427   2.229  1.00  0.00     0.451 C 
ATOM     15  F   UNL     1       8.554   3.077   1.569  1.00  0.00    -0.185 F 
ATOM     16  F   UNL     1       7.750   2.610   3.559  1.00  0.00    -0.185 F 
ENDBRANCH  11  14
ENDBRANCH   6   7
ENDBRANCH   4   6
ENDBRANCH   3   4
ENDBRANCH   2   3
ENDBRANCH   1   2
BRANCH   1  17
ATOM     17  O   UNL     1       3.880  -1.023  -2.098  1.00  0.00    -0.458 OA
BRANCH  17  18
ATOM     18  C   UNL     1       2.615  -0.890  -2.581  1.00  0.00     0.338 C 
ATOM     19  O   UNL     1       1.680  -1.638  -2.373  1.00  0.00    -0.246 OA
BRANCH  18  20
ATOM     20  C   UNL     1       2.488   0.442  -3.217  1.00  0.00     0.060 A 
ATOM     21  C   UNL     1       3.528   1.012  -3.960  1.00  0.00     0.016 A 
ATOM     22  C   UNL     1       1.305   1.157  -2.998  1.00  0.00     0.016 A 
ATOM     23  C   UNL     1       3.379   2.300  -4.484  1.00  0.00     0.010 A 
ATOM     24  C   UNL     1       1.162   2.446  -3.514  1.00  0.00     0.010 A 
ATOM     25  C   UNL     1       2.195   3.023  -4.265  1.00  0.00    -0.014 A 
BRANCH  25  26
ATOM     26  C   UNL     1       1.972   4.319  -4.948  1.00  0.00     0.031 A 
ATOM     27  C   UNL     1       2.186   5.628  -4.254  1.00  0.00     0.074 A 
ATOM     28  C   UNL     1       1.518   4.295  -6.214  1.00  0.00     0.049 A 
ATOM     29  N   UNL     1       2.080   6.836  -4.742  1.00  0.00    -0.248 NA
ATOM     30  C   UNL     1       2.563   5.579  -2.835  1.00  0.00     0.031 C 
ATOM     31  C   UNL     1       1.243   3.074  -6.971  1.00  0.00     0.029 A 
ATOM     32  N   UNL     1       1.193   5.310  -7.077  1.00  0.00    -0.354 N 
ATOM     33  C   UNL     1       2.393   7.698  -3.700  1.00  0.00     0.074 A 
ATOM     34  C   UNL     1       2.652   6.871  -2.538  1.00  0.00     0.031 C 
ATOM     35  C   UNL     1       0.783   3.410  -8.184  1.00  0.00     0.029 A 
ATOM     36  C   UNL     1       0.707   4.867  -8.283  1.00  0.00     0.049 A 
ATOM     37  H   UNL     1       1.297   6.263  -6.853  1.00  0.00     0.167 HD
ATOM     38  C   UNL     1       2.469   9.051  -3.724  1.00  0.00     0.034 A 
ATOM     39  C   UNL     1       0.244   5.549  -9.351  1.00  0.00     0.034 A 
ATOM     40  C   UNL     1       2.195   9.854  -4.892  1.00  0.00     0.049 A 
ATOM     41  C   UNL     1       0.295   7.053  -9.341  1.00  0.00     0.074 A 
ATOM     42  C   UNL     1       2.350  11.221  -5.040  1.00  0.00     0.029 A 
ATOM     43  N   UNL     1       1.685   9.381  -6.093  1.00  0.00    -0.354 N 
ATOM     44  N   UNL     1       0.736   7.852  -8.399  1.00  0.00    -0.248 NA
ATOM     45  C   UNL     1      -0.194   7.752 -10.537  1.00  0.00     0.031 C 
ATOM     46  C   UNL     1       1.860  11.585  -6.295  1.00  0.00     0.029 A 
ATOM     47  C   UNL     1       1.470  10.436  -6.966  1.00  0.00     0.049 A 
ATOM     48  H   UNL     1       1.502   8.435  -6.295  1.00  0.00     0.167 HD
ATOM     49  C   UNL     1       0.602   9.145  -8.895  1.00  0.00     0.074 A 
ATOM     50  C   UNL     1       0.048   9.021 -10.228  1.00  0.00     0.031 C 
ATOM     51  C   UNL     1       0.916  10.322  -8.296  1.00  0.00     0.034 A 
BRANCH  38  52
ATOM     52  C   UNL     1       2.887   9.778  -2.471  1.00  0.00     0.023 A 
ATOM     53  C   UNL     1       2.009  10.695  -1.862  1.00  0.00     0.031 A 
ATOM     54  C   UNL     1       4.199   9.683  -1.974  1.00  0.00     0.131 A 
ATOM     55  C   UNL     1       2.463  11.501  -0.810  1.00  0.00     0.055 A 
ATOM     56  C   UNL     1       4.636  10.464  -0.904  1.00  0.00     0.041 A 
ATOM     57  F   UNL     1       5.076   8.830  -2.528  1.00  0.00    -0.206 F 
ATOM     58  C   UNL     1       3.770  11.388  -0.326  1.00  0.00     0.022 A 
BRANCH  55  59
ATOM     59  S   UNL     1       1.401  12.780  -0.082  1.00  0.00     0.124 S 
ATOM     60  O   UNL     1       1.264  12.303   1.292  1.00  0.00    -0.237 OA
ATOM     61  O   UNL     1       2.211  13.983  -0.247  1.00  0.00    -0.237 OA
ATOM     62  O   UNL     1       0.184  12.724  -0.884  1.00  0.00    -0.744 OA
ENDBRANCH  55  59
ENDBRANCH  38  52
BRANCH  39  63
ATOM     63  C   UNL     1      -0.231   4.771 -10.529  1.00  0.00     0.023 A 
ATOM     64  C   UNL     1      -1.342   3.914 -10.419  1.00  0.00     0.031 A 
ATOM     65  C   UNL     1       0.521   4.739 -11.713  1.00  0.00     0.131 A 
ATOM     66  C   UNL     1      -1.612   2.997 -11.441  1.00  0.00     0.055 A 
ATOM     67  C   UNL     1       0.203   3.873 -12.760  1.00  0.00     0.041 A 
ATOM     68  F   UNL     1       1.598   5.528 -11.852  1.00  0.00    -0.206 F 
ATOM     69  C   UNL     1      -0.856   2.981 -12.618  1.00  0.00     0.022 A 
BRANCH  66  70
ATOM     70  S   UNL     1      -2.854   1.693 -11.212  1.00  0.00     0.124 S 
ATOM     71  O   UNL     1      -3.716   1.883 -12.375  1.00  0.00    -0.237 OA
ATOM     72  O   UNL     1      -2.024   0.491 -11.231  1.00  0.00    -0.237 OA
ATOM     73  O   UNL     1      -3.456   2.014  -9.923  1.00  0.00    -0.744 OA
ENDBRANCH  66  70
ENDBRANCH  39  63
BRANCH  51  74
ATOM     74  C   UNL     1       0.673  11.610  -9.047  1.00  0.00     0.023 A 
ATOM     75  C   UNL     1       1.756  12.450  -9.374  1.00  0.00     0.031 A 
ATOM     76  C   UNL     1      -0.628  12.083  -9.284  1.00  0.00     0.131 A 
ATOM     77  C   UNL     1       1.516  13.740  -9.865  1.00  0.00     0.055 A 
ATOM     78  C   UNL     1      -0.861  13.352  -9.820  1.00  0.00     0.041 A 
ATOM     79  F   UNL     1      -1.694  11.323  -8.986  1.00  0.00    -0.206 F 
ATOM     80  C   UNL     1       0.214  14.193 -10.097  1.00  0.00     0.022 A 
BRANCH  77  81
ATOM     81  S   UNL     1       2.879  14.907 -10.139  1.00  0.00     0.124 S 
ATOM     82  O   UNL     1       2.716  15.238 -11.553  1.00  0.00    -0.237 OA
ATOM     83  O   UNL     1       2.554  15.983  -9.206  1.00  0.00    -0.237 OA
ATOM     84  O   UNL     1       4.074  14.135  -9.816  1.00  0.00    -0.744 OA
ENDBRANCH  77  81
ENDBRANCH  51  74
ENDBRANCH  25  26
ENDBRANCH  18  20
ENDBRANCH  17  18
ENDBRANCH   1  17
TORSDOF 16
