REMARK SMILES C[NH2+][C@](C)(C(=O)OCCOC(=O)c1ccc(-c2c3nc(c(-c4cc(S(=O)(=O)[O-])ccc4F)c4ccc([nH]4)c(-c4cc(S(=O)(=O)[O-])ccc4F)c4nc(c(-c5cc(S(=O)(=O)[O-])ccc5F)c5ccc2[nH]5)C=C4)C=C3)cc1)c1cccc(Cl)c1
REMARK SMILES IDX 9 1 8 2 7 3 5 4 6 5 3 6 4 7 2 8 1 9 76 12 77 13 82 14 78 15
REMARK SMILES IDX 80 16 79 17 81 18 10 19 11 20 12 21 13 22 14 23 75 24 15 25
REMARK SMILES IDX 74 26 16 27 17 28 18 29 68 30 19 31 73 32 67 33 69 34 20 35
REMARK SMILES IDX 72 36 66 37 65 38 21 40 53 41 33 42 52 43 34 44 37 45 51 46
REMARK SMILES IDX 70 47 35 48 36 49 50 51 71 52 38 53 22 54 23 55 31 56 24 57
REMARK SMILES IDX 30 58 32 59 29 60 25 61 26 62 27 63 28 64 54 65 55 66 63 67
REMARK SMILES IDX 56 68 62 69 64 70 61 71 57 72 58 73 59 74 60 75 39 76 40 77
REMARK SMILES IDX 48 78 41 79 47 80 49 81 46 82 42 83 43 84 44 85 45 86
REMARK H PARENT 2 10 2 11 69 39 37 50
REMARK Flexibility Score: inf
ROOT
ATOM      1  C   UNL     1      -1.085  -4.678   3.630  1.00  0.00     0.275 C 
ENDROOT
BRANCH   1   2
ATOM      2  C   UNL     1      -1.557  -4.484   2.189  1.00  0.00     0.274 C 
BRANCH   2   3
ATOM      3  O   UNL     1      -1.017  -3.265   1.643  1.00  0.00    -0.457 OA
BRANCH   3   4
ATOM      4  C   UNL     1      -1.778  -2.665   0.677  1.00  0.00     0.372 C 
ATOM      5  O   UNL     1      -2.870  -3.106   0.325  1.00  0.00    -0.244 OA
BRANCH   4   6
ATOM      6  C   UNL     1      -1.064  -1.399   0.045  1.00  0.00     0.216 C 
ATOM      7  C   UNL     1       0.446  -1.421   0.394  1.00  0.00     0.098 C 
BRANCH   6   8
ATOM      8  N   UNL     1      -1.227  -1.449  -1.442  1.00  0.00    -0.331 N 
ATOM      9  C   UNL     1      -0.694  -2.635  -2.090  1.00  0.00     0.332 C 
ATOM     10  H   UNL     1      -2.225  -1.398  -1.651  1.00  0.00     0.347 HD
ATOM     11  H   UNL     1      -0.690  -0.663  -1.809  1.00  0.00     0.347 HD
ENDBRANCH   6   8
BRANCH   6  12
ATOM     12  C   UNL     1      -1.734  -0.074   0.501  1.00  0.00     0.025 A 
ATOM     13  C   UNL     1      -1.009   1.136   0.589  1.00  0.00     0.011 A 
ATOM     14  C   UNL     1      -3.120  -0.001   0.744  1.00  0.00     0.031 A 
ATOM     15  C   UNL     1      -1.630   2.341   0.942  1.00  0.00     0.002 A 
ATOM     16  C   UNL     1      -3.736   1.205   1.098  1.00  0.00     0.041 A 
ATOM     17  C   UNL     1      -2.996   2.375   1.205  1.00  0.00     0.020 A 
ATOM     18  Cl  UNL     1      -5.433   1.234   1.383  1.00  0.00    -0.084 Cl
ENDBRANCH   6  12
ENDBRANCH   4   6
ENDBRANCH   3   4
ENDBRANCH   2   3
ENDBRANCH   1   2
BRANCH   1  19
ATOM     19  O   UNL     1      -1.519  -3.570   4.438  1.00  0.00    -0.458 OA
BRANCH  19  20
ATOM     20  C   UNL     1      -0.583  -2.609   4.613  1.00  0.00     0.338 C 
ATOM     21  O   UNL     1       0.600  -2.664   4.301  1.00  0.00    -0.246 OA
BRANCH  20  22
ATOM     22  C   UNL     1      -1.233  -1.373   5.068  1.00  0.00     0.060 A 
ATOM     23  C   UNL     1      -1.227  -0.294   4.184  1.00  0.00     0.016 A 
ATOM     24  C   UNL     1      -1.770  -1.239   6.350  1.00  0.00     0.016 A 
ATOM     25  C   UNL     1      -1.745   0.933   4.580  1.00  0.00     0.010 A 
ATOM     26  C   UNL     1      -2.290   0.001   6.748  1.00  0.00     0.010 A 
ATOM     27  C   UNL     1      -2.266   1.098   5.870  1.00  0.00    -0.014 A 
BRANCH  27  28
ATOM     28  C   UNL     1      -2.690   2.457   6.290  1.00  0.00     0.031 A 
ATOM     29  C   UNL     1      -1.761   3.303   7.112  1.00  0.00     0.074 A 
ATOM     30  C   UNL     1      -3.850   2.972   5.842  1.00  0.00     0.049 A 
ATOM     31  N   UNL     1      -1.916   4.529   7.542  1.00  0.00    -0.248 NA
ATOM     32  C   UNL     1      -0.483   2.685   7.493  1.00  0.00     0.031 C 
ATOM     33  C   UNL     1      -4.800   2.272   4.979  1.00  0.00     0.029 A 
ATOM     34  N   UNL     1      -4.413   4.210   6.027  1.00  0.00    -0.354 N 
ATOM     35  C   UNL     1      -0.756   4.835   8.243  1.00  0.00     0.074 A 
ATOM     36  C   UNL     1       0.079   3.651   8.204  1.00  0.00     0.031 C 
ATOM     37  C   UNL     1      -5.816   3.101   4.688  1.00  0.00     0.029 A 
ATOM     38  C   UNL     1      -5.615   4.372   5.379  1.00  0.00     0.049 A 
ATOM     39  H   UNL     1      -3.996   4.915   6.572  1.00  0.00     0.167 HD
ATOM     40  C   UNL     1      -0.417   5.995   8.858  1.00  0.00     0.034 A 
ATOM     41  C   UNL     1      -6.464   5.420   5.357  1.00  0.00     0.034 A 
ATOM     42  C   UNL     1      -1.267   7.160   8.915  1.00  0.00     0.049 A 
ATOM     43  C   UNL     1      -6.107   6.665   6.131  1.00  0.00     0.074 A 
ATOM     44  C   UNL     1      -1.038   8.368   9.552  1.00  0.00     0.029 A 
ATOM     45  N   UNL     1      -2.518   7.262   8.319  1.00  0.00    -0.354 N 
ATOM     46  N   UNL     1      -5.021   6.928   6.822  1.00  0.00    -0.248 NA
ATOM     47  C   UNL     1      -7.092   7.754   6.121  1.00  0.00     0.031 C 
ATOM     48  C   UNL     1      -2.172   9.175   9.392  1.00  0.00     0.029 A 
ATOM     49  C   UNL     1      -3.083   8.499   8.596  1.00  0.00     0.049 A 
ATOM     50  H   UNL     1      -2.943   6.558   7.777  1.00  0.00     0.167 HD
ATOM     51  C   UNL     1      -5.191   8.219   7.317  1.00  0.00     0.074 A 
ATOM     52  C   UNL     1      -6.467   8.690   6.819  1.00  0.00     0.031 C 
ATOM     53  C   UNL     1      -4.369   8.949   8.115  1.00  0.00     0.034 A 
BRANCH  40  54
ATOM     54  C   UNL     1       0.907   6.016   9.581  1.00  0.00     0.023 A 
ATOM     55  C   UNL     1       2.128   5.918   8.890  1.00  0.00     0.031 A 
ATOM     56  C   UNL     1       0.945   6.068  10.985  1.00  0.00     0.131 A 
ATOM     57  C   UNL     1       3.329   5.799   9.607  1.00  0.00     0.055 A 
ATOM     58  C   UNL     1       2.148   6.025  11.691  1.00  0.00     0.041 A 
ATOM     59  F   UNL     1      -0.191   6.137  11.697  1.00  0.00    -0.206 F 
ATOM     60  C   UNL     1       3.349   5.873  11.002  1.00  0.00     0.022 A 
BRANCH  57  61
ATOM     61  S   UNL     1       4.847   5.394   8.700  1.00  0.00     0.124 S 
ATOM     62  O   UNL     1       4.479   4.137   8.053  1.00  0.00    -0.237 OA
ATOM     63  O   UNL     1       5.003   6.545   7.817  1.00  0.00    -0.237 OA
ATOM     64  O   UNL     1       5.854   5.274   9.752  1.00  0.00    -0.744 OA
ENDBRANCH  57  61
ENDBRANCH  40  54
BRANCH  41  65
ATOM     65  C   UNL     1      -7.759   5.332   4.621  1.00  0.00     0.023 A 
ATOM     66  C   UNL     1      -8.052   6.195   3.553  1.00  0.00     0.031 A 
ATOM     67  C   UNL     1      -8.754   4.421   5.024  1.00  0.00     0.131 A 
ATOM     68  C   UNL     1      -9.321   6.161   2.954  1.00  0.00     0.055 A 
ATOM     69  C   UNL     1      -9.993   4.352   4.386  1.00  0.00     0.041 A 
ATOM     70  F   UNL     1      -8.531   3.581   6.047  1.00  0.00    -0.206 F 
ATOM     71  C   UNL     1     -10.287   5.235   3.353  1.00  0.00     0.022 A 
BRANCH  68  72
ATOM     72  S   UNL     1      -9.728   7.413   1.705  1.00  0.00     0.124 S 
ATOM     73  O   UNL     1      -9.524   8.652   2.448  1.00  0.00    -0.237 OA
ATOM     74  O   UNL     1      -8.754   7.127   0.657  1.00  0.00    -0.237 OA
ATOM     75  O   UNL     1     -11.116   7.114   1.362  1.00  0.00    -0.744 OA
ENDBRANCH  68  72
ENDBRANCH  41  65
BRANCH  53  76
ATOM     76  C   UNL     1      -4.830  10.343   8.472  1.00  0.00     0.023 A 
ATOM     77  C   UNL     1      -5.962  10.562   9.278  1.00  0.00     0.031 A 
ATOM     78  C   UNL     1      -4.150  11.466   7.970  1.00  0.00     0.131 A 
ATOM     79  C   UNL     1      -6.419  11.870   9.504  1.00  0.00     0.055 A 
ATOM     80  C   UNL     1      -4.575  12.767   8.246  1.00  0.00     0.041 A 
ATOM     81  F   UNL     1      -3.063  11.318   7.195  1.00  0.00    -0.206 F 
ATOM     82  C   UNL     1      -5.724  12.974   9.004  1.00  0.00     0.022 A 
BRANCH  79  83
ATOM     83  S   UNL     1      -7.993  12.107  10.375  1.00  0.00     0.124 S 
ATOM     84  O   UNL     1      -8.918  11.343   9.544  1.00  0.00    -0.237 OA
ATOM     85  O   UNL     1      -7.707  11.547  11.692  1.00  0.00    -0.237 OA
ATOM     86  O   UNL     1      -8.186  13.555  10.347  1.00  0.00    -0.744 OA
ENDBRANCH  79  83
ENDBRANCH  53  76
ENDBRANCH  27  28
ENDBRANCH  20  22
ENDBRANCH  19  20
ENDBRANCH   1  19
TORSDOF 16
