REMARK SMILES CC1=C[C@@H](C)[C@H]2C(=O)N([C@H](Cc3ccccc3)C(=O)OCCOC(=O)c3ccc(-c4c5nc(c(-c6cc(S(=O)(=O)[O-])ccc6F)c6ccc([nH]6)c(-c6cc(S(=O)(=O)[O-])ccc6F)c6nc(c(-c7cc(S(=O)(=O)[O-])ccc7F)c7ccc4[nH]7)C=C6)C=C5)cc3)C(=O)[C@H]2C1
REMARK SMILES IDX 22 1 21 2 20 3 18 4 19 5 10 6 9 7 1 8 2 9 3 10 92 11 4 12
REMARK SMILES IDX 91 13 6 14 5 15 89 16 7 17 90 18 8 19 11 20 12 21 13 22
REMARK SMILES IDX 17 23 14 24 16 25 15 26 23 27 24 28 25 29 26 30 27 31 88 32
REMARK SMILES IDX 28 33 87 34 29 35 30 36 31 37 81 38 32 39 86 40 80 41 82 42
REMARK SMILES IDX 33 43 85 44 79 45 78 46 34 48 66 49 46 50 65 51 47 52 50 53
REMARK SMILES IDX 64 54 83 55 48 56 49 57 63 59 84 60 51 61 35 62 36 63 44 64
REMARK SMILES IDX 37 65 43 66 45 67 42 68 38 69 39 70 40 71 41 72 67 73 68 74
REMARK SMILES IDX 76 75 69 76 75 77 77 78 74 79 70 80 71 81 72 82 73 83 52 84
REMARK SMILES IDX 53 85 61 86 54 87 60 88 62 89 59 90 55 91 56 92 57 93 58 94
REMARK H PARENT 82 47 50 58
REMARK Flexibility Score: inf
ROOT
ATOM      1  C   UNL     1       1.791  -6.899   3.087  1.00  0.00     0.275 C 
ENDROOT
BRANCH   1   2
ATOM      2  C   UNL     1       0.769  -7.823   2.415  1.00  0.00     0.274 C 
BRANCH   2   3
ATOM      3  O   UNL     1      -0.155  -7.085   1.594  1.00  0.00    -0.461 OA
BRANCH   3   4
ATOM      4  C   UNL     1      -1.372  -6.816   2.142  1.00  0.00     0.329 C 
ATOM      5  O   UNL     1      -1.721  -7.174   3.263  1.00  0.00    -0.250 OA
BRANCH   4   6
ATOM      6  C   UNL     1      -2.279  -6.012   1.205  1.00  0.00     0.207 C 
BRANCH   6   7
ATOM      7  N   UNL     1      -3.567  -6.701   1.084  1.00  0.00    -0.267 N 
ATOM      8  C   UNL     1      -7.604 -10.607   2.810  1.00  0.00     0.039 C 
ATOM      9  C   UNL     1      -6.970  -9.363   2.253  1.00  0.00    -0.076 C 
ATOM     10  C   UNL     1      -7.531  -8.163   2.455  1.00  0.00    -0.024 C 
ATOM     11  C   UNL     1      -5.648  -9.528   1.550  1.00  0.00     0.044 C 
ATOM     12  C   UNL     1      -6.882  -6.860   2.095  1.00  0.00     0.022 C 
ATOM     13  C   UNL     1      -5.202  -8.338   0.696  1.00  0.00     0.096 C 
ATOM     14  C   UNL     1      -5.889  -6.990   0.929  1.00  0.00     0.098 C 
ATOM     15  C   UNL     1      -6.316  -6.258   3.390  1.00  0.00     0.013 C 
ATOM     16  C   UNL     1      -3.728  -8.030   0.835  1.00  0.00     0.234 C 
ATOM     17  C   UNL     1      -4.750  -6.020   1.067  1.00  0.00     0.234 C 
ATOM     18  O   UNL     1      -2.832  -8.850   0.682  1.00  0.00    -0.274 OA
ATOM     19  O   UNL     1      -4.895  -4.811   1.156  1.00  0.00    -0.274 OA
ENDBRANCH   6   7
BRANCH   6  20
ATOM     20  C   UNL     1      -1.631  -5.558  -0.117  1.00  0.00     0.073 C 
BRANCH  20  21
ATOM     21  C   UNL     1      -2.586  -4.766  -0.986  1.00  0.00    -0.045 A 
ATOM     22  C   UNL     1      -2.853  -3.413  -0.724  1.00  0.00     0.004 A 
ATOM     23  C   UNL     1      -3.330  -5.430  -1.970  1.00  0.00     0.004 A 
ATOM     24  C   UNL     1      -3.884  -2.756  -1.401  1.00  0.00     0.000 A 
ATOM     25  C   UNL     1      -4.361  -4.772  -2.640  1.00  0.00     0.000 A 
ATOM     26  C   UNL     1      -4.646  -3.439  -2.347  1.00  0.00     0.000 A 
ENDBRANCH  20  21
ENDBRANCH   6  20
ENDBRANCH   4   6
ENDBRANCH   3   4
ENDBRANCH   2   3
ENDBRANCH   1   2
BRANCH   1  27
ATOM     27  O   UNL     1       1.199  -6.077   4.111  1.00  0.00    -0.458 OA
BRANCH  27  28
ATOM     28  C   UNL     1       0.666  -4.914   3.663  1.00  0.00     0.338 C 
ATOM     29  O   UNL     1       0.678  -4.503   2.514  1.00  0.00    -0.246 OA
BRANCH  28  30
ATOM     30  C   UNL     1      -0.117  -4.262   4.725  1.00  0.00     0.060 A 
ATOM     31  C   UNL     1      -1.455  -3.982   4.444  1.00  0.00     0.016 A 
ATOM     32  C   UNL     1       0.450  -3.845   5.929  1.00  0.00     0.016 A 
ATOM     33  C   UNL     1      -2.233  -3.269   5.343  1.00  0.00     0.010 A 
ATOM     34  C   UNL     1      -0.337  -3.129   6.843  1.00  0.00     0.010 A 
ATOM     35  C   UNL     1      -1.678  -2.825   6.546  1.00  0.00    -0.014 A 
BRANCH  35  36
ATOM     36  C   UNL     1      -2.519  -1.987   7.434  1.00  0.00     0.031 A 
ATOM     37  C   UNL     1      -2.272  -0.508   7.518  1.00  0.00     0.074 A 
ATOM     38  C   UNL     1      -3.561  -2.547   8.078  1.00  0.00     0.049 A 
ATOM     39  N   UNL     1      -2.908   0.399   8.213  1.00  0.00    -0.248 NA
ATOM     40  C   UNL     1      -1.160   0.019   6.714  1.00  0.00     0.031 C 
ATOM     41  C   UNL     1      -3.922  -3.965   8.018  1.00  0.00     0.029 A 
ATOM     42  N   UNL     1      -4.516  -1.993   8.890  1.00  0.00    -0.354 N 
ATOM     43  C   UNL     1      -2.265   1.603   7.945  1.00  0.00     0.074 A 
ATOM     44  C   UNL     1      -1.172   1.302   7.045  1.00  0.00     0.031 C 
ATOM     45  C   UNL     1      -5.029  -4.165   8.750  1.00  0.00     0.029 A 
ATOM     46  C   UNL     1      -5.426  -2.905   9.370  1.00  0.00     0.049 A 
ATOM     47  H   UNL     1      -4.547  -1.034   9.110  1.00  0.00     0.167 HD
ATOM     48  C   UNL     1      -2.567   2.842   8.407  1.00  0.00     0.034 A 
ATOM     49  C   UNL     1      -6.451  -2.746  10.231  1.00  0.00     0.034 A 
ATOM     50  C   UNL     1      -3.669   3.118   9.300  1.00  0.00     0.049 A 
ATOM     51  C   UNL     1      -6.730  -1.367  10.771  1.00  0.00     0.074 A 
ATOM     52  C   UNL     1      -4.074   4.336   9.818  1.00  0.00     0.029 A 
ATOM     53  N   UNL     1      -4.538   2.162   9.813  1.00  0.00    -0.354 N 
ATOM     54  N   UNL     1      -6.110  -0.236  10.516  1.00  0.00    -0.248 NA
ATOM     55  C   UNL     1      -7.851  -1.241  11.709  1.00  0.00     0.031 C 
ATOM     56  C   UNL     1      -5.139   4.107  10.698  1.00  0.00     0.029 A 
ATOM     57  C   UNL     1      -5.453   2.757  10.670  1.00  0.00     0.049 A 
ATOM     58  H   UNL     1      -4.508   1.202   9.600  1.00  0.00     0.167 HD
ATOM     59  C   UNL     1      -6.778   0.737  11.252  1.00  0.00     0.074 A 
ATOM     60  C   UNL     1      -7.868   0.064  11.931  1.00  0.00     0.031 C 
ATOM     61  C   UNL     1      -6.516   2.066  11.363  1.00  0.00     0.034 A 
BRANCH  48  62
ATOM     62  C   UNL     1      -1.650   3.974   8.008  1.00  0.00     0.023 A 
ATOM     63  C   UNL     1      -1.519   4.399   6.674  1.00  0.00     0.031 A 
ATOM     64  C   UNL     1      -0.869   4.621   8.983  1.00  0.00     0.131 A 
ATOM     65  C   UNL     1      -0.583   5.392   6.343  1.00  0.00     0.055 A 
ATOM     66  C   UNL     1       0.005   5.661   8.659  1.00  0.00     0.041 A 
ATOM     67  F   UNL     1      -0.931   4.244  10.270  1.00  0.00    -0.206 F 
ATOM     68  C   UNL     1       0.162   6.043   7.330  1.00  0.00     0.022 A 
BRANCH  65  69
ATOM     69  S   UNL     1      -0.253   5.731   4.592  1.00  0.00     0.124 S 
ATOM     70  O   UNL     1       0.184   4.420   4.115  1.00  0.00    -0.237 OA
ATOM     71  O   UNL     1      -1.550   6.188   4.108  1.00  0.00    -0.237 OA
ATOM     72  O   UNL     1       0.794   6.751   4.631  1.00  0.00    -0.744 OA
ENDBRANCH  65  69
ENDBRANCH  48  62
BRANCH  49  73
ATOM     73  C   UNL     1      -7.252  -3.922  10.679  1.00  0.00     0.023 A 
ATOM     74  C   UNL     1      -8.627  -4.016  10.416  1.00  0.00     0.031 A 
ATOM     75  C   UNL     1      -6.653  -4.951  11.429  1.00  0.00     0.131 A 
ATOM     76  C   UNL     1      -9.366  -5.090  10.936  1.00  0.00     0.055 A 
ATOM     77  C   UNL     1      -7.381  -6.046  11.896  1.00  0.00     0.041 A 
ATOM     78  F   UNL     1      -5.341  -4.911  11.713  1.00  0.00    -0.206 F 
ATOM     79  C   UNL     1      -8.750  -6.113  11.661  1.00  0.00     0.022 A 
BRANCH  76  80
ATOM     80  S   UNL     1     -11.168  -5.089  10.728  1.00  0.00     0.124 S 
ATOM     81  O   UNL     1     -11.540  -3.822  11.348  1.00  0.00    -0.237 OA
ATOM     82  O   UNL     1     -11.306  -5.159   9.277  1.00  0.00    -0.237 OA
ATOM     83  O   UNL     1     -11.595  -6.287  11.449  1.00  0.00    -0.744 OA
ENDBRANCH  76  80
ENDBRANCH  49  73
BRANCH  61  84
ATOM     84  C   UNL     1      -7.449   2.866  12.241  1.00  0.00     0.023 A 
ATOM     85  C   UNL     1      -7.532   2.638  13.626  1.00  0.00     0.031 A 
ATOM     86  C   UNL     1      -8.299   3.835  11.680  1.00  0.00     0.131 A 
ATOM     87  C   UNL     1      -8.498   3.309  14.390  1.00  0.00     0.055 A 
ATOM     88  C   UNL     1      -9.210   4.551  12.457  1.00  0.00     0.041 A 
ATOM     89  F   UNL     1      -8.266   4.095  10.363  1.00  0.00    -0.206 F 
ATOM     90  C   UNL     1      -9.327   4.277  13.817  1.00  0.00     0.022 A 
BRANCH  87  91
ATOM     91  S   UNL     1      -8.746   2.807  16.115  1.00  0.00     0.124 S 
ATOM     92  O   UNL     1      -9.023   1.381  15.980  1.00  0.00    -0.237 OA
ATOM     93  O   UNL     1      -7.466   3.152  16.727  1.00  0.00    -0.237 OA
ATOM     94  O   UNL     1      -9.880   3.620  16.550  1.00  0.00    -0.744 OA
ENDBRANCH  87  91
ENDBRANCH  61  84
ENDBRANCH  35  36
ENDBRANCH  28  30
ENDBRANCH  27  28
ENDBRANCH   1  27
TORSDOF 17
