REMARK SMILES CCCC1(C(=O)OCCOC(=O)c2ccc(-c3c4nc(c(-c5cc(S(=O)(=O)[O-])ccc5F)c5ccc([nH]5)c(-c5cc(S(=O)(=O)[O-])ccc5F)c5nc(c(-c6cc(S(=O)(=O)[O-])ccc6F)c6ccc3[nH]6)C=C5)C=C4)cc2)CC[NH+]([C@H](C)[C@H](C)O)CC1
REMARK SMILES IDX 8 1 7 2 5 3 6 4 4 5 76 6 85 7 77 8 84 9 78 10 3 12 2 13 1 14
REMARK SMILES IDX 79 15 80 16 81 17 82 18 83 19 9 21 10 22 11 23 12 24 13 25
REMARK SMILES IDX 14 26 75 27 15 28 74 29 16 30 17 31 18 32 68 33 19 34 73 35
REMARK SMILES IDX 67 36 69 37 20 38 72 39 66 40 65 41 21 43 53 44 33 45 52 46
REMARK SMILES IDX 34 47 37 48 51 49 70 50 35 51 36 52 50 54 71 55 38 56 22 57
REMARK SMILES IDX 23 58 31 59 24 60 30 61 32 62 29 63 25 64 26 65 27 66 28 67
REMARK SMILES IDX 54 68 55 69 63 70 56 71 62 72 64 73 61 74 57 75 58 76 59 77
REMARK SMILES IDX 60 78 39 79 40 80 48 81 41 82 47 83 49 84 46 85 42 86 43 87
REMARK SMILES IDX 44 88 45 89
REMARK H PARENT 78 11 83 20 69 42 37 53
REMARK Flexibility Score: inf
ROOT
ATOM      1  C   UNL     1       2.911  -1.548  -7.747  1.00  0.00     0.274 C 
ENDROOT
BRANCH   1   2
ATOM      2  O   UNL     1       2.584  -0.551  -6.759  1.00  0.00    -0.462 OA
BRANCH   2   3
ATOM      3  C   UNL     1       1.686   0.410  -7.109  1.00  0.00     0.312 C 
ATOM      4  O   UNL     1       1.085   0.431  -8.178  1.00  0.00    -0.252 OA
BRANCH   3   5
ATOM      5  C   UNL     1       1.600   1.546  -6.073  1.00  0.00     0.079 C 
ATOM      6  C   UNL     1       2.512   1.279  -4.863  1.00  0.00     0.080 C 
ATOM      7  C   UNL     1       2.132   2.785  -6.846  1.00  0.00     0.080 C 
ATOM      8  C   UNL     1       2.744   2.522  -4.019  1.00  0.00     0.263 C 
ATOM      9  C   UNL     1       2.508   3.970  -5.958  1.00  0.00     0.263 C 
ATOM     10  N   UNL     1       3.302   3.634  -4.780  1.00  0.00    -0.331 N 
ATOM     11  H   UNL     1       3.192   4.422  -4.143  1.00  0.00     0.348 HD
BRANCH   5  12
ATOM     12  C   UNL     1       0.119   1.808  -5.665  1.00  0.00     0.019 C 
BRANCH  12  13
ATOM     13  C   UNL     1      -0.561   0.802  -4.726  1.00  0.00    -0.002 C 
ATOM     14  C   UNL     1      -0.413   1.060  -3.234  1.00  0.00     0.004 C 
ENDBRANCH  12  13
ENDBRANCH   5  12
BRANCH  10  15
ATOM     15  C   UNL     1       4.763   3.712  -4.928  1.00  0.00     0.209 C 
ATOM     16  C   UNL     1       5.427   2.626  -5.790  1.00  0.00     0.078 C 
BRANCH  15  17
ATOM     17  C   UNL     1       5.516   3.796  -3.560  1.00  0.00     0.169 C 
ATOM     18  C   UNL     1       4.912   4.811  -2.593  1.00  0.00     0.045 C 
BRANCH  17  19
ATOM     19  O   UNL     1       6.885   4.168  -3.782  1.00  0.00    -0.387 OA
ATOM     20  H   UNL     1       6.919   5.051  -4.181  1.00  0.00     0.211 HD
ENDBRANCH  17  19
ENDBRANCH  15  17
ENDBRANCH  10  15
ENDBRANCH   3   5
ENDBRANCH   2   3
ENDBRANCH   1   2
BRANCH   1  21
ATOM     21  C   UNL     1       2.323  -2.894  -7.341  1.00  0.00     0.275 C 
BRANCH  21  22
ATOM     22  O   UNL     1       0.892  -2.784  -7.373  1.00  0.00    -0.458 OA
BRANCH  22  23
ATOM     23  C   UNL     1       0.236  -3.140  -6.247  1.00  0.00     0.338 C 
ATOM     24  O   UNL     1       0.709  -3.725  -5.282  1.00  0.00    -0.246 OA
BRANCH  23  25
ATOM     25  C   UNL     1      -1.163  -2.660  -6.309  1.00  0.00     0.060 A 
ATOM     26  C   UNL     1      -1.476  -1.475  -6.973  1.00  0.00     0.016 A 
ATOM     27  C   UNL     1      -2.152  -3.309  -5.570  1.00  0.00     0.016 A 
ATOM     28  C   UNL     1      -2.721  -0.876  -6.789  1.00  0.00     0.010 A 
ATOM     29  C   UNL     1      -3.443  -2.767  -5.499  1.00  0.00     0.010 A 
ATOM     30  C   UNL     1      -3.740  -1.515  -6.068  1.00  0.00    -0.014 A 
BRANCH  30  31
ATOM     31  C   UNL     1      -5.078  -0.869  -5.867  1.00  0.00     0.031 A 
ATOM     32  C   UNL     1      -5.699  -0.814  -4.489  1.00  0.00     0.074 A 
ATOM     33  C   UNL     1      -5.756  -0.313  -6.895  1.00  0.00     0.049 A 
ATOM     34  N   UNL     1      -6.948  -0.618  -4.147  1.00  0.00    -0.248 NA
ATOM     35  C   UNL     1      -4.798  -1.035  -3.347  1.00  0.00     0.031 C 
ATOM     36  C   UNL     1      -5.279  -0.200  -8.275  1.00  0.00     0.029 A 
ATOM     37  N   UNL     1      -6.999   0.275  -6.936  1.00  0.00    -0.354 N 
ATOM     38  C   UNL     1      -7.001  -0.785  -2.765  1.00  0.00     0.074 A 
ATOM     39  C   UNL     1      -5.651  -1.083  -2.332  1.00  0.00     0.031 C 
ATOM     40  C   UNL     1      -6.177   0.475  -9.003  1.00  0.00     0.029 A 
ATOM     41  C   UNL     1      -7.364   0.706  -8.192  1.00  0.00     0.049 A 
ATOM     42  H   UNL     1      -7.574   0.378  -6.143  1.00  0.00     0.167 HD
ATOM     43  C   UNL     1      -8.079  -0.711  -1.943  1.00  0.00     0.034 A 
ATOM     44  C   UNL     1      -8.539   1.158  -8.673  1.00  0.00     0.034 A 
ATOM     45  C   UNL     1      -9.402  -0.327  -2.383  1.00  0.00     0.049 A 
ATOM     46  C   UNL     1      -9.731   1.199  -7.759  1.00  0.00     0.074 A 
ATOM     47  C   UNL     1     -10.566  -0.221  -1.638  1.00  0.00     0.029 A 
ATOM     48  N   UNL     1      -9.733   0.045  -3.680  1.00  0.00    -0.354 N 
ATOM     49  N   UNL     1      -9.810   0.874  -6.490  1.00  0.00    -0.248 NA
ATOM     50  C   UNL     1     -11.001   1.633  -8.354  1.00  0.00     0.031 C 
ATOM     51  C   UNL     1     -11.605   0.169  -2.491  1.00  0.00     0.029 A 
ATOM     52  C   UNL     1     -11.080   0.370  -3.756  1.00  0.00     0.049 A 
ATOM     53  H   UNL     1      -9.103   0.073  -4.436  1.00  0.00     0.167 HD
ATOM     54  C   UNL     1     -11.142   1.062  -6.136  1.00  0.00     0.074 A 
ATOM     55  C   UNL     1     -11.821   1.558  -7.316  1.00  0.00     0.031 C 
ATOM     56  C   UNL     1     -11.751   0.836  -4.945  1.00  0.00     0.034 A 
BRANCH  43  57
ATOM     57  C   UNL     1      -7.896  -1.121  -0.500  1.00  0.00     0.023 A 
ATOM     58  C   UNL     1      -7.098  -0.397   0.400  1.00  0.00     0.031 A 
ATOM     59  C   UNL     1      -8.542  -2.278  -0.020  1.00  0.00     0.131 A 
ATOM     60  C   UNL     1      -6.922  -0.865   1.713  1.00  0.00     0.055 A 
ATOM     61  C   UNL     1      -8.422  -2.697   1.306  1.00  0.00     0.041 A 
ATOM     62  F   UNL     1      -9.302  -3.024  -0.838  1.00  0.00    -0.206 F 
ATOM     63  C   UNL     1      -7.598  -1.996   2.179  1.00  0.00     0.022 A 
BRANCH  60  64
ATOM     64  S   UNL     1      -5.699  -0.046   2.774  1.00  0.00     0.124 S 
ATOM     65  O   UNL     1      -4.477  -0.199   1.988  1.00  0.00    -0.237 OA
ATOM     66  O   UNL     1      -6.228   1.309   2.876  1.00  0.00    -0.237 OA
ATOM     67  O   UNL     1      -5.738  -0.826   4.009  1.00  0.00    -0.744 OA
ENDBRANCH  60  64
ENDBRANCH  43  57
BRANCH  44  68
ATOM     68  C   UNL     1      -8.676   1.495 -10.120  1.00  0.00     0.023 A 
ATOM     69  C   UNL     1      -8.969   2.802 -10.535  1.00  0.00     0.031 A 
ATOM     70  C   UNL     1      -8.534   0.503 -11.109  1.00  0.00     0.131 A 
ATOM     71  C   UNL     1      -9.131   3.079 -11.902  1.00  0.00     0.055 A 
ATOM     72  C   UNL     1      -8.636   0.796 -12.469  1.00  0.00     0.041 A 
ATOM     73  F   UNL     1      -8.262  -0.766 -10.765  1.00  0.00    -0.206 F 
ATOM     74  C   UNL     1      -8.946   2.090 -12.871  1.00  0.00     0.022 A 
BRANCH  71  75
ATOM     75  S   UNL     1      -9.659   4.742 -12.396  1.00  0.00     0.124 S 
ATOM     76  O   UNL     1     -10.929   4.873 -11.692  1.00  0.00    -0.237 OA
ATOM     77  O   UNL     1      -8.563   5.569 -11.900  1.00  0.00    -0.237 OA
ATOM     78  O   UNL     1      -9.758   4.650 -13.851  1.00  0.00    -0.744 OA
ENDBRANCH  71  75
ENDBRANCH  44  68
BRANCH  56  79
ATOM     79  C   UNL     1     -13.220   1.161  -4.872  1.00  0.00     0.023 A 
ATOM     80  C   UNL     1     -14.176   0.399  -5.566  1.00  0.00     0.031 A 
ATOM     81  C   UNL     1     -13.662   2.279  -4.144  1.00  0.00     0.131 A 
ATOM     82  C   UNL     1     -15.520   0.801  -5.569  1.00  0.00     0.055 A 
ATOM     83  C   UNL     1     -15.008   2.644  -4.108  1.00  0.00     0.041 A 
ATOM     84  F   UNL     1     -12.789   3.042  -3.468  1.00  0.00    -0.206 F 
ATOM     85  C   UNL     1     -15.943   1.913  -4.835  1.00  0.00     0.022 A 
BRANCH  82  86
ATOM     86  S   UNL     1     -16.693  -0.088  -6.630  1.00  0.00     0.124 S 
ATOM     87  O   UNL     1     -16.094   0.077  -7.950  1.00  0.00    -0.237 OA
ATOM     88  O   UNL     1     -16.655  -1.437  -6.075  1.00  0.00    -0.237 OA
ATOM     89  O   UNL     1     -17.951   0.629  -6.426  1.00  0.00    -0.744 OA
ENDBRANCH  82  86
ENDBRANCH  56  79
ENDBRANCH  30  31
ENDBRANCH  23  25
ENDBRANCH  22  23
ENDBRANCH  21  22
ENDBRANCH   1  21
TORSDOF 19
