REMARK SMILES Cc1nsc(NC(=O)CC[C@H](C)CC[NH3+])c1C(=O)OCCOC(=O)c1ccc(-c2c3nc(c(-c4cc(S(=O)(=O)[O-])ccc4F)c4ccc([nH]4)c(-c4cc(S(=O)(=O)[O-])ccc4F)c4nc(c(-c5cc(S(=O)(=O)[O-])ccc5F)c5ccc2[nH]5)C=C4)C=C3)cc1
REMARK SMILES IDX 17 1 18 2 16 3 1 4 2 5 3 6 4 7 5 8 6 9 7 10 8 12 9 13 10 14
REMARK SMILES IDX 11 15 12 16 13 17 14 18 15 19 19 23 20 24 21 25 22 26 23 27
REMARK SMILES IDX 24 28 25 29 26 30 87 31 27 32 86 33 28 34 29 35 30 36 80 37
REMARK SMILES IDX 31 38 85 39 79 40 81 41 32 42 84 43 78 44 77 45 33 47 65 48
REMARK SMILES IDX 45 49 64 50 46 51 49 52 63 53 82 54 47 55 48 56 62 58 83 59
REMARK SMILES IDX 50 60 34 61 35 62 43 63 36 64 42 65 44 66 41 67 37 68 38 69
REMARK SMILES IDX 39 70 40 71 66 72 67 73 75 74 68 75 74 76 76 77 73 78 69 79
REMARK SMILES IDX 70 80 71 81 72 82 51 83 52 84 60 85 53 86 59 87 61 88 58 89
REMARK SMILES IDX 54 90 55 91 56 92 57 93
REMARK H PARENT 6 11 15 20 15 21 15 22 81 46 49 57
REMARK Flexibility Score: inf
ROOT
ATOM      1  C   UNL     1      -3.778   0.096   7.521  1.00  0.00     0.343 C 
ATOM      2  O   UNL     1      -2.986  -0.022   8.455  1.00  0.00    -0.246 OA
ENDROOT
BRANCH   1   3
ATOM      3  C   UNL     1      -3.351   0.459   6.176  1.00  0.00     0.117 A 
ATOM      4  C   UNL     1      -5.647   0.558   4.884  1.00  0.00     0.069 C 
ATOM      5  C   UNL     1      -4.181   0.780   5.034  1.00  0.00     0.068 A 
ATOM      6  N   UNL     1      -3.547   1.334   3.997  1.00  0.00    -0.195 NA
ATOM      7  S   UNL     1      -1.928   1.342   4.320  1.00  0.00    -0.017 S 
ATOM      8  C   UNL     1      -2.033   0.400   5.731  1.00  0.00     0.130 A 
BRANCH   8   9
ATOM      9  N   UNL     1      -0.946  -0.217   6.317  1.00  0.00    -0.316 N 
ATOM     10  C   UNL     1       0.168  -0.796   5.771  1.00  0.00     0.225 C 
ATOM     11  H   UNL     1      -0.977  -0.246   7.301  1.00  0.00     0.170 HD
ATOM     12  O   UNL     1       0.942  -1.354   6.561  1.00  0.00    -0.275 OA
BRANCH  10  13
ATOM     13  C   UNL     1       0.492  -0.837   4.281  1.00  0.00     0.101 C 
BRANCH  13  14
ATOM     14  C   UNL     1      -0.044  -2.017   3.443  1.00  0.00     0.013 C 
BRANCH  14  15
ATOM     15  C   UNL     1      -1.573  -2.216   3.438  1.00  0.00    -0.008 C 
ATOM     16  C   UNL     1      -1.989  -3.125   4.584  1.00  0.00     0.008 C 
BRANCH  15  17
ATOM     17  C   UNL     1      -2.144  -2.765   2.118  1.00  0.00     0.064 C 
BRANCH  17  18
ATOM     18  C   UNL     1      -3.655  -2.488   1.985  1.00  0.00     0.259 C 
BRANCH  18  19
ATOM     19  N   UNL     1      -3.931  -1.090   1.643  1.00  0.00    -0.358 N 
ATOM     20  H   UNL     1      -3.578  -0.483   2.383  1.00  0.00     0.344 HD
ATOM     21  H   UNL     1      -4.937  -0.956   1.545  1.00  0.00     0.344 HD
ATOM     22  H   UNL     1      -3.470  -0.858   0.764  1.00  0.00     0.344 HD
ENDBRANCH  18  19
ENDBRANCH  17  18
ENDBRANCH  15  17
ENDBRANCH  14  15
ENDBRANCH  13  14
ENDBRANCH  10  13
ENDBRANCH   8   9
ENDBRANCH   1   3
BRANCH   1  23
ATOM     23  O   UNL     1      -5.130  -0.045   7.641  1.00  0.00    -0.458 OA
BRANCH  23  24
ATOM     24  C   UNL     1      -5.662  -0.470   8.911  1.00  0.00     0.275 C 
BRANCH  24  25
ATOM     25  C   UNL     1      -5.741  -1.987   9.031  1.00  0.00     0.275 C 
BRANCH  25  26
ATOM     26  O   UNL     1      -4.473  -2.528   9.398  1.00  0.00    -0.458 OA
BRANCH  26  27
ATOM     27  C   UNL     1      -3.692  -2.863   8.348  1.00  0.00     0.338 C 
ATOM     28  O   UNL     1      -3.869  -2.547   7.182  1.00  0.00    -0.246 OA
BRANCH  27  29
ATOM     29  C   UNL     1      -2.697  -3.851   8.769  1.00  0.00     0.060 A 
ATOM     30  C   UNL     1      -1.752  -4.216   7.814  1.00  0.00     0.016 A 
ATOM     31  C   UNL     1      -2.963  -4.654   9.879  1.00  0.00     0.016 A 
ATOM     32  C   UNL     1      -1.336  -5.520   7.763  1.00  0.00     0.010 A 
ATOM     33  C   UNL     1      -2.472  -5.937   9.881  1.00  0.00     0.010 A 
ATOM     34  C   UNL     1      -1.778  -6.388   8.757  1.00  0.00    -0.014 A 
BRANCH  34  35
ATOM     35  C   UNL     1      -1.387  -7.779   8.646  1.00  0.00     0.031 A 
ATOM     36  C   UNL     1       0.086  -7.985   8.705  1.00  0.00     0.074 A 
ATOM     37  C   UNL     1      -2.323  -8.748   8.669  1.00  0.00     0.049 A 
ATOM     38  N   UNL     1       0.846  -8.689   7.934  1.00  0.00    -0.248 NA
ATOM     39  C   UNL     1       0.832  -7.157   9.675  1.00  0.00     0.031 C 
ATOM     40  C   UNL     1      -3.766  -8.595   8.892  1.00  0.00     0.029 A 
ATOM     41  N   UNL     1      -2.151 -10.092   8.717  1.00  0.00    -0.354 N 
ATOM     42  C   UNL     1       2.140  -8.539   8.432  1.00  0.00     0.074 A 
ATOM     43  C   UNL     1       2.091  -7.454   9.368  1.00  0.00     0.031 C 
ATOM     44  C   UNL     1      -4.253  -9.756   9.381  1.00  0.00     0.029 A 
ATOM     45  C   UNL     1      -3.185 -10.742   9.381  1.00  0.00     0.049 A 
ATOM     46  H   UNL     1      -1.378 -10.557   8.324  1.00  0.00     0.167 HD
ATOM     47  C   UNL     1       3.117  -9.452   8.191  1.00  0.00     0.034 A 
ATOM     48  C   UNL     1      -3.095 -11.930  10.037  1.00  0.00     0.034 A 
ATOM     49  C   UNL     1       2.805 -10.247   7.028  1.00  0.00     0.049 A 
ATOM     50  C   UNL     1      -1.870 -12.608   9.528  1.00  0.00     0.074 A 
ATOM     51  C   UNL     1       2.595  -9.944   5.696  1.00  0.00     0.029 A 
ATOM     52  N   UNL     1       2.285 -11.509   7.209  1.00  0.00    -0.354 N 
ATOM     53  N   UNL     1      -1.714 -12.979   8.282  1.00  0.00    -0.248 NA
ATOM     54  C   UNL     1      -0.628 -12.417  10.269  1.00  0.00     0.031 C 
ATOM     55  C   UNL     1       1.523 -10.791   5.296  1.00  0.00     0.029 A 
ATOM     56  C   UNL     1       1.193 -11.607   6.382  1.00  0.00     0.049 A 
ATOM     57  H   UNL     1       2.628 -12.206   7.814  1.00  0.00     0.167 HD
ATOM     58  C   UNL     1      -0.396 -12.670   7.970  1.00  0.00     0.074 A 
ATOM     59  C   UNL     1       0.247 -12.412   9.258  1.00  0.00     0.031 C 
ATOM     60  C   UNL     1      -0.007 -12.358   6.697  1.00  0.00     0.034 A 
BRANCH  47  61
ATOM     61  C   UNL     1       4.171  -9.857   9.198  1.00  0.00     0.023 A 
ATOM     62  C   UNL     1       5.043 -10.894   8.819  1.00  0.00     0.031 A 
ATOM     63  C   UNL     1       4.186  -9.518  10.572  1.00  0.00     0.131 A 
ATOM     64  C   UNL     1       5.760 -11.624   9.781  1.00  0.00     0.055 A 
ATOM     65  C   UNL     1       4.959 -10.200  11.516  1.00  0.00     0.041 A 
ATOM     66  F   UNL     1       3.398  -8.578  11.104  1.00  0.00    -0.206 F 
ATOM     67  C   UNL     1       5.721 -11.287  11.130  1.00  0.00     0.022 A 
BRANCH  64  68
ATOM     68  S   UNL     1       6.572 -13.154   9.257  1.00  0.00     0.124 S 
ATOM     69  O   UNL     1       5.494 -13.830   8.542  1.00  0.00    -0.237 OA
ATOM     70  O   UNL     1       7.668 -12.645   8.440  1.00  0.00    -0.237 OA
ATOM     71  O   UNL     1       6.968 -13.775  10.518  1.00  0.00    -0.744 OA
ENDBRANCH  64  68
ENDBRANCH  47  61
BRANCH  48  72
ATOM     72  C   UNL     1      -3.765 -12.231  11.338  1.00  0.00     0.023 A 
ATOM     73  C   UNL     1      -4.040 -13.540  11.775  1.00  0.00     0.031 A 
ATOM     74  C   UNL     1      -4.007 -11.192  12.273  1.00  0.00     0.131 A 
ATOM     75  C   UNL     1      -4.567 -13.762  13.072  1.00  0.00     0.055 A 
ATOM     76  C   UNL     1      -4.548 -11.414  13.540  1.00  0.00     0.041 A 
ATOM     77  F   UNL     1      -3.658  -9.922  12.011  1.00  0.00    -0.206 F 
ATOM     78  C   UNL     1      -4.830 -12.705  13.948  1.00  0.00     0.022 A 
BRANCH  75  79
ATOM     79  S   UNL     1      -4.851 -15.458  13.673  1.00  0.00     0.124 S 
ATOM     80  O   UNL     1      -5.942 -15.910  12.817  1.00  0.00    -0.237 OA
ATOM     81  O   UNL     1      -3.553 -16.085  13.457  1.00  0.00    -0.237 OA
ATOM     82  O   UNL     1      -5.212 -15.267  15.079  1.00  0.00    -0.744 OA
ENDBRANCH  75  79
ENDBRANCH  48  72
BRANCH  60  83
ATOM     83  C   UNL     1      -0.971 -12.567   5.548  1.00  0.00     0.023 A 
ATOM     84  C   UNL     1      -2.209 -11.899   5.412  1.00  0.00     0.031 A 
ATOM     85  C   UNL     1      -0.503 -13.309   4.448  1.00  0.00     0.131 A 
ATOM     86  C   UNL     1      -2.923 -11.982   4.199  1.00  0.00     0.055 A 
ATOM     87  C   UNL     1      -1.204 -13.374   3.245  1.00  0.00     0.041 A 
ATOM     88  F   UNL     1       0.685 -13.934   4.506  1.00  0.00    -0.206 F 
ATOM     89  C   UNL     1      -2.417 -12.709   3.115  1.00  0.00     0.022 A 
BRANCH  86  90
ATOM     90  S   UNL     1      -4.519 -11.125   3.998  1.00  0.00     0.124 S 
ATOM     91  O   UNL     1      -5.282 -11.551   5.165  1.00  0.00    -0.237 OA
ATOM     92  O   UNL     1      -4.126  -9.719   3.966  1.00  0.00    -0.237 OA
ATOM     93  O   UNL     1      -5.025 -11.640   2.723  1.00  0.00    -0.744 OA
ENDBRANCH  86  90
ENDBRANCH  60  83
ENDBRANCH  34  35
ENDBRANCH  27  29
ENDBRANCH  26  27
ENDBRANCH  25  26
ENDBRANCH  24  25
ENDBRANCH  23  24
ENDBRANCH   1  23
TORSDOF 21
