REMARK SMILES CCc1cc(/C=C/C(=O)OCCOC(=O)c2ccc(-c3c4nc(c(-c5cc(S(=O)(=O)[O-])ccc5F)c5ccc([nH]5)c(-c5cc(S(=O)(=O)[O-])ccc5F)c5nc(c(-c6cc(S(=O)(=O)[O-])ccc6F)c6ccc3[nH]6)C=C5)C=C4)cc2)cc(C(=O)c2ccccc2)c1
REMARK SMILES IDX 11 1 10 2 8 3 9 4 7 5 6 6 5 7 3 8 4 9 89 10 80 11 79 12 2 13
REMARK SMILES IDX 1 14 81 15 82 16 83 17 84 18 88 19 85 20 87 21 86 22 12 23
REMARK SMILES IDX 13 24 14 25 15 26 16 27 17 28 78 29 18 30 77 31 19 32 20 33
REMARK SMILES IDX 21 34 71 35 22 36 76 37 70 38 72 39 23 40 75 41 69 42 68 43
REMARK SMILES IDX 24 45 56 46 36 47 55 48 37 49 40 50 54 51 73 52 38 53 39 54
REMARK SMILES IDX 53 56 74 57 41 58 25 59 26 60 34 61 27 62 33 63 35 64 32 65
REMARK SMILES IDX 28 66 29 67 30 68 31 69 57 70 58 71 66 72 59 73 65 74 67 75
REMARK SMILES IDX 64 76 60 77 61 78 62 79 63 80 42 81 43 82 51 83 44 84 50 85
REMARK SMILES IDX 52 86 49 87 45 88 46 89 47 90 48 91
REMARK H PARENT 72 44 40 55
REMARK Flexibility Score: inf
ROOT
ATOM      1  C   UNL     1       8.266   5.025   0.989  1.00  0.00     0.275 C 
ENDROOT
BRANCH   1   2
ATOM      2  O   UNL     1       6.846   4.912   0.783  1.00  0.00    -0.459 OA
BRANCH   2   3
ATOM      3  C   UNL     1       6.452   3.990  -0.127  1.00  0.00     0.330 C 
ATOM      4  O   UNL     1       7.185   3.343  -0.860  1.00  0.00    -0.247 OA
BRANCH   3   5
ATOM      5  C   UNL     1       4.992   3.766  -0.112  1.00  0.00     0.094 C 
ATOM      6  C   UNL     1       4.114   4.406   0.676  1.00  0.00     0.015 C 
BRANCH   6   7
ATOM      7  C   UNL     1       2.690   4.042   0.731  1.00  0.00    -0.024 A 
ATOM      8  C   UNL     1       0.936   2.345   0.904  1.00  0.00    -0.047 A 
ATOM      9  C   UNL     1       2.290   2.700   0.828  1.00  0.00     0.011 A 
ATOM     10  C   UNL     1      -0.029   3.360   0.902  1.00  0.00     0.016 A 
ATOM     11  C   UNL     1       0.352   4.709   0.863  1.00  0.00     0.023 A 
ATOM     12  C   UNL     1       1.712   5.043   0.768  1.00  0.00     0.020 A 
BRANCH   8  13
ATOM     13  C   UNL     1       0.522   0.899   1.047  1.00  0.00     0.032 C 
ATOM     14  C   UNL     1       0.971   0.021  -0.113  1.00  0.00     0.009 C 
ENDBRANCH   8  13
BRANCH  11  15
ATOM     15  C   UNL     1      -0.651   5.814   0.885  1.00  0.00     0.193 C 
ATOM     16  O   UNL     1      -0.334   6.942   0.513  1.00  0.00    -0.289 OA
BRANCH  15  17
ATOM     17  C   UNL     1      -2.052   5.586   1.313  1.00  0.00     0.022 A 
ATOM     18  C   UNL     1      -3.080   6.086   0.506  1.00  0.00     0.012 A 
ATOM     19  C   UNL     1      -2.357   4.907   2.498  1.00  0.00     0.012 A 
ATOM     20  C   UNL     1      -4.412   5.862   0.858  1.00  0.00     0.001 A 
ATOM     21  C   UNL     1      -3.692   4.684   2.844  1.00  0.00     0.001 A 
ATOM     22  C   UNL     1      -4.716   5.154   2.021  1.00  0.00     0.000 A 
ENDBRANCH  15  17
ENDBRANCH  11  15
ENDBRANCH   6   7
ENDBRANCH   3   5
ENDBRANCH   2   3
ENDBRANCH   1   2
BRANCH   1  23
ATOM     23  C   UNL     1       8.691   4.349   2.297  1.00  0.00     0.275 C 
BRANCH  23  24
ATOM     24  O   UNL     1       8.528   2.920   2.243  1.00  0.00    -0.458 OA
BRANCH  24  25
ATOM     25  C   UNL     1       7.327   2.464   2.679  1.00  0.00     0.338 C 
ATOM     26  O   UNL     1       6.410   3.132   3.124  1.00  0.00    -0.246 OA
BRANCH  25  27
ATOM     27  C   UNL     1       7.218   1.015   2.430  1.00  0.00     0.060 A 
ATOM     28  C   UNL     1       6.097   0.554   1.734  1.00  0.00     0.016 A 
ATOM     29  C   UNL     1       8.160   0.111   2.929  1.00  0.00     0.016 A 
ATOM     30  C   UNL     1       5.907  -0.812   1.538  1.00  0.00     0.010 A 
ATOM     31  C   UNL     1       7.968  -1.262   2.732  1.00  0.00     0.010 A 
ATOM     32  C   UNL     1       6.835  -1.733   2.046  1.00  0.00    -0.014 A 
BRANCH  32  33
ATOM     33  C   UNL     1       6.583  -3.188   1.895  1.00  0.00     0.031 A 
ATOM     34  C   UNL     1       6.091  -3.990   3.067  1.00  0.00     0.074 A 
ATOM     35  C   UNL     1       6.769  -3.781   0.700  1.00  0.00     0.049 A 
ATOM     36  N   UNL     1       5.839  -5.271   3.149  1.00  0.00    -0.248 NA
ATOM     37  C   UNL     1       5.854  -3.247   4.313  1.00  0.00     0.031 C 
ATOM     38  C   UNL     1       7.210  -3.100  -0.517  1.00  0.00     0.029 A 
ATOM     39  N   UNL     1       6.611  -5.088   0.314  1.00  0.00    -0.354 N 
ATOM     40  C   UNL     1       5.416  -5.493   4.455  1.00  0.00     0.074 A 
ATOM     41  C   UNL     1       5.480  -4.216   5.136  1.00  0.00     0.031 C 
ATOM     42  C   UNL     1       7.285  -3.995  -1.516  1.00  0.00     0.029 A 
ATOM     43  C   UNL     1       6.942  -5.319  -1.001  1.00  0.00     0.049 A 
ATOM     44  H   UNL     1       6.291  -5.795   0.921  1.00  0.00     0.167 HD
ATOM     45  C   UNL     1       5.005  -6.652   5.028  1.00  0.00     0.034 A 
ATOM     46  C   UNL     1       6.988  -6.468  -1.703  1.00  0.00     0.034 A 
ATOM     47  C   UNL     1       4.958  -7.920   4.339  1.00  0.00     0.049 A 
ATOM     48  C   UNL     1       6.606  -7.758  -1.021  1.00  0.00     0.074 A 
ATOM     49  C   UNL     1       4.544  -9.150   4.821  1.00  0.00     0.029 A 
ATOM     50  N   UNL     1       5.352  -8.126   3.022  1.00  0.00    -0.354 N 
ATOM     51  N   UNL     1       6.202  -7.952   0.213  1.00  0.00    -0.248 NA
ATOM     52  C   UNL     1       6.684  -8.982  -1.829  1.00  0.00     0.031 C 
ATOM     53  C   UNL     1       4.749 -10.108   3.821  1.00  0.00     0.029 A 
ATOM     54  C   UNL     1       5.224  -9.466   2.688  1.00  0.00     0.049 A 
ATOM     55  H   UNL     1       5.676  -7.422   2.414  1.00  0.00     0.167 HD
ATOM     56  C   UNL     1       5.958  -9.319   0.322  1.00  0.00     0.074 A 
ATOM     57  C   UNL     1       6.243  -9.896  -0.976  1.00  0.00     0.031 C 
ATOM     58  C   UNL     1       5.533 -10.033   1.396  1.00  0.00     0.034 A 
BRANCH  45  59
ATOM     59  C   UNL     1       4.626  -6.603   6.488  1.00  0.00     0.023 A 
ATOM     60  C   UNL     1       3.518  -5.865   6.941  1.00  0.00     0.031 A 
ATOM     61  C   UNL     1       5.402  -7.280   7.446  1.00  0.00     0.131 A 
ATOM     62  C   UNL     1       3.260  -5.763   8.317  1.00  0.00     0.055 A 
ATOM     63  C   UNL     1       5.095  -7.236   8.807  1.00  0.00     0.041 A 
ATOM     64  F   UNL     1       6.483  -7.985   7.075  1.00  0.00    -0.206 F 
ATOM     65  C   UNL     1       4.027  -6.462   9.252  1.00  0.00     0.022 A 
BRANCH  62  66
ATOM     66  S   UNL     1       1.991  -4.594   8.878  1.00  0.00     0.124 S 
ATOM     67  O   UNL     1       2.489  -3.333   8.332  1.00  0.00    -0.237 OA
ATOM     68  O   UNL     1       0.780  -5.122   8.262  1.00  0.00    -0.237 OA
ATOM     69  O   UNL     1       2.048  -4.698  10.335  1.00  0.00    -0.744 OA
ENDBRANCH  62  66
ENDBRANCH  45  59
BRANCH  46  70
ATOM     70  C   UNL     1       7.458  -6.468  -3.118  1.00  0.00     0.023 A 
ATOM     71  C   UNL     1       6.603  -6.833  -4.169  1.00  0.00     0.031 A 
ATOM     72  C   UNL     1       8.791  -6.148  -3.431  1.00  0.00     0.131 A 
ATOM     73  C   UNL     1       7.101  -6.907  -5.480  1.00  0.00     0.055 A 
ATOM     74  C   UNL     1       9.268  -6.175  -4.742  1.00  0.00     0.041 A 
ATOM     75  F   UNL     1       9.650  -5.795  -2.461  1.00  0.00    -0.206 F 
ATOM     76  C   UNL     1       8.423  -6.568  -5.775  1.00  0.00     0.022 A 
BRANCH  73  77
ATOM     77  S   UNL     1       6.012  -7.532  -6.789  1.00  0.00     0.124 S 
ATOM     78  O   UNL     1       5.673  -8.859  -6.286  1.00  0.00    -0.237 OA
ATOM     79  O   UNL     1       4.934  -6.549  -6.782  1.00  0.00    -0.237 OA
ATOM     80  O   UNL     1       6.862  -7.513  -7.977  1.00  0.00    -0.744 OA
ENDBRANCH  73  77
ENDBRANCH  46  70
BRANCH  58  81
ATOM     81  C   UNL     1       5.321 -11.513   1.191  1.00  0.00     0.023 A 
ATOM     82  C   UNL     1       6.397 -12.388   0.957  1.00  0.00     0.031 A 
ATOM     83  C   UNL     1       4.022 -12.052   1.210  1.00  0.00     0.131 A 
ATOM     84  C   UNL     1       6.151 -13.745   0.699  1.00  0.00     0.055 A 
ATOM     85  C   UNL     1       3.788 -13.413   1.008  1.00  0.00     0.041 A 
ATOM     86  F   UNL     1       2.958 -11.262   1.426  1.00  0.00    -0.206 F 
ATOM     87  C   UNL     1       4.855 -14.265   0.738  1.00  0.00     0.022 A 
BRANCH  84  88
ATOM     88  S   UNL     1       7.542 -14.810   0.227  1.00  0.00     0.124 S 
ATOM     89  O   UNL     1       8.035 -14.149  -0.977  1.00  0.00    -0.237 OA
ATOM     90  O   UNL     1       8.408 -14.731   1.398  1.00  0.00    -0.237 OA
ATOM     91  O   UNL     1       6.917 -16.113   0.006  1.00  0.00    -0.744 OA
ENDBRANCH  84  88
ENDBRANCH  58  81
ENDBRANCH  32  33
ENDBRANCH  25  27
ENDBRANCH  24  25
ENDBRANCH  23  24
ENDBRANCH   1  23
TORSDOF 18
