REMARK SMILES Cc1ccccc1NC(=O)CSc1nc(C(=O)OCCOC(=O)c2ccc(-c3c4nc(c(-c5cc(S(=O)(=O)[O-])ccc5F)c5ccc([nH]5)c(-c5cc(S(=O)(=O)[O-])ccc5F)c5nc(c(-c6cc(S(=O)(=O)[O-])ccc6F)c6ccc3[nH]6)C=C5)C=C4)cc2)c2ccccc2n1
REMARK SMILES IDX 19 1 18 2 16 3 17 4 15 5 13 6 14 7 93 8 92 9 87 10 91 11
REMARK SMILES IDX 88 12 90 13 89 14 12 15 11 16 9 17 8 18 10 20 7 21 1 22 2 23
REMARK SMILES IDX 3 24 4 25 6 26 5 27 20 28 21 29 22 30 23 31 24 32 25 33
REMARK SMILES IDX 86 34 26 35 85 36 27 37 28 38 29 39 79 40 30 41 84 42 78 43
REMARK SMILES IDX 80 44 31 45 83 46 77 47 76 48 32 50 64 51 44 52 63 53 45 54
REMARK SMILES IDX 48 55 62 56 81 57 46 58 47 59 61 61 82 62 49 63 33 64 34 65
REMARK SMILES IDX 42 66 35 67 41 68 43 69 40 70 36 71 37 72 38 73 39 74 65 75
REMARK SMILES IDX 66 76 74 77 67 78 73 79 75 80 72 81 68 82 69 83 70 84 71 85
REMARK SMILES IDX 50 86 51 87 59 88 52 89 58 90 60 91 57 92 53 93 54 94 55 95
REMARK SMILES IDX 56 96
REMARK H PARENT 8 19 80 49 48 60
REMARK Flexibility Score: inf
ROOT
ATOM      1  C   UNL     1      -3.113   7.844  -6.896  1.00  0.00     0.275 C 
ENDROOT
BRANCH   1   2
ATOM      2  O   UNL     1      -2.862   6.527  -6.379  1.00  0.00    -0.457 OA
BRANCH   2   3
ATOM      3  C   UNL     1      -1.540   6.268  -6.217  1.00  0.00     0.357 C 
ATOM      4  O   UNL     1      -0.632   7.008  -6.571  1.00  0.00    -0.244 OA
BRANCH   3   5
ATOM      5  C   UNL     1      -1.273   4.896  -5.718  1.00  0.00     0.160 A 
ATOM      6  C   UNL     1      -1.341   3.380  -4.023  1.00  0.00     0.189 A 
ATOM      7  N   UNL     1      -1.768   4.552  -4.503  1.00  0.00    -0.215 NA
ATOM      8  N   UNL     1      -0.526   2.537  -4.679  1.00  0.00    -0.222 NA
ATOM      9  C   UNL     1      -0.079   2.898  -5.888  1.00  0.00     0.076 A 
ATOM     10  C   UNL     1      -0.431   4.100  -6.494  1.00  0.00     0.034 A 
ATOM     11  C   UNL     1       0.771   2.047  -6.585  1.00  0.00     0.029 A 
ATOM     12  C   UNL     1       0.061   4.422  -7.789  1.00  0.00     0.013 A 
ATOM     13  C   UNL     1       1.272   2.367  -7.854  1.00  0.00     0.002 A 
ATOM     14  C   UNL     1       0.914   3.560  -8.460  1.00  0.00     0.001 A 
BRANCH   6  15
ATOM     15  S   UNL     1      -2.098   2.724  -2.558  1.00  0.00    -0.076 SA
BRANCH  15  16
ATOM     16  C   UNL     1      -1.371   3.753  -1.250  1.00  0.00     0.178 C 
BRANCH  16  17
ATOM     17  C   UNL     1       0.089   3.481  -0.970  1.00  0.00     0.234 C 
ATOM     18  N   UNL     1       0.594   2.330  -0.442  1.00  0.00    -0.325 N 
ATOM     19  H   UNL     1       1.559   2.392  -0.257  1.00  0.00     0.169 HD
ATOM     20  O   UNL     1       0.917   4.369  -1.215  1.00  0.00    -0.274 OA
BRANCH  18  21
ATOM     21  C   UNL     1       0.060   1.072  -0.098  1.00  0.00     0.044 A 
ATOM     22  C   UNL     1       2.431   0.028  -0.147  1.00  0.00     0.046 C 
ATOM     23  C   UNL     1       0.929  -0.042  -0.021  1.00  0.00    -0.027 A 
ATOM     24  C   UNL     1       0.383  -1.335   0.117  1.00  0.00     0.005 A 
ATOM     25  C   UNL     1      -0.987  -1.527   0.254  1.00  0.00     0.000 A 
ATOM     26  C   UNL     1      -1.300   0.863   0.143  1.00  0.00     0.026 A 
ATOM     27  C   UNL     1      -1.825  -0.424   0.304  1.00  0.00     0.002 A 
ENDBRANCH  18  21
ENDBRANCH  16  17
ENDBRANCH  15  16
ENDBRANCH   6  15
ENDBRANCH   3   5
ENDBRANCH   2   3
ENDBRANCH   1   2
BRANCH   1  28
ATOM     28  C   UNL     1      -4.405   8.458  -6.348  1.00  0.00     0.275 C 
BRANCH  28  29
ATOM     29  O   UNL     1      -4.957   7.866  -5.141  1.00  0.00    -0.458 OA
BRANCH  29  30
ATOM     30  C   UNL     1      -4.312   7.557  -3.982  1.00  0.00     0.338 C 
ATOM     31  O   UNL     1      -4.753   6.696  -3.223  1.00  0.00    -0.246 OA
BRANCH  30  32
ATOM     32  C   UNL     1      -2.968   8.139  -3.760  1.00  0.00     0.060 A 
ATOM     33  C   UNL     1      -1.961   7.343  -3.197  1.00  0.00     0.016 A 
ATOM     34  C   UNL     1      -2.663   9.410  -4.217  1.00  0.00     0.016 A 
ATOM     35  C   UNL     1      -0.626   7.756  -3.227  1.00  0.00     0.010 A 
ATOM     36  C   UNL     1      -1.342   9.759  -4.393  1.00  0.00     0.010 A 
ATOM     37  C   UNL     1      -0.317   8.956  -3.873  1.00  0.00    -0.014 A 
BRANCH  37  38
ATOM     38  C   UNL     1       0.992   9.605  -3.796  1.00  0.00     0.031 A 
ATOM     39  C   UNL     1       2.215   9.049  -4.419  1.00  0.00     0.074 A 
ATOM     40  C   UNL     1       1.001  10.740  -3.057  1.00  0.00     0.049 A 
ATOM     41  N   UNL     1       3.396   9.107  -3.902  1.00  0.00    -0.248 NA
ATOM     42  C   UNL     1       2.210   8.378  -5.718  1.00  0.00     0.031 C 
ATOM     43  C   UNL     1       2.095  11.641  -2.742  1.00  0.00     0.029 A 
ATOM     44  N   UNL     1      -0.027  11.207  -2.229  1.00  0.00    -0.354 N 
ATOM     45  C   UNL     1       4.307   8.793  -4.896  1.00  0.00     0.074 A 
ATOM     46  C   UNL     1       3.519   8.227  -5.962  1.00  0.00     0.031 C 
ATOM     47  C   UNL     1       1.806  12.238  -1.565  1.00  0.00     0.029 A 
ATOM     48  C   UNL     1       0.587  11.613  -1.054  1.00  0.00     0.049 A 
ATOM     49  H   UNL     1      -0.989  11.240  -2.438  1.00  0.00     0.167 HD
ATOM     50  C   UNL     1       5.597   9.234  -4.796  1.00  0.00     0.034 A 
ATOM     51  C   UNL     1       0.458  10.889   0.101  1.00  0.00     0.034 A 
ATOM     52  C   UNL     1       5.777   9.977  -3.553  1.00  0.00     0.049 A 
ATOM     53  C   UNL     1       1.817  10.441   0.596  1.00  0.00     0.074 A 
ATOM     54  C   UNL     1       5.711  11.334  -3.284  1.00  0.00     0.029 A 
ATOM     55  N   UNL     1       5.671   9.322  -2.333  1.00  0.00    -0.354 N 
ATOM     56  N   UNL     1       2.843  10.228  -0.185  1.00  0.00    -0.248 NA
ATOM     57  C   UNL     1       2.130  10.249   2.006  1.00  0.00     0.031 C 
ATOM     58  C   UNL     1       5.433  11.485  -1.901  1.00  0.00     0.029 A 
ATOM     59  C   UNL     1       5.381  10.225  -1.327  1.00  0.00     0.049 A 
ATOM     60  H   UNL     1       5.785   8.353  -2.203  1.00  0.00     0.167 HD
ATOM     61  C   UNL     1       3.949   9.962   0.580  1.00  0.00     0.074 A 
ATOM     62  C   UNL     1       3.445   9.980   1.946  1.00  0.00     0.031 C 
ATOM     63  C   UNL     1       5.194   9.775   0.042  1.00  0.00     0.034 A 
BRANCH  50  64
ATOM     64  C   UNL     1       6.576   9.326  -5.952  1.00  0.00     0.023 A 
ATOM     65  C   UNL     1       7.500  10.397  -5.986  1.00  0.00     0.031 A 
ATOM     66  C   UNL     1       6.639   8.445  -7.047  1.00  0.00     0.131 A 
ATOM     67  C   UNL     1       8.342  10.621  -7.093  1.00  0.00     0.055 A 
ATOM     68  C   UNL     1       7.454   8.684  -8.168  1.00  0.00     0.041 A 
ATOM     69  F   UNL     1       5.943   7.299  -7.063  1.00  0.00    -0.206 F 
ATOM     70  C   UNL     1       8.300   9.786  -8.203  1.00  0.00     0.022 A 
BRANCH  67  71
ATOM     71  S   UNL     1       9.488  12.030  -7.058  1.00  0.00     0.124 S 
ATOM     72  O   UNL     1       8.582  13.165  -6.924  1.00  0.00    -0.237 OA
ATOM     73  O   UNL     1      10.320  11.726  -5.899  1.00  0.00    -0.237 OA
ATOM     74  O   UNL     1      10.176  11.941  -8.347  1.00  0.00    -0.744 OA
ENDBRANCH  67  71
ENDBRANCH  50  64
BRANCH  51  75
ATOM     75  C   UNL     1      -0.820  10.109   0.280  1.00  0.00     0.023 A 
ATOM     76  C   UNL     1      -2.041  10.750  -0.037  1.00  0.00     0.031 A 
ATOM     77  C   UNL     1      -0.877   8.725   0.499  1.00  0.00     0.131 A 
ATOM     78  C   UNL     1      -3.203  10.009  -0.314  1.00  0.00     0.055 A 
ATOM     79  C   UNL     1      -2.064   7.993   0.308  1.00  0.00     0.041 A 
ATOM     80  F   UNL     1       0.223   8.036   0.831  1.00  0.00    -0.206 F 
ATOM     81  C   UNL     1      -3.223   8.627  -0.144  1.00  0.00     0.022 A 
BRANCH  78  82
ATOM     82  S   UNL     1      -4.569  10.853  -1.174  1.00  0.00     0.124 S 
ATOM     83  O   UNL     1      -5.304  11.455  -0.069  1.00  0.00    -0.237 OA
ATOM     84  O   UNL     1      -3.862  11.780  -2.054  1.00  0.00    -0.237 OA
ATOM     85  O   UNL     1      -5.253   9.774  -1.879  1.00  0.00    -0.744 OA
ENDBRANCH  78  82
ENDBRANCH  51  75
BRANCH  63  86
ATOM     86  C   UNL     1       6.393   9.266   0.802  1.00  0.00     0.023 A 
ATOM     87  C   UNL     1       6.275   8.586   2.018  1.00  0.00     0.031 A 
ATOM     88  C   UNL     1       7.708   9.393   0.292  1.00  0.00     0.131 A 
ATOM     89  C   UNL     1       7.409   8.208   2.749  1.00  0.00     0.055 A 
ATOM     90  C   UNL     1       8.831   8.904   0.964  1.00  0.00     0.041 A 
ATOM     91  F   UNL     1       7.962   9.993  -0.880  1.00  0.00    -0.206 F 
ATOM     92  C   UNL     1       8.689   8.334   2.219  1.00  0.00     0.022 A 
BRANCH  89  93
ATOM     93  S   UNL     1       7.161   7.679   4.460  1.00  0.00     0.124 S 
ATOM     94  O   UNL     1       6.556   8.869   5.053  1.00  0.00    -0.237 OA
ATOM     95  O   UNL     1       6.276   6.529   4.310  1.00  0.00    -0.237 OA
ATOM     96  O   UNL     1       8.511   7.372   4.924  1.00  0.00    -0.744 OA
ENDBRANCH  89  93
ENDBRANCH  63  86
ENDBRANCH  37  38
ENDBRANCH  30  32
ENDBRANCH  29  30
ENDBRANCH  28  29
ENDBRANCH   1  28
TORSDOF 18
