REMARK SMILES Cc1nn(C)c(OCC(C)(C)[NH+](C)C)c1C(=O)OCCOC(=O)c1ccc(-c2c3nc(c(-c4cc(S(=O)(=O)[O-])ccc4F)c4ccc([nH]4)c(-c4cc(S(=O)(=O)[O-])ccc4F)c4nc(c(-c5cc(S(=O)(=O)[O-])ccc5F)c5ccc2[nH]5)C=C4)C=C3)cc1
REMARK SMILES IDX 19 1 18 2 16 3 17 4 15 5 1 6 2 7 3 8 4 9 6 10 5 11 7 12 8 13
REMARK SMILES IDX 9 14 10 15 11 16 12 17 13 18 14 19 20 21 21 22 22 23 23 24
REMARK SMILES IDX 24 25 25 26 86 27 26 28 85 29 27 30 28 31 29 32 79 33 30 34
REMARK SMILES IDX 84 35 78 36 80 37 31 38 83 39 77 40 76 41 32 43 64 44 44 45
REMARK SMILES IDX 63 46 45 47 48 48 62 49 81 50 46 51 47 52 61 54 82 55 49 56
REMARK SMILES IDX 33 57 34 58 42 59 35 60 41 61 43 62 40 63 36 64 37 65 38 66
REMARK SMILES IDX 39 67 65 68 66 69 74 70 67 71 73 72 75 73 72 74 68 75 69 76
REMARK SMILES IDX 70 77 71 78 50 79 51 80 59 81 52 82 58 83 60 84 57 85 53 86
REMARK SMILES IDX 54 87 55 88 56 89
REMARK H PARENT 12 20 80 42 48 53
REMARK Flexibility Score: inf
ROOT
ATOM      1  C   UNL     1      -3.773  -3.329  -1.058  1.00  0.00     0.275 C 
ENDROOT
BRANCH   1   2
ATOM      2  O   UNL     1      -3.024  -2.099  -0.936  1.00  0.00    -0.458 OA
BRANCH   2   3
ATOM      3  C   UNL     1      -1.807  -2.299  -0.344  1.00  0.00     0.345 C 
ATOM      4  O   UNL     1      -1.446  -3.425  -0.054  1.00  0.00    -0.246 OA
BRANCH   3   5
ATOM      5  C   UNL     1      -0.992  -1.119  -0.115  1.00  0.00     0.144 A 
ATOM      6  C   UNL     1      -2.667   0.917  -0.362  1.00  0.00     0.070 C 
ATOM      7  C   UNL     1      -1.342   0.266  -0.207  1.00  0.00     0.078 A 
ATOM      8  N   UNL     1      -0.278   1.065  -0.069  1.00  0.00    -0.174 NA
ATOM      9  N   UNL     1       0.733   0.209   0.143  1.00  0.00    -0.236 N 
ATOM     10  C   UNL     1       0.325  -1.088   0.357  1.00  0.00     0.227 A 
ATOM     11  C   UNL     1       2.092   0.703   0.153  1.00  0.00     0.178 C 
BRANCH  10  12
ATOM     12  O   UNL     1       1.225  -1.910   0.907  1.00  0.00    -0.471 OA
BRANCH  12  13
ATOM     13  C   UNL     1       0.995  -3.299   1.108  1.00  0.00     0.299 C 
BRANCH  13  14
ATOM     14  C   UNL     1       0.277  -3.759   2.438  1.00  0.00     0.126 C 
ATOM     15  C   UNL     1      -1.015  -2.976   2.772  1.00  0.00     0.082 C 
ATOM     16  C   UNL     1      -0.106  -5.248   2.190  1.00  0.00     0.082 C 
BRANCH  14  17
ATOM     17  N   UNL     1       1.237  -3.720   3.590  1.00  0.00    -0.333 N 
ATOM     18  C   UNL     1       1.948  -2.443   3.714  1.00  0.00     0.333 C 
ATOM     19  C   UNL     1       0.677  -4.096   4.887  1.00  0.00     0.333 C 
ATOM     20  H   UNL     1       1.905  -4.448   3.337  1.00  0.00     0.348 HD
ENDBRANCH  14  17
ENDBRANCH  13  14
ENDBRANCH  12  13
ENDBRANCH  10  12
ENDBRANCH   3   5
ENDBRANCH   2   3
ENDBRANCH   1   2
BRANCH   1  21
ATOM     21  C   UNL     1      -3.409  -4.181  -2.293  1.00  0.00     0.275 C 
BRANCH  21  22
ATOM     22  O   UNL     1      -2.062  -4.711  -2.284  1.00  0.00    -0.458 OA
BRANCH  22  23
ATOM     23  C   UNL     1      -1.123  -3.941  -2.900  1.00  0.00     0.338 C 
ATOM     24  O   UNL     1      -1.358  -2.918  -3.527  1.00  0.00    -0.246 OA
BRANCH  23  25
ATOM     25  C   UNL     1       0.263  -4.380  -2.563  1.00  0.00     0.060 A 
ATOM     26  C   UNL     1       1.235  -3.382  -2.398  1.00  0.00     0.016 A 
ATOM     27  C   UNL     1       0.625  -5.719  -2.377  1.00  0.00     0.016 A 
ATOM     28  C   UNL     1       2.543  -3.712  -2.015  1.00  0.00     0.010 A 
ATOM     29  C   UNL     1       1.952  -6.051  -2.035  1.00  0.00     0.010 A 
ATOM     30  C   UNL     1       2.924  -5.052  -1.849  1.00  0.00    -0.014 A 
BRANCH  30  31
ATOM     31  C   UNL     1       4.369  -5.394  -1.667  1.00  0.00     0.031 A 
ATOM     32  C   UNL     1       5.270  -5.332  -2.874  1.00  0.00     0.074 A 
ATOM     33  C   UNL     1       4.897  -5.733  -0.472  1.00  0.00     0.049 A 
ATOM     34  N   UNL     1       6.553  -5.570  -2.971  1.00  0.00    -0.248 NA
ATOM     35  C   UNL     1       4.631  -4.947  -4.142  1.00  0.00     0.031 C 
ATOM     36  C   UNL     1       4.168  -5.793   0.791  1.00  0.00     0.029 A 
ATOM     37  N   UNL     1       6.183  -6.089  -0.124  1.00  0.00    -0.354 N 
ATOM     38  C   UNL     1       6.881  -5.343  -4.303  1.00  0.00     0.074 A 
ATOM     39  C   UNL     1       5.656  -4.970  -4.979  1.00  0.00     0.031 C 
ATOM     40  C   UNL     1       5.013  -6.153   1.774  1.00  0.00     0.029 A 
ATOM     41  C   UNL     1       6.338  -6.407   1.209  1.00  0.00     0.049 A 
ATOM     42  H   UNL     1       6.925  -6.115  -0.771  1.00  0.00     0.167 HD
ATOM     43  C   UNL     1       8.085  -5.447  -4.917  1.00  0.00     0.034 A 
ATOM     44  C   UNL     1       7.409  -6.878   1.888  1.00  0.00     0.034 A 
ATOM     45  C   UNL     1       9.290  -5.896  -4.269  1.00  0.00     0.049 A 
ATOM     46  C   UNL     1       8.709  -7.122   1.144  1.00  0.00     0.074 A 
ATOM     47  C   UNL     1      10.549  -6.065  -4.820  1.00  0.00     0.029 A 
ATOM     48  N   UNL     1       9.384  -6.283  -2.940  1.00  0.00    -0.354 N 
ATOM     49  N   UNL     1       9.005  -6.879  -0.112  1.00  0.00    -0.248 NA
ATOM     50  C   UNL     1       9.818  -7.710   1.912  1.00  0.00     0.031 C 
ATOM     51  C   UNL     1      11.380  -6.633  -3.850  1.00  0.00     0.029 A 
ATOM     52  C   UNL     1      10.668  -6.730  -2.666  1.00  0.00     0.049 A 
ATOM     53  H   UNL     1       8.648  -6.246  -2.288  1.00  0.00     0.167 HD
ATOM     54  C   UNL     1      10.343  -7.245  -0.267  1.00  0.00     0.074 A 
ATOM     55  C   UNL     1      10.799  -7.713   1.022  1.00  0.00     0.031 C 
ATOM     56  C   UNL     1      11.125  -7.193  -1.376  1.00  0.00     0.034 A 
BRANCH  43  57
ATOM     57  C   UNL     1       8.125  -5.142  -6.393  1.00  0.00     0.023 A 
ATOM     58  C   UNL     1       7.880  -3.848  -6.883  1.00  0.00     0.031 A 
ATOM     59  C   UNL     1       8.369  -6.168  -7.321  1.00  0.00     0.131 A 
ATOM     60  C   UNL     1       7.822  -3.627  -8.267  1.00  0.00     0.055 A 
ATOM     61  C   UNL     1       8.386  -5.926  -8.695  1.00  0.00     0.041 A 
ATOM     62  F   UNL     1       8.579  -7.428  -6.908  1.00  0.00    -0.206 F 
ATOM     63  C   UNL     1       8.098  -4.652  -9.176  1.00  0.00     0.022 A 
BRANCH  60  64
ATOM     64  S   UNL     1       7.242  -2.016  -8.864  1.00  0.00     0.124 S 
ATOM     65  O   UNL     1       5.905  -1.949  -8.281  1.00  0.00    -0.237 OA
ATOM     66  O   UNL     1       8.229  -1.098  -8.307  1.00  0.00    -0.237 OA
ATOM     67  O   UNL     1       7.274  -2.158 -10.318  1.00  0.00    -0.744 OA
ENDBRANCH  60  64
ENDBRANCH  43  57
BRANCH  44  68
ATOM     68  C   UNL     1       7.317  -7.236   3.341  1.00  0.00     0.023 A 
ATOM     69  C   UNL     1       8.164  -6.645   4.296  1.00  0.00     0.031 A 
ATOM     70  C   UNL     1       6.471  -8.273   3.775  1.00  0.00     0.131 A 
ATOM     71  C   UNL     1       8.196  -7.140   5.612  1.00  0.00     0.055 A 
ATOM     72  C   UNL     1       6.458  -8.716   5.100  1.00  0.00     0.041 A 
ATOM     73  F   UNL     1       5.654  -8.893   2.908  1.00  0.00    -0.206 F 
ATOM     74  C   UNL     1       7.338  -8.161   6.023  1.00  0.00     0.022 A 
BRANCH  71  75
ATOM     75  S   UNL     1       9.474  -6.526   6.748  1.00  0.00     0.124 S 
ATOM     76  O   UNL     1      10.696  -6.851   6.021  1.00  0.00    -0.237 OA
ATOM     77  O   UNL     1       9.141  -5.108   6.842  1.00  0.00    -0.237 OA
ATOM     78  O   UNL     1       9.247  -7.299   7.967  1.00  0.00    -0.744 OA
ENDBRANCH  71  75
ENDBRANCH  44  68
BRANCH  56  79
ATOM     79  C   UNL     1      12.578  -7.587  -1.234  1.00  0.00     0.023 A 
ATOM     80  C   UNL     1      12.975  -8.902  -0.930  1.00  0.00     0.031 A 
ATOM     81  C   UNL     1      13.587  -6.623  -1.421  1.00  0.00     0.131 A 
ATOM     82  C   UNL     1      14.338  -9.205  -0.777  1.00  0.00     0.055 A 
ATOM     83  C   UNL     1      14.942  -6.944  -1.330  1.00  0.00     0.041 A 
ATOM     84  F   UNL     1      13.271  -5.350  -1.710  1.00  0.00    -0.206 F 
ATOM     85  C   UNL     1      15.324  -8.239  -0.994  1.00  0.00     0.022 A 
BRANCH  82  86
ATOM     86  S   UNL     1      14.809 -10.863  -0.208  1.00  0.00     0.124 S 
ATOM     87  O   UNL     1      14.105 -10.959   1.067  1.00  0.00    -0.237 OA
ATOM     88  O   UNL     1      14.306 -11.716  -1.280  1.00  0.00    -0.237 OA
ATOM     89  O   UNL     1      16.266 -10.790  -0.107  1.00  0.00    -0.744 OA
ENDBRANCH  82  86
ENDBRANCH  56  79
ENDBRANCH  30  31
ENDBRANCH  23  25
ENDBRANCH  22  23
ENDBRANCH  21  22
ENDBRANCH   1  21
TORSDOF 18
