REMARK SMILES O=C(OCCOC(=O)c1ccc(N[C@@H]2CCCS(=O)(=O)C2)c(F)c1F)c1ccc(-c2c3nc(c(-c4cc(S(=O)(=O)[O-])ccc4F)c4ccc([nH]4)c(-c4cc(S(=O)(=O)[O-])ccc4F)c4nc(c(-c5cc(S(=O)(=O)[O-])ccc5F)c5ccc2[nH]5)C=C4)C=C3)cc1
REMARK SMILES IDX 4 1 3 2 2 3 1 4 26 5 27 6 88 7 28 8 87 9 29 10 30 11 31 12
REMARK SMILES IDX 81 13 32 14 86 15 80 16 82 17 33 18 85 19 79 20 78 21 34 23
REMARK SMILES IDX 66 24 46 25 65 26 47 27 50 28 64 29 83 30 48 31 49 32 63 34
REMARK SMILES IDX 84 35 51 36 35 37 36 38 44 39 37 40 43 41 45 42 42 43 38 44
REMARK SMILES IDX 39 45 40 46 41 47 67 48 68 49 76 50 69 51 75 52 77 53 74 54
REMARK SMILES IDX 70 55 71 56 72 57 73 58 52 59 53 60 61 61 54 62 60 63 62 64
REMARK SMILES IDX 59 65 55 66 56 67 57 68 58 69 5 70 6 71 7 72 8 73 9 74 10 75
REMARK SMILES IDX 24 76 11 77 22 78 25 79 12 80 23 81 13 82 14 84 15 85 21 86
REMARK SMILES IDX 16 87 18 88 17 89 19 90 20 91
REMARK H PARENT 82 22 50 33 13 83
REMARK Flexibility Score: inf
ROOT
ATOM      1  C   UNL     1       4.476  -1.133   0.684  1.00  0.00     0.275 C 
ENDROOT
BRANCH   1   2
ATOM      2  O   UNL     1       3.355  -0.266   0.928  1.00  0.00    -0.458 OA
BRANCH   2   3
ATOM      3  C   UNL     1       3.090   0.978   0.459  1.00  0.00     0.338 C 
ATOM      4  O   UNL     1       2.199   1.618   1.017  1.00  0.00    -0.246 OA
BRANCH   3   5
ATOM      5  C   UNL     1       3.710   1.584  -0.778  1.00  0.00     0.060 A 
ATOM      6  C   UNL     1       4.919   1.224  -1.384  1.00  0.00     0.016 A 
ATOM      7  C   UNL     1       2.987   2.626  -1.388  1.00  0.00     0.016 A 
ATOM      8  C   UNL     1       5.391   1.861  -2.550  1.00  0.00     0.010 A 
ATOM      9  C   UNL     1       3.439   3.250  -2.565  1.00  0.00     0.010 A 
ATOM     10  C   UNL     1       4.669   2.892  -3.150  1.00  0.00    -0.014 A 
BRANCH  10  11
ATOM     11  C   UNL     1       5.304   3.808  -4.153  1.00  0.00     0.031 A 
ATOM     12  C   UNL     1       5.679   5.176  -3.636  1.00  0.00     0.074 A 
ATOM     13  C   UNL     1       5.663   3.470  -5.415  1.00  0.00     0.049 A 
ATOM     14  N   UNL     1       6.088   6.230  -4.287  1.00  0.00    -0.248 NA
ATOM     15  C   UNL     1       5.633   5.357  -2.171  1.00  0.00     0.031 C 
ATOM     16  C   UNL     1       5.687   2.115  -5.966  1.00  0.00     0.029 A 
ATOM     17  N   UNL     1       6.071   4.248  -6.488  1.00  0.00    -0.354 N 
ATOM     18  C   UNL     1       6.418   7.164  -3.312  1.00  0.00     0.074 A 
ATOM     19  C   UNL     1       6.037   6.608  -2.035  1.00  0.00     0.031 C 
ATOM     20  C   UNL     1       6.006   2.172  -7.277  1.00  0.00     0.029 A 
ATOM     21  C   UNL     1       6.115   3.562  -7.700  1.00  0.00     0.049 A 
ATOM     22  H   UNL     1       6.308   5.200  -6.401  1.00  0.00     0.167 HD
ATOM     23  C   UNL     1       7.052   8.350  -3.470  1.00  0.00     0.034 A 
ATOM     24  C   UNL     1       6.129   4.043  -8.974  1.00  0.00     0.034 A 
ATOM     25  C   UNL     1       7.387   8.883  -4.761  1.00  0.00     0.049 A 
ATOM     26  C   UNL     1       6.317   5.532  -9.128  1.00  0.00     0.074 A 
ATOM     27  C   UNL     1       8.060  10.048  -5.076  1.00  0.00     0.029 A 
ATOM     28  N   UNL     1       7.029   8.289  -5.964  1.00  0.00    -0.354 N 
ATOM     29  N   UNL     1       6.445   6.452  -8.203  1.00  0.00    -0.248 NA
ATOM     30  C   UNL     1       6.395   6.038 -10.507  1.00  0.00     0.031 C 
ATOM     31  C   UNL     1       8.010  10.213  -6.464  1.00  0.00     0.029 A 
ATOM     32  C   UNL     1       7.397   9.101  -7.018  1.00  0.00     0.049 A 
ATOM     33  H   UNL     1       6.579   7.417  -6.052  1.00  0.00     0.167 HD
ATOM     34  C   UNL     1       6.718   7.624  -8.892  1.00  0.00     0.074 A 
ATOM     35  C   UNL     1       6.583   7.330 -10.303  1.00  0.00     0.031 C 
ATOM     36  C   UNL     1       7.175   8.803  -8.408  1.00  0.00     0.034 A 
BRANCH  23  37
ATOM     37  C   UNL     1       7.356   9.139  -2.223  1.00  0.00     0.023 A 
ATOM     38  C   UNL     1       8.178   8.621  -1.205  1.00  0.00     0.031 A 
ATOM     39  C   UNL     1       6.740  10.381  -2.006  1.00  0.00     0.131 A 
ATOM     40  C   UNL     1       8.268   9.287   0.025  1.00  0.00     0.055 A 
ATOM     41  C   UNL     1       6.913  11.088  -0.816  1.00  0.00     0.041 A 
ATOM     42  F   UNL     1       5.926  10.912  -2.932  1.00  0.00    -0.206 F 
ATOM     43  C   UNL     1       7.661  10.530   0.218  1.00  0.00     0.022 A 
BRANCH  40  44
ATOM     44  S   UNL     1       9.006   8.408   1.431  1.00  0.00     0.124 S 
ATOM     45  O   UNL     1       8.187   7.200   1.488  1.00  0.00    -0.237 OA
ATOM     46  O   UNL     1      10.386   8.223   1.000  1.00  0.00    -0.237 OA
ATOM     47  O   UNL     1       8.819   9.331   2.549  1.00  0.00    -0.744 OA
ENDBRANCH  40  44
ENDBRANCH  23  37
BRANCH  24  48
ATOM     48  C   UNL     1       5.727   3.283 -10.225  1.00  0.00     0.023 A 
ATOM     49  C   UNL     1       6.455   2.291 -10.901  1.00  0.00     0.031 A 
ATOM     50  C   UNL     1       4.494   3.668 -10.817  1.00  0.00     0.131 A 
ATOM     51  C   UNL     1       5.899   1.686 -12.062  1.00  0.00     0.055 A 
ATOM     52  C   UNL     1       3.920   3.011 -11.910  1.00  0.00     0.041 A 
ATOM     53  F   UNL     1       3.800   4.691 -10.289  1.00  0.00    -0.206 F 
ATOM     54  C   UNL     1       4.609   1.982 -12.516  1.00  0.00     0.022 A 
BRANCH  51  55
ATOM     55  S   UNL     1       6.891   0.577 -13.108  1.00  0.00     0.124 S 
ATOM     56  O   UNL     1       7.578   1.534 -13.971  1.00  0.00    -0.237 OA
ATOM     57  O   UNL     1       7.727  -0.132 -12.146  1.00  0.00    -0.237 OA
ATOM     58  O   UNL     1       5.886  -0.251 -13.776  1.00  0.00    -0.744 OA
ENDBRANCH  51  55
ENDBRANCH  24  48
BRANCH  36  59
ATOM     59  C   UNL     1       7.693   9.763  -9.435  1.00  0.00     0.023 A 
ATOM     60  C   UNL     1       6.848  10.449 -10.318  1.00  0.00     0.031 A 
ATOM     61  C   UNL     1       9.085   9.902  -9.582  1.00  0.00     0.131 A 
ATOM     62  C   UNL     1       7.414  11.200 -11.356  1.00  0.00     0.055 A 
ATOM     63  C   UNL     1       9.638  10.716 -10.564  1.00  0.00     0.041 A 
ATOM     64  F   UNL     1       9.927   9.228  -8.781  1.00  0.00    -0.206 F 
ATOM     65  C   UNL     1       8.800  11.361 -11.467  1.00  0.00     0.022 A 
BRANCH  62  66
ATOM     66  S   UNL     1       6.320  11.861 -12.638  1.00  0.00     0.124 S 
ATOM     67  O   UNL     1       5.839  10.639 -13.275  1.00  0.00    -0.237 OA
ATOM     68  O   UNL     1       5.335  12.606 -11.861  1.00  0.00    -0.237 OA
ATOM     69  O   UNL     1       7.212  12.680 -13.457  1.00  0.00    -0.744 OA
ENDBRANCH  62  66
ENDBRANCH  36  59
ENDBRANCH  10  11
ENDBRANCH   3   5
ENDBRANCH   2   3
ENDBRANCH   1   2
BRANCH   1  70
ATOM     70  C   UNL     1       4.262  -2.096  -0.486  1.00  0.00     0.275 C 
BRANCH  70  71
ATOM     71  O   UNL     1       3.635  -1.453  -1.601  1.00  0.00    -0.458 OA
BRANCH  71  72
ATOM     72  C   UNL     1       2.279  -1.542  -1.645  1.00  0.00     0.341 C 
ATOM     73  O   UNL     1       1.563  -2.237  -0.949  1.00  0.00    -0.246 OA
BRANCH  72  74
ATOM     74  C   UNL     1       1.805  -0.573  -2.641  1.00  0.00     0.099 A 
ATOM     75  C   UNL     1       2.446  -0.470  -3.873  1.00  0.00     0.021 A 
ATOM     76  C   UNL     1       0.757   0.286  -2.330  1.00  0.00     0.175 A 
ATOM     77  C   UNL     1       2.025   0.494  -4.786  1.00  0.00     0.030 A 
ATOM     78  C   UNL     1       0.381   1.277  -3.233  1.00  0.00     0.182 A 
ATOM     79  F   UNL     1       0.137   0.216  -1.144  1.00  0.00    -0.203 F 
ATOM     80  C   UNL     1       1.006   1.411  -4.483  1.00  0.00     0.074 A 
ATOM     81  F   UNL     1      -0.605   2.129  -2.904  1.00  0.00    -0.201 F 
BRANCH  80  82
ATOM     82  N   UNL     1       0.552   2.380  -5.368  1.00  0.00    -0.379 N 
ATOM     83  H   UNL     1       0.093   3.160  -4.981  1.00  0.00     0.160 HD
BRANCH  82  84
ATOM     84  C   UNL     1       0.697   2.346  -6.826  1.00  0.00     0.094 C 
ATOM     85  C   UNL     1      -0.001   1.061  -7.345  1.00  0.00     0.027 C 
ATOM     86  C   UNL     1       2.136   2.639  -7.219  1.00  0.00     0.161 C 
ATOM     87  C   UNL     1       0.238   0.690  -8.798  1.00  0.00     0.018 C 
ATOM     88  S   UNL     1       2.489   2.074  -8.844  1.00  0.00     0.152 S 
ATOM     89  C   UNL     1       1.708   0.522  -9.021  1.00  0.00     0.137 C 
ATOM     90  O   UNL     1       3.885   1.712  -8.905  1.00  0.00    -0.229 OA
ATOM     91  O   UNL     1       1.833   2.977  -9.761  1.00  0.00    -0.229 OA
ENDBRANCH  82  84
ENDBRANCH  80  82
ENDBRANCH  72  74
ENDBRANCH  71  72
ENDBRANCH  70  71
ENDBRANCH   1  70
TORSDOF 16
