REMARK SMILES CC(C)(C)OC(=O)N1C[C@H](Oc2ccncc2)C[C@H]1C(=O)OCCOC(=O)c1ccc(-c2c3nc(c(-c4cc(S(=O)(=O)[O-])ccc4F)c4ccc([nH]4)c(-c4cc(S(=O)(=O)[O-])ccc4F)c4nc(c(-c5cc(S(=O)(=O)[O-])ccc5F)c5ccc2[nH]5)C=C4)C=C3)cc1
REMARK SMILES IDX 23 1 22 2 20 3 21 4 19 5 8 6 9 7 10 8 18 9 6 10 7 11 5 12
REMARK SMILES IDX 2 13 1 14 3 15 4 16 11 17 12 18 13 19 17 20 14 21 16 22
REMARK SMILES IDX 15 23 24 24 25 25 26 26 27 27 28 28 29 29 90 30 30 31 89 32
REMARK SMILES IDX 31 33 32 34 33 35 83 36 34 37 88 38 82 39 84 40 35 41 87 42
REMARK SMILES IDX 81 43 80 44 36 46 68 47 48 48 67 49 49 50 52 51 66 52 85 53
REMARK SMILES IDX 50 54 51 55 65 57 86 58 53 59 37 60 38 61 46 62 39 63 45 64
REMARK SMILES IDX 47 65 44 66 40 67 41 68 42 69 43 70 69 71 70 72 78 73 71 74
REMARK SMILES IDX 77 75 79 76 76 77 72 78 73 79 74 80 75 81 54 82 55 83 63 84
REMARK SMILES IDX 56 85 62 86 64 87 61 88 57 89 58 90 59 91 60 92
REMARK H PARENT 84 45 52 56
REMARK Flexibility Score: inf
ROOT
ATOM      1  C   UNL     1      -0.744   6.544  -4.702  1.00  0.00     0.274 C 
ENDROOT
BRANCH   1   2
ATOM      2  O   UNL     1      -0.825   6.146  -3.323  1.00  0.00    -0.461 OA
BRANCH   2   3
ATOM      3  C   UNL     1       0.350   6.046  -2.643  1.00  0.00     0.329 C 
ATOM      4  O   UNL     1       1.456   6.304  -3.103  1.00  0.00    -0.250 OA
BRANCH   3   5
ATOM      5  C   UNL     1       0.112   5.511  -1.228  1.00  0.00     0.202 C 
ATOM      6  N   UNL     1       0.935   4.329  -1.062  1.00  0.00    -0.291 N 
ATOM      7  C   UNL     1       2.163   4.622  -0.348  1.00  0.00     0.169 C 
ATOM      8  C   UNL     1       1.803   5.816   0.538  1.00  0.00     0.195 C 
ATOM      9  C   UNL     1       0.555   6.455  -0.111  1.00  0.00     0.084 C 
BRANCH   6  10
ATOM     10  C   UNL     1       0.521   3.146  -1.591  1.00  0.00     0.411 C 
ATOM     11  O   UNL     1      -0.349   3.078  -2.451  1.00  0.00    -0.224 OA
BRANCH  10  12
ATOM     12  O   UNL     1       1.104   2.084  -0.989  1.00  0.00    -0.444 OA
BRANCH  12  13
ATOM     13  C   UNL     1       0.602   0.754  -1.268  1.00  0.00     0.106 C 
ATOM     14  C   UNL     1       1.222  -0.133  -0.180  1.00  0.00     0.056 C 
ATOM     15  C   UNL     1       1.095   0.302  -2.643  1.00  0.00     0.056 C 
ATOM     16  C   UNL     1      -0.928   0.644  -1.142  1.00  0.00     0.056 C 
ENDBRANCH  12  13
ENDBRANCH  10  12
ENDBRANCH   6  10
BRANCH   8  17
ATOM     17  O   UNL     1       1.683   5.484   1.936  1.00  0.00    -0.488 OA
BRANCH  17  18
ATOM     18  C   UNL     1       0.558   4.797   2.288  1.00  0.00     0.122 A 
ATOM     19  C   UNL     1       0.457   3.429   2.092  1.00  0.00     0.066 A 
ATOM     20  C   UNL     1      -0.475   5.489   2.907  1.00  0.00     0.066 A 
ATOM     21  C   UNL     1      -0.740   2.820   2.417  1.00  0.00     0.115 A 
ATOM     22  C   UNL     1      -1.632   4.791   3.196  1.00  0.00     0.115 A 
ATOM     23  N   UNL     1      -1.797   3.472   2.948  1.00  0.00    -0.264 NA
ENDBRANCH  17  18
ENDBRANCH   8  17
ENDBRANCH   3   5
ENDBRANCH   2   3
ENDBRANCH   1   2
BRANCH   1  24
ATOM     24  C   UNL     1      -1.283   7.962  -4.880  1.00  0.00     0.275 C 
BRANCH  24  25
ATOM     25  O   UNL     1      -0.398   8.924  -4.278  1.00  0.00    -0.458 OA
BRANCH  25  26
ATOM     26  C   UNL     1      -0.701   9.244  -3.001  1.00  0.00     0.338 C 
ATOM     27  O   UNL     1      -1.642   8.843  -2.337  1.00  0.00    -0.246 OA
BRANCH  26  28
ATOM     28  C   UNL     1       0.356  10.084  -2.428  1.00  0.00     0.060 A 
ATOM     29  C   UNL     1       1.451   9.448  -1.855  1.00  0.00     0.016 A 
ATOM     30  C   UNL     1       0.176  11.454  -2.269  1.00  0.00     0.016 A 
ATOM     31  C   UNL     1       2.280  10.140  -0.986  1.00  0.00     0.010 A 
ATOM     32  C   UNL     1       1.113  12.180  -1.525  1.00  0.00     0.010 A 
ATOM     33  C   UNL     1       2.157  11.527  -0.843  1.00  0.00    -0.014 A 
BRANCH  33  34
ATOM     34  C   UNL     1       3.123  12.280   0.008  1.00  0.00     0.031 A 
ATOM     35  C   UNL     1       2.624  13.188   1.101  1.00  0.00     0.074 A 
ATOM     36  C   UNL     1       4.450  12.154  -0.206  1.00  0.00     0.049 A 
ATOM     37  N   UNL     1       3.270  14.106   1.772  1.00  0.00    -0.248 NA
ATOM     38  C   UNL     1       1.207  13.060   1.470  1.00  0.00     0.031 C 
ATOM     39  C   UNL     1       5.072  11.263  -1.191  1.00  0.00     0.029 A 
ATOM     40  N   UNL     1       5.520  12.776   0.388  1.00  0.00    -0.354 N 
ATOM     41  C   UNL     1       2.325  14.712   2.595  1.00  0.00     0.074 A 
ATOM     42  C   UNL     1       1.061  14.056   2.332  1.00  0.00     0.031 C 
ATOM     43  C   UNL     1       6.404  11.366  -1.105  1.00  0.00     0.029 A 
ATOM     44  C   UNL     1       6.732  12.425  -0.163  1.00  0.00     0.049 A 
ATOM     45  H   UNL     1       5.430  13.411   1.135  1.00  0.00     0.167 HD
ATOM     46  C   UNL     1       2.504  15.727   3.478  1.00  0.00     0.034 A 
ATOM     47  C   UNL     1       7.963  12.945   0.002  1.00  0.00     0.034 A 
ATOM     48  C   UNL     1       3.788  16.330   3.749  1.00  0.00     0.049 A 
ATOM     49  C   UNL     1       8.127  14.115   0.931  1.00  0.00     0.074 A 
ATOM     50  C   UNL     1       4.095  17.342   4.643  1.00  0.00     0.029 A 
ATOM     51  N   UNL     1       4.982  15.974   3.131  1.00  0.00    -0.354 N 
ATOM     52  N   UNL     1       7.217  14.725   1.654  1.00  0.00    -0.248 NA
ATOM     53  C   UNL     1       9.476  14.678   1.052  1.00  0.00     0.031 C 
ATOM     54  C   UNL     1       5.455  17.645   4.514  1.00  0.00     0.029 A 
ATOM     55  C   UNL     1       6.017  16.770   3.598  1.00  0.00     0.049 A 
ATOM     56  H   UNL     1       5.078  15.261   2.460  1.00  0.00     0.167 HD
ATOM     57  C   UNL     1       7.888  15.741   2.325  1.00  0.00     0.074 A 
ATOM     58  C   UNL     1       9.281  15.645   1.937  1.00  0.00     0.031 C 
ATOM     59  C   UNL     1       7.397  16.671   3.183  1.00  0.00     0.034 A 
BRANCH  46  60
ATOM     60  C   UNL     1       1.277  16.294   4.155  1.00  0.00     0.023 A 
ATOM     61  C   UNL     1       0.480  15.537   5.030  1.00  0.00     0.031 A 
ATOM     62  C   UNL     1       0.884  17.621   3.894  1.00  0.00     0.131 A 
ATOM     63  C   UNL     1      -0.703  16.084   5.553  1.00  0.00     0.055 A 
ATOM     64  C   UNL     1      -0.249  18.186   4.482  1.00  0.00     0.041 A 
ATOM     65  F   UNL     1       1.590  18.390   3.050  1.00  0.00    -0.206 F 
ATOM     66  C   UNL     1      -1.060  17.412   5.305  1.00  0.00     0.022 A 
BRANCH  63  67
ATOM     67  S   UNL     1      -1.847  14.991   6.440  1.00  0.00     0.124 S 
ATOM     68  O   UNL     1      -2.112  13.963   5.436  1.00  0.00    -0.237 OA
ATOM     69  O   UNL     1      -1.055  14.572   7.590  1.00  0.00    -0.237 OA
ATOM     70  O   UNL     1      -2.983  15.858   6.747  1.00  0.00    -0.744 OA
ENDBRANCH  63  67
ENDBRANCH  46  60
BRANCH  47  71
ATOM     71  C   UNL     1       9.107  12.431  -0.806  1.00  0.00     0.023 A 
ATOM     72  C   UNL     1      10.213  11.824  -0.194  1.00  0.00     0.031 A 
ATOM     73  C   UNL     1       9.114  12.551  -2.209  1.00  0.00     0.131 A 
ATOM     74  C   UNL     1      11.291  11.384  -0.980  1.00  0.00     0.055 A 
ATOM     75  C   UNL     1      10.158  12.057  -2.990  1.00  0.00     0.041 A 
ATOM     76  F   UNL     1       8.082  13.127  -2.847  1.00  0.00    -0.206 F 
ATOM     77  C   UNL     1      11.262  11.478  -2.374  1.00  0.00     0.022 A 
BRANCH  74  78
ATOM     78  S   UNL     1      12.772  10.753  -0.146  1.00  0.00     0.124 S 
ATOM     79  O   UNL     1      13.148  11.887   0.690  1.00  0.00    -0.237 OA
ATOM     80  O   UNL     1      12.250   9.584   0.554  1.00  0.00    -0.237 OA
ATOM     81  O   UNL     1      13.684  10.460  -1.249  1.00  0.00    -0.744 OA
ENDBRANCH  74  78
ENDBRANCH  47  71
BRANCH  59  82
ATOM     82  C   UNL     1       8.393  17.630   3.783  1.00  0.00     0.023 A 
ATOM     83  C   UNL     1       9.034  18.609   3.005  1.00  0.00     0.031 A 
ATOM     84  C   UNL     1       8.713  17.552   5.150  1.00  0.00     0.131 A 
ATOM     85  C   UNL     1      10.001  19.440   3.589  1.00  0.00     0.055 A 
ATOM     86  C   UNL     1       9.632  18.421   5.738  1.00  0.00     0.041 A 
ATOM     87  F   UNL     1       8.133  16.631   5.936  1.00  0.00    -0.206 F 
ATOM     88  C   UNL     1      10.290  19.364   4.954  1.00  0.00     0.022 A 
BRANCH  85  89
ATOM     89  S   UNL     1      10.936  20.571   2.524  1.00  0.00     0.124 S 
ATOM     90  O   UNL     1      11.598  19.647   1.609  1.00  0.00    -0.237 OA
ATOM     91  O   UNL     1       9.883  21.398   1.944  1.00  0.00    -0.237 OA
ATOM     92  O   UNL     1      11.823  21.265   3.456  1.00  0.00    -0.744 OA
ENDBRANCH  85  89
ENDBRANCH  59  82
ENDBRANCH  33  34
ENDBRANCH  26  28
ENDBRANCH  25  26
ENDBRANCH  24  25
ENDBRANCH   1  24
TORSDOF 19
