REMARK SMILES Cc1ccccc1C[C@H](C[C@@H]1Cc2ccccc21)C(=O)OCCOC(=O)c1ccc(-c2c3nc(c(-c4cc(S(=O)(=O)[O-])ccc4F)c4ccc([nH]4)c(-c4cc(S(=O)(=O)[O-])ccc4F)c4nc(c(-c5cc(S(=O)(=O)[O-])ccc5F)c5ccc2[nH]5)C=C4)C=C3)cc1
REMARK SMILES IDX 23 1 22 2 21 3 19 4 20 5 9 6 8 7 7 8 1 9 2 10 3 11 4 12 6 13
REMARK SMILES IDX 5 14 10 15 11 16 12 17 18 18 13 19 17 20 14 21 16 22 15 23
REMARK SMILES IDX 24 24 25 25 26 26 27 27 28 28 89 29 29 30 88 31 30 32 31 33
REMARK SMILES IDX 32 34 82 35 33 36 87 37 81 38 83 39 34 40 86 41 80 42 79 43
REMARK SMILES IDX 35 45 67 46 47 47 66 48 48 49 51 50 65 51 84 52 49 53 50 54
REMARK SMILES IDX 64 56 85 57 52 58 36 59 37 60 45 61 38 62 44 63 46 64 43 65
REMARK SMILES IDX 39 66 40 67 41 68 42 69 68 70 69 71 77 72 70 73 76 74 78 75
REMARK SMILES IDX 75 76 71 77 72 78 73 79 74 80 53 81 54 82 62 83 55 84 61 85
REMARK SMILES IDX 63 86 60 87 56 88 57 89 58 90 59 91
REMARK H PARENT 83 44 51 55
REMARK Flexibility Score: inf
ROOT
ATOM      1  C   UNL     1      -1.422  -1.543  -0.413  1.00  0.00     0.275 C 
ENDROOT
BRANCH   1   2
ATOM      2  C   UNL     1      -0.634  -0.449  -1.168  1.00  0.00     0.274 C 
BRANCH   2   3
ATOM      3  O   UNL     1      -0.982   0.865  -0.711  1.00  0.00    -0.462 OA
BRANCH   3   4
ATOM      4  C   UNL     1      -0.508   1.245   0.496  1.00  0.00     0.309 C 
ATOM      5  O   UNL     1       0.341   0.631   1.120  1.00  0.00    -0.252 OA
BRANCH   4   6
ATOM      6  C   UNL     1      -1.241   2.498   0.953  1.00  0.00     0.104 C 
BRANCH   6   7
ATOM      7  C   UNL     1      -0.700   3.766   0.273  1.00  0.00     0.051 C 
BRANCH   7   8
ATOM      8  C   UNL     1       0.723   3.685  -0.229  1.00  0.00    -0.044 A 
ATOM      9  C   UNL     1       0.136   3.732  -2.756  1.00  0.00     0.044 C 
ATOM     10  C   UNL     1       1.082   3.615  -1.595  1.00  0.00    -0.048 A 
ATOM     11  C   UNL     1       2.430   3.428  -1.938  1.00  0.00     0.004 A 
ATOM     12  C   UNL     1       3.407   3.282  -0.959  1.00  0.00     0.000 A 
ATOM     13  C   UNL     1       1.733   3.584   0.743  1.00  0.00     0.004 A 
ATOM     14  C   UNL     1       3.058   3.364   0.382  1.00  0.00     0.000 A 
ENDBRANCH   7   8
ENDBRANCH   6   7
BRANCH   6  15
ATOM     15  C   UNL     1      -1.421   2.639   2.477  1.00  0.00     0.024 C 
BRANCH  15  16
ATOM     16  C   UNL     1      -1.926   1.335   3.105  1.00  0.00     0.025 C 
ATOM     17  C   UNL     1      -2.869   1.417   4.366  1.00  0.00     0.044 C 
ATOM     18  C   UNL     1      -0.926   0.698   4.038  1.00  0.00    -0.041 A 
ATOM     19  C   UNL     1      -1.756   0.760   5.128  1.00  0.00    -0.044 A 
ATOM     20  C   UNL     1       0.345   0.178   4.117  1.00  0.00     0.004 A 
ATOM     21  C   UNL     1      -1.369   0.284   6.358  1.00  0.00     0.004 A 
ATOM     22  C   UNL     1       0.772  -0.303   5.351  1.00  0.00     0.000 A 
ATOM     23  C   UNL     1      -0.082  -0.254   6.466  1.00  0.00     0.000 A 
ENDBRANCH  15  16
ENDBRANCH   6  15
ENDBRANCH   4   6
ENDBRANCH   3   4
ENDBRANCH   2   3
ENDBRANCH   1   2
BRANCH   1  24
ATOM     24  O   UNL     1      -2.854  -1.544  -0.657  1.00  0.00    -0.458 OA
BRANCH  24  25
ATOM     25  C   UNL     1      -3.670  -0.710   0.070  1.00  0.00     0.338 C 
ATOM     26  O   UNL     1      -3.922  -0.830   1.242  1.00  0.00    -0.246 OA
BRANCH  25  27
ATOM     27  C   UNL     1      -4.024   0.491  -0.754  1.00  0.00     0.060 A 
ATOM     28  C   UNL     1      -4.620   1.658  -0.232  1.00  0.00     0.016 A 
ATOM     29  C   UNL     1      -3.439   0.543  -1.997  1.00  0.00     0.016 A 
ATOM     30  C   UNL     1      -4.532   2.887  -0.940  1.00  0.00     0.010 A 
ATOM     31  C   UNL     1      -3.068   1.768  -2.476  1.00  0.00     0.010 A 
ATOM     32  C   UNL     1      -3.712   2.952  -2.066  1.00  0.00    -0.014 A 
BRANCH  32  33
ATOM     33  C   UNL     1      -3.556   4.014  -3.083  1.00  0.00     0.031 A 
ATOM     34  C   UNL     1      -2.867   5.330  -2.971  1.00  0.00     0.074 A 
ATOM     35  C   UNL     1      -3.763   3.506  -4.329  1.00  0.00     0.049 A 
ATOM     36  N   UNL     1      -2.616   6.048  -4.015  1.00  0.00    -0.248 NA
ATOM     37  C   UNL     1      -2.357   5.979  -1.768  1.00  0.00     0.031 C 
ATOM     38  C   UNL     1      -3.161   3.841  -5.613  1.00  0.00     0.029 A 
ATOM     39  N   UNL     1      -4.563   2.435  -4.677  1.00  0.00    -0.354 N 
ATOM     40  C   UNL     1      -1.648   6.979  -3.723  1.00  0.00     0.074 A 
ATOM     41  C   UNL     1      -1.578   6.951  -2.282  1.00  0.00     0.031 C 
ATOM     42  C   UNL     1      -3.832   3.202  -6.592  1.00  0.00     0.029 A 
ATOM     43  C   UNL     1      -4.985   2.564  -5.980  1.00  0.00     0.049 A 
ATOM     44  H   UNL     1      -4.797   1.689  -4.079  1.00  0.00     0.167 HD
ATOM     45  C   UNL     1      -0.980   7.542  -4.779  1.00  0.00     0.034 A 
ATOM     46  C   UNL     1      -6.304   2.876  -6.170  1.00  0.00     0.034 A 
ATOM     47  C   UNL     1      -1.682   7.258  -6.041  1.00  0.00     0.049 A 
ATOM     48  C   UNL     1      -6.445   4.276  -6.731  1.00  0.00     0.074 A 
ATOM     49  C   UNL     1      -1.399   6.530  -7.184  1.00  0.00     0.029 A 
ATOM     50  N   UNL     1      -3.017   7.631  -6.140  1.00  0.00    -0.354 N 
ATOM     51  N   UNL     1      -5.482   5.155  -6.740  1.00  0.00    -0.248 NA
ATOM     52  C   UNL     1      -7.650   4.782  -7.369  1.00  0.00     0.031 C 
ATOM     53  C   UNL     1      -2.610   6.404  -7.929  1.00  0.00     0.029 A 
ATOM     54  C   UNL     1      -3.612   7.081  -7.253  1.00  0.00     0.049 A 
ATOM     55  H   UNL     1      -3.479   8.214  -5.495  1.00  0.00     0.167 HD
ATOM     56  C   UNL     1      -5.873   6.293  -7.381  1.00  0.00     0.074 A 
ATOM     57  C   UNL     1      -7.245   6.003  -7.766  1.00  0.00     0.031 C 
ATOM     58  C   UNL     1      -5.021   7.356  -7.521  1.00  0.00     0.034 A 
BRANCH  45  59
ATOM     59  C   UNL     1       0.373   8.245  -4.787  1.00  0.00     0.023 A 
ATOM     60  C   UNL     1       0.968   8.562  -6.038  1.00  0.00     0.031 A 
ATOM     61  C   UNL     1       1.167   8.547  -3.667  1.00  0.00     0.131 A 
ATOM     62  C   UNL     1       2.270   9.091  -6.144  1.00  0.00     0.055 A 
ATOM     63  C   UNL     1       2.453   9.111  -3.769  1.00  0.00     0.041 A 
ATOM     64  F   UNL     1       0.758   8.304  -2.418  1.00  0.00    -0.206 F 
ATOM     65  C   UNL     1       3.016   9.378  -5.009  1.00  0.00     0.022 A 
BRANCH  62  66
ATOM     66  S   UNL     1       2.996   9.351  -7.790  1.00  0.00     0.124 S 
ATOM     67  O   UNL     1       3.101   7.986  -8.297  1.00  0.00    -0.237 OA
ATOM     68  O   UNL     1       2.012  10.208  -8.441  1.00  0.00    -0.237 OA
ATOM     69  O   UNL     1       4.276   9.997  -7.499  1.00  0.00    -0.744 OA
ENDBRANCH  62  66
ENDBRANCH  45  59
BRANCH  46  70
ATOM     70  C   UNL     1      -7.180   2.211  -5.130  1.00  0.00     0.023 A 
ATOM     71  C   UNL     1      -7.081   0.798  -5.043  1.00  0.00     0.031 A 
ATOM     72  C   UNL     1      -7.624   2.892  -3.982  1.00  0.00     0.131 A 
ATOM     73  C   UNL     1      -7.230   0.143  -3.807  1.00  0.00     0.055 A 
ATOM     74  C   UNL     1      -7.853   2.217  -2.769  1.00  0.00     0.041 A 
ATOM     75  F   UNL     1      -7.701   4.231  -3.967  1.00  0.00    -0.206 F 
ATOM     76  C   UNL     1      -7.616   0.845  -2.666  1.00  0.00     0.022 A 
BRANCH  73  77
ATOM     77  S   UNL     1      -6.575  -1.552  -3.643  1.00  0.00     0.124 S 
ATOM     78  O   UNL     1      -7.639  -2.348  -4.242  1.00  0.00    -0.237 OA
ATOM     79  O   UNL     1      -5.326  -1.473  -4.397  1.00  0.00    -0.237 OA
ATOM     80  O   UNL     1      -6.400  -1.710  -2.201  1.00  0.00    -0.744 OA
ENDBRANCH  73  77
ENDBRANCH  46  70
BRANCH  58  81
ATOM     81  C   UNL     1      -5.411   8.758  -7.938  1.00  0.00     0.023 A 
ATOM     82  C   UNL     1      -6.740   9.166  -8.084  1.00  0.00     0.031 A 
ATOM     83  C   UNL     1      -4.442   9.780  -8.117  1.00  0.00     0.131 A 
ATOM     84  C   UNL     1      -7.069  10.476  -8.466  1.00  0.00     0.055 A 
ATOM     85  C   UNL     1      -4.773  11.105  -8.413  1.00  0.00     0.041 A 
ATOM     86  F   UNL     1      -3.127   9.546  -7.994  1.00  0.00    -0.206 F 
ATOM     87  C   UNL     1      -6.097  11.459  -8.608  1.00  0.00     0.022 A 
BRANCH  84  88
ATOM     88  S   UNL     1      -8.805  10.827  -8.832  1.00  0.00     0.124 S 
ATOM     89  O   UNL     1      -9.072   9.902  -9.931  1.00  0.00    -0.237 OA
ATOM     90  O   UNL     1      -9.461  10.509  -7.568  1.00  0.00    -0.237 OA
ATOM     91  O   UNL     1      -8.802  12.241  -9.197  1.00  0.00    -0.744 OA
ENDBRANCH  84  88
ENDBRANCH  58  81
ENDBRANCH  32  33
ENDBRANCH  25  27
ENDBRANCH  24  25
ENDBRANCH   1  24
TORSDOF 18
