REMARK SMILES C=CC[N@H+](CC(=O)OCCOC(=O)c1ccc(-c2c3nc(c(-c4cc(S(=O)(=O)[O-])ccc4F)c4ccc([nH]4)c(-c4cc(S(=O)(=O)[O-])ccc4F)c4nc(c(-c5cc(S(=O)(=O)[O-])ccc5F)c5ccc2[nH]5)C=C4)C=C3)cc1)[C@H](C)c1ccc(F)cc1O
REMARK SMILES IDX 9 1 8 2 6 3 7 4 5 5 4 6 3 8 2 9 1 10 77 11 78 12 79 13 80 14
REMARK SMILES IDX 85 15 81 16 84 17 82 18 83 19 86 20 10 22 11 23 12 24 13 25
REMARK SMILES IDX 14 26 15 27 76 28 16 29 75 30 17 31 18 32 19 33 69 34 20 35
REMARK SMILES IDX 74 36 68 37 70 38 21 39 73 40 67 41 66 42 22 44 54 45 34 46
REMARK SMILES IDX 53 47 35 48 38 49 52 50 71 51 36 52 37 53 51 55 72 56 39 57
REMARK SMILES IDX 23 58 24 59 32 60 25 61 31 62 33 63 30 64 26 65 27 66 28 67
REMARK SMILES IDX 29 68 55 69 56 70 64 71 57 72 63 73 65 74 62 75 58 76 59 77
REMARK SMILES IDX 60 78 61 79 40 80 41 81 49 82 42 83 48 84 50 85 47 86 43 87
REMARK SMILES IDX 44 88 45 89 46 90
REMARK H PARENT 4 7 86 21 70 43 38 54
REMARK Flexibility Score: inf
ROOT
ATOM      1  C   UNL     1      -4.039  -3.042  -2.827  1.00  0.00     0.274 C 
ENDROOT
BRANCH   1   2
ATOM      2  O   UNL     1      -3.355  -2.280  -1.813  1.00  0.00    -0.458 OA
BRANCH   2   3
ATOM      3  C   UNL     1      -3.969  -2.215  -0.605  1.00  0.00     0.361 C 
ATOM      4  O   UNL     1      -5.069  -2.712  -0.374  1.00  0.00    -0.245 OA
BRANCH   3   5
ATOM      5  C   UNL     1      -3.257  -1.353   0.433  1.00  0.00     0.387 C 
BRANCH   5   6
ATOM      6  N   UNL     1      -1.771  -1.458   0.505  1.00  0.00    -0.316 N 
ATOM      7  H   UNL     1      -1.463  -2.405   0.282  1.00  0.00     0.349 HD
BRANCH   6   8
ATOM      8  C   UNL     1      -1.143  -0.620  -0.524  1.00  0.00     0.291 C 
BRANCH   8   9
ATOM      9  C   UNL     1       0.270  -0.994  -0.877  1.00  0.00     0.025 C 
ATOM     10  C   UNL     1       0.628  -2.048  -1.623  1.00  0.00     0.010 C 
ENDBRANCH   8   9
ENDBRANCH   6   8
BRANCH   6  11
ATOM     11  C   UNL     1      -1.308  -1.222   1.913  1.00  0.00     0.216 C 
ATOM     12  C   UNL     1      -1.968  -0.022   2.631  1.00  0.00     0.081 C 
BRANCH  11  13
ATOM     13  C   UNL     1       0.206  -1.319   2.137  1.00  0.00     0.051 A 
ATOM     14  C   UNL     1       0.772  -2.612   2.198  1.00  0.00     0.017 A 
ATOM     15  C   UNL     1       1.080  -0.230   2.314  1.00  0.00     0.127 A 
ATOM     16  C   UNL     1       2.136  -2.801   2.447  1.00  0.00     0.040 A 
ATOM     17  C   UNL     1       2.436  -0.414   2.583  1.00  0.00     0.085 A 
ATOM     18  C   UNL     1       2.953  -1.698   2.642  1.00  0.00     0.126 A 
ATOM     19  F   UNL     1       4.263  -1.869   2.868  1.00  0.00    -0.207 F 
BRANCH  15  20
ATOM     20  O   UNL     1       0.698   1.076   2.183  1.00  0.00    -0.507 OA
ATOM     21  H   UNL     1      -0.197   1.287   2.002  1.00  0.00     0.293 HD
ENDBRANCH  15  20
ENDBRANCH  11  13
ENDBRANCH   6  11
ENDBRANCH   5   6
ENDBRANCH   3   5
ENDBRANCH   2   3
ENDBRANCH   1   2
BRANCH   1  22
ATOM     22  C   UNL     1      -3.508  -4.474  -2.923  1.00  0.00     0.275 C 
BRANCH  22  23
ATOM     23  O   UNL     1      -3.897  -5.262  -1.784  1.00  0.00    -0.458 OA
BRANCH  23  24
ATOM     24  C   UNL     1      -3.005  -5.259  -0.764  1.00  0.00     0.338 C 
ATOM     25  O   UNL     1      -1.910  -4.726  -0.755  1.00  0.00    -0.246 OA
BRANCH  24  26
ATOM     26  C   UNL     1      -3.591  -5.909   0.422  1.00  0.00     0.060 A 
ATOM     27  C   UNL     1      -3.567  -5.208   1.632  1.00  0.00     0.016 A 
ATOM     28  C   UNL     1      -4.072  -7.220   0.369  1.00  0.00     0.016 A 
ATOM     29  C   UNL     1      -4.000  -5.827   2.803  1.00  0.00     0.010 A 
ATOM     30  C   UNL     1      -4.502  -7.841   1.547  1.00  0.00     0.010 A 
ATOM     31  C   UNL     1      -4.442  -7.157   2.774  1.00  0.00    -0.014 A 
BRANCH  31  32
ATOM     32  C   UNL     1      -4.727  -7.855   4.053  1.00  0.00     0.031 A 
ATOM     33  C   UNL     1      -3.702  -8.798   4.622  1.00  0.00     0.074 A 
ATOM     34  C   UNL     1      -5.868  -7.609   4.723  1.00  0.00     0.049 A 
ATOM     35  N   UNL     1      -3.737  -9.496   5.728  1.00  0.00    -0.248 NA
ATOM     36  C   UNL     1      -2.475  -8.981   3.832  1.00  0.00     0.031 C 
ATOM     37  C   UNL     1      -6.923  -6.697   4.283  1.00  0.00     0.029 A 
ATOM     38  N   UNL     1      -6.326  -8.101   5.919  1.00  0.00    -0.354 N 
ATOM     39  C   UNL     1      -2.540 -10.203   5.769  1.00  0.00     0.074 A 
ATOM     40  C   UNL     1      -1.822  -9.879   4.553  1.00  0.00     0.031 C 
ATOM     41  C   UNL     1      -7.904  -6.690   5.201  1.00  0.00     0.029 A 
ATOM     42  C   UNL     1      -7.562  -7.617   6.278  1.00  0.00     0.049 A 
ATOM     43  H   UNL     1      -5.817  -8.740   6.469  1.00  0.00     0.167 HD
ATOM     44  C   UNL     1      -2.077 -11.035   6.735  1.00  0.00     0.034 A 
ATOM     45  C   UNL     1      -8.333  -7.899   7.347  1.00  0.00     0.034 A 
ATOM     46  C   UNL     1      -2.808 -11.357   7.938  1.00  0.00     0.049 A 
ATOM     47  C   UNL     1      -7.819  -8.866   8.385  1.00  0.00     0.074 A 
ATOM     48  C   UNL     1      -2.432 -12.182   8.984  1.00  0.00     0.029 A 
ATOM     49  N   UNL     1      -4.073 -10.874   8.253  1.00  0.00    -0.354 N 
ATOM     50  N   UNL     1      -6.680  -9.520   8.416  1.00  0.00    -0.248 NA
ATOM     51  C   UNL     1      -8.691  -9.120   9.538  1.00  0.00     0.031 C 
ATOM     52  C   UNL     1      -3.491 -12.245   9.899  1.00  0.00     0.029 A 
ATOM     53  C   UNL     1      -4.501 -11.404   9.461  1.00  0.00     0.049 A 
ATOM     54  H   UNL     1      -4.590 -10.246   7.698  1.00  0.00     0.167 HD
ATOM     55  C   UNL     1      -6.692 -10.246   9.604  1.00  0.00     0.074 A 
ATOM     56  C   UNL     1      -7.940  -9.929  10.270  1.00  0.00     0.031 C 
ATOM     57  C   UNL     1      -5.758 -11.096  10.103  1.00  0.00     0.034 A 
BRANCH  44  58
ATOM     58  C   UNL     1      -0.738 -11.691   6.495  1.00  0.00     0.023 A 
ATOM     59  C   UNL     1       0.449 -10.941   6.410  1.00  0.00     0.031 A 
ATOM     60  C   UNL     1      -0.652 -13.081   6.305  1.00  0.00     0.131 A 
ATOM     61  C   UNL     1       1.654 -11.573   6.069  1.00  0.00     0.055 A 
ATOM     62  C   UNL     1       0.564 -13.715   6.043  1.00  0.00     0.041 A 
ATOM     63  F   UNL     1      -1.754 -13.847   6.353  1.00  0.00    -0.206 F 
ATOM     64  C   UNL     1       1.724 -12.959   5.907  1.00  0.00     0.022 A 
BRANCH  61  65
ATOM     65  S   UNL     1       3.100 -10.543   5.695  1.00  0.00     0.124 S 
ATOM     66  O   UNL     1       2.602  -9.724   4.593  1.00  0.00    -0.237 OA
ATOM     67  O   UNL     1       3.327  -9.849   6.957  1.00  0.00    -0.237 OA
ATOM     68  O   UNL     1       4.127 -11.515   5.324  1.00  0.00    -0.744 OA
ENDBRANCH  61  65
ENDBRANCH  44  58
BRANCH  45  69
ATOM     69  C   UNL     1      -9.684  -7.286   7.485  1.00  0.00     0.023 A 
ATOM     70  C   UNL     1      -9.982  -6.406   8.538  1.00  0.00     0.031 A 
ATOM     71  C   UNL     1     -10.717  -7.619   6.591  1.00  0.00     0.131 A 
ATOM     72  C   UNL     1     -11.290  -5.923   8.696  1.00  0.00     0.055 A 
ATOM     73  C   UNL     1     -12.005  -7.098   6.724  1.00  0.00     0.041 A 
ATOM     74  F   UNL     1     -10.485  -8.456   5.567  1.00  0.00    -0.206 F 
ATOM     75  C   UNL     1     -12.301  -6.254   7.790  1.00  0.00     0.022 A 
BRANCH  72  76
ATOM     76  S   UNL     1     -11.675  -4.914  10.154  1.00  0.00     0.124 S 
ATOM     77  O   UNL     1     -11.317  -5.815  11.243  1.00  0.00    -0.237 OA
ATOM     78  O   UNL     1     -10.802  -3.761   9.962  1.00  0.00    -0.237 OA
ATOM     79  O   UNL     1     -13.104  -4.642  10.012  1.00  0.00    -0.744 OA
ENDBRANCH  72  76
ENDBRANCH  45  69
BRANCH  57  80
ATOM     80  C   UNL     1      -6.049 -11.710  11.452  1.00  0.00     0.023 A 
ATOM     81  C   UNL     1      -7.109 -12.616  11.637  1.00  0.00     0.031 A 
ATOM     82  C   UNL     1      -5.279 -11.356  12.573  1.00  0.00     0.131 A 
ATOM     83  C   UNL     1      -7.413 -13.083  12.925  1.00  0.00     0.055 A 
ATOM     84  C   UNL     1      -5.548 -11.871  13.842  1.00  0.00     0.041 A 
ATOM     85  F   UNL     1      -4.255 -10.495  12.456  1.00  0.00    -0.206 F 
ATOM     86  C   UNL     1      -6.631 -12.727  14.027  1.00  0.00     0.022 A 
BRANCH  83  87
ATOM     87  S   UNL     1      -8.915 -14.073  13.161  1.00  0.00     0.124 S 
ATOM     88  O   UNL     1      -9.947 -13.196  12.618  1.00  0.00    -0.237 OA
ATOM     89  O   UNL     1      -8.622 -15.272  12.383  1.00  0.00    -0.237 OA
ATOM     90  O   UNL     1      -8.970 -14.273  14.608  1.00  0.00    -0.744 OA
ENDBRANCH  83  87
ENDBRANCH  57  80
ENDBRANCH  31  32
ENDBRANCH  24  26
ENDBRANCH  23  24
ENDBRANCH  22  23
ENDBRANCH   1  22
TORSDOF 20
