REMARK SMILES Cc1ccc2[nH]cc([C@@H](C(=O)OCCOC(=O)c3ccc(-c4c5nc(c(-c6cc(S(=O)(=O)[O-])ccc6F)c6ccc([nH]6)c(-c6cc(S(=O)(=O)[O-])ccc6F)c6nc(c(-c7cc(S(=O)(=O)[O-])ccc7F)c7ccc4[nH]7)C=C6)C=C5)cc3)[NH+]3CCN(c4ccc(F)cc4)CC3)c2c1
REMARK SMILES IDX 14 1 13 2 12 3 10 4 11 5 9 6 8 7 1 8 2 9 3 10 95 11 4 12
REMARK SMILES IDX 94 13 5 14 6 15 7 16 81 18 82 19 93 20 83 22 92 23 84 24
REMARK SMILES IDX 85 25 86 26 91 27 87 28 90 29 88 30 89 31 15 32 16 33 17 34
REMARK SMILES IDX 18 35 19 36 80 37 20 38 79 39 21 40 22 41 23 42 73 43 24 44
REMARK SMILES IDX 78 45 72 46 74 47 25 48 77 49 71 50 70 51 26 53 58 54 38 55
REMARK SMILES IDX 57 56 39 57 42 58 56 59 75 60 40 61 41 62 55 64 76 65 43 66
REMARK SMILES IDX 27 67 28 68 36 69 29 70 35 71 37 72 34 73 30 74 31 75 32 76
REMARK SMILES IDX 33 77 59 78 60 79 68 80 61 81 67 82 69 83 66 84 62 85 63 86
REMARK SMILES IDX 64 87 65 88 44 89 45 90 53 91 46 92 52 93 54 94 51 95 47 96
REMARK SMILES IDX 48 97 49 98 50 99
REMARK H PARENT 6 17 81 21 74 52 42 63
REMARK Flexibility Score: inf
ROOT
ATOM      1  C   UNL     1      -4.271  -3.127   3.714  1.00  0.00     0.275 C 
ENDROOT
BRANCH   1   2
ATOM      2  C   UNL     1      -2.791  -3.463   3.547  1.00  0.00     0.274 C 
BRANCH   2   3
ATOM      3  O   UNL     1      -2.225  -2.712   2.455  1.00  0.00    -0.457 OA
BRANCH   3   4
ATOM      4  C   UNL     1      -2.125  -3.361   1.257  1.00  0.00     0.370 C 
ATOM      5  O   UNL     1      -2.442  -4.539   1.106  1.00  0.00    -0.245 OA
BRANCH   4   6
ATOM      6  C   UNL     1      -1.485  -2.501   0.140  1.00  0.00     0.328 C 
BRANCH   6   7
ATOM      7  C   UNL     1      -1.236  -1.053   0.470  1.00  0.00     0.046 A 
ATOM      8  C   UNL     1       3.785  -0.416  -0.271  1.00  0.00     0.044 C 
ATOM      9  C   UNL     1       2.396   0.085  -0.010  1.00  0.00    -0.050 A 
ATOM     10  C   UNL     1       2.137   1.445   0.177  1.00  0.00     0.005 A 
ATOM     11  C   UNL     1       1.341  -0.836   0.063  1.00  0.00     0.014 A 
ATOM     12  C   UNL     1       0.852   1.910   0.479  1.00  0.00     0.027 A 
ATOM     13  C   UNL     1       0.036  -0.395   0.366  1.00  0.00     0.009 A 
ATOM     14  C   UNL     1      -0.171   0.963   0.594  1.00  0.00     0.046 A 
ATOM     15  N   UNL     1      -1.497   1.121   0.916  1.00  0.00    -0.361 N 
ATOM     16  C   UNL     1      -2.130  -0.093   0.914  1.00  0.00     0.094 A 
ATOM     17  H   UNL     1      -1.929   1.981   1.119  1.00  0.00     0.166 HD
ENDBRANCH   6   7
BRANCH   6  18
ATOM     18  N   UNL     1      -2.192  -2.675  -1.145  1.00  0.00    -0.316 N 
ATOM     19  C   UNL     1      -3.559  -2.155  -1.254  1.00  0.00     0.284 C 
ATOM     20  C   UNL     1      -1.417  -2.413  -2.369  1.00  0.00     0.284 C 
ATOM     21  H   UNL     1      -2.305  -3.687  -1.091  1.00  0.00     0.349 HD
ATOM     22  C   UNL     1      -3.781  -0.781  -1.916  1.00  0.00     0.178 C 
ATOM     23  C   UNL     1      -1.575  -1.013  -3.016  1.00  0.00     0.178 C 
ATOM     24  N   UNL     1      -2.993  -0.656  -3.139  1.00  0.00    -0.360 N 
BRANCH  24  25
ATOM     25  C   UNL     1      -3.306   0.406  -3.982  1.00  0.00     0.037 A 
ATOM     26  C   UNL     1      -3.515   1.709  -3.503  1.00  0.00     0.029 A 
ATOM     27  C   UNL     1      -3.461   0.169  -5.355  1.00  0.00     0.029 A 
ATOM     28  C   UNL     1      -3.880   2.742  -4.369  1.00  0.00     0.041 A 
ATOM     29  C   UNL     1      -3.832   1.198  -6.224  1.00  0.00     0.041 A 
ATOM     30  C   UNL     1      -4.032   2.477  -5.723  1.00  0.00     0.123 A 
ATOM     31  F   UNL     1      -4.344   3.477  -6.556  1.00  0.00    -0.207 F 
ENDBRANCH  24  25
ENDBRANCH   6  18
ENDBRANCH   4   6
ENDBRANCH   3   4
ENDBRANCH   2   3
ENDBRANCH   1   2
BRANCH   1  32
ATOM     32  O   UNL     1      -4.998  -3.618   2.576  1.00  0.00    -0.458 OA
BRANCH  32  33
ATOM     33  C   UNL     1      -5.946  -2.798   2.069  1.00  0.00     0.338 C 
ATOM     34  O   UNL     1      -6.298  -1.722   2.538  1.00  0.00    -0.246 OA
BRANCH  33  35
ATOM     35  C   UNL     1      -6.500  -3.358   0.814  1.00  0.00     0.060 A 
ATOM     36  C   UNL     1      -5.739  -4.192  -0.006  1.00  0.00     0.016 A 
ATOM     37  C   UNL     1      -7.762  -2.944   0.381  1.00  0.00     0.016 A 
ATOM     38  C   UNL     1      -6.186  -4.513  -1.290  1.00  0.00     0.010 A 
ATOM     39  C   UNL     1      -8.253  -3.366  -0.862  1.00  0.00     0.010 A 
ATOM     40  C   UNL     1      -7.459  -4.131  -1.734  1.00  0.00    -0.014 A 
BRANCH  40  41
ATOM     41  C   UNL     1      -7.967  -4.508  -3.090  1.00  0.00     0.031 A 
ATOM     42  C   UNL     1      -8.548  -3.456  -4.004  1.00  0.00     0.074 A 
ATOM     43  C   UNL     1      -7.947  -5.791  -3.509  1.00  0.00     0.049 A 
ATOM     44  N   UNL     1      -9.346  -3.596  -5.032  1.00  0.00    -0.248 NA
ATOM     45  C   UNL     1      -8.202  -2.059  -3.701  1.00  0.00     0.031 C 
ATOM     46  C   UNL     1      -7.351  -6.918  -2.788  1.00  0.00     0.029 A 
ATOM     47  N   UNL     1      -8.457  -6.369  -4.649  1.00  0.00    -0.354 N 
ATOM     48  C   UNL     1      -9.662  -2.307  -5.452  1.00  0.00     0.074 A 
ATOM     49  C   UNL     1      -8.958  -1.399  -4.569  1.00  0.00     0.031 C 
ATOM     50  C   UNL     1      -7.499  -8.037  -3.510  1.00  0.00     0.029 A 
ATOM     51  C   UNL     1      -8.316  -7.738  -4.678  1.00  0.00     0.049 A 
ATOM     52  H   UNL     1      -8.882  -5.854  -5.372  1.00  0.00     0.167 HD
ATOM     53  C   UNL     1     -10.476  -1.924  -6.469  1.00  0.00     0.034 A 
ATOM     54  C   UNL     1      -8.847  -8.669  -5.495  1.00  0.00     0.034 A 
ATOM     55  C   UNL     1     -11.110  -2.848  -7.383  1.00  0.00     0.049 A 
ATOM     56  C   UNL     1      -9.788  -8.234  -6.583  1.00  0.00     0.074 A 
ATOM     57  C   UNL     1     -11.940  -2.570  -8.457  1.00  0.00     0.029 A 
ATOM     58  N   UNL     1     -10.969  -4.229  -7.344  1.00  0.00    -0.354 N 
ATOM     59  N   UNL     1     -10.191  -7.023  -6.888  1.00  0.00    -0.248 NA
ATOM     60  C   UNL     1     -10.365  -9.294  -7.418  1.00  0.00     0.031 C 
ATOM     61  C   UNL     1     -12.340  -3.782  -9.033  1.00  0.00     0.029 A 
ATOM     62  C   UNL     1     -11.709  -4.815  -8.361  1.00  0.00     0.049 A 
ATOM     63  H   UNL     1     -10.423  -4.721  -6.689  1.00  0.00     0.167 HD
ATOM     64  C   UNL     1     -11.067  -7.176  -7.957  1.00  0.00     0.074 A 
ATOM     65  C   UNL     1     -11.117  -8.594  -8.255  1.00  0.00     0.031 C 
ATOM     66  C   UNL     1     -11.767  -6.231  -8.632  1.00  0.00     0.034 A 
BRANCH  53  67
ATOM     67  C   UNL     1     -10.787  -0.452  -6.609  1.00  0.00     0.023 A 
ATOM     68  C   UNL     1      -9.812   0.498  -6.957  1.00  0.00     0.031 A 
ATOM     69  C   UNL     1     -12.100   0.006  -6.385  1.00  0.00     0.131 A 
ATOM     70  C   UNL     1     -10.153   1.861  -7.012  1.00  0.00     0.055 A 
ATOM     71  C   UNL     1     -12.447   1.352  -6.515  1.00  0.00     0.041 A 
ATOM     72  F   UNL     1     -13.070  -0.851  -6.030  1.00  0.00    -0.206 F 
ATOM     73  C   UNL     1     -11.468   2.291  -6.819  1.00  0.00     0.022 A 
BRANCH  70  74
ATOM     74  S   UNL     1      -8.828   3.082  -7.223  1.00  0.00     0.124 S 
ATOM     75  O   UNL     1      -8.036   2.860  -6.017  1.00  0.00    -0.237 OA
ATOM     76  O   UNL     1      -8.218   2.668  -8.481  1.00  0.00    -0.237 OA
ATOM     77  O   UNL     1      -9.542   4.357  -7.266  1.00  0.00    -0.744 OA
ENDBRANCH  70  74
ENDBRANCH  53  67
BRANCH  54  78
ATOM     78  C   UNL     1      -8.590 -10.116  -5.241  1.00  0.00     0.023 A 
ATOM     79  C   UNL     1      -7.874 -10.897  -6.160  1.00  0.00     0.031 A 
ATOM     80  C   UNL     1      -9.069 -10.739  -4.073  1.00  0.00     0.131 A 
ATOM     81  C   UNL     1      -7.675 -12.263  -5.905  1.00  0.00     0.055 A 
ATOM     82  C   UNL     1      -8.821 -12.083  -3.799  1.00  0.00     0.041 A 
ATOM     83  F   UNL     1      -9.763 -10.035  -3.163  1.00  0.00    -0.206 F 
ATOM     84  C   UNL     1      -8.127 -12.856  -4.723  1.00  0.00     0.022 A 
BRANCH  81  85
ATOM     85  S   UNL     1      -6.869 -13.275  -7.175  1.00  0.00     0.124 S 
ATOM     86  O   UNL     1      -7.760 -13.089  -8.315  1.00  0.00    -0.237 OA
ATOM     87  O   UNL     1      -5.556 -12.646  -7.278  1.00  0.00    -0.237 OA
ATOM     88  O   UNL     1      -6.870 -14.616  -6.594  1.00  0.00    -0.744 OA
ENDBRANCH  81  85
ENDBRANCH  54  78
BRANCH  66  89
ATOM     89  C   UNL     1     -12.611  -6.711  -9.783  1.00  0.00     0.023 A 
ATOM     90  C   UNL     1     -13.782  -7.460  -9.576  1.00  0.00     0.031 A 
ATOM     91  C   UNL     1     -12.214  -6.446 -11.105  1.00  0.00     0.131 A 
ATOM     92  C   UNL     1     -14.489  -7.965 -10.678  1.00  0.00     0.055 A 
ATOM     93  C   UNL     1     -12.949  -6.909 -12.197  1.00  0.00     0.041 A 
ATOM     94  F   UNL     1     -11.101  -5.738 -11.355  1.00  0.00    -0.206 F 
ATOM     95  C   UNL     1     -14.087  -7.684 -11.986  1.00  0.00     0.022 A 
BRANCH  92  96
ATOM     96  S   UNL     1     -15.900  -9.065 -10.379  1.00  0.00     0.124 S 
ATOM     97  O   UNL     1     -15.277 -10.171  -9.660  1.00  0.00    -0.237 OA
ATOM     98  O   UNL     1     -16.796  -8.219  -9.596  1.00  0.00    -0.237 OA
ATOM     99  O   UNL     1     -16.374  -9.388 -11.724  1.00  0.00    -0.744 OA
ENDBRANCH  92  96
ENDBRANCH  66  89
ENDBRANCH  40  41
ENDBRANCH  33  35
ENDBRANCH  32  33
ENDBRANCH   1  32
TORSDOF 17
