REMARK SMILES O=C(OCCOC(=O)[C@@H]1[C@@H](C(=O)N2CCN(c3cccc(Cl)c3)CC2)[C@H]2CC[C@@H]1O2)c1ccc(-c2c3nc(c(-c4cc(S(=O)(=O)[O-])ccc4F)c4ccc([nH]4)c(-c4cc(S(=O)(=O)[O-])ccc4F)c4nc(c(-c5cc(S(=O)(=O)[O-])ccc5F)c5ccc2[nH]5)C=C4)C=C3)cc1
REMARK SMILES IDX 4 1 3 2 2 3 1 4 31 5 32 6 93 7 33 8 92 9 34 10 35 11 36 12
REMARK SMILES IDX 86 13 37 14 91 15 85 16 87 17 38 18 90 19 84 20 83 21 39 23
REMARK SMILES IDX 71 24 51 25 70 26 52 27 55 28 69 29 88 30 53 31 54 32 68 34
REMARK SMILES IDX 89 35 56 36 40 37 41 38 49 39 42 40 48 41 50 42 47 43 43 44
REMARK SMILES IDX 44 45 45 46 46 47 72 48 73 49 81 50 74 51 80 52 82 53 79 54
REMARK SMILES IDX 75 55 76 56 77 57 78 58 57 59 58 60 66 61 59 62 65 63 67 64
REMARK SMILES IDX 64 65 60 66 61 67 62 68 63 69 5 70 6 71 7 72 8 73 9 74 10 75
REMARK SMILES IDX 29 76 26 77 28 78 30 79 27 80 11 81 12 82 13 83 14 84 25 85
REMARK SMILES IDX 15 86 24 87 16 88 17 89 18 90 23 91 19 92 21 93 20 94 22 95
REMARK H PARENT 87 22 55 33
REMARK Flexibility Score: inf
ROOT
ATOM      1  C   UNL     1       4.250  -1.094   0.963  1.00  0.00     0.275 C 
ENDROOT
BRANCH   1   2
ATOM      2  O   UNL     1       3.359  -0.010   1.239  1.00  0.00    -0.458 OA
BRANCH   2   3
ATOM      3  C   UNL     1       3.367   1.251   0.747  1.00  0.00     0.338 C 
ATOM      4  O   UNL     1       2.515   2.027   1.184  1.00  0.00    -0.246 OA
BRANCH   3   5
ATOM      5  C   UNL     1       4.225   1.718  -0.401  1.00  0.00     0.060 A 
ATOM      6  C   UNL     1       5.379   1.116  -0.922  1.00  0.00     0.016 A 
ATOM      7  C   UNL     1       3.720   2.832  -1.087  1.00  0.00     0.016 A 
ATOM      8  C   UNL     1       5.930   1.511  -2.158  1.00  0.00     0.010 A 
ATOM      9  C   UNL     1       4.215   3.175  -2.346  1.00  0.00     0.010 A 
ATOM     10  C   UNL     1       5.324   2.511  -2.910  1.00  0.00    -0.014 A 
BRANCH  10  11
ATOM     11  C   UNL     1       5.859   3.034  -4.202  1.00  0.00     0.031 A 
ATOM     12  C   UNL     1       6.210   4.489  -4.210  1.00  0.00     0.074 A 
ATOM     13  C   UNL     1       5.910   2.337  -5.358  1.00  0.00     0.049 A 
ATOM     14  N   UNL     1       6.404   5.296  -5.214  1.00  0.00    -0.248 NA
ATOM     15  C   UNL     1       6.302   5.128  -2.884  1.00  0.00     0.031 C 
ATOM     16  C   UNL     1       5.699   0.904  -5.513  1.00  0.00     0.029 A 
ATOM     17  N   UNL     1       6.064   2.774  -6.658  1.00  0.00    -0.354 N 
ATOM     18  C   UNL     1       6.676   6.519  -4.625  1.00  0.00     0.074 A 
ATOM     19  C   UNL     1       6.367   6.400  -3.220  1.00  0.00     0.031 C 
ATOM     20  C   UNL     1       5.555   0.607  -6.819  1.00  0.00     0.029 A 
ATOM     21  C   UNL     1       5.716   1.824  -7.601  1.00  0.00     0.049 A 
ATOM     22  H   UNL     1       6.390   3.673  -6.892  1.00  0.00     0.167 HD
ATOM     23  C   UNL     1       7.278   7.599  -5.174  1.00  0.00     0.034 A 
ATOM     24  C   UNL     1       5.527   1.932  -8.933  1.00  0.00     0.034 A 
ATOM     25  C   UNL     1       7.581   7.687  -6.572  1.00  0.00     0.049 A 
ATOM     26  C   UNL     1       5.942   3.221  -9.593  1.00  0.00     0.074 A 
ATOM     27  C   UNL     1       8.223   8.694  -7.261  1.00  0.00     0.029 A 
ATOM     28  N   UNL     1       7.226   6.718  -7.505  1.00  0.00    -0.354 N 
ATOM     29  N   UNL     1       6.330   4.341  -9.027  1.00  0.00    -0.248 NA
ATOM     30  C   UNL     1       5.996   3.237 -11.060  1.00  0.00     0.031 C 
ATOM     31  C   UNL     1       8.190   8.369  -8.623  1.00  0.00     0.029 A 
ATOM     32  C   UNL     1       7.596   7.124  -8.773  1.00  0.00     0.049 A 
ATOM     33  H   UNL     1       6.777   5.868  -7.293  1.00  0.00     0.167 HD
ATOM     34  C   UNL     1       6.780   5.153 -10.062  1.00  0.00     0.074 A 
ATOM     35  C   UNL     1       6.554   4.419 -11.292  1.00  0.00     0.031 C 
ATOM     36  C   UNL     1       7.381   6.368  -9.987  1.00  0.00     0.034 A 
BRANCH  23  37
ATOM     37  C   UNL     1       7.633   8.701  -4.210  1.00  0.00     0.023 A 
ATOM     38  C   UNL     1       8.458   8.435  -3.095  1.00  0.00     0.031 A 
ATOM     39  C   UNL     1       6.991   9.944  -4.276  1.00  0.00     0.131 A 
ATOM     40  C   UNL     1       8.469   9.322  -2.012  1.00  0.00     0.055 A 
ATOM     41  C   UNL     1       7.110  10.878  -3.245  1.00  0.00     0.041 A 
ATOM     42  F   UNL     1       6.181  10.242  -5.303  1.00  0.00    -0.206 F 
ATOM     43  C   UNL     1       7.821  10.556  -2.089  1.00  0.00     0.022 A 
BRANCH  40  44
ATOM     44  S   UNL     1       9.104   8.723  -0.417  1.00  0.00     0.124 S 
ATOM     45  O   UNL     1       8.224   7.587  -0.156  1.00  0.00    -0.237 OA
ATOM     46  O   UNL     1      10.492   8.394  -0.732  1.00  0.00    -0.237 OA
ATOM     47  O   UNL     1       8.920   9.863   0.475  1.00  0.00    -0.744 OA
ENDBRANCH  40  44
ENDBRANCH  23  37
BRANCH  24  48
ATOM     48  C   UNL     1       4.951   0.812  -9.739  1.00  0.00     0.023 A 
ATOM     49  C   UNL     1       5.739   0.025 -10.595  1.00  0.00     0.031 A 
ATOM     50  C   UNL     1       3.567   0.555  -9.702  1.00  0.00     0.131 A 
ATOM     51  C   UNL     1       5.136  -0.956 -11.406  1.00  0.00     0.055 A 
ATOM     52  C   UNL     1       2.975  -0.438 -10.492  1.00  0.00     0.041 A 
ATOM     53  F   UNL     1       2.764   1.282  -8.910  1.00  0.00    -0.206 F 
ATOM     54  C   UNL     1       3.760  -1.194 -11.358  1.00  0.00     0.022 A 
BRANCH  51  55
ATOM     55  S   UNL     1       6.171  -1.890 -12.570  1.00  0.00     0.124 S 
ATOM     56  O   UNL     1       6.723  -0.827 -13.402  1.00  0.00    -0.237 OA
ATOM     57  O   UNL     1       7.110  -2.555 -11.672  1.00  0.00    -0.237 OA
ATOM     58  O   UNL     1       5.222  -2.777 -13.240  1.00  0.00    -0.744 OA
ENDBRANCH  51  55
ENDBRANCH  24  48
BRANCH  36  59
ATOM     59  C   UNL     1       7.942   6.946 -11.256  1.00  0.00     0.023 A 
ATOM     60  C   UNL     1       7.121   7.430 -12.284  1.00  0.00     0.031 A 
ATOM     61  C   UNL     1       9.337   7.077 -11.393  1.00  0.00     0.131 A 
ATOM     62  C   UNL     1       7.705   8.014 -13.416  1.00  0.00     0.055 A 
ATOM     63  C   UNL     1       9.908   7.712 -12.494  1.00  0.00     0.041 A 
ATOM     64  F   UNL     1      10.164   6.622 -10.438  1.00  0.00    -0.206 F 
ATOM     65  C   UNL     1       9.090   8.182 -13.515  1.00  0.00     0.022 A 
BRANCH  62  66
ATOM     66  S   UNL     1       6.631   8.522 -14.784  1.00  0.00     0.124 S 
ATOM     67  O   UNL     1       6.059   7.248 -15.207  1.00  0.00    -0.237 OA
ATOM     68  O   UNL     1       5.711   9.450 -14.134  1.00  0.00    -0.237 OA
ATOM     69  O   UNL     1       7.555   9.134 -15.737  1.00  0.00    -0.744 OA
ENDBRANCH  62  66
ENDBRANCH  36  59
ENDBRANCH  10  11
ENDBRANCH   3   5
ENDBRANCH   2   3
ENDBRANCH   1   2
BRANCH   1  70
ATOM     70  C   UNL     1       3.878  -1.922  -0.272  1.00  0.00     0.274 C 
BRANCH  70  71
ATOM     71  O   UNL     1       3.306  -1.168  -1.359  1.00  0.00    -0.462 OA
BRANCH  71  72
ATOM     72  C   UNL     1       1.964  -1.269  -1.573  1.00  0.00     0.312 C 
ATOM     73  O   UNL     1       1.205  -1.920  -0.861  1.00  0.00    -0.252 OA
BRANCH  72  74
ATOM     74  C   UNL     1       1.465  -0.567  -2.844  1.00  0.00     0.143 C 
ATOM     75  C   UNL     1       1.939  -1.237  -4.136  1.00  0.00     0.124 C 
ATOM     76  C   UNL     1       2.087   0.802  -2.954  1.00  0.00     0.133 C 
ATOM     77  C   UNL     1       2.803  -0.132  -4.754  1.00  0.00     0.132 C 
ATOM     78  C   UNL     1       1.432   1.657  -4.032  1.00  0.00     0.036 C 
ATOM     79  O   UNL     1       3.343   0.458  -3.557  1.00  0.00    -0.373 OA
ATOM     80  C   UNL     1       2.039   1.073  -5.300  1.00  0.00     0.035 C 
BRANCH  75  81
ATOM     81  C   UNL     1       1.005  -1.756  -5.215  1.00  0.00     0.229 C 
ATOM     82  O   UNL     1       1.265  -1.561  -6.405  1.00  0.00    -0.274 OA
ATOM     83  N   UNL     1       0.040  -2.675  -4.883  1.00  0.00    -0.339 N 
ATOM     84  C   UNL     1      -0.013  -3.876  -5.729  1.00  0.00     0.141 C 
ATOM     85  C   UNL     1      -0.577  -2.869  -3.578  1.00  0.00     0.141 C 
ATOM     86  C   UNL     1       0.765  -5.007  -5.011  1.00  0.00     0.138 C 
ATOM     87  C   UNL     1       0.148  -3.983  -2.813  1.00  0.00     0.138 C 
ATOM     88  N   UNL     1       0.235  -5.197  -3.639  1.00  0.00    -0.368 N 
BRANCH  88  89
ATOM     89  C   UNL     1      -0.691  -6.208  -3.449  1.00  0.00     0.038 A 
ATOM     90  C   UNL     1      -2.050  -5.960  -3.218  1.00  0.00     0.026 A 
ATOM     91  C   UNL     1      -0.254  -7.535  -3.469  1.00  0.00     0.046 A 
ATOM     92  C   UNL     1      -2.954  -7.001  -3.019  1.00  0.00     0.004 A 
ATOM     93  C   UNL     1      -1.150  -8.577  -3.247  1.00  0.00     0.043 A 
ATOM     94  C   UNL     1      -2.501  -8.315  -3.027  1.00  0.00     0.020 A 
ATOM     95  Cl  UNL     1      -0.581 -10.200  -3.226  1.00  0.00    -0.084 Cl
ENDBRANCH  88  89
ENDBRANCH  75  81
ENDBRANCH  72  74
ENDBRANCH  71  72
ENDBRANCH  70  71
ENDBRANCH   1  70
TORSDOF 16
