REMARK SMILES CCn1ncc(NC(=O)[C@@H]2CCCC[C@@H]2C(=O)OCCOC(=O)c2ccc(-c3c4nc(c(-c5cc(S(=O)(=O)[O-])ccc5F)c5ccc([nH]5)c(-c5cc(S(=O)(=O)[O-])ccc5F)c5nc(c(-c6cc(S(=O)(=O)[O-])ccc6F)c6ccc3[nH]6)C=C5)C=C4)cc2)c1C(=O)Nc1cnn(C)c1C
REMARK SMILES IDX 19 1 18 2 16 3 17 4 15 5 10 6 11 7 12 8 14 9 13 10 8 11 7 12
REMARK SMILES IDX 9 14 6 15 3 16 4 17 87 18 5 19 2 20 1 21 88 22 89 23 90 24
REMARK SMILES IDX 91 26 92 27 96 28 93 29 94 30 97 31 95 32 20 33 21 34 22 35
REMARK SMILES IDX 23 36 24 37 25 38 86 39 26 40 85 41 27 42 28 43 29 44 79 45
REMARK SMILES IDX 30 46 84 47 78 48 80 49 31 50 83 51 77 52 76 53 32 55 64 56
REMARK SMILES IDX 44 57 63 58 45 59 48 60 62 61 81 62 46 63 47 64 61 66 82 67
REMARK SMILES IDX 49 68 33 69 34 70 42 71 35 72 41 73 43 74 40 75 36 76 37 77
REMARK SMILES IDX 38 78 39 79 65 80 66 81 74 82 67 83 73 84 75 85 72 86 68 87
REMARK SMILES IDX 69 88 70 89 71 90 50 91 51 92 59 93 52 94 58 95 60 96 57 97
REMARK SMILES IDX 53 98 54 99 55 100 56 101
REMARK H PARENT 7 13 90 25 80 54 48 65
REMARK Flexibility Score: inf
ROOT
ATOM      1  C   UNL     1       4.450  -7.022  -1.414  1.00  0.00     0.274 C 
ENDROOT
BRANCH   1   2
ATOM      2  O   UNL     1       3.015  -6.843  -1.448  1.00  0.00    -0.462 OA
BRANCH   2   3
ATOM      3  C   UNL     1       2.591  -5.575  -1.165  1.00  0.00     0.309 C 
ATOM      4  O   UNL     1       3.371  -4.693  -0.822  1.00  0.00    -0.252 OA
BRANCH   3   5
ATOM      5  C   UNL     1       1.049  -5.453  -1.155  1.00  0.00     0.111 C 
ATOM      6  C   UNL     1       0.426  -4.071  -1.585  1.00  0.00     0.093 C 
ATOM      7  C   UNL     1       1.177  -2.974  -0.855  1.00  0.00     0.014 C 
ATOM      8  C   UNL     1       0.968  -3.135   0.656  1.00  0.00     0.001 C 
ATOM      9  C   UNL     1       0.639  -5.672   0.312  1.00  0.00     0.016 C 
ATOM     10  C   UNL     1       1.153  -4.546   1.221  1.00  0.00     0.001 C 
BRANCH   6  11
ATOM     11  C   UNL     1       0.053  -3.965  -3.071  1.00  0.00     0.228 C 
ATOM     12  N   UNL     1      -0.206  -2.825  -3.779  1.00  0.00    -0.322 N 
ATOM     13  H   UNL     1      -0.469  -3.020  -4.708  1.00  0.00     0.170 HD
ATOM     14  O   UNL     1      -0.096  -5.016  -3.712  1.00  0.00    -0.274 OA
BRANCH  12  15
ATOM     15  C   UNL     1      -0.193  -1.463  -3.517  1.00  0.00     0.092 A 
ATOM     16  N   UNL     1       0.147   0.472  -2.630  1.00  0.00    -0.258 N 
ATOM     17  N   UNL     1       0.297   0.711  -3.952  1.00  0.00    -0.178 NA
ATOM     18  C   UNL     1      -0.569  -0.695  -2.405  1.00  0.00     0.150 A 
ATOM     19  C   UNL     1       0.148  -0.495  -4.492  1.00  0.00     0.162 A 
BRANCH  16  20
ATOM     20  C   UNL     1       0.963   1.308  -1.766  1.00  0.00     0.142 C 
ATOM     21  C   UNL     1       1.946   0.579  -0.866  1.00  0.00     0.029 C 
ENDBRANCH  16  20
BRANCH  18  22
ATOM     22  C   UNL     1      -1.453  -1.146  -1.339  1.00  0.00     0.276 C 
ATOM     23  O   UNL     1      -2.173  -2.140  -1.488  1.00  0.00    -0.267 OA
ATOM     24  N   UNL     1      -1.413  -0.682  -0.049  1.00  0.00    -0.318 N 
ATOM     25  H   UNL     1      -1.540  -1.387   0.627  1.00  0.00     0.170 HD
BRANCH  24  26
ATOM     26  C   UNL     1      -1.234   0.562   0.485  1.00  0.00     0.082 A 
ATOM     27  C   UNL     1      -1.685   1.823   0.059  1.00  0.00     0.161 A 
ATOM     28  C   UNL     1      -0.577   0.790   1.679  1.00  0.00     0.059 A 
ATOM     29  N   UNL     1      -1.244   2.801   0.856  1.00  0.00    -0.179 NA
ATOM     30  N   UNL     1      -0.508   2.158   1.783  1.00  0.00    -0.271 N 
ATOM     31  C   UNL     1       0.106  -0.137   2.617  1.00  0.00     0.068 C 
ATOM     32  C   UNL     1       0.346   2.937   2.650  1.00  0.00     0.174 C 
ENDBRANCH  24  26
ENDBRANCH  18  22
ENDBRANCH  12  15
ENDBRANCH   6  11
ENDBRANCH   3   5
ENDBRANCH   2   3
ENDBRANCH   1   2
BRANCH   1  33
ATOM     33  C   UNL     1       5.154  -6.761  -2.752  1.00  0.00     0.275 C 
BRANCH  33  34
ATOM     34  O   UNL     1       5.206  -5.381  -3.142  1.00  0.00    -0.458 OA
BRANCH  34  35
ATOM     35  C   UNL     1       4.077  -4.988  -3.771  1.00  0.00     0.338 C 
ATOM     36  O   UNL     1       3.018  -5.595  -3.794  1.00  0.00    -0.246 OA
BRANCH  35  37
ATOM     37  C   UNL     1       4.259  -3.791  -4.593  1.00  0.00     0.060 A 
ATOM     38  C   UNL     1       3.072  -3.188  -5.010  1.00  0.00     0.016 A 
ATOM     39  C   UNL     1       5.473  -3.520  -5.223  1.00  0.00     0.016 A 
ATOM     40  C   UNL     1       3.043  -2.487  -6.191  1.00  0.00     0.010 A 
ATOM     41  C   UNL     1       5.452  -2.781  -6.397  1.00  0.00     0.010 A 
ATOM     42  C   UNL     1       4.221  -2.364  -6.923  1.00  0.00    -0.014 A 
BRANCH  42  43
ATOM     43  C   UNL     1       4.076  -1.850  -8.280  1.00  0.00     0.031 A 
ATOM     44  C   UNL     1       3.506  -0.482  -8.416  1.00  0.00     0.074 A 
ATOM     45  C   UNL     1       4.476  -2.563  -9.351  1.00  0.00     0.049 A 
ATOM     46  N   UNL     1       2.537  -0.085  -9.176  1.00  0.00    -0.248 NA
ATOM     47  C   UNL     1       4.028   0.559  -7.519  1.00  0.00     0.031 C 
ATOM     48  C   UNL     1       5.213  -3.829  -9.362  1.00  0.00     0.029 A 
ATOM     49  N   UNL     1       4.445  -2.206 -10.665  1.00  0.00    -0.354 N 
ATOM     50  C   UNL     1       2.429   1.290  -8.982  1.00  0.00     0.074 A 
ATOM     51  C   UNL     1       3.289   1.609  -7.872  1.00  0.00     0.031 C 
ATOM     52  C   UNL     1       5.811  -3.970 -10.563  1.00  0.00     0.029 A 
ATOM     53  C   UNL     1       5.397  -2.873 -11.421  1.00  0.00     0.049 A 
ATOM     54  H   UNL     1       3.815  -1.547 -11.038  1.00  0.00     0.167 HD
ATOM     55  C   UNL     1       1.752   2.103  -9.839  1.00  0.00     0.034 A 
ATOM     56  C   UNL     1       5.928  -2.464 -12.599  1.00  0.00     0.034 A 
ATOM     57  C   UNL     1       0.816   1.371 -10.651  1.00  0.00     0.049 A 
ATOM     58  C   UNL     1       4.963  -1.532 -13.231  1.00  0.00     0.074 A 
ATOM     59  C   UNL     1      -0.297   0.597 -10.383  1.00  0.00     0.029 A 
ATOM     60  N   UNL     1       1.128   1.119 -11.966  1.00  0.00    -0.354 N 
ATOM     61  N   UNL     1       3.786  -1.903 -13.657  1.00  0.00    -0.248 NA
ATOM     62  C   UNL     1       5.100  -0.103 -12.984  1.00  0.00     0.031 C 
ATOM     63  C   UNL     1      -0.279  -0.431 -11.367  1.00  0.00     0.029 A 
ATOM     64  C   UNL     1       0.826  -0.202 -12.189  1.00  0.00     0.049 A 
ATOM     65  H   UNL     1       1.494   1.759 -12.619  1.00  0.00     0.167 HD
ATOM     66  C   UNL     1       2.934  -0.865 -13.313  1.00  0.00     0.074 A 
ATOM     67  C   UNL     1       3.815   0.263 -13.020  1.00  0.00     0.031 C 
ATOM     68  C   UNL     1       1.620  -1.090 -13.012  1.00  0.00     0.034 A 
BRANCH  55  69
ATOM     69  C   UNL     1       2.107   3.542 -10.120  1.00  0.00     0.023 A 
ATOM     70  C   UNL     1       1.244   4.292 -10.943  1.00  0.00     0.031 A 
ATOM     71  C   UNL     1       3.368   4.122  -9.857  1.00  0.00     0.131 A 
ATOM     72  C   UNL     1       1.662   5.508 -11.510  1.00  0.00     0.055 A 
ATOM     73  C   UNL     1       3.752   5.367 -10.363  1.00  0.00     0.041 A 
ATOM     74  F   UNL     1       4.330   3.476  -9.184  1.00  0.00    -0.206 F 
ATOM     75  C   UNL     1       2.909   6.056 -11.218  1.00  0.00     0.022 A 
BRANCH  72  76
ATOM     76  S   UNL     1       0.631   6.269 -12.794  1.00  0.00     0.124 S 
ATOM     77  O   UNL     1       0.346   5.134 -13.666  1.00  0.00    -0.237 OA
ATOM     78  O   UNL     1      -0.490   6.782 -12.015  1.00  0.00    -0.237 OA
ATOM     79  O   UNL     1       1.508   7.287 -13.371  1.00  0.00    -0.744 OA
ENDBRANCH  72  76
ENDBRANCH  55  69
BRANCH  56  80
ATOM     80  C   UNL     1       7.365  -2.587 -12.950  1.00  0.00     0.023 A 
ATOM     81  C   UNL     1       7.829  -2.601 -14.275  1.00  0.00     0.031 A 
ATOM     82  C   UNL     1       8.348  -2.532 -11.930  1.00  0.00     0.131 A 
ATOM     83  C   UNL     1       9.218  -2.606 -14.534  1.00  0.00     0.055 A 
ATOM     84  C   UNL     1       9.717  -2.570 -12.190  1.00  0.00     0.041 A 
ATOM     85  F   UNL     1       8.009  -2.366 -10.641  1.00  0.00    -0.206 F 
ATOM     86  C   UNL     1      10.159  -2.607 -13.499  1.00  0.00     0.022 A 
BRANCH  83  87
ATOM     87  S   UNL     1       9.825  -2.509 -16.246  1.00  0.00     0.124 S 
ATOM     88  O   UNL     1       9.456  -3.813 -16.781  1.00  0.00    -0.237 OA
ATOM     89  O   UNL     1       9.093  -1.361 -16.770  1.00  0.00    -0.237 OA
ATOM     90  O   UNL     1      11.263  -2.292 -16.085  1.00  0.00    -0.744 OA
ENDBRANCH  83  87
ENDBRANCH  56  80
BRANCH  68  91
ATOM     91  C   UNL     1       1.044  -2.464 -13.279  1.00  0.00     0.023 A 
ATOM     92  C   UNL     1       1.554  -3.647 -12.699  1.00  0.00     0.031 A 
ATOM     93  C   UNL     1      -0.153  -2.561 -14.009  1.00  0.00     0.131 A 
ATOM     94  C   UNL     1       0.882  -4.870 -12.874  1.00  0.00     0.055 A 
ATOM     95  C   UNL     1      -0.828  -3.772 -14.166  1.00  0.00     0.041 A 
ATOM     96  F   UNL     1      -0.714  -1.464 -14.547  1.00  0.00    -0.206 F 
ATOM     97  C   UNL     1      -0.309  -4.934 -13.603  1.00  0.00     0.022 A 
BRANCH  94  98
ATOM     98  S   UNL     1       1.556  -6.395 -12.145  1.00  0.00     0.124 S 
ATOM     99  O   UNL     1       2.952  -6.388 -12.569  1.00  0.00    -0.237 OA
ATOM    100  O   UNL     1       1.318  -6.195 -10.719  1.00  0.00    -0.237 OA
ATOM    101  O   UNL     1       0.743  -7.449 -12.754  1.00  0.00    -0.744 OA
ENDBRANCH  94  98
ENDBRANCH  68  91
ENDBRANCH  42  43
ENDBRANCH  35  37
ENDBRANCH  34  35
ENDBRANCH  33  34
ENDBRANCH   1  33
TORSDOF 19
