REMARK SMILES CCOC(=O)C1=NN(c2ccc([N+](=O)[O-])cc2C(F)(F)F)[C@@](C)(C(=O)OCCOC(=O)c2ccc(-c3c4nc(c(-c5cc(S(=O)(=O)[O-])ccc5F)c5ccc([nH]5)c(-c5cc(S(=O)(=O)[O-])ccc5F)c5nc(c(-c6cc(S(=O)(=O)[O-])ccc6F)c6ccc3[nH]6)C=C5)C=C4)cc2)C1
REMARK SMILES IDX 27 1 26 2 24 3 25 4 22 5 6 6 7 7 95 8 8 9 23 10 4 11 5 12
REMARK SMILES IDX 3 13 2 14 1 15 9 16 10 17 17 18 11 19 16 20 12 21 18 22
REMARK SMILES IDX 19 23 20 24 21 25 13 26 14 27 15 28 28 29 29 30 30 31 31 32
REMARK SMILES IDX 32 33 33 34 94 35 34 36 93 37 35 38 36 39 37 40 87 41 38 42
REMARK SMILES IDX 92 43 86 44 88 45 39 46 91 47 85 48 84 49 40 51 72 52 52 53
REMARK SMILES IDX 71 54 53 55 56 56 70 57 89 58 54 59 55 60 69 62 90 63 57 64
REMARK SMILES IDX 41 65 42 66 50 67 43 68 49 69 51 70 48 71 44 72 45 73 46 74
REMARK SMILES IDX 47 75 73 76 74 77 82 78 75 79 81 80 83 81 80 82 76 83 77 84
REMARK SMILES IDX 78 85 79 86 58 87 59 88 67 89 60 90 66 91 68 92 65 93 61 94
REMARK SMILES IDX 62 95 63 96 64 97
REMARK H PARENT 88 50 56 61
REMARK Flexibility Score: inf
ROOT
ATOM      1  C   UNL     1       6.635  -2.692   6.699  1.00  0.00     0.274 C 
ENDROOT
BRANCH   1   2
ATOM      2  O   UNL     1       5.396  -1.952   6.631  1.00  0.00    -0.460 OA
BRANCH   2   3
ATOM      3  C   UNL     1       5.413  -0.835   5.855  1.00  0.00     0.334 C 
ATOM      4  O   UNL     1       6.404  -0.469   5.224  1.00  0.00    -0.249 OA
BRANCH   3   5
ATOM      5  C   UNL     1       4.132   0.019   5.910  1.00  0.00     0.163 C 
ATOM      6  C   UNL     1       2.569  -0.710   4.372  1.00  0.00     0.149 C 
ATOM      7  N   UNL     1       2.168  -1.228   5.490  1.00  0.00    -0.169 NA
ATOM      8  C   UNL     1       3.642   0.324   4.475  1.00  0.00     0.108 C 
ATOM      9  N   UNL     1       2.942  -0.668   6.468  1.00  0.00    -0.247 N 
ATOM     10  C   UNL     1       4.545   1.298   6.632  1.00  0.00     0.050 C 
BRANCH   6  11
ATOM     11  C   UNL     1       1.960  -1.087   3.048  1.00  0.00     0.354 C 
ATOM     12  O   UNL     1       2.298  -2.092   2.462  1.00  0.00    -0.245 OA
BRANCH  11  13
ATOM     13  O   UNL     1       1.027  -0.178   2.710  1.00  0.00    -0.461 OA
BRANCH  13  14
ATOM     14  C   UNL     1       0.265  -0.487   1.528  1.00  0.00     0.230 C 
ATOM     15  C   UNL     1       0.747   0.376   0.379  1.00  0.00     0.049 C 
ENDBRANCH  13  14
ENDBRANCH  11  13
ENDBRANCH   6  11
BRANCH   9  16
ATOM     16  C   UNL     1       2.586  -0.972   7.768  1.00  0.00     0.073 A 
ATOM     17  C   UNL     1       2.600  -2.331   8.159  1.00  0.00     0.036 A 
ATOM     18  C   UNL     1       2.024  -0.038   8.659  1.00  0.00     0.088 A 
ATOM     19  C   UNL     1       2.123  -2.760   9.400  1.00  0.00     0.088 A 
ATOM     20  C   UNL     1       1.586  -0.464   9.936  1.00  0.00     0.101 A 
ATOM     21  C   UNL     1       1.623  -1.816  10.292  1.00  0.00     0.270 A 
BRANCH  18  22
ATOM     22  C   UNL     1       1.782   1.411   8.309  1.00  0.00     0.418 C 
ATOM     23  F   UNL     1       0.672   1.918   8.925  1.00  0.00    -0.166 F 
ATOM     24  F   UNL     1       2.806   2.208   8.729  1.00  0.00    -0.166 F 
ATOM     25  F   UNL     1       1.605   1.677   6.988  1.00  0.00    -0.166 F 
ENDBRANCH  18  22
BRANCH  21  26
ATOM     26  N   UNL     1       1.089  -2.240  11.591  1.00  0.00     0.062 N 
ATOM     27  O   UNL     1       0.962  -3.455  11.797  1.00  0.00    -0.258 OA
ATOM     28  O   UNL     1       0.805  -1.356  12.412  1.00  0.00    -0.258 OA
ENDBRANCH  21  26
ENDBRANCH   9  16
ENDBRANCH   3   5
ENDBRANCH   2   3
ENDBRANCH   1   2
BRANCH   1  29
ATOM     29  C   UNL     1       6.633  -3.877   5.737  1.00  0.00     0.275 C 
BRANCH  29  30
ATOM     30  O   UNL     1       6.485  -3.396   4.394  1.00  0.00    -0.458 OA
BRANCH  30  31
ATOM     31  C   UNL     1       5.550  -4.023   3.639  1.00  0.00     0.338 C 
ATOM     32  O   UNL     1       4.907  -5.010   3.954  1.00  0.00    -0.246 OA
BRANCH  31  33
ATOM     33  C   UNL     1       5.412  -3.326   2.341  1.00  0.00     0.060 A 
ATOM     34  C   UNL     1       5.493  -1.937   2.267  1.00  0.00     0.016 A 
ATOM     35  C   UNL     1       5.099  -4.057   1.197  1.00  0.00     0.016 A 
ATOM     36  C   UNL     1       5.138  -1.271   1.096  1.00  0.00     0.010 A 
ATOM     37  C   UNL     1       4.871  -3.391  -0.013  1.00  0.00     0.010 A 
ATOM     38  C   UNL     1       4.843  -1.986  -0.072  1.00  0.00    -0.014 A 
BRANCH  38  39
ATOM     39  C   UNL     1       4.476  -1.280  -1.336  1.00  0.00     0.031 A 
ATOM     40  C   UNL     1       3.195  -1.631  -2.053  1.00  0.00     0.074 A 
ATOM     41  C   UNL     1       5.274  -0.319  -1.849  1.00  0.00     0.049 A 
ATOM     42  N   UNL     1       2.808  -1.313  -3.263  1.00  0.00    -0.248 NA
ATOM     43  C   UNL     1       2.223  -2.450  -1.311  1.00  0.00     0.031 C 
ATOM     44  C   UNL     1       6.505   0.184  -1.234  1.00  0.00     0.029 A 
ATOM     45  N   UNL     1       5.174   0.406  -3.014  1.00  0.00    -0.354 N 
ATOM     46  C   UNL     1       1.573  -1.929  -3.445  1.00  0.00     0.074 A 
ATOM     47  C   UNL     1       1.279  -2.645  -2.221  1.00  0.00     0.031 C 
ATOM     48  C   UNL     1       7.023   1.151  -2.003  1.00  0.00     0.029 A 
ATOM     49  C   UNL     1       6.243   1.248  -3.229  1.00  0.00     0.049 A 
ATOM     50  H   UNL     1       4.413   0.331  -3.633  1.00  0.00     0.167 HD
ATOM     51  C   UNL     1       0.764  -1.901  -4.533  1.00  0.00     0.034 A 
ATOM     52  C   UNL     1       6.612   1.954  -4.317  1.00  0.00     0.034 A 
ATOM     53  C   UNL     1       1.061  -1.168  -5.740  1.00  0.00     0.049 A 
ATOM     54  C   UNL     1       5.773   1.861  -5.561  1.00  0.00     0.074 A 
ATOM     55  C   UNL     1       0.307  -1.066  -6.897  1.00  0.00     0.029 A 
ATOM     56  N   UNL     1       2.207  -0.412  -5.948  1.00  0.00    -0.354 N 
ATOM     57  N   UNL     1       4.651   1.207  -5.751  1.00  0.00    -0.248 NA
ATOM     58  C   UNL     1       6.266   2.574  -6.745  1.00  0.00     0.031 C 
ATOM     59  C   UNL     1       1.026  -0.303  -7.825  1.00  0.00     0.029 A 
ATOM     60  C   UNL     1       2.199   0.127  -7.225  1.00  0.00     0.049 A 
ATOM     61  H   UNL     1       2.922  -0.279  -5.284  1.00  0.00     0.167 HD
ATOM     62  C   UNL     1       4.304   1.432  -7.079  1.00  0.00     0.074 A 
ATOM     63  C   UNL     1       5.323   2.299  -7.635  1.00  0.00     0.031 C 
ATOM     64  C   UNL     1       3.238   0.963  -7.776  1.00  0.00     0.034 A 
BRANCH  51  65
ATOM     65  C   UNL     1      -0.490  -2.739  -4.488  1.00  0.00     0.023 A 
ATOM     66  C   UNL     1      -1.556  -2.438  -3.624  1.00  0.00     0.031 A 
ATOM     67  C   UNL     1      -0.611  -3.870  -5.316  1.00  0.00     0.131 A 
ATOM     68  C   UNL     1      -2.671  -3.288  -3.566  1.00  0.00     0.055 A 
ATOM     69  C   UNL     1      -1.750  -4.676  -5.300  1.00  0.00     0.041 A 
ATOM     70  F   UNL     1       0.385  -4.215  -6.148  1.00  0.00    -0.206 F 
ATOM     71  C   UNL     1      -2.784  -4.394  -4.412  1.00  0.00     0.022 A 
BRANCH  68  72
ATOM     72  S   UNL     1      -3.917  -2.998  -2.280  1.00  0.00     0.124 S 
ATOM     73  O   UNL     1      -3.100  -3.001  -1.067  1.00  0.00    -0.237 OA
ATOM     74  O   UNL     1      -4.474  -1.708  -2.669  1.00  0.00    -0.237 OA
ATOM     75  O   UNL     1      -4.821  -4.138  -2.416  1.00  0.00    -0.744 OA
ENDBRANCH  68  72
ENDBRANCH  51  65
BRANCH  52  76
ATOM     76  C   UNL     1       7.900   2.707  -4.317  1.00  0.00     0.023 A 
ATOM     77  C   UNL     1       7.930   4.103  -4.448  1.00  0.00     0.031 A 
ATOM     78  C   UNL     1       9.128   2.028  -4.201  1.00  0.00     0.131 A 
ATOM     79  C   UNL     1       9.164   4.774  -4.476  1.00  0.00     0.055 A 
ATOM     80  C   UNL     1      10.348   2.704  -4.176  1.00  0.00     0.041 A 
ATOM     81  F   UNL     1       9.157   0.691  -4.082  1.00  0.00    -0.206 F 
ATOM     82  C   UNL     1      10.371   4.086  -4.322  1.00  0.00     0.022 A 
BRANCH  79  83
ATOM     83  S   UNL     1       9.177   6.562  -4.780  1.00  0.00     0.124 S 
ATOM     84  O   UNL     1       8.521   6.648  -6.080  1.00  0.00    -0.237 OA
ATOM     85  O   UNL     1       8.416   7.068  -3.643  1.00  0.00    -0.237 OA
ATOM     86  O   UNL     1      10.599   6.898  -4.774  1.00  0.00    -0.744 OA
ENDBRANCH  79  83
ENDBRANCH  52  76
BRANCH  64  87
ATOM     87  C   UNL     1       3.123   1.405  -9.211  1.00  0.00     0.023 A 
ATOM     88  C   UNL     1       4.012   0.939 -10.194  1.00  0.00     0.031 A 
ATOM     89  C   UNL     1       2.130   2.324  -9.592  1.00  0.00     0.131 A 
ATOM     90  C   UNL     1       3.921   1.432 -11.505  1.00  0.00     0.055 A 
ATOM     91  C   UNL     1       2.012   2.771 -10.908  1.00  0.00     0.041 A 
ATOM     92  F   UNL     1       1.260   2.803  -8.688  1.00  0.00    -0.206 F 
ATOM     93  C   UNL     1       2.918   2.333 -11.871  1.00  0.00     0.022 A 
BRANCH  90  94
ATOM     94  S   UNL     1       5.182   0.937 -12.711  1.00  0.00     0.124 S 
ATOM     95  O   UNL     1       6.403   1.455 -12.102  1.00  0.00    -0.237 OA
ATOM     96  O   UNL     1       5.046  -0.515 -12.730  1.00  0.00    -0.237 OA
ATOM     97  O   UNL     1       4.766   1.613 -13.938  1.00  0.00    -0.744 OA
ENDBRANCH  90  94
ENDBRANCH  64  87
ENDBRANCH  38  39
ENDBRANCH  31  33
ENDBRANCH  30  31
ENDBRANCH  29  30
ENDBRANCH   1  29
TORSDOF 20
