REMARK SMILES Cc1cc([C@@H]([NH3+])C[C@H](C)CC(=O)OCCOC(=O)c2ccc(-c3c4nc(c(-c5cc(S(=O)(=O)[O-])ccc5F)c5ccc([nH]5)c(-c5cc(S(=O)(=O)[O-])ccc5F)c5nc(c(-c6cc(S(=O)(=O)[O-])ccc6F)c6ccc3[nH]6)C=C5)C=C4)cc2)ccc1F
REMARK SMILES IDX 14 1 13 2 11 3 12 4 10 5 8 6 9 7 7 8 5 9 4 10 1 11 2 12 3 13
REMARK SMILES IDX 84 14 83 15 85 16 82 17 6 18 15 22 16 23 17 24 18 25 19 26
REMARK SMILES IDX 20 27 81 28 21 29 80 30 22 31 23 32 24 33 74 34 25 35 79 36
REMARK SMILES IDX 73 37 75 38 26 39 78 40 72 41 71 42 27 44 59 45 39 46 58 47
REMARK SMILES IDX 40 48 43 49 57 50 76 51 41 52 42 53 56 55 77 56 44 57 28 58
REMARK SMILES IDX 29 59 37 60 30 61 36 62 38 63 35 64 31 65 32 66 33 67 34 68
REMARK SMILES IDX 60 69 61 70 69 71 62 72 68 73 70 74 67 75 63 76 64 77 65 78
REMARK SMILES IDX 66 79 45 80 46 81 54 82 47 83 53 84 55 85 52 86 48 87 49 88
REMARK SMILES IDX 50 89 51 90
REMARK H PARENT 6 19 6 20 6 21 75 43 43 54
REMARK Flexibility Score: inf
ROOT
ATOM      1  C   UNL     1      -5.991  -2.866   2.853  1.00  0.00     0.274 C 
ENDROOT
BRANCH   1   2
ATOM      2  O   UNL     1      -5.696  -1.469   2.647  1.00  0.00    -0.462 OA
BRANCH   2   3
ATOM      3  C   UNL     1      -5.688  -0.661   3.742  1.00  0.00     0.306 C 
ATOM      4  O   UNL     1      -6.049  -1.026   4.858  1.00  0.00    -0.252 OA
BRANCH   3   5
ATOM      5  C   UNL     1      -5.225   0.765   3.458  1.00  0.00     0.126 C 
BRANCH   5   6
ATOM      6  C   UNL     1      -4.648   1.073   2.057  1.00  0.00     0.003 C 
ATOM      7  C   UNL     1      -5.705   0.831   0.970  1.00  0.00     0.008 C 
BRANCH   6   8
ATOM      8  C   UNL     1      -4.091   2.528   1.984  1.00  0.00     0.074 C 
BRANCH   8   9
ATOM      9  C   UNL     1      -2.911   2.732   0.997  1.00  0.00     0.212 C 
BRANCH   9  10
ATOM     10  C   UNL     1      -3.195   2.389  -0.455  1.00  0.00     0.010 A 
ATOM     11  C   UNL     1      -3.248  -0.749  -2.640  1.00  0.00     0.047 C 
ATOM     12  C   UNL     1      -3.344   0.681  -2.210  1.00  0.00    -0.015 A 
ATOM     13  C   UNL     1      -3.046   1.058  -0.897  1.00  0.00     0.016 A 
ATOM     14  C   UNL     1      -3.777   1.667  -3.095  1.00  0.00     0.126 A 
ATOM     15  C   UNL     1      -3.910   2.993  -2.692  1.00  0.00     0.040 A 
ATOM     16  F   UNL     1      -4.089   1.338  -4.357  1.00  0.00    -0.207 F 
ATOM     17  C   UNL     1      -3.627   3.352  -1.375  1.00  0.00     0.013 A 
ENDBRANCH   9  10
BRANCH   9  18
ATOM     18  N   UNL     1      -2.340   4.082   1.136  1.00  0.00    -0.351 N 
ATOM     19  H   UNL     1      -3.033   4.776   0.857  1.00  0.00     0.345 HD
ATOM     20  H   UNL     1      -1.516   4.166   0.540  1.00  0.00     0.345 HD
ATOM     21  H   UNL     1      -2.073   4.240   2.108  1.00  0.00     0.345 HD
ENDBRANCH   9  18
ENDBRANCH   8   9
ENDBRANCH   6   8
ENDBRANCH   5   6
ENDBRANCH   3   5
ENDBRANCH   2   3
ENDBRANCH   1   2
BRANCH   1  22
ATOM     22  C   UNL     1      -4.725  -3.725   2.885  1.00  0.00     0.275 C 
BRANCH  22  23
ATOM     23  O   UNL     1      -4.011  -3.572   4.119  1.00  0.00    -0.458 OA
BRANCH  23  24
ATOM     24  C   UNL     1      -3.194  -2.494   4.097  1.00  0.00     0.338 C 
ATOM     25  O   UNL     1      -3.100  -1.679   3.193  1.00  0.00    -0.246 OA
BRANCH  24  26
ATOM     26  C   UNL     1      -2.205  -2.529   5.170  1.00  0.00     0.060 A 
ATOM     27  C   UNL     1      -1.763  -1.285   5.635  1.00  0.00     0.016 A 
ATOM     28  C   UNL     1      -1.376  -3.650   5.152  1.00  0.00     0.016 A 
ATOM     29  C   UNL     1      -0.404  -1.091   5.832  1.00  0.00     0.010 A 
ATOM     30  C   UNL     1      -0.027  -3.446   5.332  1.00  0.00     0.010 A 
ATOM     31  C   UNL     1       0.460  -2.150   5.568  1.00  0.00    -0.014 A 
BRANCH  31  32
ATOM     32  C   UNL     1       1.903  -2.005   5.509  1.00  0.00     0.031 A 
ATOM     33  C   UNL     1       2.677  -1.829   6.743  1.00  0.00     0.074 A 
ATOM     34  C   UNL     1       2.549  -2.138   4.330  1.00  0.00     0.049 A 
ATOM     35  N   UNL     1       3.896  -1.409   6.772  1.00  0.00    -0.248 NA
ATOM     36  C   UNL     1       2.107  -2.084   8.058  1.00  0.00     0.031 C 
ATOM     37  C   UNL     1       3.945  -2.490   4.124  1.00  0.00     0.029 A 
ATOM     38  N   UNL     1       2.101  -1.770   3.062  1.00  0.00    -0.354 N 
ATOM     39  C   UNL     1       4.367  -1.653   8.038  1.00  0.00     0.074 A 
ATOM     40  C   UNL     1       3.191  -1.952   8.828  1.00  0.00     0.031 C 
ATOM     41  C   UNL     1       4.317  -2.097   2.896  1.00  0.00     0.029 A 
ATOM     42  C   UNL     1       3.228  -1.310   2.347  1.00  0.00     0.049 A 
ATOM     43  H   UNL     1       1.176  -1.821   2.729  1.00  0.00     0.167 HD
ATOM     44  C   UNL     1       5.713  -1.758   8.232  1.00  0.00     0.034 A 
ATOM     45  C   UNL     1       3.349  -0.074   1.768  1.00  0.00     0.034 A 
ATOM     46  C   UNL     1       6.469  -1.448   7.014  1.00  0.00     0.049 A 
ATOM     47  C   UNL     1       4.559   0.706   2.222  1.00  0.00     0.074 A 
ATOM     48  C   UNL     1       7.067  -2.227   6.035  1.00  0.00     0.029 A 
ATOM     49  N   UNL     1       6.445  -0.158   6.508  1.00  0.00    -0.354 N 
ATOM     50  N   UNL     1       5.425   0.262   3.083  1.00  0.00    -0.248 NA
ATOM     51  C   UNL     1       4.792   2.109   1.865  1.00  0.00     0.031 C 
ATOM     52  C   UNL     1       7.423  -1.387   4.946  1.00  0.00     0.029 A 
ATOM     53  C   UNL     1       7.043  -0.096   5.259  1.00  0.00     0.049 A 
ATOM     54  H   UNL     1       6.054   0.615   6.976  1.00  0.00     0.167 HD
ATOM     55  C   UNL     1       6.208   1.298   3.504  1.00  0.00     0.074 A 
ATOM     56  C   UNL     1       5.805   2.427   2.688  1.00  0.00     0.031 C 
ATOM     57  C   UNL     1       7.077   1.171   4.544  1.00  0.00     0.034 A 
BRANCH  44  58
ATOM     58  C   UNL     1       6.307  -2.439   9.447  1.00  0.00     0.023 A 
ATOM     59  C   UNL     1       5.648  -2.540  10.689  1.00  0.00     0.031 A 
ATOM     60  C   UNL     1       7.551  -3.101   9.370  1.00  0.00     0.131 A 
ATOM     61  C   UNL     1       6.125  -3.381  11.711  1.00  0.00     0.055 A 
ATOM     62  C   UNL     1       8.063  -3.881  10.414  1.00  0.00     0.041 A 
ATOM     63  F   UNL     1       8.312  -3.056   8.268  1.00  0.00    -0.206 F 
ATOM     64  C   UNL     1       7.334  -4.054  11.579  1.00  0.00     0.022 A 
BRANCH  61  65
ATOM     65  S   UNL     1       5.123  -3.715  13.189  1.00  0.00     0.124 S 
ATOM     66  O   UNL     1       5.070  -5.177  13.203  1.00  0.00    -0.237 OA
ATOM     67  O   UNL     1       5.920  -3.111  14.251  1.00  0.00    -0.237 OA
ATOM     68  O   UNL     1       3.848  -3.062  12.903  1.00  0.00    -0.744 OA
ENDBRANCH  61  65
ENDBRANCH  44  58
BRANCH  45  69
ATOM     69  C   UNL     1       2.041   0.575   1.498  1.00  0.00     0.023 A 
ATOM     70  C   UNL     1       1.519   1.426   2.484  1.00  0.00     0.031 A 
ATOM     71  C   UNL     1       1.164  -0.111   0.639  1.00  0.00     0.131 A 
ATOM     72  C   UNL     1       0.159   1.354   2.769  1.00  0.00     0.055 A 
ATOM     73  C   UNL     1      -0.175  -0.233   0.976  1.00  0.00     0.041 A 
ATOM     74  F   UNL     1       1.639  -0.856  -0.373  1.00  0.00    -0.206 F 
ATOM     75  C   UNL     1      -0.653   0.432   2.102  1.00  0.00     0.022 A 
BRANCH  72  76
ATOM     76  S   UNL     1      -0.522   2.380   4.096  1.00  0.00     0.124 S 
ATOM     77  O   UNL     1      -0.671   3.663   3.415  1.00  0.00    -0.237 OA
ATOM     78  O   UNL     1      -1.776   1.716   4.428  1.00  0.00    -0.237 OA
ATOM     79  O   UNL     1       0.512   2.307   5.121  1.00  0.00    -0.744 OA
ENDBRANCH  72  76
ENDBRANCH  45  69
BRANCH  57  80
ATOM     80  C   UNL     1       8.027   2.250   4.968  1.00  0.00     0.023 A 
ATOM     81  C   UNL     1       8.376   2.389   6.326  1.00  0.00     0.031 A 
ATOM     82  C   UNL     1       8.732   3.046   4.048  1.00  0.00     0.131 A 
ATOM     83  C   UNL     1       9.369   3.290   6.726  1.00  0.00     0.055 A 
ATOM     84  C   UNL     1       9.691   3.980   4.453  1.00  0.00     0.041 A 
ATOM     85  F   UNL     1       8.553   2.904   2.725  1.00  0.00    -0.206 F 
ATOM     86  C   UNL     1      10.017   4.101   5.798  1.00  0.00     0.022 A 
BRANCH  83  87
ATOM     87  S   UNL     1       9.918   3.361   8.453  1.00  0.00     0.124 S 
ATOM     88  O   UNL     1      11.353   3.114   8.321  1.00  0.00    -0.237 OA
ATOM     89  O   UNL     1       9.551   4.724   8.826  1.00  0.00    -0.237 OA
ATOM     90  O   UNL     1       9.158   2.302   9.105  1.00  0.00    -0.744 OA
ENDBRANCH  83  87
ENDBRANCH  57  80
ENDBRANCH  31  32
ENDBRANCH  24  26
ENDBRANCH  23  24
ENDBRANCH  22  23
ENDBRANCH   1  22
TORSDOF 19
