REMARK SMILES C[C@H](NC(=O)NCCc1ccccc1F)C(=O)OCCOC(=O)c1ccc(-c2c3nc(c(-c4cc(S(=O)(=O)[O-])ccc4F)c4ccc([nH]4)c(-c4cc(S(=O)(=O)[O-])ccc4F)c4nc(c(-c5cc(S(=O)(=O)[O-])ccc5F)c5ccc2[nH]5)C=C4)C=C3)cc1
REMARK SMILES IDX 19 1 18 2 16 3 17 4 2 5 1 6 3 7 4 8 5 10 6 11 7 13 8 14 9 15
REMARK SMILES IDX 10 16 14 17 11 18 13 19 15 20 12 21 20 22 21 23 22 24 23 25
REMARK SMILES IDX 24 26 25 27 86 28 26 29 85 30 27 31 28 32 29 33 79 34 30 35
REMARK SMILES IDX 84 36 78 37 80 38 31 39 83 40 77 41 76 42 32 44 64 45 44 46
REMARK SMILES IDX 63 47 45 48 48 49 62 50 81 51 46 52 47 53 61 55 82 56 49 57
REMARK SMILES IDX 33 58 34 59 42 60 35 61 41 62 43 63 40 64 36 65 37 66 38 67
REMARK SMILES IDX 39 68 65 69 66 70 74 71 67 72 73 73 75 74 72 75 68 76 69 77
REMARK SMILES IDX 70 78 71 79 50 80 51 81 59 82 52 83 58 84 60 85 57 86 53 87
REMARK SMILES IDX 54 88 55 89 56 90
REMARK H PARENT 3 9 6 12 80 43 48 54
REMARK Flexibility Score: inf
ROOT
ATOM      1  C   UNL     1      -3.492  -0.442  -0.720  1.00  0.00     0.274 C 
ENDROOT
BRANCH   1   2
ATOM      2  O   UNL     1      -2.077  -0.638  -0.900  1.00  0.00    -0.461 OA
BRANCH   2   3
ATOM      3  C   UNL     1      -1.512   0.051  -1.930  1.00  0.00     0.328 C 
ATOM      4  O   UNL     1      -2.141   0.697  -2.763  1.00  0.00    -0.250 OA
BRANCH   3   5
ATOM      5  C   UNL     1       0.010  -0.136  -2.012  1.00  0.00     0.190 C 
ATOM      6  C   UNL     1       0.303  -1.024  -3.219  1.00  0.00     0.043 C 
BRANCH   5   7
ATOM      7  N   UNL     1       0.633  -0.669  -0.804  1.00  0.00    -0.325 N 
ATOM      8  C   UNL     1       1.903  -0.719  -0.372  1.00  0.00     0.315 C 
ATOM      9  H   UNL     1      -0.009  -1.076  -0.179  1.00  0.00     0.166 HD
ATOM     10  O   UNL     1       2.138  -1.283   0.698  1.00  0.00    -0.249 OA
ATOM     11  N   UNL     1       2.941  -0.196  -1.046  1.00  0.00    -0.338 N 
ATOM     12  H   UNL     1       3.804  -0.323  -0.589  1.00  0.00     0.165 HD
BRANCH  11  13
ATOM     13  C   UNL     1       3.062   0.518  -2.308  1.00  0.00     0.122 C 
BRANCH  13  14
ATOM     14  C   UNL     1       4.368   1.304  -2.465  1.00  0.00     0.060 C 
BRANCH  14  15
ATOM     15  C   UNL     1       5.626   0.563  -2.847  1.00  0.00    -0.010 A 
ATOM     16  C   UNL     1       5.777  -0.828  -2.805  1.00  0.00     0.007 A 
ATOM     17  C   UNL     1       6.726   1.331  -3.260  1.00  0.00     0.126 A 
ATOM     18  C   UNL     1       6.993  -1.420  -3.173  1.00  0.00     0.000 A 
ATOM     19  C   UNL     1       7.935   0.750  -3.628  1.00  0.00     0.039 A 
ATOM     20  F   UNL     1       6.619   2.666  -3.311  1.00  0.00    -0.207 F 
ATOM     21  C   UNL     1       8.070  -0.634  -3.585  1.00  0.00     0.003 A 
ENDBRANCH  14  15
ENDBRANCH  13  14
ENDBRANCH  11  13
ENDBRANCH   5   7
ENDBRANCH   3   5
ENDBRANCH   2   3
ENDBRANCH   1   2
BRANCH   1  22
ATOM     22  C   UNL     1      -3.784   0.430   0.504  1.00  0.00     0.275 C 
BRANCH  22  23
ATOM     23  O   UNL     1      -3.266   1.766   0.364  1.00  0.00    -0.458 OA
BRANCH  23  24
ATOM     24  C   UNL     1      -1.977   1.919   0.755  1.00  0.00     0.338 C 
ATOM     25  O   UNL     1      -1.239   1.040   1.178  1.00  0.00    -0.246 OA
BRANCH  24  26
ATOM     26  C   UNL     1      -1.518   3.295   0.498  1.00  0.00     0.060 A 
ATOM     27  C   UNL     1      -0.278   3.470  -0.125  1.00  0.00     0.016 A 
ATOM     28  C   UNL     1      -2.254   4.402   0.930  1.00  0.00     0.016 A 
ATOM     29  C   UNL     1       0.233   4.753  -0.316  1.00  0.00     0.010 A 
ATOM     30  C   UNL     1      -1.736   5.689   0.744  1.00  0.00     0.010 A 
ATOM     31  C   UNL     1      -0.485   5.872   0.129  1.00  0.00    -0.014 A 
BRANCH  31  32
ATOM     32  C   UNL     1       0.099   7.230  -0.004  1.00  0.00     0.031 A 
ATOM     33  C   UNL     1       0.689   7.912   1.199  1.00  0.00     0.074 A 
ATOM     34  C   UNL     1       0.125   7.837  -1.205  1.00  0.00     0.049 A 
ATOM     35  N   UNL     1       1.176   9.121   1.306  1.00  0.00    -0.248 NA
ATOM     36  C   UNL     1       0.737   7.129   2.443  1.00  0.00     0.031 C 
ATOM     37  C   UNL     1      -0.365   7.253  -2.454  1.00  0.00     0.029 A 
ATOM     38  N   UNL     1       0.588   9.076  -1.573  1.00  0.00    -0.354 N 
ATOM     39  C   UNL     1       1.584   9.251   2.629  1.00  0.00     0.074 A 
ATOM     40  C   UNL     1       1.266   8.002   3.290  1.00  0.00     0.031 C 
ATOM     41  C   UNL     1      -0.166   8.129  -3.453  1.00  0.00     0.029 A 
ATOM     42  C   UNL     1       0.418   9.353  -2.909  1.00  0.00     0.049 A 
ATOM     43  H   UNL     1       1.002   9.706  -0.941  1.00  0.00     0.167 HD
ATOM     44  C   UNL     1       2.171  10.312   3.232  1.00  0.00     0.034 A 
ATOM     45  C   UNL     1       0.677  10.475  -3.611  1.00  0.00     0.034 A 
ATOM     46  C   UNL     1       2.487  11.550   2.563  1.00  0.00     0.049 A 
ATOM     47  C   UNL     1       1.250  11.672  -2.900  1.00  0.00     0.074 A 
ATOM     48  C   UNL     1       3.083  12.684   3.088  1.00  0.00     0.029 A 
ATOM     49  N   UNL     1       2.232  11.819   1.226  1.00  0.00    -0.354 N 
ATOM     50  N   UNL     1       1.578  11.800  -1.635  1.00  0.00    -0.248 NA
ATOM     51  C   UNL     1       1.477  12.880  -3.706  1.00  0.00     0.031 C 
ATOM     52  C   UNL     1       3.137  13.657   2.085  1.00  0.00     0.029 A 
ATOM     53  C   UNL     1       2.634  13.109   0.916  1.00  0.00     0.049 A 
ATOM     54  H   UNL     1       1.826  11.186   0.590  1.00  0.00     0.167 HD
ATOM     55  C   UNL     1       2.064  13.096  -1.498  1.00  0.00     0.074 A 
ATOM     56  C   UNL     1       1.990  13.711  -2.808  1.00  0.00     0.031 C 
ATOM     57  C   UNL     1       2.535  13.717  -0.388  1.00  0.00     0.034 A 
BRANCH  44  58
ATOM     58  C   UNL     1       2.470  10.201   4.704  1.00  0.00     0.023 A 
ATOM     59  C   UNL     1       3.481   9.358   5.192  1.00  0.00     0.031 A 
ATOM     60  C   UNL     1       1.741  10.969   5.629  1.00  0.00     0.131 A 
ATOM     61  C   UNL     1       3.712   9.274   6.574  1.00  0.00     0.055 A 
ATOM     62  C   UNL     1       2.014  10.925   6.997  1.00  0.00     0.041 A 
ATOM     63  F   UNL     1       0.752  11.777   5.216  1.00  0.00    -0.206 F 
ATOM     64  C   UNL     1       3.001  10.069   7.477  1.00  0.00     0.022 A 
BRANCH  61  65
ATOM     65  S   UNL     1       4.909   8.058   7.188  1.00  0.00     0.124 S 
ATOM     66  O   UNL     1       4.261   6.800   6.824  1.00  0.00    -0.237 OA
ATOM     67  O   UNL     1       6.116   8.395   6.442  1.00  0.00    -0.237 OA
ATOM     68  O   UNL     1       4.968   8.330   8.623  1.00  0.00    -0.744 OA
ENDBRANCH  61  65
ENDBRANCH  44  58
BRANCH  45  69
ATOM     69  C   UNL     1       0.349  10.534  -5.061  1.00  0.00     0.023 A 
ATOM     70  C   UNL     1       1.359  10.585  -6.033  1.00  0.00     0.031 A 
ATOM     71  C   UNL     1      -0.990  10.541  -5.493  1.00  0.00     0.131 A 
ATOM     72  C   UNL     1       1.014  10.658  -7.392  1.00  0.00     0.055 A 
ATOM     73  C   UNL     1      -1.327  10.576  -6.846  1.00  0.00     0.041 A 
ATOM     74  F   UNL     1      -1.990  10.490  -4.599  1.00  0.00    -0.206 F 
ATOM     75  C   UNL     1      -0.321  10.640  -7.805  1.00  0.00     0.022 A 
BRANCH  72  76
ATOM     76  S   UNL     1       2.339  10.796  -8.624  1.00  0.00     0.124 S 
ATOM     77  O   UNL     1       2.899  12.105  -8.310  1.00  0.00    -0.237 OA
ATOM     78  O   UNL     1       3.176   9.644  -8.304  1.00  0.00    -0.237 OA
ATOM     79  O   UNL     1       1.628  10.709  -9.898  1.00  0.00    -0.744 OA
ENDBRANCH  72  76
ENDBRANCH  45  69
BRANCH  57  80
ATOM     80  C   UNL     1       3.035  15.129  -0.543  1.00  0.00     0.023 A 
ATOM     81  C   UNL     1       2.152  16.207  -0.721  1.00  0.00     0.031 A 
ATOM     82  C   UNL     1       4.413  15.400  -0.468  1.00  0.00     0.131 A 
ATOM     83  C   UNL     1       2.659  17.509  -0.842  1.00  0.00     0.055 A 
ATOM     84  C   UNL     1       4.909  16.702  -0.547  1.00  0.00     0.041 A 
ATOM     85  F   UNL     1       5.296  14.404  -0.296  1.00  0.00    -0.206 F 
ATOM     86  C   UNL     1       4.030  17.765  -0.739  1.00  0.00     0.022 A 
BRANCH  83  87
ATOM     87  S   UNL     1       1.506  18.873  -1.159  1.00  0.00     0.124 S 
ATOM     88  O   UNL     1       1.013  18.546  -2.494  1.00  0.00    -0.237 OA
ATOM     89  O   UNL     1       0.543  18.733  -0.072  1.00  0.00    -0.237 OA
ATOM     90  O   UNL     1       2.352  20.062  -1.085  1.00  0.00    -0.744 OA
ENDBRANCH  83  87
ENDBRANCH  57  80
ENDBRANCH  31  32
ENDBRANCH  24  26
ENDBRANCH  23  24
ENDBRANCH  22  23
ENDBRANCH   1  22
TORSDOF 18
