REMARK SMILES Cc1cc(C(F)(F)F)nn1CCC(=O)OCCOC(=O)c1ccc(-c2c3nc(c(-c4cc(S(=O)(=O)[O-])ccc4F)c4ccc([nH]4)c(-c4cc(S(=O)(=O)[O-])ccc4F)c4nc(c(-c5cc(S(=O)(=O)[O-])ccc5F)c5ccc2[nH]5)C=C4)C=C3)cc1
REMARK SMILES IDX 16 1 15 2 13 3 14 4 12 5 11 6 10 7 1 8 2 9 3 10 4 11 9 12
REMARK SMILES IDX 5 13 6 14 7 15 8 16 17 17 18 18 19 19 20 20 21 21 22 22
REMARK SMILES IDX 83 23 23 24 82 25 24 26 25 27 26 28 76 29 27 30 81 31 75 32
REMARK SMILES IDX 77 33 28 34 80 35 74 36 73 37 29 39 61 40 41 41 60 42 42 43
REMARK SMILES IDX 45 44 59 45 78 46 43 47 44 48 58 50 79 51 46 52 30 53 31 54
REMARK SMILES IDX 39 55 32 56 38 57 40 58 37 59 33 60 34 61 35 62 36 63 62 64
REMARK SMILES IDX 63 65 71 66 64 67 70 68 72 69 69 70 65 71 66 72 67 73 68 74
REMARK SMILES IDX 47 75 48 76 56 77 49 78 55 79 57 80 54 81 50 82 51 83 52 84
REMARK SMILES IDX 53 85
REMARK H PARENT 77 38 45 49
REMARK Flexibility Score: inf
ROOT
ATOM      1  C   UNL     1      -3.427  -4.752  -0.115  1.00  0.00     0.274 C 
ENDROOT
BRANCH   1   2
ATOM      2  O   UNL     1      -2.840  -3.467  -0.388  1.00  0.00    -0.462 OA
BRANCH   2   3
ATOM      3  C   UNL     1      -3.570  -2.361  -0.108  1.00  0.00     0.307 C 
ATOM      4  O   UNL     1      -4.774  -2.365   0.128  1.00  0.00    -0.252 OA
BRANCH   3   5
ATOM      5  C   UNL     1      -2.762  -1.088  -0.247  1.00  0.00     0.146 C 
BRANCH   5   6
ATOM      6  C   UNL     1      -1.617  -0.856   0.738  1.00  0.00     0.156 C 
BRANCH   6   7
ATOM      7  N   UNL     1      -0.431  -1.662   0.500  1.00  0.00    -0.269 N 
ATOM      8  C   UNL     1       1.154   0.164  -0.205  1.00  0.00     0.066 C 
ATOM      9  C   UNL     1       0.791  -1.254   0.026  1.00  0.00     0.036 A 
ATOM     10  C   UNL     1       1.518  -2.412  -0.168  1.00  0.00     0.058 A 
ATOM     11  C   UNL     1       0.688  -3.469   0.279  1.00  0.00     0.166 A 
ATOM     12  N   UNL     1      -0.468  -2.979   0.748  1.00  0.00    -0.168 NA
BRANCH  11  13
ATOM     13  C   UNL     1       0.965  -4.944   0.244  1.00  0.00     0.435 C 
ATOM     14  F   UNL     1       0.907  -5.538   1.466  1.00  0.00    -0.164 F 
ATOM     15  F   UNL     1       0.084  -5.614  -0.555  1.00  0.00    -0.164 F 
ATOM     16  F   UNL     1       2.203  -5.218  -0.258  1.00  0.00    -0.164 F 
ENDBRANCH  11  13
ENDBRANCH   6   7
ENDBRANCH   5   6
ENDBRANCH   3   5
ENDBRANCH   2   3
ENDBRANCH   1   2
BRANCH   1  17
ATOM     17  C   UNL     1      -3.241  -5.196   1.335  1.00  0.00     0.275 C 
BRANCH  17  18
ATOM     18  O   UNL     1      -4.226  -4.626   2.204  1.00  0.00    -0.458 OA
BRANCH  18  19
ATOM     19  C   UNL     1      -3.836  -3.485   2.800  1.00  0.00     0.338 C 
ATOM     20  O   UNL     1      -2.874  -2.789   2.490  1.00  0.00    -0.246 OA
BRANCH  19  21
ATOM     21  C   UNL     1      -4.577  -3.213   4.021  1.00  0.00     0.060 A 
ATOM     22  C   UNL     1      -4.338  -1.982   4.651  1.00  0.00     0.016 A 
ATOM     23  C   UNL     1      -5.273  -4.247   4.651  1.00  0.00     0.016 A 
ATOM     24  C   UNL     1      -4.693  -1.830   5.972  1.00  0.00     0.010 A 
ATOM     25  C   UNL     1      -5.616  -4.097   5.975  1.00  0.00     0.010 A 
ATOM     26  C   UNL     1      -5.277  -2.911   6.633  1.00  0.00    -0.014 A 
BRANCH  26  27
ATOM     27  C   UNL     1      -5.647  -2.736   8.023  1.00  0.00     0.031 A 
ATOM     28  C   UNL     1      -6.852  -1.899   8.222  1.00  0.00     0.074 A 
ATOM     29  C   UNL     1      -5.050  -3.426   9.011  1.00  0.00     0.049 A 
ATOM     30  N   UNL     1      -6.971  -0.815   8.911  1.00  0.00    -0.248 NA
ATOM     31  C   UNL     1      -8.049  -2.245   7.437  1.00  0.00     0.031 C 
ATOM     32  C   UNL     1      -4.056  -4.492   8.866  1.00  0.00     0.029 A 
ATOM     33  N   UNL     1      -5.314  -3.418  10.346  1.00  0.00    -0.354 N 
ATOM     34  C   UNL     1      -8.316  -0.467   8.828  1.00  0.00     0.074 A 
ATOM     35  C   UNL     1      -8.872  -1.251   7.762  1.00  0.00     0.031 C 
ATOM     36  C   UNL     1      -3.975  -5.178  10.026  1.00  0.00     0.029 A 
ATOM     37  C   UNL     1      -4.819  -4.529  11.018  1.00  0.00     0.049 A 
ATOM     38  H   UNL     1      -5.809  -2.695  10.794  1.00  0.00     0.167 HD
ATOM     39  C   UNL     1      -8.921   0.252   9.810  1.00  0.00     0.034 A 
ATOM     40  C   UNL     1      -5.146  -4.939  12.269  1.00  0.00     0.034 A 
ATOM     41  C   UNL     1      -7.949   0.967  10.604  1.00  0.00     0.049 A 
ATOM     42  C   UNL     1      -5.725  -3.777  12.983  1.00  0.00     0.074 A 
ATOM     43  C   UNL     1      -6.990   1.923  10.330  1.00  0.00     0.029 A 
ATOM     44  N   UNL     1      -7.633   0.465  11.846  1.00  0.00    -0.354 N 
ATOM     45  N   UNL     1      -5.046  -2.710  13.298  1.00  0.00    -0.248 NA
ATOM     46  C   UNL     1      -7.171  -3.607  12.992  1.00  0.00     0.031 C 
ATOM     47  C   UNL     1      -5.903   1.628  11.204  1.00  0.00     0.029 A 
ATOM     48  C   UNL     1      -6.270   0.542  12.000  1.00  0.00     0.049 A 
ATOM     49  H   UNL     1      -8.271   0.113  12.507  1.00  0.00     0.167 HD
ATOM     50  C   UNL     1      -5.926  -1.656  13.118  1.00  0.00     0.074 A 
ATOM     51  C   UNL     1      -7.246  -2.275  13.069  1.00  0.00     0.031 C 
ATOM     52  C   UNL     1      -5.476  -0.423  12.740  1.00  0.00     0.034 A 
BRANCH  39  53
ATOM     53  C   UNL     1     -10.342   0.014  10.278  1.00  0.00     0.023 A 
ATOM     54  C   UNL     1     -10.810   0.816  11.335  1.00  0.00     0.031 A 
ATOM     55  C   UNL     1     -11.144  -1.110   9.965  1.00  0.00     0.131 A 
ATOM     56  C   UNL     1     -11.935   0.439  12.087  1.00  0.00     0.055 A 
ATOM     57  C   UNL     1     -12.305  -1.440  10.670  1.00  0.00     0.041 A 
ATOM     58  F   UNL     1     -10.815  -2.008   9.030  1.00  0.00    -0.206 F 
ATOM     59  C   UNL     1     -12.688  -0.684  11.762  1.00  0.00     0.022 A 
BRANCH  56  60
ATOM     60  S   UNL     1     -12.275   1.336  13.622  1.00  0.00     0.124 S 
ATOM     61  O   UNL     1     -10.981   1.272  14.293  1.00  0.00    -0.237 OA
ATOM     62  O   UNL     1     -12.678   2.645  13.118  1.00  0.00    -0.237 OA
ATOM     63  O   UNL     1     -13.339   0.551  14.243  1.00  0.00    -0.744 OA
ENDBRANCH  56  60
ENDBRANCH  39  53
BRANCH  40  64
ATOM     64  C   UNL     1      -5.238  -6.337  12.759  1.00  0.00     0.023 A 
ATOM     65  C   UNL     1      -5.178  -6.658  14.129  1.00  0.00     0.031 A 
ATOM     66  C   UNL     1      -5.617  -7.375  11.877  1.00  0.00     0.131 A 
ATOM     67  C   UNL     1      -5.484  -7.966  14.564  1.00  0.00     0.055 A 
ATOM     68  C   UNL     1      -5.901  -8.670  12.310  1.00  0.00     0.041 A 
ATOM     69  F   UNL     1      -5.807  -7.142  10.569  1.00  0.00    -0.206 F 
ATOM     70  C   UNL     1      -5.844  -8.970  13.661  1.00  0.00     0.022 A 
BRANCH  67  71
ATOM     71  S   UNL     1      -5.526  -8.350  16.343  1.00  0.00     0.124 S 
ATOM     72  O   UNL     1      -4.113  -8.316  16.701  1.00  0.00    -0.237 OA
ATOM     73  O   UNL     1      -6.358  -7.277  16.876  1.00  0.00    -0.237 OA
ATOM     74  O   UNL     1      -6.140  -9.678  16.390  1.00  0.00    -0.744 OA
ENDBRANCH  67  71
ENDBRANCH  40  64
BRANCH  52  75
ATOM     75  C   UNL     1      -3.998  -0.130  12.893  1.00  0.00     0.023 A 
ATOM     76  C   UNL     1      -2.961  -0.869  12.277  1.00  0.00     0.031 A 
ATOM     77  C   UNL     1      -3.636   1.016  13.622  1.00  0.00     0.131 A 
ATOM     78  C   UNL     1      -1.622  -0.460  12.423  1.00  0.00     0.055 A 
ATOM     79  C   UNL     1      -2.311   1.430  13.747  1.00  0.00     0.041 A 
ATOM     80  F   UNL     1      -4.578   1.778  14.205  1.00  0.00    -0.206 F 
ATOM     81  C   UNL     1      -1.297   0.688  13.154  1.00  0.00     0.022 A 
BRANCH  78  82
ATOM     82  S   UNL     1      -0.270  -1.426  11.676  1.00  0.00     0.124 S 
ATOM     83  O   UNL     1      -0.586  -2.801  12.044  1.00  0.00    -0.237 OA
ATOM     84  O   UNL     1      -0.395  -1.096  10.259  1.00  0.00    -0.237 OA
ATOM     85  O   UNL     1       0.929  -0.885  12.319  1.00  0.00    -0.744 OA
ENDBRANCH  78  82
ENDBRANCH  52  75
ENDBRANCH  26  27
ENDBRANCH  19  21
ENDBRANCH  18  19
ENDBRANCH  17  18
ENDBRANCH   1  17
TORSDOF 17
