REMARK SMILES Cc1ccc([C@H](C)Nc2ccc(C(=O)OCCOC(=O)c3ccc(-c4c5nc(c(-c6cc(S(=O)(=O)[O-])ccc6F)c6ccc([nH]6)c(-c6cc(S(=O)(=O)[O-])ccc6F)c6nc(c(-c7cc(S(=O)(=O)[O-])ccc7F)c7ccc4[nH]7)C=C6)C=C5)cc3)cc2Cl)cc1F
REMARK SMILES IDX 16 1 15 2 13 3 14 4 12 5 9 6 10 7 85 8 11 9 84 10 86 11 8 12
REMARK SMILES IDX 6 14 7 15 5 16 1 17 2 18 3 19 88 20 4 21 87 22 89 23 17 24
REMARK SMILES IDX 18 25 19 26 20 27 21 28 22 29 83 30 23 31 82 32 24 33 25 34
REMARK SMILES IDX 26 35 76 36 27 37 81 38 75 39 77 40 28 41 80 42 74 43 73 44
REMARK SMILES IDX 29 46 61 47 41 48 60 49 42 50 45 51 59 52 78 53 43 54 44 55
REMARK SMILES IDX 58 57 79 58 46 59 30 60 31 61 39 62 32 63 38 64 40 65 37 66
REMARK SMILES IDX 33 67 34 68 35 69 36 70 62 71 63 72 71 73 64 74 70 75 72 76
REMARK SMILES IDX 69 77 65 78 66 79 67 80 68 81 47 82 48 83 56 84 49 85 55 86
REMARK SMILES IDX 57 87 54 88 50 89 51 90 52 91 53 92
REMARK H PARENT 8 13 77 45 45 56
REMARK Flexibility Score: inf
ROOT
ATOM      1  C   UNL     1      -9.733  -1.610   5.434  1.00  0.00     0.275 C 
ENDROOT
BRANCH   1   2
ATOM      2  O   UNL     1      -8.660  -1.705   4.473  1.00  0.00    -0.458 OA
BRANCH   2   3
ATOM      3  C   UNL     1      -7.454  -1.181   4.827  1.00  0.00     0.338 C 
ATOM      4  O   UNL     1      -7.214  -0.575   5.864  1.00  0.00    -0.246 OA
BRANCH   3   5
ATOM      5  C   UNL     1      -6.426  -1.483   3.797  1.00  0.00     0.061 A 
ATOM      6  C   UNL     1      -4.450  -2.180   1.879  1.00  0.00     0.053 A 
ATOM      7  C   UNL     1      -4.112  -1.883   3.207  1.00  0.00     0.028 A 
ATOM      8  C   UNL     1      -5.802  -2.031   1.516  1.00  0.00     0.065 A 
ATOM      9  C   UNL     1      -5.077  -1.514   4.150  1.00  0.00     0.018 A 
ATOM     10  C   UNL     1      -6.782  -1.729   2.472  1.00  0.00     0.038 A 
ATOM     11  Cl  UNL     1      -6.389  -2.263  -0.096  1.00  0.00    -0.082 Cl
BRANCH   6  12
ATOM     12  N   UNL     1      -3.426  -2.598   1.043  1.00  0.00    -0.377 N 
ATOM     13  H   UNL     1      -2.948  -3.425   1.282  1.00  0.00     0.161 HD
BRANCH  12  14
ATOM     14  C   UNL     1      -3.011  -1.900  -0.163  1.00  0.00     0.106 C 
ATOM     15  C   UNL     1      -1.809  -1.012   0.196  1.00  0.00     0.036 C 
BRANCH  14  16
ATOM     16  C   UNL     1      -2.807  -2.905  -1.300  1.00  0.00    -0.023 A 
ATOM     17  C   UNL     1      -2.800  -5.519  -4.764  1.00  0.00     0.047 C 
ATOM     18  C   UNL     1      -2.756  -4.633  -3.559  1.00  0.00    -0.015 A 
ATOM     19  C   UNL     1      -1.819  -3.605  -3.428  1.00  0.00     0.007 A 
ATOM     20  C   UNL     1      -3.693  -4.807  -2.546  1.00  0.00     0.126 A 
ATOM     21  C   UNL     1      -1.849  -2.747  -2.315  1.00  0.00     0.006 A 
ATOM     22  C   UNL     1      -3.710  -3.977  -1.433  1.00  0.00     0.045 A 
ATOM     23  F   UNL     1      -4.622  -5.769  -2.655  1.00  0.00    -0.207 F 
ENDBRANCH  14  16
ENDBRANCH  12  14
ENDBRANCH   6  12
ENDBRANCH   3   5
ENDBRANCH   2   3
ENDBRANCH   1   2
BRANCH   1  24
ATOM     24  C   UNL     1      -9.857  -2.837   6.338  1.00  0.00     0.275 C 
BRANCH  24  25
ATOM     25  O   UNL     1      -8.787  -2.875   7.279  1.00  0.00    -0.458 OA
BRANCH  25  26
ATOM     26  C   UNL     1      -7.695  -3.473   6.756  1.00  0.00     0.338 C 
ATOM     27  O   UNL     1      -7.580  -3.945   5.636  1.00  0.00    -0.246 OA
BRANCH  26  28
ATOM     28  C   UNL     1      -6.679  -3.661   7.780  1.00  0.00     0.060 A 
ATOM     29  C   UNL     1      -5.358  -3.648   7.316  1.00  0.00     0.016 A 
ATOM     30  C   UNL     1      -7.106  -4.458   8.838  1.00  0.00     0.016 A 
ATOM     31  C   UNL     1      -4.514  -4.661   7.703  1.00  0.00     0.010 A 
ATOM     32  C   UNL     1      -6.274  -5.479   9.201  1.00  0.00     0.010 A 
ATOM     33  C   UNL     1      -5.036  -5.620   8.552  1.00  0.00    -0.014 A 
BRANCH  33  34
ATOM     34  C   UNL     1      -4.303  -6.797   8.929  1.00  0.00     0.031 A 
ATOM     35  C   UNL     1      -3.373  -6.646  10.050  1.00  0.00     0.074 A 
ATOM     36  C   UNL     1      -4.793  -7.973   8.484  1.00  0.00     0.049 A 
ATOM     37  N   UNL     1      -2.637  -7.596  10.493  1.00  0.00    -0.248 NA
ATOM     38  C   UNL     1      -3.168  -5.377  10.752  1.00  0.00     0.031 C 
ATOM     39  C   UNL     1      -4.763  -9.251   9.171  1.00  0.00     0.029 A 
ATOM     40  N   UNL     1      -5.311  -8.276   7.218  1.00  0.00    -0.354 N 
ATOM     41  C   UNL     1      -2.164  -7.186  11.718  1.00  0.00     0.074 A 
ATOM     42  C   UNL     1      -2.377  -5.761  11.758  1.00  0.00     0.031 C 
ATOM     43  C   UNL     1      -5.000 -10.226   8.277  1.00  0.00     0.029 A 
ATOM     44  C   UNL     1      -4.937  -9.609   6.961  1.00  0.00     0.049 A 
ATOM     45  H   UNL     1      -5.830  -7.680   6.630  1.00  0.00     0.167 HD
ATOM     46  C   UNL     1      -1.821  -8.147  12.617  1.00  0.00     0.034 A 
ATOM     47  C   UNL     1      -4.052  -9.966   5.977  1.00  0.00     0.034 A 
ATOM     48  C   UNL     1      -1.930  -9.472  12.002  1.00  0.00     0.049 A 
ATOM     49  C   UNL     1      -2.803 -10.661   6.514  1.00  0.00     0.074 A 
ATOM     50  C   UNL     1      -2.880 -10.479  12.041  1.00  0.00     0.029 A 
ATOM     51  N   UNL     1      -1.117  -9.757  10.923  1.00  0.00    -0.354 N 
ATOM     52  N   UNL     1      -2.532 -10.799   7.782  1.00  0.00    -0.248 NA
ATOM     53  C   UNL     1      -1.716 -11.162   5.671  1.00  0.00     0.031 C 
ATOM     54  C   UNL     1      -2.603 -11.388  10.978  1.00  0.00     0.029 A 
ATOM     55  C   UNL     1      -1.478 -10.940  10.310  1.00  0.00     0.049 A 
ATOM     56  H   UNL     1      -0.371  -9.186  10.627  1.00  0.00     0.167 HD
ATOM     57  C   UNL     1      -1.264 -11.284   7.945  1.00  0.00     0.074 A 
ATOM     58  C   UNL     1      -0.799 -11.518   6.590  1.00  0.00     0.031 C 
ATOM     59  C   UNL     1      -0.685 -11.396   9.178  1.00  0.00     0.034 A 
BRANCH  46  60
ATOM     60  C   UNL     1      -1.604  -7.935  14.099  1.00  0.00     0.023 A 
ATOM     61  C   UNL     1      -1.516  -6.679  14.736  1.00  0.00     0.031 A 
ATOM     62  C   UNL     1      -1.535  -9.054  14.958  1.00  0.00     0.131 A 
ATOM     63  C   UNL     1      -1.430  -6.567  16.138  1.00  0.00     0.055 A 
ATOM     64  C   UNL     1      -1.433  -8.943  16.348  1.00  0.00     0.041 A 
ATOM     65  F   UNL     1      -1.598 -10.309  14.491  1.00  0.00    -0.206 F 
ATOM     66  C   UNL     1      -1.392  -7.697  16.948  1.00  0.00     0.022 A 
BRANCH  63  67
ATOM     67  S   UNL     1      -1.416  -4.946  16.962  1.00  0.00     0.124 S 
ATOM     68  O   UNL     1      -2.607  -5.021  17.807  1.00  0.00    -0.237 OA
ATOM     69  O   UNL     1      -0.144  -4.966  17.679  1.00  0.00    -0.237 OA
ATOM     70  O   UNL     1      -1.501  -3.988  15.863  1.00  0.00    -0.744 OA
ENDBRANCH  63  67
ENDBRANCH  46  60
BRANCH  47  71
ATOM     71  C   UNL     1      -4.046  -9.029   4.816  1.00  0.00     0.023 A 
ATOM     72  C   UNL     1      -3.121  -7.973   4.781  1.00  0.00     0.031 A 
ATOM     73  C   UNL     1      -5.214  -8.924   4.030  1.00  0.00     0.131 A 
ATOM     74  C   UNL     1      -3.450  -6.791   4.098  1.00  0.00     0.055 A 
ATOM     75  C   UNL     1      -5.538  -7.743   3.359  1.00  0.00     0.041 A 
ATOM     76  F   UNL     1      -6.115  -9.921   4.021  1.00  0.00    -0.206 F 
ATOM     77  C   UNL     1      -4.672  -6.655   3.427  1.00  0.00     0.022 A 
BRANCH  74  78
ATOM     78  S   UNL     1      -2.388  -5.326   4.233  1.00  0.00     0.124 S 
ATOM     79  O   UNL     1      -1.986  -5.090   2.849  1.00  0.00    -0.237 OA
ATOM     80  O   UNL     1      -3.301  -4.334   4.788  1.00  0.00    -0.237 OA
ATOM     81  O   UNL     1      -1.328  -5.753   5.136  1.00  0.00    -0.744 OA
ENDBRANCH  74  78
ENDBRANCH  47  71
BRANCH  59  82
ATOM     82  C   UNL     1       0.714 -11.893   9.451  1.00  0.00     0.023 A 
ATOM     83  C   UNL     1       1.442 -11.369  10.548  1.00  0.00     0.031 A 
ATOM     84  C   UNL     1       1.310 -12.964   8.774  1.00  0.00     0.131 A 
ATOM     85  C   UNL     1       2.695 -11.867  10.914  1.00  0.00     0.055 A 
ATOM     86  C   UNL     1       2.585 -13.439   9.113  1.00  0.00     0.041 A 
ATOM     87  F   UNL     1       0.655 -13.624   7.806  1.00  0.00    -0.206 F 
ATOM     88  C   UNL     1       3.285 -12.891  10.184  1.00  0.00     0.022 A 
BRANCH  85  89
ATOM     89  S   UNL     1       3.543 -11.244  12.393  1.00  0.00     0.124 S 
ATOM     90  O   UNL     1       3.697 -12.462  13.186  1.00  0.00    -0.237 OA
ATOM     91  O   UNL     1       4.777 -10.708  11.825  1.00  0.00    -0.237 OA
ATOM     92  O   UNL     1       2.622 -10.254  12.937  1.00  0.00    -0.744 OA
ENDBRANCH  85  89
ENDBRANCH  59  82
ENDBRANCH  33  34
ENDBRANCH  26  28
ENDBRANCH  25  26
ENDBRANCH  24  25
ENDBRANCH   1  24
TORSDOF 17
