REMARK SMILES CCC([NH3+])(CC)C(=O)N1CCC[N@@H+](CC(=O)OCCOC(=O)c2ccc(-c3c4nc(c(-c5cc(S(=O)(=O)[O-])ccc5F)c5ccc([nH]5)c(-c5cc(S(=O)(=O)[O-])ccc5F)c5nc(c(-c6cc(S(=O)(=O)[O-])ccc6F)c6ccc3[nH]6)C=C5)C=C4)cc2)CC1
REMARK SMILES IDX 15 1 16 2 14 3 13 4 86 6 87 7 9 8 7 9 8 10 3 11 2 12 1 13
REMARK SMILES IDX 4 14 5 18 6 19 10 20 12 22 11 23 17 25 18 26 19 27 20 28
REMARK SMILES IDX 21 29 22 30 23 31 24 32 85 33 25 34 84 35 26 36 27 37 28 38
REMARK SMILES IDX 78 39 29 40 83 41 77 42 79 43 30 44 82 45 76 46 75 47 31 49
REMARK SMILES IDX 63 50 43 51 62 52 44 53 47 54 61 55 80 56 45 57 46 58 60 60
REMARK SMILES IDX 81 61 48 62 32 63 33 64 41 65 34 66 40 67 42 68 39 69 35 70
REMARK SMILES IDX 36 71 37 72 38 73 64 74 65 75 73 76 66 77 72 78 74 79 71 80
REMARK SMILES IDX 67 81 68 82 69 83 70 84 49 85 50 86 58 87 51 88 57 89 59 90
REMARK SMILES IDX 56 91 52 92 53 93 54 94 55 95
REMARK H PARENT 13 5 4 15 4 16 4 17 79 48 47 59
REMARK Flexibility Score: 80.00
ROOT
ATOM      1  C   UNL     1       4.132  -4.870   4.266  1.00  0.00     0.361 C 
ATOM      2  O   UNL     1       3.950  -5.657   5.188  1.00  0.00    -0.245 OA
ENDROOT
BRANCH   1   3
ATOM      3  C   UNL     1       5.474  -4.743   3.536  1.00  0.00     0.386 C 
BRANCH   3   4
ATOM      4  N   UNL     1       5.281  -4.370   2.141  1.00  0.00    -0.324 N 
ATOM      5  H   UNL     1       4.284  -4.167   2.221  1.00  0.00     0.348 HD
BRANCH   4   6
ATOM      6  C   UNL     1       5.728  -3.068   1.683  1.00  0.00     0.284 C 
BRANCH   6   7
ATOM      7  C   UNL     1       4.546  -2.192   1.217  1.00  0.00     0.181 C 
BRANCH   7   8
ATOM      8  N   UNL     1       3.595  -2.726   0.224  1.00  0.00    -0.331 N 
BRANCH   8   9
ATOM      9  C   UNL     1       2.787  -1.778  -0.413  1.00  0.00     0.284 C 
ATOM     10  O   UNL     1       3.304  -0.738  -0.838  1.00  0.00    -0.268 OA
BRANCH   9  11
ATOM     11  C   UNL     1       1.195  -1.882  -0.274  1.00  0.00     0.173 C 
BRANCH  11  12
ATOM     12  C   UNL     1       0.514  -0.705  -1.042  1.00  0.00     0.075 C 
ATOM     13  C   UNL     1       0.613   0.684  -0.416  1.00  0.00     0.011 C 
ENDBRANCH  11  12
BRANCH  11  14
ATOM     14  N   UNL     1       0.895  -1.764   1.187  1.00  0.00    -0.345 N 
ATOM     15  H   UNL     1      -0.113  -1.824   1.332  1.00  0.00     0.345 HD
ATOM     16  H   UNL     1       1.235  -0.867   1.532  1.00  0.00     0.345 HD
ATOM     17  H   UNL     1       1.357  -2.520   1.691  1.00  0.00     0.345 HD
ENDBRANCH  11  14
BRANCH  11  18
ATOM     18  C   UNL     1       0.513  -3.188  -0.743  1.00  0.00     0.075 C 
ATOM     19  C   UNL     1       0.728  -3.538  -2.211  1.00  0.00     0.011 C 
ENDBRANCH  11  18
ENDBRANCH   9  11
ENDBRANCH   8   9
BRANCH   8  20
ATOM     20  C   UNL     1       3.360  -4.168   0.135  1.00  0.00     0.126 CG0
ATOM     21  G   UNL     1       4.614  -5.003  -0.132  1.00  0.00     0.000 G0
ENDBRANCH   8  20
ENDBRANCH   7   8
ENDBRANCH   6   7
ENDBRANCH   4   6
BRANCH   4  22
ATOM     22  C   UNL     1       5.303  -5.434   1.160  1.00  0.00     0.264 C 
BRANCH  22  23
ATOM     23  C   UNL     1       4.614  -5.003  -0.132  1.00  0.00     0.083 CG0
ATOM     24  G   UNL     1       3.360  -4.168   0.135  1.00  0.00     0.000 G0
ENDBRANCH  22  23
ENDBRANCH   4  22
ENDBRANCH   3   4
ENDBRANCH   1   3
BRANCH   1  25
ATOM     25  O   UNL     1       3.206  -3.967   3.823  1.00  0.00    -0.458 OA
BRANCH  25  26
ATOM     26  C   UNL     1       1.909  -4.027   4.446  1.00  0.00     0.274 C 
BRANCH  26  27
ATOM     27  C   UNL     1       0.941  -4.857   3.609  1.00  0.00     0.275 C 
BRANCH  27  28
ATOM     28  O   UNL     1       1.453  -6.189   3.454  1.00  0.00    -0.458 OA
BRANCH  28  29
ATOM     29  C   UNL     1       1.448  -6.669   2.194  1.00  0.00     0.338 C 
ATOM     30  O   UNL     1       1.029  -6.114   1.187  1.00  0.00    -0.246 OA
BRANCH  29  31
ATOM     31  C   UNL     1       1.940  -8.047   2.173  1.00  0.00     0.060 A 
ATOM     32  C   UNL     1       3.135  -8.419   2.796  1.00  0.00     0.016 A 
ATOM     33  C   UNL     1       1.165  -8.981   1.480  1.00  0.00     0.016 A 
ATOM     34  C   UNL     1       3.549  -9.748   2.734  1.00  0.00     0.010 A 
ATOM     35  C   UNL     1       1.549 -10.313   1.466  1.00  0.00     0.010 A 
ATOM     36  C   UNL     1       2.733 -10.704   2.108  1.00  0.00    -0.014 A 
BRANCH  36  37
ATOM     37  C   UNL     1       2.997 -12.148   2.271  1.00  0.00     0.031 A 
ATOM     38  C   UNL     1       3.433 -12.985   1.110  1.00  0.00     0.074 A 
ATOM     39  C   UNL     1       2.713 -12.685   3.473  1.00  0.00     0.049 A 
ATOM     40  N   UNL     1       3.587 -14.280   1.042  1.00  0.00    -0.248 NA
ATOM     41  C   UNL     1       3.711 -12.274  -0.146  1.00  0.00     0.031 C 
ATOM     42  C   UNL     1       2.240 -11.925   4.636  1.00  0.00     0.029 A 
ATOM     43  N   UNL     1       2.752 -13.977   3.916  1.00  0.00    -0.354 N 
ATOM     44  C   UNL     1       3.976 -14.548  -0.266  1.00  0.00     0.074 A 
ATOM     45  C   UNL     1       4.005 -13.277  -0.962  1.00  0.00     0.031 C 
ATOM     46  C   UNL     1       2.046 -12.764   5.662  1.00  0.00     0.029 A 
ATOM     47  C   UNL     1       2.325 -14.121   5.216  1.00  0.00     0.049 A 
ATOM     48  H   UNL     1       3.056 -14.731   3.360  1.00  0.00     0.167 HD
ATOM     49  C   UNL     1       4.275 -15.750  -0.820  1.00  0.00     0.034 A 
ATOM     50  C   UNL     1       2.154 -15.232   5.955  1.00  0.00     0.034 A 
ATOM     51  C   UNL     1       4.192 -16.994  -0.089  1.00  0.00     0.049 A 
ATOM     52  C   UNL     1       2.487 -16.549   5.316  1.00  0.00     0.074 A 
ATOM     53  C   UNL     1       4.467 -18.279  -0.523  1.00  0.00     0.029 A 
ATOM     54  N   UNL     1       3.788 -17.106   1.240  1.00  0.00    -0.354 N 
ATOM     55  N   UNL     1       2.884 -16.788   4.086  1.00  0.00    -0.248 NA
ATOM     56  C   UNL     1       2.361 -17.741   6.158  1.00  0.00     0.031 C 
ATOM     57  C   UNL     1       4.176 -19.167   0.521  1.00  0.00     0.029 A 
ATOM     58  C   UNL     1       3.783 -18.436   1.631  1.00  0.00     0.049 A 
ATOM     59  H   UNL     1       3.540 -16.349   1.818  1.00  0.00     0.167 HD
ATOM     60  C   UNL     1       3.067 -18.162   4.008  1.00  0.00     0.074 A 
ATOM     61  C   UNL     1       2.762 -18.690   5.326  1.00  0.00     0.031 C 
ATOM     62  C   UNL     1       3.446 -18.923   2.950  1.00  0.00     0.034 A 
BRANCH  49  63
ATOM     63  C   UNL     1       4.658 -15.767  -2.282  1.00  0.00     0.023 A 
ATOM     64  C   UNL     1       5.815 -15.117  -2.752  1.00  0.00     0.031 A 
ATOM     65  C   UNL     1       3.839 -16.407  -3.229  1.00  0.00     0.131 A 
ATOM     66  C   UNL     1       6.082 -15.063  -4.130  1.00  0.00     0.055 A 
ATOM     67  C   UNL     1       4.148 -16.412  -4.592  1.00  0.00     0.041 A 
ATOM     68  F   UNL     1       2.710 -17.026  -2.848  1.00  0.00    -0.206 F 
ATOM     69  C   UNL     1       5.268 -15.725  -5.051  1.00  0.00     0.022 A 
BRANCH  66  70
ATOM     70  S   UNL     1       7.436 -14.006  -4.714  1.00  0.00     0.124 S 
ATOM     71  O   UNL     1       7.014 -12.693  -4.232  1.00  0.00    -0.237 OA
ATOM     72  O   UNL     1       8.599 -14.586  -4.051  1.00  0.00    -0.237 OA
ATOM     73  O   UNL     1       7.399 -14.170  -6.166  1.00  0.00    -0.744 OA
ENDBRANCH  66  70
ENDBRANCH  49  63
BRANCH  50  74
ATOM     74  C   UNL     1       1.647 -15.130   7.351  1.00  0.00     0.023 A 
ATOM     75  C   UNL     1       2.464 -15.464   8.441  1.00  0.00     0.031 A 
ATOM     76  C   UNL     1       0.346 -14.664   7.619  1.00  0.00     0.131 A 
ATOM     77  C   UNL     1       1.966 -15.351   9.748  1.00  0.00     0.055 A 
ATOM     78  C   UNL     1      -0.129 -14.510   8.922  1.00  0.00     0.041 A 
ATOM     79  F   UNL     1      -0.471 -14.317   6.612  1.00  0.00    -0.206 F 
ATOM     80  C   UNL     1       0.680 -14.863   9.997  1.00  0.00     0.022 A 
BRANCH  77  81
ATOM     81  S   UNL     1       3.006 -15.909  11.125  1.00  0.00     0.124 S 
ATOM     82  O   UNL     1       3.309 -17.281  10.735  1.00  0.00    -0.237 OA
ATOM     83  O   UNL     1       4.116 -14.964  11.066  1.00  0.00    -0.237 OA
ATOM     84  O   UNL     1       2.133 -15.769  12.289  1.00  0.00    -0.744 OA
ENDBRANCH  77  81
ENDBRANCH  50  74
BRANCH  62  85
ATOM     85  C   UNL     1       3.559 -20.400   3.212  1.00  0.00     0.023 A 
ATOM     86  C   UNL     1       2.420 -21.186   3.459  1.00  0.00     0.031 A 
ATOM     87  C   UNL     1       4.821 -21.015   3.263  1.00  0.00     0.131 A 
ATOM     88  C   UNL     1       2.570 -22.533   3.814  1.00  0.00     0.055 A 
ATOM     89  C   UNL     1       4.960 -22.371   3.559  1.00  0.00     0.041 A 
ATOM     90  F   UNL     1       5.937 -20.305   3.037  1.00  0.00    -0.206 F 
ATOM     91  C   UNL     1       3.832 -23.134   3.852  1.00  0.00     0.022 A 
BRANCH  88  92
ATOM     92  S   UNL     1       1.100 -23.462   4.325  1.00  0.00     0.124 S 
ATOM     93  O   UNL     1       0.645 -22.696   5.481  1.00  0.00    -0.237 OA
ATOM     94  O   UNL     1       0.255 -23.388   3.138  1.00  0.00    -0.237 OA
ATOM     95  O   UNL     1       1.625 -24.792   4.630  1.00  0.00    -0.744 OA
ENDBRANCH  88  92
ENDBRANCH  62  85
ENDBRANCH  36  37
ENDBRANCH  29  31
ENDBRANCH  28  29
ENDBRANCH  27  28
ENDBRANCH  26  27
ENDBRANCH  25  26
ENDBRANCH   1  25
TORSDOF 20
