REMARK SMILES O=C(OCCOC(=O)[C@]12CCC[NH2+][C@@H]1CCN(C(=O)Cc1c(F)cccc1Cl)C2)c1ccc(-c2c3nc(c(-c4cc(S(=O)(=O)[O-])ccc4F)c4ccc([nH]4)c(-c4cc(S(=O)(=O)[O-])ccc4F)c4nc(c(-c5cc(S(=O)(=O)[O-])ccc5F)c5ccc2[nH]5)C=C4)C=C3)cc1
REMARK SMILES IDX 4 1 3 2 2 3 1 4 30 5 31 6 92 7 32 8 91 9 33 10 34 11 35 12
REMARK SMILES IDX 85 13 36 14 90 15 84 16 86 17 37 18 89 19 83 20 82 21 38 23
REMARK SMILES IDX 70 24 50 25 69 26 51 27 54 28 68 29 87 30 52 31 53 32 67 34
REMARK SMILES IDX 88 35 55 36 39 37 40 38 48 39 41 40 47 41 49 42 46 43 42 44
REMARK SMILES IDX 43 45 44 46 45 47 71 48 72 49 80 50 73 51 79 52 81 53 78 54
REMARK SMILES IDX 74 55 75 56 76 57 77 58 56 59 57 60 65 61 58 62 64 63 66 64
REMARK SMILES IDX 63 65 59 66 60 67 61 68 62 69 5 70 6 71 7 72 8 73 9 74 10 75
REMARK SMILES IDX 14 76 29 77 11 78 13 79 15 80 17 81 12 82 16 85 18 86 19 87
REMARK SMILES IDX 20 88 21 89 22 90 27 91 23 92 24 93 26 94 28 95 25 96
REMARK H PARENT 86 22 54 33 13 83 13 84
REMARK Flexibility Score: inf
ROOT
ATOM      1  C   UNL     1       4.187  -1.297  -0.721  1.00  0.00     0.275 C 
ENDROOT
BRANCH   1   2
ATOM      2  O   UNL     1       3.246  -1.387   0.448  1.00  0.00    -0.458 OA
BRANCH   2   3
ATOM      3  C   UNL     1       3.132  -1.008   1.772  1.00  0.00     0.338 C 
ATOM      4  O   UNL     1       2.329  -1.613   2.484  1.00  0.00    -0.246 OA
BRANCH   3   5
ATOM      5  C   UNL     1       3.639   0.303   2.327  1.00  0.00     0.060 A 
ATOM      6  C   UNL     1       4.990   0.641   2.333  1.00  0.00     0.016 A 
ATOM      7  C   UNL     1       2.703   1.296   2.725  1.00  0.00     0.016 A 
ATOM      8  C   UNL     1       5.369   1.983   2.550  1.00  0.00     0.010 A 
ATOM      9  C   UNL     1       3.090   2.643   2.945  1.00  0.00     0.010 A 
ATOM     10  C   UNL     1       4.433   3.012   2.812  1.00  0.00    -0.014 A 
BRANCH  10  11
ATOM     11  C   UNL     1       4.997   4.326   3.277  1.00  0.00     0.031 A 
ATOM     12  C   UNL     1       5.564   4.277   4.662  1.00  0.00     0.074 A 
ATOM     13  C   UNL     1       5.217   5.420   2.512  1.00  0.00     0.049 A 
ATOM     14  N   UNL     1       6.501   4.999   5.206  1.00  0.00    -0.248 NA
ATOM     15  C   UNL     1       5.054   3.185   5.506  1.00  0.00     0.031 C 
ATOM     16  C   UNL     1       4.726   5.614   1.155  1.00  0.00     0.029 A 
ATOM     17  N   UNL     1       5.960   6.564   2.746  1.00  0.00    -0.354 N 
ATOM     18  C   UNL     1       6.770   4.378   6.417  1.00  0.00     0.074 A 
ATOM     19  C   UNL     1       5.881   3.244   6.532  1.00  0.00     0.031 C 
ATOM     20  C   UNL     1       5.233   6.755   0.647  1.00  0.00     0.029 A 
ATOM     21  C   UNL     1       6.072   7.408   1.652  1.00  0.00     0.049 A 
ATOM     22  H   UNL     1       6.375   6.761   3.617  1.00  0.00     0.167 HD
ATOM     23  C   UNL     1       7.669   4.728   7.364  1.00  0.00     0.034 A 
ATOM     24  C   UNL     1       6.773   8.560   1.490  1.00  0.00     0.034 A 
ATOM     25  C   UNL     1       8.378   5.975   7.341  1.00  0.00     0.049 A 
ATOM     26  C   UNL     1       7.599   9.055   2.665  1.00  0.00     0.074 A 
ATOM     27  C   UNL     1       9.144   6.551   8.335  1.00  0.00     0.029 A 
ATOM     28  N   UNL     1       8.338   6.882   6.286  1.00  0.00    -0.354 N 
ATOM     29  N   UNL     1       7.856   8.454   3.807  1.00  0.00    -0.248 NA
ATOM     30  C   UNL     1       8.219  10.383   2.540  1.00  0.00     0.031 C 
ATOM     31  C   UNL     1       9.484   7.844   7.922  1.00  0.00     0.029 A 
ATOM     32  C   UNL     1       9.026   8.033   6.626  1.00  0.00     0.049 A 
ATOM     33  H   UNL     1       7.886   6.727   5.426  1.00  0.00     0.167 HD
ATOM     34  C   UNL     1       8.686   9.318   4.519  1.00  0.00     0.074 A 
ATOM     35  C   UNL     1       8.903  10.472   3.672  1.00  0.00     0.031 C 
ATOM     36  C   UNL     1       9.222   9.174   5.760  1.00  0.00     0.034 A 
BRANCH  23  37
ATOM     37  C   UNL     1       7.731   3.808   8.552  1.00  0.00     0.023 A 
ATOM     38  C   UNL     1       8.179   2.478   8.417  1.00  0.00     0.031 A 
ATOM     39  C   UNL     1       7.130   4.190   9.761  1.00  0.00     0.131 A 
ATOM     40  C   UNL     1       7.914   1.554   9.439  1.00  0.00     0.055 A 
ATOM     41  C   UNL     1       6.951   3.285  10.806  1.00  0.00     0.041 A 
ATOM     42  F   UNL     1       6.634   5.428   9.914  1.00  0.00    -0.206 F 
ATOM     43  C   UNL     1       7.324   1.954  10.640  1.00  0.00     0.022 A 
BRANCH  40  44
ATOM     44  S   UNL     1       8.149  -0.213   9.087  1.00  0.00     0.124 S 
ATOM     45  O   UNL     1       7.215  -0.416   7.976  1.00  0.00    -0.237 OA
ATOM     46  O   UNL     1       9.557  -0.292   8.761  1.00  0.00    -0.237 OA
ATOM     47  O   UNL     1       7.754  -0.864  10.342  1.00  0.00    -0.744 OA
ENDBRANCH  40  44
ENDBRANCH  23  37
BRANCH  24  48
ATOM     48  C   UNL     1       6.709   9.384   0.225  1.00  0.00     0.023 A 
ATOM     49  C   UNL     1       7.865   9.766  -0.491  1.00  0.00     0.031 A 
ATOM     50  C   UNL     1       5.483   9.915  -0.219  1.00  0.00     0.131 A 
ATOM     51  C   UNL     1       7.772  10.671  -1.571  1.00  0.00     0.055 A 
ATOM     52  C   UNL     1       5.389  10.767  -1.325  1.00  0.00     0.041 A 
ATOM     53  F   UNL     1       4.345   9.628   0.431  1.00  0.00    -0.206 F 
ATOM     54  C   UNL     1       6.539  11.160  -2.000  1.00  0.00     0.022 A 
BRANCH  51  55
ATOM     55  S   UNL     1       9.295  11.292  -2.354  1.00  0.00     0.124 S 
ATOM     56  O   UNL     1       9.982  11.908  -1.225  1.00  0.00    -0.237 OA
ATOM     57  O   UNL     1       9.888  10.067  -2.879  1.00  0.00    -0.237 OA
ATOM     58  O   UNL     1       8.803  12.225  -3.367  1.00  0.00    -0.744 OA
ENDBRANCH  51  55
ENDBRANCH  24  48
BRANCH  36  59
ATOM     59  C   UNL     1      10.140  10.267   6.252  1.00  0.00     0.023 A 
ATOM     60  C   UNL     1       9.685  11.571   6.508  1.00  0.00     0.031 A 
ATOM     61  C   UNL     1      11.498   9.982   6.486  1.00  0.00     0.131 A 
ATOM     62  C   UNL     1      10.592  12.556   6.926  1.00  0.00     0.055 A 
ATOM     63  C   UNL     1      12.380  10.947   6.970  1.00  0.00     0.041 A 
ATOM     64  F   UNL     1      11.988   8.752   6.258  1.00  0.00    -0.206 F 
ATOM     65  C   UNL     1      11.931  12.247   7.179  1.00  0.00     0.022 A 
BRANCH  62  66
ATOM     66  S   UNL     1      10.023  14.275   7.035  1.00  0.00     0.124 S 
ATOM     67  O   UNL     1       9.531  14.518   5.683  1.00  0.00    -0.237 OA
ATOM     68  O   UNL     1       9.007  14.201   8.080  1.00  0.00    -0.237 OA
ATOM     69  O   UNL     1      11.231  15.013   7.398  1.00  0.00    -0.744 OA
ENDBRANCH  62  66
ENDBRANCH  36  59
ENDBRANCH  10  11
ENDBRANCH   3   5
ENDBRANCH   2   3
ENDBRANCH   1   2
BRANCH   1  70
ATOM     70  C   UNL     1       3.539  -0.890  -2.139  1.00  0.00     0.274 C 
BRANCH  70  71
ATOM     71  O   UNL     1       3.691   0.512  -2.587  1.00  0.00    -0.461 OA
BRANCH  71  72
ATOM     72  C   UNL     1       2.623   1.353  -2.873  1.00  0.00     0.320 C 
ATOM     73  O   UNL     1       1.881   1.162  -3.829  1.00  0.00    -0.251 OA
BRANCH  72  74
ATOM     74  C   UNL     1       2.466   2.541  -1.845  1.00  0.00     0.137 C 
ATOM     75  C   UNL     1       3.518   3.659  -2.022  1.00  0.00     0.033 C 
ATOM     76  C   UNL     1       2.622   1.941  -0.471  1.00  0.00     0.203 C 
ATOM     77  C   UNL     1       1.087   3.262  -1.805  1.00  0.00     0.144 C 
ATOM     78  C   UNL     1       4.963   3.231  -1.847  1.00  0.00     0.063 C 
ATOM     79  N   UNL     1       3.973   1.478  -0.344  1.00  0.00    -0.343 N 
ATOM     80  C   UNL     1       1.485   0.885  -0.325  1.00  0.00     0.088 C 
ATOM     81  N   UNL     1      -0.062   2.591  -1.175  1.00  0.00    -0.341 N 
ATOM     82  C   UNL     1       5.162   2.135  -0.824  1.00  0.00     0.260 C 
ATOM     83  H   UNL     1       4.120   1.367   0.659  1.00  0.00     0.346 HD
ATOM     84  H   UNL     1       3.942   0.696  -0.999  1.00  0.00     0.346 HD
ATOM     85  C   UNL     1       0.158   1.575  -0.167  1.00  0.00     0.125 C 
BRANCH  81  86
ATOM     86  C   UNL     1      -1.260   3.318  -1.125  1.00  0.00     0.227 C 
ATOM     87  O   UNL     1      -1.292   4.544  -1.239  1.00  0.00    -0.275 OA
BRANCH  86  88
ATOM     88  C   UNL     1      -2.549   2.522  -0.945  1.00  0.00     0.140 C 
BRANCH  88  89
ATOM     89  C   UNL     1      -2.652   1.323  -1.864  1.00  0.00     0.016 A 
ATOM     90  C   UNL     1      -3.128   0.116  -1.338  1.00  0.00     0.128 A 
ATOM     91  C   UNL     1      -2.239   1.328  -3.206  1.00  0.00     0.047 A 
ATOM     92  F   UNL     1      -3.606   0.074  -0.085  1.00  0.00    -0.207 F 
ATOM     93  C   UNL     1      -3.089  -1.069  -2.068  1.00  0.00     0.039 A 
ATOM     94  C   UNL     1      -2.145   0.132  -3.924  1.00  0.00     0.021 A 
ATOM     95  Cl  UNL     1      -1.863   2.776  -4.071  1.00  0.00    -0.084 Cl
ATOM     96  C   UNL     1      -2.558  -1.069  -3.353  1.00  0.00     0.005 A 
ENDBRANCH  88  89
ENDBRANCH  86  88
ENDBRANCH  81  86
ENDBRANCH  72  74
ENDBRANCH  71  72
ENDBRANCH  70  71
ENDBRANCH   1  70
TORSDOF 17
