REMARK SMILES C#CCN(CC(=O)OCCOC(=O)c1ccc(-c2c3nc(c(-c4cc(S(=O)(=O)[O-])ccc4F)c4ccc([nH]4)c(-c4cc(S(=O)(=O)[O-])ccc4F)c4nc(c(-c5cc(S(=O)(=O)[O-])ccc5F)c5ccc2[nH]5)C=C4)C=C3)cc1)C(=O)Nc1cccc(C#N)c1
REMARK SMILES IDX 9 1 8 2 6 3 7 4 5 5 4 6 3 7 2 8 1 9 77 10 78 11 79 12 80 14
REMARK SMILES IDX 81 15 87 16 82 17 84 18 83 19 85 20 86 21 10 22 11 23 12 24
REMARK SMILES IDX 13 25 14 26 15 27 76 28 16 29 75 30 17 31 18 32 19 33 69 34
REMARK SMILES IDX 20 35 74 36 68 37 70 38 21 39 73 40 67 41 66 42 22 44 54 45
REMARK SMILES IDX 34 46 53 47 35 48 38 49 52 50 71 51 36 52 37 53 51 55 72 56
REMARK SMILES IDX 39 57 23 58 24 59 32 60 25 61 31 62 33 63 30 64 26 65 27 66
REMARK SMILES IDX 28 67 29 68 55 69 56 70 64 71 57 72 63 73 65 74 62 75 58 76
REMARK SMILES IDX 59 77 60 78 61 79 40 80 41 81 49 82 42 83 48 84 50 85 47 86
REMARK SMILES IDX 43 87 44 88 45 89 46 90
REMARK H PARENT 79 13 70 43 38 54
REMARK Flexibility Score: inf
ROOT
ATOM      1  C   UNL     1      -6.447  -1.251   1.003  1.00  0.00     0.274 C 
ENDROOT
BRANCH   1   2
ATOM      2  O   UNL     1      -5.064  -0.829   0.762  1.00  0.00    -0.461 OA
BRANCH   2   3
ATOM      3  C   UNL     1      -4.802   0.527   0.751  1.00  0.00     0.325 C 
ATOM      4  O   UNL     1      -5.649   1.380   0.514  1.00  0.00    -0.250 OA
BRANCH   3   5
ATOM      5  C   UNL     1      -3.426   0.867   1.426  1.00  0.00     0.245 C 
BRANCH   5   6
ATOM      6  N   UNL     1      -2.427  -0.186   1.284  1.00  0.00    -0.302 N 
BRANCH   6   7
ATOM      7  C   UNL     1      -1.768  -0.056   0.061  1.00  0.00     0.211 C 
BRANCH   7   8
ATOM      8  C   UNL     1      -0.248  -0.056   0.061  1.00  0.00    -0.085 C 
ATOM      9  C   UNL     1       1.056  -0.056   0.061  1.00  0.00     0.006 C 
ENDBRANCH   7   8
ENDBRANCH   6   7
BRANCH   6  10
ATOM     10  C   UNL     1      -2.187  -1.382   1.895  1.00  0.00     0.323 C 
ATOM     11  O   UNL     1      -1.570  -2.289   1.319  1.00  0.00    -0.248 OA
ATOM     12  N   UNL     1      -2.453  -1.631   3.177  1.00  0.00    -0.308 N 
ATOM     13  H   UNL     1      -1.905  -2.361   3.546  1.00  0.00     0.171 HD
BRANCH  12  14
ATOM     14  C   UNL     1      -3.317  -1.100   4.099  1.00  0.00     0.044 A 
ATOM     15  C   UNL     1      -3.029  -1.455   5.828  1.00  0.00     0.026 A 
ATOM     16  C   UNL     1      -4.796  -0.223   3.720  1.00  0.00     0.045 A 
ATOM     17  C   UNL     1      -4.406  -0.799   7.154  1.00  0.00     0.004 A 
ATOM     18  C   UNL     1      -6.013   0.320   4.894  1.00  0.00     0.054 A 
ATOM     19  C   UNL     1      -5.855   0.055   6.583  1.00  0.00     0.019 A 
BRANCH  18  20
ATOM     20  C   UNL     1      -7.149   1.014   4.366  1.00  0.00     0.099 C 
ATOM     21  N   UNL     1      -8.047   1.565   3.881  1.00  0.00    -0.192 NA
ENDBRANCH  18  20
ENDBRANCH  12  14
ENDBRANCH   6  10
ENDBRANCH   5   6
ENDBRANCH   3   5
ENDBRANCH   2   3
ENDBRANCH   1   2
BRANCH   1  22
ATOM     22  C   UNL     1      -6.510  -2.400   2.065  1.00  0.00     0.275 C 
BRANCH  22  23
ATOM     23  O   UNL     1      -6.479  -1.872   3.432  1.00  0.00    -0.458 OA
BRANCH  23  24
ATOM     24  C   UNL     1      -5.684  -2.512   4.350  1.00  0.00     0.338 C 
ATOM     25  O   UNL     1      -5.470  -3.718   4.272  1.00  0.00    -0.246 OA
BRANCH  24  26
ATOM     26  C   UNL     1      -4.895  -1.610   5.491  1.00  0.00     0.060 A 
ATOM     27  C   UNL     1      -3.941   0.182   5.616  1.00  0.00     0.016 A 
ATOM     28  C   UNL     1      -4.371  -2.868   6.694  1.00  0.00     0.016 A 
ATOM     29  C   UNL     1      -2.634   0.419   6.782  1.00  0.00     0.010 A 
ATOM     30  C   UNL     1      -3.096  -2.462   7.855  1.00  0.00     0.010 A 
ATOM     31  C   UNL     1      -2.282  -0.875   7.897  1.00  0.00    -0.014 A 
BRANCH  31  32
ATOM     32  C   UNL     1      -1.431  -0.470   9.035  1.00  0.00     0.031 A 
ATOM     33  C   UNL     1      -0.254  -1.298   9.412  1.00  0.00     0.074 A 
ATOM     34  C   UNL     1      -1.756   0.673   9.680  1.00  0.00     0.049 A 
ATOM     35  N   UNL     1       0.519  -1.190  10.456  1.00  0.00    -0.248 NA
ATOM     36  C   UNL     1       0.085  -2.415   8.519  1.00  0.00     0.031 C 
ATOM     37  C   UNL     1      -2.895   1.548   9.357  1.00  0.00     0.029 A 
ATOM     38  N   UNL     1      -1.160   1.329  10.723  1.00  0.00    -0.354 N 
ATOM     39  C   UNL     1       1.405  -2.256  10.379  1.00  0.00     0.074 A 
ATOM     40  C   UNL     1       1.060  -3.009   9.192  1.00  0.00     0.031 C 
ATOM     41  C   UNL     1      -2.848   2.659  10.094  1.00  0.00     0.029 A 
ATOM     42  C   UNL     1      -1.796   2.502  11.072  1.00  0.00     0.049 A 
ATOM     43  H   UNL     1      -0.355   0.995  11.180  1.00  0.00     0.167 HD
ATOM     44  C   UNL     1       2.404  -2.563  11.242  1.00  0.00     0.034 A 
ATOM     45  C   UNL     1      -1.604   3.330  12.113  1.00  0.00     0.034 A 
ATOM     46  C   UNL     1       2.687  -1.759  12.408  1.00  0.00     0.049 A 
ATOM     47  C   UNL     1      -0.520   2.942  13.069  1.00  0.00     0.074 A 
ATOM     48  C   UNL     1       3.639  -1.956  13.389  1.00  0.00     0.029 A 
ATOM     49  N   UNL     1       2.005  -0.590  12.745  1.00  0.00    -0.354 N 
ATOM     50  N   UNL     1       0.275   1.896  13.022  1.00  0.00    -0.248 NA
ATOM     51  C   UNL     1      -0.308   3.825  14.214  1.00  0.00     0.031 C 
ATOM     52  C   UNL     1       3.490  -0.947  14.348  1.00  0.00     0.029 A 
ATOM     53  C   UNL     1       2.503  -0.067  13.927  1.00  0.00     0.049 A 
ATOM     54  H   UNL     1       1.275  -0.193  12.218  1.00  0.00     0.167 HD
ATOM     55  C   UNL     1       1.101   2.001  14.129  1.00  0.00     0.074 A 
ATOM     56  C   UNL     1       0.721   3.233  14.802  1.00  0.00     0.031 C 
ATOM     57  C   UNL     1       2.076   1.161  14.560  1.00  0.00     0.034 A 
BRANCH  44  58
ATOM     58  C   UNL     1       3.168  -3.841  10.988  1.00  0.00     0.023 A 
ATOM     59  C   UNL     1       3.906  -4.048   9.808  1.00  0.00     0.031 A 
ATOM     60  C   UNL     1       3.088  -4.908  11.902  1.00  0.00     0.131 A 
ATOM     61  C   UNL     1       4.449  -5.313   9.531  1.00  0.00     0.055 A 
ATOM     62  C   UNL     1       3.708  -6.137  11.661  1.00  0.00     0.041 A 
ATOM     63  F   UNL     1       2.375  -4.787  13.033  1.00  0.00    -0.206 F 
ATOM     64  C   UNL     1       4.378  -6.352  10.461  1.00  0.00     0.022 A 
BRANCH  61  65
ATOM     65  S   UNL     1       5.095  -5.632   7.865  1.00  0.00     0.124 S 
ATOM     66  O   UNL     1       3.909  -5.404   7.044  1.00  0.00    -0.237 OA
ATOM     67  O   UNL     1       6.157  -4.640   7.743  1.00  0.00    -0.237 OA
ATOM     68  O   UNL     1       5.543  -7.022   7.931  1.00  0.00    -0.744 OA
ENDBRANCH  61  65
ENDBRANCH  44  58
BRANCH  45  69
ATOM     69  C   UNL     1      -2.482   4.521  12.319  1.00  0.00     0.023 A 
ATOM     70  C   UNL     1      -1.951   5.818  12.326  1.00  0.00     0.031 A 
ATOM     71  C   UNL     1      -3.875   4.385  12.497  1.00  0.00     0.131 A 
ATOM     72  C   UNL     1      -2.795   6.921  12.539  1.00  0.00     0.055 A 
ATOM     73  C   UNL     1      -4.718   5.488  12.643  1.00  0.00     0.041 A 
ATOM     74  F   UNL     1      -4.447   3.170  12.493  1.00  0.00    -0.206 F 
ATOM     75  C   UNL     1      -4.176   6.767  12.678  1.00  0.00     0.022 A 
BRANCH  72  76
ATOM     76  S   UNL     1      -2.046   8.563  12.716  1.00  0.00     0.124 S 
ATOM     77  O   UNL     1      -1.083   8.337  13.787  1.00  0.00    -0.237 OA
ATOM     78  O   UNL     1      -1.488   8.784  11.386  1.00  0.00    -0.237 OA
ATOM     79  O   UNL     1      -3.180   9.417  13.066  1.00  0.00    -0.744 OA
ENDBRANCH  72  76
ENDBRANCH  45  69
BRANCH  57  80
ATOM     80  C   UNL     1       2.811   1.602  15.795  1.00  0.00     0.023 A 
ATOM     81  C   UNL     1       2.167   1.681  17.040  1.00  0.00     0.031 A 
ATOM     82  C   UNL     1       4.157   1.992  15.709  1.00  0.00     0.131 A 
ATOM     83  C   UNL     1       2.849   2.219  18.137  1.00  0.00     0.055 A 
ATOM     84  C   UNL     1       4.856   2.449  16.824  1.00  0.00     0.041 A 
ATOM     85  F   UNL     1       4.811   1.941  14.536  1.00  0.00    -0.206 F 
ATOM     86  C   UNL     1       4.196   2.582  18.043  1.00  0.00     0.022 A 
BRANCH  83  87
ATOM     87  S   UNL     1       1.911   2.562  19.648  1.00  0.00     0.124 S 
ATOM     88  O   UNL     1       0.885   3.479  19.162  1.00  0.00    -0.237 OA
ATOM     89  O   UNL     1       1.447   1.234  20.035  1.00  0.00    -0.237 OA
ATOM     90  O   UNL     1       2.905   3.157  20.538  1.00  0.00    -0.744 OA
ENDBRANCH  83  87
ENDBRANCH  57  80
ENDBRANCH  31  32
ENDBRANCH  24  26
ENDBRANCH  23  24
ENDBRANCH  22  23
ENDBRANCH   1  22
TORSDOF 20
