REMARK SMILES COc1ccccc1C(=O)N1[C@@H](C(=O)OCCOC(=O)c2ccc(-c3c4nc(c(-c5cc(S(=O)(=O)[O-])ccc5F)c5ccc([nH]5)c(-c5cc(S(=O)(=O)[O-])ccc5F)c5nc(c(-c6cc(S(=O)(=O)[O-])ccc6F)c6ccc3[nH]6)C=C5)C=C4)cc2)COC12CC[NH+](Cc1ccccc1)CC2
REMARK SMILES IDX 16 1 15 2 13 3 14 4 12 5 11 6 86 7 84 8 85 9 87 10 98 11
REMARK SMILES IDX 88 12 97 13 89 14 9 16 10 17 8 18 3 19 4 20 5 21 7 22 6 23
REMARK SMILES IDX 2 24 1 25 90 26 91 27 92 28 96 29 93 30 95 31 94 32 17 33
REMARK SMILES IDX 18 34 19 35 20 36 21 37 22 38 83 39 23 40 82 41 24 42 25 43
REMARK SMILES IDX 26 44 76 45 27 46 81 47 75 48 77 49 28 50 80 51 74 52 73 53
REMARK SMILES IDX 29 55 61 56 41 57 60 58 42 59 45 60 59 61 78 62 43 63 44 64
REMARK SMILES IDX 58 66 79 67 46 68 30 69 31 70 39 71 32 72 38 73 40 74 37 75
REMARK SMILES IDX 33 76 34 77 35 78 36 79 62 80 63 81 71 82 64 83 70 84 72 85
REMARK SMILES IDX 69 86 65 87 66 88 67 89 68 90 47 91 48 92 56 93 49 94 55 95
REMARK SMILES IDX 57 96 54 97 50 98 51 99 52 100 53 101
REMARK H PARENT 89 15 77 54 45 65
REMARK Flexibility Score: inf
ROOT
ATOM      1  C   UNL     1      -0.521   3.322   1.256  1.00  0.00     0.274 C 
ENDROOT
BRANCH   1   2
ATOM      2  O   UNL     1      -0.018   2.006   0.940  1.00  0.00    -0.460 OA
BRANCH   2   3
ATOM      3  C   UNL     1       1.231   1.664   1.340  1.00  0.00     0.331 C 
ATOM      4  O   UNL     1       1.933   2.383   2.043  1.00  0.00    -0.250 OA
BRANCH   3   5
ATOM      5  C   UNL     1       1.760   0.391   0.641  1.00  0.00     0.224 C 
ATOM      6  N   UNL     1       2.132   0.661  -0.725  1.00  0.00    -0.293 N 
ATOM      7  C   UNL     1       1.957  -0.516  -1.573  1.00  0.00     0.155 C 
ATOM      8  C   UNL     1       0.797  -0.774   0.446  1.00  0.00     0.200 C 
ATOM      9  O   UNL     1       0.722  -1.028  -1.013  1.00  0.00    -0.352 OA
ATOM     10  C   UNL     1       1.897  -0.102  -3.054  1.00  0.00     0.120 C 
ATOM     11  C   UNL     1       2.974  -1.672  -1.388  1.00  0.00     0.120 C 
ATOM     12  C   UNL     1       1.941  -1.193  -4.091  1.00  0.00     0.267 C 
ATOM     13  C   UNL     1       2.998  -2.671  -2.571  1.00  0.00     0.267 C 
ATOM     14  N   UNL     1       3.056  -2.095  -3.911  1.00  0.00    -0.331 N 
ATOM     15  H   UNL     1       2.958  -2.888  -4.545  1.00  0.00     0.348 HD
BRANCH   6  16
ATOM     16  C   UNL     1       2.773   1.831  -1.030  1.00  0.00     0.260 C 
ATOM     17  O   UNL     1       3.951   2.014  -0.746  1.00  0.00    -0.269 OA
BRANCH  16  18
ATOM     18  C   UNL     1       1.894   3.006  -1.423  1.00  0.00     0.082 A 
ATOM     19  C   UNL     1       0.591   2.979  -1.973  1.00  0.00     0.131 A 
ATOM     20  C   UNL     1      -0.065   4.176  -2.297  1.00  0.00     0.047 A 
ATOM     21  C   UNL     1       0.514   5.406  -2.002  1.00  0.00     0.004 A 
ATOM     22  C   UNL     1       2.447   4.265  -1.118  1.00  0.00     0.018 A 
ATOM     23  C   UNL     1       1.763   5.450  -1.396  1.00  0.00     0.001 A 
BRANCH  19  24
ATOM     24  O   UNL     1      -0.033   1.847  -2.392  1.00  0.00    -0.496 OA
ATOM     25  C   UNL     1      -1.181   1.399  -1.680  1.00  0.00     0.278 C 
ENDBRANCH  19  24
ENDBRANCH  16  18
ENDBRANCH   6  16
BRANCH  14  26
ATOM     26  C   UNL     1       4.352  -1.623  -4.431  1.00  0.00     0.299 C 
BRANCH  26  27
ATOM     27  C   UNL     1       5.272  -0.863  -3.503  1.00  0.00     0.006 A 
ATOM     28  C   UNL     1       5.382   0.533  -3.555  1.00  0.00     0.009 A 
ATOM     29  C   UNL     1       6.002  -1.556  -2.522  1.00  0.00     0.009 A 
ATOM     30  C   UNL     1       6.110   1.219  -2.580  1.00  0.00     0.001 A 
ATOM     31  C   UNL     1       6.684  -0.867  -1.520  1.00  0.00     0.001 A 
ATOM     32  C   UNL     1       6.721   0.523  -1.539  1.00  0.00     0.000 A 
ENDBRANCH  26  27
ENDBRANCH  14  26
ENDBRANCH   3   5
ENDBRANCH   2   3
ENDBRANCH   1   2
BRANCH   1  33
ATOM     33  C   UNL     1      -1.885   3.209   1.932  1.00  0.00     0.275 C 
BRANCH  33  34
ATOM     34  O   UNL     1      -1.701   2.792   3.285  1.00  0.00    -0.458 OA
BRANCH  34  35
ATOM     35  C   UNL     1      -1.430   1.468   3.418  1.00  0.00     0.338 C 
ATOM     36  O   UNL     1      -1.681   0.581   2.633  1.00  0.00    -0.246 OA
BRANCH  35  37
ATOM     37  C   UNL     1      -0.489   1.343   4.543  1.00  0.00     0.060 A 
ATOM     38  C   UNL     1       0.637   0.532   4.359  1.00  0.00     0.016 A 
ATOM     39  C   UNL     1      -0.684   2.055   5.727  1.00  0.00     0.016 A 
ATOM     40  C   UNL     1       1.583   0.426   5.365  1.00  0.00     0.010 A 
ATOM     41  C   UNL     1       0.245   1.925   6.749  1.00  0.00     0.010 A 
ATOM     42  C   UNL     1       1.360   1.088   6.574  1.00  0.00    -0.014 A 
BRANCH  42  43
ATOM     43  C   UNL     1       2.165   0.712   7.745  1.00  0.00     0.031 A 
ATOM     44  C   UNL     1       1.560  -0.272   8.699  1.00  0.00     0.074 A 
ATOM     45  C   UNL     1       3.392   1.224   7.917  1.00  0.00     0.049 A 
ATOM     46  N   UNL     1       1.983  -0.665   9.867  1.00  0.00    -0.248 NA
ATOM     47  C   UNL     1       0.288  -0.885   8.278  1.00  0.00     0.031 C 
ATOM     48  C   UNL     1       4.070   2.123   6.982  1.00  0.00     0.029 A 
ATOM     49  N   UNL     1       4.280   1.069   8.944  1.00  0.00    -0.354 N 
ATOM     50  C   UNL     1       1.017  -1.549  10.334  1.00  0.00     0.074 A 
ATOM     51  C   UNL     1      -0.026  -1.613   9.336  1.00  0.00     0.031 C 
ATOM     52  C   UNL     1       5.268   2.454   7.491  1.00  0.00     0.029 A 
ATOM     53  C   UNL     1       5.410   1.838   8.807  1.00  0.00     0.049 A 
ATOM     54  H   UNL     1       4.126   0.465   9.706  1.00  0.00     0.167 HD
ATOM     55  C   UNL     1       1.014  -2.239  11.499  1.00  0.00     0.034 A 
ATOM     56  C   UNL     1       6.415   2.045   9.679  1.00  0.00     0.034 A 
ATOM     57  C   UNL     1       2.078  -2.128  12.465  1.00  0.00     0.049 A 
ATOM     58  C   UNL     1       6.352   1.328  11.006  1.00  0.00     0.074 A 
ATOM     59  C   UNL     1       2.204  -2.758  13.688  1.00  0.00     0.029 A 
ATOM     60  N   UNL     1       3.200  -1.318  12.314  1.00  0.00    -0.354 N 
ATOM     61  N   UNL     1       5.427   0.511  11.462  1.00  0.00    -0.248 NA
ATOM     62  C   UNL     1       7.466   1.555  11.931  1.00  0.00     0.031 C 
ATOM     63  C   UNL     1       3.360  -2.270  14.308  1.00  0.00     0.029 A 
ATOM     64  C   UNL     1       4.007  -1.407  13.434  1.00  0.00     0.049 A 
ATOM     65  H   UNL     1       3.391  -0.762  11.524  1.00  0.00     0.167 HD
ATOM     66  C   UNL     1       5.865   0.101  12.717  1.00  0.00     0.074 A 
ATOM     67  C   UNL     1       7.145   0.749  12.932  1.00  0.00     0.031 C 
ATOM     68  C   UNL     1       5.274  -0.733  13.614  1.00  0.00     0.034 A 
BRANCH  55  69
ATOM     69  C   UNL     1      -0.199  -3.086  11.800  1.00  0.00     0.023 A 
ATOM     70  C   UNL     1      -0.577  -4.168  10.986  1.00  0.00     0.031 A 
ATOM     71  C   UNL     1      -1.032  -2.761  12.886  1.00  0.00     0.131 A 
ATOM     72  C   UNL     1      -1.792  -4.832  11.220  1.00  0.00     0.055 A 
ATOM     73  C   UNL     1      -2.193  -3.482  13.166  1.00  0.00     0.041 A 
ATOM     74  F   UNL     1      -0.745  -1.716  13.679  1.00  0.00    -0.206 F 
ATOM     75  C   UNL     1      -2.589  -4.515  12.322  1.00  0.00     0.022 A 
BRANCH  72  76
ATOM     76  S   UNL     1      -2.396  -6.004   9.973  1.00  0.00     0.124 S 
ATOM     77  O   UNL     1      -2.486  -5.154   8.789  1.00  0.00    -0.237 OA
ATOM     78  O   UNL     1      -1.347  -7.016   9.955  1.00  0.00    -0.237 OA
ATOM     79  O   UNL     1      -3.681  -6.447  10.512  1.00  0.00    -0.744 OA
ENDBRANCH  72  76
ENDBRANCH  55  69
BRANCH  56  80
ATOM     80  C   UNL     1       7.519   2.992   9.352  1.00  0.00     0.023 A 
ATOM     81  C   UNL     1       8.849   2.554   9.261  1.00  0.00     0.031 A 
ATOM     82  C   UNL     1       7.264   4.362   9.156  1.00  0.00     0.131 A 
ATOM     83  C   UNL     1       9.877   3.480   9.025  1.00  0.00     0.055 A 
ATOM     84  C   UNL     1       8.283   5.270   8.863  1.00  0.00     0.041 A 
ATOM     85  F   UNL     1       6.012   4.839   9.236  1.00  0.00    -0.206 F 
ATOM     86  C   UNL     1       9.602   4.832   8.809  1.00  0.00     0.022 A 
BRANCH  83  87
ATOM     87  S   UNL     1      11.596   2.905   9.099  1.00  0.00     0.124 S 
ATOM     88  O   UNL     1      11.662   2.338  10.441  1.00  0.00    -0.237 OA
ATOM     89  O   UNL     1      11.643   1.951   7.996  1.00  0.00    -0.237 OA
ATOM     90  O   UNL     1      12.372   4.127   8.898  1.00  0.00    -0.744 OA
ENDBRANCH  83  87
ENDBRANCH  56  80
BRANCH  68  91
ATOM     91  C   UNL     1       6.043  -1.018  14.880  1.00  0.00     0.023 A 
ATOM     92  C   UNL     1       6.312  -0.013  15.823  1.00  0.00     0.031 A 
ATOM     93  C   UNL     1       6.529  -2.313  15.132  1.00  0.00     0.131 A 
ATOM     94  C   UNL     1       7.110  -0.302  16.938  1.00  0.00     0.055 A 
ATOM     95  C   UNL     1       7.254  -2.613  16.284  1.00  0.00     0.041 A 
ATOM     96  F   UNL     1       6.301  -3.311  14.262  1.00  0.00    -0.206 F 
ATOM     97  C   UNL     1       7.565  -1.600  17.186  1.00  0.00     0.022 A 
BRANCH  94  98
ATOM     98  S   UNL     1       7.653   1.069  17.993  1.00  0.00     0.124 S 
ATOM     99  O   UNL     1       8.338   1.933  17.037  1.00  0.00    -0.237 OA
ATOM    100  O   UNL     1       6.390   1.577  18.519  1.00  0.00    -0.237 OA
ATOM    101  O   UNL     1       8.519   0.422  18.977  1.00  0.00    -0.744 OA
ENDBRANCH  94  98
ENDBRANCH  68  91
ENDBRANCH  42  43
ENDBRANCH  35  37
ENDBRANCH  34  35
ENDBRANCH  33  34
ENDBRANCH   1  33
TORSDOF 19
