REMARK SMILES O=C(OCCOC(=O)[C@@H]1c2[nH]cnc2CCN1C(=O)CCCc1c[nH]c2ccccc12)c1ccc(-c2c3nc(c(-c4cc(S(=O)(=O)[O-])ccc4F)c4ccc([nH]4)c(-c4cc(S(=O)(=O)[O-])ccc4F)c4nc(c(-c5cc(S(=O)(=O)[O-])ccc5F)c5ccc2[nH]5)C=C4)C=C3)cc1
REMARK SMILES IDX 5 1 4 2 3 3 2 4 1 5 32 6 33 7 94 8 34 9 93 10 35 11 36 12
REMARK SMILES IDX 37 13 87 14 38 15 92 16 86 17 88 18 39 19 91 20 85 21 84 22
REMARK SMILES IDX 40 24 72 25 52 26 71 27 53 28 56 29 70 30 89 31 54 32 55 33
REMARK SMILES IDX 69 35 90 36 57 37 41 38 42 39 50 40 43 41 49 42 51 43 48 44
REMARK SMILES IDX 44 45 45 46 46 47 47 48 73 49 74 50 82 51 75 52 81 53 83 54
REMARK SMILES IDX 80 55 76 56 77 57 78 58 79 59 58 60 59 61 67 62 60 63 66 64
REMARK SMILES IDX 68 65 65 66 61 67 62 68 63 69 64 70 6 71 7 72 8 73 9 74
REMARK SMILES IDX 10 75 17 76 11 77 14 78 16 79 12 80 13 82 15 83 18 84 19 85
REMARK SMILES IDX 20 86 21 87 22 88 23 89 24 90 31 91 25 92 26 93 30 94 27 96
REMARK SMILES IDX 29 97 28 98
REMARK H PARENT 88 23 56 34 11 81 25 95
REMARK Flexibility Score: inf
ROOT
ATOM      1  C   UNL     1       1.423   0.773   0.054  1.00  0.00     0.274 C 
ENDROOT
BRANCH   1   2
ATOM      2  C   UNL     1       2.399   1.149  -1.065  1.00  0.00     0.275 C 
BRANCH   2   3
ATOM      3  O   UNL     1       2.472   0.313  -2.241  1.00  0.00    -0.458 OA
BRANCH   3   4
ATOM      4  C   UNL     1       2.106  -0.976  -2.172  1.00  0.00     0.338 C 
ATOM      5  O   UNL     1       0.943  -1.381  -2.140  1.00  0.00    -0.246 OA
BRANCH   4   6
ATOM      6  C   UNL     1       3.261  -1.896  -2.208  1.00  0.00     0.060 A 
ATOM      7  C   UNL     1       4.527  -1.551  -1.726  1.00  0.00     0.016 A 
ATOM      8  C   UNL     1       3.022  -3.199  -2.645  1.00  0.00     0.016 A 
ATOM      9  C   UNL     1       5.545  -2.509  -1.714  1.00  0.00     0.010 A 
ATOM     10  C   UNL     1       4.011  -4.168  -2.549  1.00  0.00     0.010 A 
ATOM     11  C   UNL     1       5.298  -3.825  -2.141  1.00  0.00    -0.014 A 
BRANCH  11  12
ATOM     12  C   UNL     1       6.383  -4.821  -2.133  1.00  0.00     0.031 A 
ATOM     13  C   UNL     1       7.238  -4.868  -0.912  1.00  0.00     0.074 A 
ATOM     14  C   UNL     1       6.614  -5.732  -3.108  1.00  0.00     0.049 A 
ATOM     15  N   UNL     1       8.425  -4.377  -0.761  1.00  0.00    -0.248 NA
ATOM     16  C   UNL     1       6.677  -5.427   0.323  1.00  0.00     0.031 C 
ATOM     17  C   UNL     1       5.802  -6.047  -4.288  1.00  0.00     0.029 A 
ATOM     18  N   UNL     1       7.640  -6.630  -3.208  1.00  0.00    -0.354 N 
ATOM     19  C   UNL     1       8.861  -4.759   0.507  1.00  0.00     0.074 A 
ATOM     20  C   UNL     1       7.685  -5.246   1.183  1.00  0.00     0.031 C 
ATOM     21  C   UNL     1       6.242  -7.192  -4.858  1.00  0.00     0.029 A 
ATOM     22  C   UNL     1       7.479  -7.584  -4.209  1.00  0.00     0.049 A 
ATOM     23  H   UNL     1       8.429  -6.604  -2.620  1.00  0.00     0.167 HD
ATOM     24  C   UNL     1      10.192  -4.812   0.815  1.00  0.00     0.034 A 
ATOM     25  C   UNL     1       8.315  -8.602  -4.540  1.00  0.00     0.034 A 
ATOM     26  C   UNL     1      10.981  -4.151  -0.203  1.00  0.00     0.049 A 
ATOM     27  C   UNL     1       9.669  -8.191  -4.106  1.00  0.00     0.074 A 
ATOM     28  C   UNL     1      11.035  -2.870  -0.717  1.00  0.00     0.029 A 
ATOM     29  N   UNL     1      11.640  -4.938  -1.122  1.00  0.00    -0.354 N 
ATOM     30  N   UNL     1      10.306  -7.177  -4.626  1.00  0.00    -0.248 NA
ATOM     31  C   UNL     1      10.126  -8.601  -2.788  1.00  0.00     0.031 C 
ATOM     32  C   UNL     1      11.229  -3.050  -2.119  1.00  0.00     0.029 A 
ATOM     33  C   UNL     1      11.367  -4.419  -2.362  1.00  0.00     0.049 A 
ATOM     34  H   UNL     1      12.201  -5.723  -0.926  1.00  0.00     0.167 HD
ATOM     35  C   UNL     1      10.924  -6.556  -3.553  1.00  0.00     0.074 A 
ATOM     36  C   UNL     1      10.861  -7.533  -2.466  1.00  0.00     0.031 C 
ATOM     37  C   UNL     1      11.192  -5.217  -3.561  1.00  0.00     0.034 A 
BRANCH  24  38
ATOM     38  C   UNL     1      10.854  -5.721   1.834  1.00  0.00     0.023 A 
ATOM     39  C   UNL     1      12.258  -5.632   1.966  1.00  0.00     0.031 A 
ATOM     40  C   UNL     1      10.257  -6.835   2.459  1.00  0.00     0.131 A 
ATOM     41  C   UNL     1      13.004  -6.661   2.567  1.00  0.00     0.055 A 
ATOM     42  C   UNL     1      10.998  -7.826   3.115  1.00  0.00     0.041 A 
ATOM     43  F   UNL     1       8.944  -7.077   2.400  1.00  0.00    -0.206 F 
ATOM     44  C   UNL     1      12.381  -7.764   3.140  1.00  0.00     0.022 A 
BRANCH  41  45
ATOM     45  S   UNL     1      14.810  -6.621   2.415  1.00  0.00     0.124 S 
ATOM     46  O   UNL     1      14.981  -6.473   0.974  1.00  0.00    -0.237 OA
ATOM     47  O   UNL     1      15.153  -5.458   3.228  1.00  0.00    -0.237 OA
ATOM     48  O   UNL     1      15.226  -7.910   2.964  1.00  0.00    -0.744 OA
ENDBRANCH  41  45
ENDBRANCH  24  38
BRANCH  25  49
ATOM     49  C   UNL     1       7.933  -9.998  -4.891  1.00  0.00     0.023 A 
ATOM     50  C   UNL     1       8.797 -10.895  -5.555  1.00  0.00     0.031 A 
ATOM     51  C   UNL     1       6.754 -10.547  -4.338  1.00  0.00     0.131 A 
ATOM     52  C   UNL     1       8.469 -12.271  -5.638  1.00  0.00     0.055 A 
ATOM     53  C   UNL     1       6.437 -11.905  -4.419  1.00  0.00     0.041 A 
ATOM     54  F   UNL     1       5.908  -9.789  -3.622  1.00  0.00    -0.206 F 
ATOM     55  C   UNL     1       7.300 -12.776  -5.063  1.00  0.00     0.022 A 
BRANCH  52  56
ATOM     56  S   UNL     1       9.611 -13.453  -6.430  1.00  0.00     0.124 S 
ATOM     57  O   UNL     1       9.546 -13.055  -7.832  1.00  0.00    -0.237 OA
ATOM     58  O   UNL     1      10.867 -13.187  -5.737  1.00  0.00    -0.237 OA
ATOM     59  O   UNL     1       9.015 -14.757  -6.134  1.00  0.00    -0.744 OA
ENDBRANCH  52  56
ENDBRANCH  25  49
BRANCH  37  60
ATOM     60  C   UNL     1      11.100  -4.456  -4.867  1.00  0.00     0.023 A 
ATOM     61  C   UNL     1       9.929  -4.314  -5.646  1.00  0.00     0.031 A 
ATOM     62  C   UNL     1      12.232  -3.711  -5.246  1.00  0.00     0.131 A 
ATOM     63  C   UNL     1       9.926  -3.442  -6.755  1.00  0.00     0.055 A 
ATOM     64  C   UNL     1      12.218  -2.836  -6.330  1.00  0.00     0.041 A 
ATOM     65  F   UNL     1      13.366  -3.785  -4.529  1.00  0.00    -0.206 F 
ATOM     66  C   UNL     1      11.063  -2.699  -7.090  1.00  0.00     0.022 A 
BRANCH  63  67
ATOM     67  S   UNL     1       8.432  -3.244  -7.782  1.00  0.00     0.124 S 
ATOM     68  O   UNL     1       8.079  -4.614  -8.136  1.00  0.00    -0.237 OA
ATOM     69  O   UNL     1       7.512  -2.558  -6.878  1.00  0.00    -0.237 OA
ATOM     70  O   UNL     1       8.896  -2.426  -8.905  1.00  0.00    -0.744 OA
ENDBRANCH  63  67
ENDBRANCH  37  60
ENDBRANCH  11  12
ENDBRANCH   4   6
ENDBRANCH   3   4
ENDBRANCH   2   3
ENDBRANCH   1   2
BRANCH   1  71
ATOM     71  O   UNL     1       1.897  -0.407   0.714  1.00  0.00    -0.460 OA
BRANCH  71  72
ATOM     72  C   UNL     1       1.016  -1.455   0.830  1.00  0.00     0.335 C 
ATOM     73  O   UNL     1      -0.179  -1.401   0.569  1.00  0.00    -0.249 OA
BRANCH  72  74
ATOM     74  C   UNL     1       1.818  -2.700   1.244  1.00  0.00     0.244 C 
ATOM     75  C   UNL     1       1.506  -3.935   0.474  1.00  0.00     0.072 A 
ATOM     76  N   UNL     1       1.985  -3.143   2.642  1.00  0.00    -0.323 N 
ATOM     77  N   UNL     1       0.768  -4.101  -0.660  1.00  0.00    -0.346 N 
ATOM     78  C   UNL     1       2.020  -5.176   0.766  1.00  0.00     0.066 A 
ATOM     79  C   UNL     1       3.070  -4.135   2.774  1.00  0.00     0.127 C 
ATOM     80  C   UNL     1       0.947  -5.407  -1.047  1.00  0.00     0.197 A 
ATOM     81  H   UNL     1       0.218  -3.421  -1.112  1.00  0.00     0.167 HD
ATOM     82  N   UNL     1       1.671  -6.089  -0.182  1.00  0.00    -0.242 NA
ATOM     83  C   UNL     1       2.814  -5.451   1.988  1.00  0.00     0.080 C 
BRANCH  76  84
ATOM     84  C   UNL     1       0.999  -2.854   3.560  1.00  0.00     0.223 C 
ATOM     85  O   UNL     1       0.050  -2.124   3.252  1.00  0.00    -0.275 OA
BRANCH  84  86
ATOM     86  C   UNL     1       1.107  -3.229   5.035  1.00  0.00     0.100 C 
BRANCH  86  87
ATOM     87  C   UNL     1       0.889  -4.650   5.543  1.00  0.00     0.015 C 
BRANCH  87  88
ATOM     88  C   UNL     1       2.014  -5.684   5.642  1.00  0.00     0.038 C 
BRANCH  88  89
ATOM     89  C   UNL     1       3.420  -5.311   6.040  1.00  0.00    -0.023 A 
ATOM     90  C   UNL     1       4.056  -4.082   6.074  1.00  0.00     0.087 A 
ATOM     91  C   UNL     1       4.453  -6.268   6.354  1.00  0.00     0.003 A 
ATOM     92  N   UNL     1       5.409  -4.290   6.036  1.00  0.00    -0.361 N 
ATOM     93  C   UNL     1       5.679  -5.614   6.236  1.00  0.00     0.046 A 
ATOM     94  C   UNL     1       4.465  -7.641   6.671  1.00  0.00     0.010 A 
ATOM     95  H   UNL     1       6.086  -3.591   5.887  1.00  0.00     0.166 HD
ATOM     96  C   UNL     1       6.911  -6.264   6.325  1.00  0.00     0.026 A 
ATOM     97  C   UNL     1       5.691  -8.275   6.913  1.00  0.00     0.001 A 
ATOM     98  C   UNL     1       6.895  -7.602   6.713  1.00  0.00     0.002 A 
ENDBRANCH  88  89
ENDBRANCH  87  88
ENDBRANCH  86  87
ENDBRANCH  84  86
ENDBRANCH  76  84
ENDBRANCH  72  74
ENDBRANCH  71  72
ENDBRANCH   1  71
TORSDOF 19
