REMARK SMILES C[C@H]1CC[C@@](Nc2ccc(C(N)=O)nn2)(C(=O)OCCOC(=O)c2ccc(-c3c4nc(c(-c5cc(S(=O)(=O)[O-])ccc5F)c5ccc([nH]5)c(-c5cc(S(=O)(=O)[O-])ccc5F)c5nc(c(-c6cc(S(=O)(=O)[O-])ccc6F)c6ccc3[nH]6)C=C5)C=C4)cc2)CC1
REMARK SMILES IDX 19 1 18 2 16 3 17 4 5 5 1 6 2 7 88 8 3 9 87 10 4 11 6 12
REMARK SMILES IDX 7 14 8 15 15 16 9 17 14 18 10 19 11 20 12 21 13 22 20 25
REMARK SMILES IDX 21 26 22 27 23 28 24 29 25 30 86 31 26 32 85 33 27 34 28 35
REMARK SMILES IDX 29 36 79 37 30 38 84 39 78 40 80 41 31 42 83 43 77 44 76 45
REMARK SMILES IDX 32 47 64 48 44 49 63 50 45 51 48 52 62 53 81 54 46 55 47 56
REMARK SMILES IDX 61 58 82 59 49 60 33 61 34 62 42 63 35 64 41 65 43 66 40 67
REMARK SMILES IDX 36 68 37 69 38 70 39 71 65 72 66 73 74 74 67 75 73 76 75 77
REMARK SMILES IDX 72 78 68 79 69 80 70 81 71 82 50 83 51 84 59 85 52 86 58 87
REMARK SMILES IDX 60 88 57 89 53 90 54 91 55 92 56 93
REMARK H PARENT 6 13 12 23 12 24 80 46 48 57
REMARK Flexibility Score: inf
ROOT
ATOM      1  C   UNL     1      -2.228   1.137  -3.767  1.00  0.00     0.274 C 
ENDROOT
BRANCH   1   2
ATOM      2  O   UNL     1      -2.021   1.321  -2.350  1.00  0.00    -0.460 OA
BRANCH   2   3
ATOM      3  C   UNL     1      -2.157   0.191  -1.599  1.00  0.00     0.331 C 
ATOM      4  O   UNL     1      -2.340  -0.919  -2.089  1.00  0.00    -0.249 OA
BRANCH   3   5
ATOM      5  C   UNL     1      -2.218   0.464  -0.061  1.00  0.00     0.137 C 
ATOM      6  C   UNL     1       2.159   0.564   0.554  1.00  0.00     0.007 C 
ATOM      7  C   UNL     1       0.664   0.622   0.881  1.00  0.00    -0.014 C 
ATOM      8  C   UNL     1      -0.005  -0.702   0.522  1.00  0.00     0.006 C 
ATOM      9  C   UNL     1      -0.001   1.777   0.127  1.00  0.00     0.006 C 
ATOM     10  C   UNL     1      -1.525  -0.692   0.699  1.00  0.00     0.041 C 
ATOM     11  C   UNL     1      -1.517   1.792   0.329  1.00  0.00     0.041 C 
BRANCH   5  12
ATOM     12  N   UNL     1      -3.635   0.551   0.430  1.00  0.00    -0.353 N 
ATOM     13  H   UNL     1      -3.803   0.771   1.375  1.00  0.00     0.163 HD
BRANCH  12  14
ATOM     14  C   UNL     1      -4.711   0.328  -0.412  1.00  0.00     0.149 A 
ATOM     15  C   UNL     1      -4.932  -0.881  -1.058  1.00  0.00     0.051 A 
ATOM     16  N   UNL     1      -5.523   1.380  -0.653  1.00  0.00    -0.132 NA
ATOM     17  C   UNL     1      -5.908  -0.970  -2.049  1.00  0.00     0.040 A 
ATOM     18  N   UNL     1      -6.502   1.306  -1.612  1.00  0.00    -0.143 NA
ATOM     19  C   UNL     1      -6.659   0.156  -2.310  1.00  0.00     0.150 A 
BRANCH  19  20
ATOM     20  C   UNL     1      -7.664   0.181  -3.412  1.00  0.00     0.269 C 
ATOM     21  N   UNL     1      -8.399   1.335  -3.521  1.00  0.00    -0.364 N 
ATOM     22  O   UNL     1      -7.824  -0.750  -4.184  1.00  0.00    -0.268 OA
ATOM     23  H   UNL     1      -8.253   2.073  -2.886  1.00  0.00     0.160 HD
ATOM     24  H   UNL     1      -9.073   1.424  -4.233  1.00  0.00     0.160 HD
ENDBRANCH  19  20
ENDBRANCH  12  14
ENDBRANCH   5  12
ENDBRANCH   3   5
ENDBRANCH   2   3
ENDBRANCH   1   2
BRANCH   1  25
ATOM     25  C   UNL     1      -0.932   0.802  -4.508  1.00  0.00     0.275 C 
BRANCH  25  26
ATOM     26  O   UNL     1      -0.417  -0.468  -4.071  1.00  0.00    -0.458 OA
BRANCH  26  27
ATOM     27  C   UNL     1       0.922  -0.538  -3.871  1.00  0.00     0.338 C 
ATOM     28  O   UNL     1       1.730   0.343  -4.122  1.00  0.00    -0.246 OA
BRANCH  27  29
ATOM     29  C   UNL     1       1.303  -1.828  -3.239  1.00  0.00     0.060 A 
ATOM     30  C   UNL     1       0.422  -2.510  -2.406  1.00  0.00     0.016 A 
ATOM     31  C   UNL     1       2.614  -2.295  -3.351  1.00  0.00     0.016 A 
ATOM     32  C   UNL     1       0.883  -3.516  -1.559  1.00  0.00     0.010 A 
ATOM     33  C   UNL     1       3.030  -3.417  -2.616  1.00  0.00     0.010 A 
ATOM     34  C   UNL     1       2.186  -4.017  -1.665  1.00  0.00    -0.014 A 
BRANCH  34  35
ATOM     35  C   UNL     1       2.654  -5.121  -0.766  1.00  0.00     0.031 A 
ATOM     36  C   UNL     1       3.958  -4.999  -0.011  1.00  0.00     0.074 A 
ATOM     37  C   UNL     1       1.907  -6.233  -0.588  1.00  0.00     0.049 A 
ATOM     38  N   UNL     1       4.650  -5.925   0.606  1.00  0.00    -0.248 NA
ATOM     39  C   UNL     1       4.579  -3.666   0.034  1.00  0.00     0.031 C 
ATOM     40  C   UNL     1       0.600  -6.490  -1.200  1.00  0.00     0.029 A 
ATOM     41  N   UNL     1       2.125  -7.354   0.179  1.00  0.00    -0.354 N 
ATOM     42  C   UNL     1       5.826  -5.310   1.030  1.00  0.00     0.074 A 
ATOM     43  C   UNL     1       5.745  -3.927   0.608  1.00  0.00     0.031 C 
ATOM     44  C   UNL     1       0.101  -7.637  -0.723  1.00  0.00     0.029 A 
ATOM     45  C   UNL     1       1.108  -8.279   0.109  1.00  0.00     0.049 A 
ATOM     46  H   UNL     1       2.933  -7.482   0.727  1.00  0.00     0.167 HD
ATOM     47  C   UNL     1       6.876  -5.856   1.696  1.00  0.00     0.034 A 
ATOM     48  C   UNL     1       1.009  -9.534   0.591  1.00  0.00     0.034 A 
ATOM     49  C   UNL     1       6.903  -7.218   2.179  1.00  0.00     0.049 A 
ATOM     50  C   UNL     1       2.184 -10.120   1.321  1.00  0.00     0.074 A 
ATOM     51  C   UNL     1       7.909  -7.869   2.875  1.00  0.00     0.029 A 
ATOM     52  N   UNL     1       5.868  -8.135   2.040  1.00  0.00    -0.354 N 
ATOM     53  N   UNL     1       3.343  -9.568   1.597  1.00  0.00    -0.248 NA
ATOM     54  C   UNL     1       2.048 -11.508   1.775  1.00  0.00     0.031 C 
ATOM     55  C   UNL     1       7.504  -9.190   3.109  1.00  0.00     0.029 A 
ATOM     56  C   UNL     1       6.218  -9.347   2.621  1.00  0.00     0.049 A 
ATOM     57  H   UNL     1       5.010  -7.952   1.593  1.00  0.00     0.167 HD
ATOM     58  C   UNL     1       4.081 -10.552   2.245  1.00  0.00     0.074 A 
ATOM     59  C   UNL     1       3.218 -11.711   2.361  1.00  0.00     0.031 C 
ATOM     60  C   UNL     1       5.363 -10.508   2.691  1.00  0.00     0.034 A 
BRANCH  47  61
ATOM     61  C   UNL     1       8.114  -5.005   1.874  1.00  0.00     0.023 A 
ATOM     62  C   UNL     1       8.131  -3.844   2.665  1.00  0.00     0.031 A 
ATOM     63  C   UNL     1       9.305  -5.365   1.214  1.00  0.00     0.131 A 
ATOM     64  C   UNL     1       9.292  -3.054   2.725  1.00  0.00     0.055 A 
ATOM     65  C   UNL     1      10.477  -4.617   1.339  1.00  0.00     0.041 A 
ATOM     66  F   UNL     1       9.347  -6.452   0.427  1.00  0.00    -0.206 F 
ATOM     67  C   UNL     1      10.472  -3.446   2.088  1.00  0.00     0.022 A 
BRANCH  64  68
ATOM     68  S   UNL     1       9.203  -1.435   3.540  1.00  0.00     0.124 S 
ATOM     69  O   UNL     1       8.143  -0.778   2.779  1.00  0.00    -0.237 OA
ATOM     70  O   UNL     1       8.874  -1.792   4.915  1.00  0.00    -0.237 OA
ATOM     71  O   UNL     1      10.539  -0.876   3.343  1.00  0.00    -0.744 OA
ENDBRANCH  64  68
ENDBRANCH  47  61
BRANCH  48  72
ATOM     72  C   UNL     1      -0.203 -10.356   0.304  1.00  0.00     0.023 A 
ATOM     73  C   UNL     1      -1.041 -10.802   1.337  1.00  0.00     0.031 A 
ATOM     74  C   UNL     1      -0.531 -10.721  -1.015  1.00  0.00     0.131 A 
ATOM     75  C   UNL     1      -2.154 -11.603   1.036  1.00  0.00     0.055 A 
ATOM     76  C   UNL     1      -1.671 -11.466  -1.315  1.00  0.00     0.041 A 
ATOM     77  F   UNL     1       0.241 -10.327  -2.041  1.00  0.00    -0.206 F 
ATOM     78  C   UNL     1      -2.486 -11.920  -0.284  1.00  0.00     0.022 A 
BRANCH  75  79
ATOM     79  S   UNL     1      -3.133 -12.285   2.402  1.00  0.00     0.124 S 
ATOM     80  O   UNL     1      -2.134 -13.064   3.125  1.00  0.00    -0.237 OA
ATOM     81  O   UNL     1      -3.609 -11.077   3.067  1.00  0.00    -0.237 OA
ATOM     82  O   UNL     1      -4.165 -13.068   1.725  1.00  0.00    -0.744 OA
ENDBRANCH  75  79
ENDBRANCH  48  72
BRANCH  60  83
ATOM     83  C   UNL     1       5.882 -11.762   3.349  1.00  0.00     0.023 A 
ATOM     84  C   UNL     1       6.064 -12.949   2.616  1.00  0.00     0.031 A 
ATOM     85  C   UNL     1       6.122 -11.794   4.732  1.00  0.00     0.131 A 
ATOM     86  C   UNL     1       6.398 -14.137   3.282  1.00  0.00     0.055 A 
ATOM     87  C   UNL     1       6.516 -12.965   5.381  1.00  0.00     0.041 A 
ATOM     88  F   UNL     1       5.959 -10.691   5.480  1.00  0.00    -0.206 F 
ATOM     89  C   UNL     1       6.637 -14.150   4.659  1.00  0.00     0.022 A 
BRANCH  86  90
ATOM     90  S   UNL     1       6.385 -15.691   2.346  1.00  0.00     0.124 S 
ATOM     91  O   UNL     1       5.032 -15.704   1.798  1.00  0.00    -0.237 OA
ATOM     92  O   UNL     1       7.462 -15.484   1.384  1.00  0.00    -0.237 OA
ATOM     93  O   UNL     1       6.650 -16.706   3.365  1.00  0.00    -0.744 OA
ENDBRANCH  86  90
ENDBRANCH  60  83
ENDBRANCH  34  35
ENDBRANCH  27  29
ENDBRANCH  26  27
ENDBRANCH  25  26
ENDBRANCH   1  25
TORSDOF 17
