REMARK SMILES CCCc1cc2c(cc1Cl)C=C(C(=O)OCCOC(=O)c1ccc(-c3c4nc(c(-c5cc(S(=O)(=O)[O-])ccc5F)c5ccc([nH]5)c(-c5cc(S(=O)(=O)[O-])ccc5F)c5nc(c(-c6cc(S(=O)(=O)[O-])ccc6F)c6ccc3[nH]6)C=C5)C=C4)cc1)[C@@H](C(F)(F)F)O2
REMARK SMILES IDX 17 1 16 2 15 3 13 4 14 5 12 6 4 7 5 8 9 9 6 10 8 11 10 12
REMARK SMILES IDX 7 13 89 14 11 15 84 16 3 17 2 18 1 19 85 20 86 21 87 22
REMARK SMILES IDX 88 23 18 24 19 25 20 26 21 27 22 28 83 29 23 30 82 31 24 32
REMARK SMILES IDX 25 33 26 34 76 35 27 36 81 37 75 38 77 39 28 40 80 41 74 42
REMARK SMILES IDX 73 43 29 45 61 46 41 47 60 48 42 49 45 50 59 51 78 52 43 53
REMARK SMILES IDX 44 54 58 56 79 57 46 58 30 59 31 60 39 61 32 62 38 63 40 64
REMARK SMILES IDX 37 65 33 66 34 67 35 68 36 69 62 70 63 71 71 72 64 73 70 74
REMARK SMILES IDX 72 75 69 76 65 77 66 78 67 79 68 80 47 81 48 82 56 83 49 84
REMARK SMILES IDX 55 85 57 86 54 87 50 88 51 89 52 90 53 91
REMARK H PARENT 77 44 45 55
REMARK Flexibility Score: inf
ROOT
ATOM      1  C   UNL     1      -3.185   5.322  -8.199  1.00  0.00     0.275 C 
ENDROOT
BRANCH   1   2
ATOM      2  C   UNL     1      -2.058   4.283  -8.255  1.00  0.00     0.275 C 
BRANCH   2   3
ATOM      3  O   UNL     1      -1.804   3.686  -6.964  1.00  0.00    -0.459 OA
BRANCH   3   4
ATOM      4  C   UNL     1      -0.679   4.098  -6.332  1.00  0.00     0.338 C 
ATOM      5  O   UNL     1       0.135   4.904  -6.762  1.00  0.00    -0.246 OA
BRANCH   4   6
ATOM      6  C   UNL     1      -0.588   3.497  -4.984  1.00  0.00     0.087 C 
ATOM      7  C   UNL     1       0.349   2.560  -0.124  1.00  0.00    -0.026 A 
ATOM      8  C   UNL     1      -0.307   1.859  -1.154  1.00  0.00     0.052 A 
ATOM      9  C   UNL     1       0.705   3.900  -0.366  1.00  0.00     0.045 A 
ATOM     10  C   UNL     1      -0.454   2.414  -2.426  1.00  0.00     0.128 A 
ATOM     11  C   UNL     1       0.536   4.465  -1.629  1.00  0.00     0.032 A 
ATOM     12  Cl  UNL     1       1.393   4.902   0.864  1.00  0.00    -0.084 Cl
ATOM     13  C   UNL     1       0.018   3.697  -2.672  1.00  0.00     0.019 A 
ATOM     14  O   UNL     1      -1.066   1.641  -3.372  1.00  0.00    -0.475 OA
ATOM     15  C   UNL     1      -0.025   4.229  -4.016  1.00  0.00     0.027 C 
ATOM     16  C   UNL     1      -1.020   2.075  -4.763  1.00  0.00     0.316 C 
BRANCH   7  17
ATOM     17  C   UNL     1       0.711   1.916   1.199  1.00  0.00     0.037 C 
BRANCH  17  18
ATOM     18  C   UNL     1       0.457   0.415   1.379  1.00  0.00     0.001 C 
ATOM     19  C   UNL     1       1.364  -0.471   0.533  1.00  0.00     0.004 C 
ENDBRANCH  17  18
ENDBRANCH   7  17
BRANCH  16  20
ATOM     20  C   UNL     1      -0.083   1.132  -5.538  1.00  0.00     0.430 C 
ATOM     21  F   UNL     1      -0.401  -0.169  -5.333  1.00  0.00    -0.167 F 
ATOM     22  F   UNL     1      -0.158   1.341  -6.876  1.00  0.00    -0.167 F 
ATOM     23  F   UNL     1       1.213   1.291  -5.181  1.00  0.00    -0.167 F 
ENDBRANCH  16  20
ENDBRANCH   4   6
ENDBRANCH   3   4
ENDBRANCH   2   3
ENDBRANCH   1   2
BRANCH   1  24
ATOM     24  O   UNL     1      -2.795   6.502  -7.473  1.00  0.00    -0.458 OA
BRANCH  24  25
ATOM     25  C   UNL     1      -3.171   6.518  -6.173  1.00  0.00     0.338 C 
ATOM     26  O   UNL     1      -3.795   5.653  -5.581  1.00  0.00    -0.246 OA
BRANCH  25  27
ATOM     27  C   UNL     1      -2.541   7.654  -5.485  1.00  0.00     0.060 A 
ATOM     28  C   UNL     1      -3.073   8.934  -5.460  1.00  0.00     0.016 A 
ATOM     29  C   UNL     1      -1.420   7.360  -4.721  1.00  0.00     0.016 A 
ATOM     30  C   UNL     1      -2.433   9.915  -4.685  1.00  0.00     0.010 A 
ATOM     31  C   UNL     1      -0.846   8.297  -3.873  1.00  0.00     0.010 A 
ATOM     32  C   UNL     1      -1.319   9.607  -3.868  1.00  0.00    -0.014 A 
BRANCH  32  33
ATOM     33  C   UNL     1      -0.673  10.641  -3.006  1.00  0.00     0.031 A 
ATOM     34  C   UNL     1       0.801  10.960  -3.119  1.00  0.00     0.074 A 
ATOM     35  C   UNL     1      -1.423  11.292  -2.092  1.00  0.00     0.049 A 
ATOM     36  N   UNL     1       1.478  11.925  -2.546  1.00  0.00    -0.248 NA
ATOM     37  C   UNL     1       1.638  10.070  -3.943  1.00  0.00     0.031 C 
ATOM     38  C   UNL     1      -2.817  10.975  -1.781  1.00  0.00     0.029 A 
ATOM     39  N   UNL     1      -1.140  12.365  -1.283  1.00  0.00    -0.354 N 
ATOM     40  C   UNL     1       2.802  11.756  -2.942  1.00  0.00     0.074 A 
ATOM     41  C   UNL     1       2.856  10.541  -3.718  1.00  0.00     0.031 C 
ATOM     42  C   UNL     1      -3.298  11.893  -0.931  1.00  0.00     0.029 A 
ATOM     43  C   UNL     1      -2.237  12.841  -0.598  1.00  0.00     0.049 A 
ATOM     44  H   UNL     1      -0.241  12.757  -1.201  1.00  0.00     0.167 HD
ATOM     45  C   UNL     1       3.865  12.568  -2.728  1.00  0.00     0.034 A 
ATOM     46  C   UNL     1      -2.387  13.934   0.180  1.00  0.00     0.034 A 
ATOM     47  C   UNL     1       3.781  13.799  -1.984  1.00  0.00     0.049 A 
ATOM     48  C   UNL     1      -1.215  14.869   0.345  1.00  0.00     0.074 A 
ATOM     49  C   UNL     1       4.773  14.738  -1.772  1.00  0.00     0.029 A 
ATOM     50  N   UNL     1       2.643  14.266  -1.344  1.00  0.00    -0.354 N 
ATOM     51  N   UNL     1      -0.005  14.769  -0.155  1.00  0.00    -0.248 NA
ATOM     52  C   UNL     1      -1.427  16.077   1.154  1.00  0.00     0.031 C 
ATOM     53  C   UNL     1       4.256  15.736  -0.947  1.00  0.00     0.029 A 
ATOM     54  C   UNL     1       2.914  15.472  -0.723  1.00  0.00     0.049 A 
ATOM     55  H   UNL     1       1.771  13.807  -1.333  1.00  0.00     0.167 HD
ATOM     56  C   UNL     1       0.674  15.915   0.248  1.00  0.00     0.074 A 
ATOM     57  C   UNL     1      -0.266  16.705   1.014  1.00  0.00     0.031 C 
ATOM     58  C   UNL     1       1.960  16.274   0.007  1.00  0.00     0.034 A 
BRANCH  45  59
ATOM     59  C   UNL     1       5.199  12.213  -3.348  1.00  0.00     0.023 A 
ATOM     60  C   UNL     1       6.340  12.055  -2.538  1.00  0.00     0.031 A 
ATOM     61  C   UNL     1       5.373  12.181  -4.745  1.00  0.00     0.131 A 
ATOM     62  C   UNL     1       7.603  11.916  -3.129  1.00  0.00     0.055 A 
ATOM     63  C   UNL     1       6.625  11.985  -5.328  1.00  0.00     0.041 A 
ATOM     64  F   UNL     1       4.323  12.339  -5.567  1.00  0.00    -0.206 F 
ATOM     65  C   UNL     1       7.750  11.867  -4.519  1.00  0.00     0.022 A 
BRANCH  62  66
ATOM     66  S   UNL     1       9.114  11.877  -2.126  1.00  0.00     0.124 S 
ATOM     67  O   UNL     1       9.701  10.597  -2.515  1.00  0.00    -0.237 OA
ATOM     68  O   UNL     1       9.826  13.059  -2.602  1.00  0.00    -0.237 OA
ATOM     69  O   UNL     1       8.626  11.944  -0.753  1.00  0.00    -0.744 OA
ENDBRANCH  62  66
ENDBRANCH  45  59
BRANCH  46  70
ATOM     70  C   UNL     1      -3.736  14.244   0.743  1.00  0.00     0.023 A 
ATOM     71  C   UNL     1      -4.378  13.350   1.620  1.00  0.00     0.031 A 
ATOM     72  C   UNL     1      -4.456  15.374   0.315  1.00  0.00     0.131 A 
ATOM     73  C   UNL     1      -5.717  13.560   1.976  1.00  0.00     0.055 A 
ATOM     74  C   UNL     1      -5.764  15.622   0.738  1.00  0.00     0.041 A 
ATOM     75  F   UNL     1      -3.900  16.247  -0.539  1.00  0.00    -0.206 F 
ATOM     76  C   UNL     1      -6.408  14.701   1.557  1.00  0.00     0.022 A 
BRANCH  73  77
ATOM     77  S   UNL     1      -6.652  12.283   2.864  1.00  0.00     0.124 S 
ATOM     78  O   UNL     1      -7.045  12.984   4.082  1.00  0.00    -0.237 OA
ATOM     79  O   UNL     1      -7.733  11.998   1.923  1.00  0.00    -0.237 OA
ATOM     80  O   UNL     1      -5.683  11.206   3.038  1.00  0.00    -0.744 OA
ENDBRANCH  73  77
ENDBRANCH  46  70
BRANCH  58  81
ATOM     81  C   UNL     1       2.463  17.599   0.531  1.00  0.00     0.023 A 
ATOM     82  C   UNL     1       2.954  18.560  -0.375  1.00  0.00     0.031 A 
ATOM     83  C   UNL     1       2.634  17.833   1.905  1.00  0.00     0.131 A 
ATOM     84  C   UNL     1       3.642  19.681   0.101  1.00  0.00     0.055 A 
ATOM     85  C   UNL     1       3.268  18.984   2.377  1.00  0.00     0.041 A 
ATOM     86  F   UNL     1       2.202  16.940   2.809  1.00  0.00    -0.206 F 
ATOM     87  C   UNL     1       3.792  19.904   1.473  1.00  0.00     0.022 A 
BRANCH  84  88
ATOM     88  S   UNL     1       4.469  20.824  -1.040  1.00  0.00     0.124 S 
ATOM     89  O   UNL     1       3.780  22.081  -0.759  1.00  0.00    -0.237 OA
ATOM     90  O   UNL     1       5.856  20.759  -0.588  1.00  0.00    -0.237 OA
ATOM     91  O   UNL     1       4.211  20.256  -2.359  1.00  0.00    -0.744 OA
ENDBRANCH  84  88
ENDBRANCH  58  81
ENDBRANCH  32  33
ENDBRANCH  25  27
ENDBRANCH  24  25
ENDBRANCH   1  24
TORSDOF 17
