REMARK SMILES Cc1cc(C(=O)OCCOC(=O)c2ccc(-c3c4nc(c(-c5cc(S(=O)(=O)[O-])ccc5F)c5ccc([nH]5)c(-c5cc(S(=O)(=O)[O-])ccc5F)c5nc(c(-c6cc(S(=O)(=O)[O-])ccc6F)c6ccc3[nH]6)C=C5)C=C4)cc2)ccc1NC(=O)N1C[C@@H](C)[C@H](C)C1
REMARK SMILES IDX 9 1 8 2 7 3 5 4 6 5 4 6 1 7 2 8 3 9 78 10 77 11 76 12 79 13
REMARK SMILES IDX 80 14 81 16 82 17 83 18 88 19 84 20 86 21 85 22 87 23 10 24
REMARK SMILES IDX 11 25 12 26 13 27 14 28 75 29 15 30 74 31 16 32 17 33 18 34
REMARK SMILES IDX 68 35 19 36 73 37 67 38 69 39 20 40 72 41 66 42 65 43 21 45
REMARK SMILES IDX 53 46 33 47 52 48 34 49 37 50 51 51 70 52 35 53 36 54 50 56
REMARK SMILES IDX 71 57 38 58 22 59 23 60 31 61 24 62 30 63 32 64 29 65 25 66
REMARK SMILES IDX 26 67 27 68 28 69 54 70 55 71 63 72 56 73 62 74 64 75 61 76
REMARK SMILES IDX 57 77 58 78 59 79 60 80 39 81 40 82 48 83 41 84 47 85 49 86
REMARK SMILES IDX 46 87 42 88 43 89 44 90 45 91
REMARK H PARENT 79 15 69 44 37 55
REMARK Flexibility Score: inf
ROOT
ATOM      1  C   UNL     1      -3.796  -3.950  -3.367  1.00  0.00     0.275 C 
ENDROOT
BRANCH   1   2
ATOM      2  C   UNL     1      -3.986  -2.702  -2.496  1.00  0.00     0.275 C 
BRANCH   2   3
ATOM      3  O   UNL     1      -2.849  -1.831  -2.522  1.00  0.00    -0.458 OA
BRANCH   3   4
ATOM      4  C   UNL     1      -2.720  -1.098  -1.399  1.00  0.00     0.338 C 
ATOM      5  O   UNL     1      -3.484  -1.085  -0.427  1.00  0.00    -0.246 OA
BRANCH   4   6
ATOM      6  C   UNL     1      -1.641  -0.122  -1.510  1.00  0.00     0.060 A 
ATOM      7  C   UNL     1       1.814   0.437  -0.043  1.00  0.00     0.046 C 
ATOM      8  C   UNL     1       0.498   0.744  -0.703  1.00  0.00    -0.027 A 
ATOM      9  C   UNL     1      -0.381  -0.331  -0.937  1.00  0.00     0.021 A 
ATOM     10  C   UNL     1       0.033   2.036  -0.985  1.00  0.00     0.045 A 
ATOM     11  C   UNL     1      -1.154   2.198  -1.724  1.00  0.00     0.027 A 
ATOM     12  C   UNL     1      -2.003   1.133  -1.969  1.00  0.00     0.018 A 
BRANCH  10  13
ATOM     13  N   UNL     1       0.706   3.181  -0.505  1.00  0.00    -0.308 N 
ATOM     14  C   UNL     1       0.161   4.433  -0.357  1.00  0.00     0.321 C 
ATOM     15  H   UNL     1       1.652   3.072  -0.254  1.00  0.00     0.171 HD
ATOM     16  O   UNL     1       0.833   5.435  -0.595  1.00  0.00    -0.248 OA
ATOM     17  N   UNL     1      -1.152   4.500   0.048  1.00  0.00    -0.324 N 
ATOM     18  C   UNL     1      -2.048   5.534  -0.417  1.00  0.00     0.125 C 
ATOM     19  C   UNL     1      -1.723   3.749   1.161  1.00  0.00     0.125 C 
ATOM     20  C   UNL     1      -3.303   5.426   0.451  1.00  0.00     0.010 C 
ATOM     21  C   UNL     1      -3.223   4.019   1.080  1.00  0.00     0.010 C 
ATOM     22  C   UNL     1      -4.585   5.624  -0.350  1.00  0.00     0.010 C 
ATOM     23  C   UNL     1      -3.911   3.950   2.438  1.00  0.00     0.010 C 
ENDBRANCH  10  13
ENDBRANCH   4   6
ENDBRANCH   3   4
ENDBRANCH   2   3
ENDBRANCH   1   2
BRANCH   1  24
ATOM     24  O   UNL     1      -2.596  -4.759  -3.255  1.00  0.00    -0.458 OA
BRANCH  24  25
ATOM     25  C   UNL     1      -1.566  -4.424  -2.443  1.00  0.00     0.338 C 
ATOM     26  O   UNL     1      -0.489  -4.013  -2.881  1.00  0.00    -0.246 OA
BRANCH  25  27
ATOM     27  C   UNL     1      -1.890  -4.475  -0.998  1.00  0.00     0.060 A 
ATOM     28  C   UNL     1      -1.083  -3.761  -0.103  1.00  0.00     0.016 A 
ATOM     29  C   UNL     1      -3.080  -5.051  -0.554  1.00  0.00     0.016 A 
ATOM     30  C   UNL     1      -1.547  -3.460   1.178  1.00  0.00     0.010 A 
ATOM     31  C   UNL     1      -3.566  -4.719   0.698  1.00  0.00     0.010 A 
ATOM     32  C   UNL     1      -2.817  -3.905   1.560  1.00  0.00    -0.014 A 
BRANCH  32  33
ATOM     33  C   UNL     1      -3.275  -3.870   2.948  1.00  0.00     0.031 A 
ATOM     34  C   UNL     1      -3.816  -2.677   3.636  1.00  0.00     0.074 A 
ATOM     35  C   UNL     1      -3.111  -5.040   3.603  1.00  0.00     0.049 A 
ATOM     36  N   UNL     1      -3.744  -2.489   4.913  1.00  0.00    -0.248 NA
ATOM     37  C   UNL     1      -4.476  -1.577   2.941  1.00  0.00     0.031 C 
ATOM     38  C   UNL     1      -3.536  -5.420   4.938  1.00  0.00     0.029 A 
ATOM     39  N   UNL     1      -2.241  -6.064   3.219  1.00  0.00    -0.354 N 
ATOM     40  C   UNL     1      -4.572  -1.435   5.241  1.00  0.00     0.074 A 
ATOM     41  C   UNL     1      -4.941  -0.852   3.970  1.00  0.00     0.031 C 
ATOM     42  C   UNL     1      -2.689  -6.368   5.381  1.00  0.00     0.029 A 
ATOM     43  C   UNL     1      -1.624  -6.488   4.388  1.00  0.00     0.049 A 
ATOM     44  H   UNL     1      -2.096  -6.413   2.309  1.00  0.00     0.167 HD
ATOM     45  C   UNL     1      -4.971  -1.269   6.538  1.00  0.00     0.034 A 
ATOM     46  C   UNL     1      -0.289  -6.327   4.617  1.00  0.00     0.034 A 
ATOM     47  C   UNL     1      -4.336  -2.249   7.414  1.00  0.00     0.049 A 
ATOM     48  C   UNL     1      -0.059  -5.631   5.934  1.00  0.00     0.074 A 
ATOM     49  C   UNL     1      -4.774  -3.469   7.904  1.00  0.00     0.029 A 
ATOM     50  N   UNL     1      -2.969  -2.186   7.660  1.00  0.00    -0.354 N 
ATOM     51  N   UNL     1      -0.854  -4.722   6.429  1.00  0.00    -0.248 NA
ATOM     52  C   UNL     1       1.069  -5.947   6.799  1.00  0.00     0.031 C 
ATOM     53  C   UNL     1      -3.639  -4.185   8.356  1.00  0.00     0.029 A 
ATOM     54  C   UNL     1      -2.523  -3.382   8.186  1.00  0.00     0.049 A 
ATOM     55  H   UNL     1      -2.402  -1.401   7.485  1.00  0.00     0.167 HD
ATOM     56  C   UNL     1      -0.425  -4.409   7.695  1.00  0.00     0.074 A 
ATOM     57  C   UNL     1       0.797  -5.179   7.866  1.00  0.00     0.031 C 
ATOM     58  C   UNL     1      -1.127  -3.586   8.532  1.00  0.00     0.034 A 
BRANCH  45  59
ATOM     59  C   UNL     1      -6.174  -0.453   6.977  1.00  0.00     0.023 A 
ATOM     60  C   UNL     1      -6.948  -0.898   8.076  1.00  0.00     0.031 A 
ATOM     61  C   UNL     1      -6.636   0.719   6.354  1.00  0.00     0.131 A 
ATOM     62  C   UNL     1      -8.156  -0.272   8.439  1.00  0.00     0.055 A 
ATOM     63  C   UNL     1      -7.859   1.325   6.690  1.00  0.00     0.041 A 
ATOM     64  F   UNL     1      -5.906   1.350   5.423  1.00  0.00    -0.206 F 
ATOM     65  C   UNL     1      -8.636   0.820   7.725  1.00  0.00     0.022 A 
BRANCH  62  66
ATOM     66  S   UNL     1      -9.104  -0.919   9.848  1.00  0.00     0.124 S 
ATOM     67  O   UNL     1      -9.319  -2.312   9.468  1.00  0.00    -0.237 OA
ATOM     68  O   UNL     1      -8.195  -0.687  10.966  1.00  0.00    -0.237 OA
ATOM     69  O   UNL     1     -10.310  -0.092   9.855  1.00  0.00    -0.744 OA
ENDBRANCH  62  66
ENDBRANCH  45  59
BRANCH  46  70
ATOM     70  C   UNL     1       0.621  -6.194   3.432  1.00  0.00     0.023 A 
ATOM     71  C   UNL     1       0.494  -7.105   2.359  1.00  0.00     0.031 A 
ATOM     72  C   UNL     1       1.460  -5.087   3.231  1.00  0.00     0.131 A 
ATOM     73  C   UNL     1       1.088  -6.841   1.113  1.00  0.00     0.055 A 
ATOM     74  C   UNL     1       2.096  -4.853   2.002  1.00  0.00     0.041 A 
ATOM     75  F   UNL     1       1.627  -4.168   4.192  1.00  0.00    -0.206 F 
ATOM     76  C   UNL     1       1.890  -5.716   0.927  1.00  0.00     0.022 A 
BRANCH  73  77
ATOM     77  S   UNL     1       0.624  -7.868  -0.313  1.00  0.00     0.124 S 
ATOM     78  O   UNL     1       1.484  -9.033  -0.139  1.00  0.00    -0.237 OA
ATOM     79  O   UNL     1      -0.803  -8.086  -0.094  1.00  0.00    -0.237 OA
ATOM     80  O   UNL     1       0.940  -7.017  -1.456  1.00  0.00    -0.744 OA
ENDBRANCH  73  77
ENDBRANCH  46  70
BRANCH  58  81
ATOM     81  C   UNL     1      -0.606  -3.047   9.842  1.00  0.00     0.023 A 
ATOM     82  C   UNL     1       0.762  -2.978  10.138  1.00  0.00     0.031 A 
ATOM     83  C   UNL     1      -1.475  -2.502  10.817  1.00  0.00     0.131 A 
ATOM     84  C   UNL     1       1.214  -2.518  11.384  1.00  0.00     0.055 A 
ATOM     85  C   UNL     1      -1.017  -1.961  12.022  1.00  0.00     0.041 A 
ATOM     86  F   UNL     1      -2.803  -2.462  10.639  1.00  0.00    -0.206 F 
ATOM     87  C   UNL     1       0.336  -1.988  12.324  1.00  0.00     0.022 A 
BRANCH  84  88
ATOM     88  S   UNL     1       2.972  -2.708  11.769  1.00  0.00     0.124 S 
ATOM     89  O   UNL     1       3.130  -4.160  11.726  1.00  0.00    -0.237 OA
ATOM     90  O   UNL     1       3.613  -1.971  10.685  1.00  0.00    -0.237 OA
ATOM     91  O   UNL     1       3.103  -2.108  13.094  1.00  0.00    -0.744 OA
ENDBRANCH  84  88
ENDBRANCH  58  81
ENDBRANCH  32  33
ENDBRANCH  25  27
ENDBRANCH  24  25
ENDBRANCH   1  24
TORSDOF 15
