REMARK SMILES C[C@@H](CS(=O)(=O)[C@@H]1CCC[C@H](S(C)(=O)=O)C1)C(=O)OCCOC(=O)c1ccc(-c2c3nc(c(-c4cc(S(=O)(=O)[O-])ccc4F)c4ccc([nH]4)c(-c4cc(S(=O)(=O)[O-])ccc4F)c4nc(c(-c5cc(S(=O)(=O)[O-])ccc5F)c5ccc2[nH]5)C=C4)C=C3)cc1
REMARK SMILES IDX 20 1 19 2 17 3 18 4 2 5 1 6 3 7 4 8 5 9 6 10 7 11 8 12 16 13
REMARK SMILES IDX 9 14 11 15 10 16 12 17 13 18 14 19 15 20 21 21 22 22 23 23
REMARK SMILES IDX 24 24 25 25 26 26 87 27 27 28 86 29 28 30 29 31 30 32 80 33
REMARK SMILES IDX 31 34 85 35 79 36 81 37 32 38 84 39 78 40 77 41 33 43 65 44
REMARK SMILES IDX 45 45 64 46 46 47 49 48 63 49 82 50 47 51 48 52 62 54 83 55
REMARK SMILES IDX 50 56 34 57 35 58 43 59 36 60 42 61 44 62 41 63 37 64 38 65
REMARK SMILES IDX 39 66 40 67 66 68 67 69 75 70 68 71 74 72 76 73 73 74 69 75
REMARK SMILES IDX 70 76 71 77 72 78 51 79 52 80 60 81 53 82 59 83 61 84 58 85
REMARK SMILES IDX 54 86 55 87 56 88 57 89
REMARK H PARENT 81 42 49 53
REMARK Flexibility Score: inf
ROOT
ATOM      1  C   UNL     1      -3.060  -0.042   1.161  1.00  0.00     0.274 C 
ENDROOT
BRANCH   1   2
ATOM      2  O   UNL     1      -1.624   0.026   1.071  1.00  0.00    -0.462 OA
BRANCH   2   3
ATOM      3  C   UNL     1      -0.939  -0.943   1.728  1.00  0.00     0.309 C 
ATOM      4  O   UNL     1      -1.438  -1.850   2.380  1.00  0.00    -0.252 OA
BRANCH   3   5
ATOM      5  C   UNL     1       0.565  -0.785   1.593  1.00  0.00     0.111 C 
ATOM      6  C   UNL     1       1.033  -0.157   0.281  1.00  0.00     0.021 C 
BRANCH   5   7
ATOM      7  C   UNL     1       1.185  -0.210   2.861  1.00  0.00     0.152 C 
BRANCH   7   8
ATOM      8  S   UNL     1       0.599   1.368   3.448  1.00  0.00     0.154 S 
ATOM      9  O   UNL     1      -0.847   1.313   3.542  1.00  0.00    -0.229 OA
ATOM     10  O   UNL     1       1.381   1.687   4.629  1.00  0.00    -0.229 OA
BRANCH   8  11
ATOM     11  C   UNL     1       1.020   2.589   2.197  1.00  0.00     0.110 C 
ATOM     12  C   UNL     1       2.530   2.672   1.962  1.00  0.00     0.020 C 
ATOM     13  C   UNL     1       0.455   3.962   2.580  1.00  0.00     0.039 C 
ATOM     14  C   UNL     1       2.869   3.715   0.904  1.00  0.00     0.003 C 
ATOM     15  C   UNL     1       0.793   5.021   1.523  1.00  0.00     0.109 C 
ATOM     16  C   UNL     1       2.301   5.084   1.267  1.00  0.00     0.020 C 
BRANCH  15  17
ATOM     17  S   UNL     1       0.121   6.618   2.022  1.00  0.00     0.150 S 
ATOM     18  C   UNL     1       0.592   7.732   0.722  1.00  0.00     0.158 C 
ATOM     19  O   UNL     1      -1.326   6.517   1.980  1.00  0.00    -0.229 OA
ATOM     20  O   UNL     1       0.798   7.050   3.229  1.00  0.00    -0.229 OA
ENDBRANCH  15  17
ENDBRANCH   8  11
ENDBRANCH   7   8
ENDBRANCH   5   7
ENDBRANCH   3   5
ENDBRANCH   2   3
ENDBRANCH   1   2
BRANCH   1  21
ATOM     21  C   UNL     1      -3.675  -0.450  -0.179  1.00  0.00     0.275 C 
BRANCH  21  22
ATOM     22  O   UNL     1      -3.238  -1.761  -0.581  1.00  0.00    -0.458 OA
BRANCH  22  23
ATOM     23  C   UNL     1      -2.159  -1.776  -1.399  1.00  0.00     0.338 C 
ATOM     24  O   UNL     1      -1.568  -0.815  -1.862  1.00  0.00    -0.246 OA
BRANCH  23  25
ATOM     25  C   UNL     1      -1.677  -3.158  -1.541  1.00  0.00     0.060 A 
ATOM     26  C   UNL     1      -0.500  -3.508  -0.879  1.00  0.00     0.016 A 
ATOM     27  C   UNL     1      -2.322  -4.075  -2.369  1.00  0.00     0.016 A 
ATOM     28  C   UNL     1       0.056  -4.769  -1.048  1.00  0.00     0.010 A 
ATOM     29  C   UNL     1      -1.774  -5.354  -2.524  1.00  0.00     0.010 A 
ATOM     30  C   UNL     1      -0.578  -5.704  -1.870  1.00  0.00    -0.014 A 
BRANCH  30  31
ATOM     31  C   UNL     1       0.037  -7.039  -2.055  1.00  0.00     0.031 A 
ATOM     32  C   UNL     1       0.701  -7.380  -3.356  1.00  0.00     0.074 A 
ATOM     33  C   UNL     1       0.025  -7.922  -1.038  1.00  0.00     0.049 A 
ATOM     34  N   UNL     1       1.200  -8.520  -3.756  1.00  0.00    -0.248 NA
ATOM     35  C   UNL     1       0.818  -6.291  -4.338  1.00  0.00     0.031 C 
ATOM     36  C   UNL     1      -0.531  -7.667   0.293  1.00  0.00     0.029 A 
ATOM     37  N   UNL     1       0.491  -9.209  -0.964  1.00  0.00    -0.354 N 
ATOM     38  C   UNL     1       1.670  -8.297  -5.045  1.00  0.00     0.074 A 
ATOM     39  C   UNL     1       1.386  -6.913  -5.362  1.00  0.00     0.031 C 
ATOM     40  C   UNL     1      -0.379  -8.767   1.048  1.00  0.00     0.029 A 
ATOM     41  C   UNL     1       0.225  -9.820   0.240  1.00  0.00     0.049 A 
ATOM     42  H   UNL     1       0.969  -9.653  -1.701  1.00  0.00     0.167 HD
ATOM     43  C   UNL     1       2.278  -9.173  -5.882  1.00  0.00     0.034 A 
ATOM     44  C   UNL     1       0.406 -11.098   0.628  1.00  0.00     0.034 A 
ATOM     45  C   UNL     1       2.554 -10.548  -5.542  1.00  0.00     0.049 A 
ATOM     46  C   UNL     1       1.009 -12.071  -0.351  1.00  0.00     0.074 A 
ATOM     47  C   UNL     1       3.168 -11.521  -6.311  1.00  0.00     0.029 A 
ATOM     48  N   UNL     1       2.228 -11.147  -4.331  1.00  0.00    -0.354 N 
ATOM     49  N   UNL     1       1.420 -11.858  -1.581  1.00  0.00    -0.248 NA
ATOM     50  C   UNL     1       1.168 -13.457   0.106  1.00  0.00     0.031 C 
ATOM     51  C   UNL     1       3.160 -12.721  -5.589  1.00  0.00     0.029 A 
ATOM     52  C   UNL     1       2.600 -12.482  -4.344  1.00  0.00     0.049 A 
ATOM     53  H   UNL     1       1.795 -10.690  -3.575  1.00  0.00     0.167 HD
ATOM     54  C   UNL     1       1.901 -13.082  -2.037  1.00  0.00     0.074 A 
ATOM     55  C   UNL     1       1.748 -14.021  -0.944  1.00  0.00     0.031 C 
ATOM     56  C   UNL     1       2.421 -13.404  -3.248  1.00  0.00     0.034 A 
BRANCH  43  57
ATOM     57  C   UNL     1       2.619  -8.684  -7.266  1.00  0.00     0.023 A 
ATOM     58  C   UNL     1       3.605  -7.708  -7.490  1.00  0.00     0.031 A 
ATOM     59  C   UNL     1       1.928  -9.193  -8.380  1.00  0.00     0.131 A 
ATOM     60  C   UNL     1       3.833  -7.231  -8.791  1.00  0.00     0.055 A 
ATOM     61  C   UNL     1       2.205  -8.763  -9.679  1.00  0.00     0.041 A 
ATOM     62  F   UNL     1       0.960 -10.110  -8.222  1.00  0.00    -0.206 F 
ATOM     63  C   UNL     1       3.156  -7.768  -9.889  1.00  0.00     0.022 A 
BRANCH  60  64
ATOM     64  S   UNL     1       4.948  -5.819  -9.018  1.00  0.00     0.124 S 
ATOM     65  O   UNL     1       4.278  -4.784  -8.233  1.00  0.00    -0.237 OA
ATOM     66  O   UNL     1       6.206  -6.317  -8.474  1.00  0.00    -0.237 OA
ATOM     67  O   UNL     1       4.937  -5.600 -10.463  1.00  0.00    -0.744 OA
ENDBRANCH  60  64
ENDBRANCH  43  57
BRANCH  44  68
ATOM     68  C   UNL     1      -0.054 -11.553   1.971  1.00  0.00     0.023 A 
ATOM     69  C   UNL     1       0.853 -12.038   2.925  1.00  0.00     0.031 A 
ATOM     70  C   UNL     1      -1.423 -11.561   2.297  1.00  0.00     0.131 A 
ATOM     71  C   UNL     1       0.378 -12.552   4.142  1.00  0.00     0.055 A 
ATOM     72  C   UNL     1      -1.886 -12.024   3.529  1.00  0.00     0.041 A 
ATOM     73  F   UNL     1      -2.333 -11.111   1.419  1.00  0.00    -0.206 F 
ATOM     74  C   UNL     1      -0.984 -12.536   4.455  1.00  0.00     0.022 A 
BRANCH  71  75
ATOM     75  S   UNL     1       1.560 -13.332   5.275  1.00  0.00     0.124 S 
ATOM     76  O   UNL     1       2.162 -14.352   4.423  1.00  0.00    -0.237 OA
ATOM     77  O   UNL     1       2.419 -12.209   5.635  1.00  0.00    -0.237 OA
ATOM     78  O   UNL     1       0.714 -13.839   6.353  1.00  0.00    -0.744 OA
ENDBRANCH  71  75
ENDBRANCH  44  68
BRANCH  56  79
ATOM     79  C   UNL     1       2.890 -14.825  -3.425  1.00  0.00     0.023 A 
ATOM     80  C   UNL     1       1.982 -15.897  -3.477  1.00  0.00     0.031 A 
ATOM     81  C   UNL     1       4.263 -15.111  -3.516  1.00  0.00     0.131 A 
ATOM     82  C   UNL     1       2.461 -17.212  -3.562  1.00  0.00     0.055 A 
ATOM     83  C   UNL     1       4.731 -16.418  -3.655  1.00  0.00     0.041 A 
ATOM     84  F   UNL     1       5.171 -14.123  -3.470  1.00  0.00    -0.206 F 
ATOM     85  C   UNL     1       3.829 -17.478  -3.666  1.00  0.00     0.022 A 
BRANCH  82  86
ATOM     86  S   UNL     1       1.275 -18.580  -3.453  1.00  0.00     0.124 S 
ATOM     87  O   UNL     1       0.672 -18.355  -2.143  1.00  0.00    -0.237 OA
ATOM     88  O   UNL     1       0.411 -18.337  -4.603  1.00  0.00    -0.237 OA
ATOM     89  O   UNL     1       2.116 -19.772  -3.552  1.00  0.00    -0.744 OA
ENDBRANCH  82  86
ENDBRANCH  56  79
ENDBRANCH  30  31
ENDBRANCH  23  25
ENDBRANCH  22  23
ENDBRANCH  21  22
ENDBRANCH   1  21
TORSDOF 18
