REMARK SMILES O=C(OCCOC(=O)[C@@H]1[C@@H](C(=O)N2CC[NH+](C/C=C/c3ccccc3)CC2)[C@@H]2C=C[C@H]1C2)c1ccc(-c2c3nc(c(-c4cc(S(=O)(=O)[O-])ccc4F)c4ccc([nH]4)c(-c4cc(S(=O)(=O)[O-])ccc4F)c4nc(c(-c5cc(S(=O)(=O)[O-])ccc5F)c5ccc2[nH]5)C=C4)C=C3)cc1
REMARK SMILES IDX 5 1 4 2 3 3 2 4 1 5 33 6 34 7 95 8 35 9 94 10 36 11 37 12
REMARK SMILES IDX 38 13 88 14 39 15 93 16 87 17 89 18 40 19 92 20 86 21 85 22
REMARK SMILES IDX 41 24 73 25 53 26 72 27 54 28 57 29 71 30 90 31 55 32 56 33
REMARK SMILES IDX 70 35 91 36 58 37 42 38 43 39 51 40 44 41 50 42 52 43 49 44
REMARK SMILES IDX 45 45 46 46 47 47 48 48 74 49 75 50 83 51 76 52 82 53 84 54
REMARK SMILES IDX 81 55 77 56 78 57 79 58 80 59 59 60 60 61 68 62 61 63 67 64
REMARK SMILES IDX 69 65 66 66 62 67 63 68 64 69 65 70 6 71 7 72 8 73 9 74
REMARK SMILES IDX 10 75 31 76 28 77 30 78 32 79 29 80 11 81 12 82 13 83 14 84
REMARK SMILES IDX 27 85 15 86 26 87 16 88 17 90 18 91 19 92 20 93 21 94 25 95
REMARK SMILES IDX 22 96 24 97 23 98
REMARK H PARENT 89 23 57 34 16 89
REMARK Flexibility Score: inf
ROOT
ATOM      1  C   UNL     1       3.965   2.316   0.659  1.00  0.00     0.274 C 
ENDROOT
BRANCH   1   2
ATOM      2  C   UNL     1       4.377   1.948  -0.783  1.00  0.00     0.275 C 
BRANCH   2   3
ATOM      3  O   UNL     1       3.547   0.987  -1.414  1.00  0.00    -0.458 OA
BRANCH   3   4
ATOM      4  C   UNL     1       3.487  -0.303  -1.034  1.00  0.00     0.338 C 
ATOM      5  O   UNL     1       2.562  -0.991  -1.470  1.00  0.00    -0.246 OA
BRANCH   4   6
ATOM      6  C   UNL     1       4.417  -0.903  -0.004  1.00  0.00     0.060 A 
ATOM      7  C   UNL     1       5.648  -0.489   0.508  1.00  0.00     0.016 A 
ATOM      8  C   UNL     1       3.845  -2.000   0.616  1.00  0.00     0.016 A 
ATOM      9  C   UNL     1       6.253  -1.169   1.571  1.00  0.00     0.010 A 
ATOM     10  C   UNL     1       4.430  -2.723   1.628  1.00  0.00     0.010 A 
ATOM     11  C   UNL     1       5.644  -2.294   2.107  1.00  0.00    -0.014 A 
BRANCH  11  12
ATOM     12  C   UNL     1       6.202  -3.076   3.194  1.00  0.00     0.031 A 
ATOM     13  C   UNL     1       6.695  -4.534   2.632  1.00  0.00     0.074 A 
ATOM     14  C   UNL     1       6.116  -2.486   4.429  1.00  0.00     0.049 A 
ATOM     15  N   UNL     1       7.345  -6.081   3.308  1.00  0.00    -0.248 NA
ATOM     16  C   UNL     1       6.559  -4.949   0.626  1.00  0.00     0.031 C 
ATOM     17  C   UNL     1       5.662  -1.149   4.854  1.00  0.00     0.029 A 
ATOM     18  N   UNL     1       6.439  -3.014   5.650  1.00  0.00    -0.354 N 
ATOM     19  C   UNL     1       7.608  -7.360   2.080  1.00  0.00     0.074 A 
ATOM     20  C   UNL     1       7.048  -6.559   0.413  1.00  0.00     0.031 C 
ATOM     21  C   UNL     1       5.950  -0.970   6.174  1.00  0.00     0.029 A 
ATOM     22  C   UNL     1       6.597  -2.172   6.694  1.00  0.00     0.049 A 
ATOM     23  H   UNL     1       6.553  -3.985   5.764  1.00  0.00     0.167 HD
ATOM     24  C   UNL     1       8.318  -8.441   2.499  1.00  0.00     0.034 A 
ATOM     25  C   UNL     1       7.157  -2.531   7.875  1.00  0.00     0.034 A 
ATOM     26  C   UNL     1       8.897  -8.522   3.875  1.00  0.00     0.049 A 
ATOM     27  C   UNL     1       7.948  -3.889   8.067  1.00  0.00     0.074 A 
ATOM     28  C   UNL     1       9.847  -9.382   4.389  1.00  0.00     0.029 A 
ATOM     29  N   UNL     1       8.639  -7.634   4.958  1.00  0.00    -0.354 N 
ATOM     30  N   UNL     1       8.053  -4.966   7.307  1.00  0.00    -0.248 NA
ATOM     31  C   UNL     1       8.762  -4.018   9.276  1.00  0.00     0.031 C 
ATOM     32  C   UNL     1      10.174  -8.969   5.709  1.00  0.00     0.029 A 
ATOM     33  C   UNL     1       9.469  -7.812   6.073  1.00  0.00     0.049 A 
ATOM     34  H   UNL     1       7.933  -6.948   4.926  1.00  0.00     0.167 HD
ATOM     35  C   UNL     1       9.037  -5.827   7.812  1.00  0.00     0.074 A 
ATOM     36  C   UNL     1       9.422  -5.154   9.059  1.00  0.00     0.031 C 
ATOM     37  C   UNL     1       9.621  -7.000   7.344  1.00  0.00     0.034 A 
BRANCH  24  38
ATOM     38  C   UNL     1       8.562  -9.425   1.432  1.00  0.00     0.023 A 
ATOM     39  C   UNL     1       9.111  -8.992   0.220  1.00  0.00     0.031 A 
ATOM     40  C   UNL     1       8.103 -10.743   1.534  1.00  0.00     0.131 A 
ATOM     41  C   UNL     1       9.027  -9.808  -0.905  1.00  0.00     0.055 A 
ATOM     42  C   UNL     1       8.128 -11.598   0.432  1.00  0.00     0.041 A 
ATOM     43  F   UNL     1       7.562 -11.198   2.675  1.00  0.00    -0.206 F 
ATOM     44  C   UNL     1       8.560 -11.120  -0.807  1.00  0.00     0.022 A 
BRANCH  41  45
ATOM     45  S   UNL     1       9.341  -9.038  -2.511  1.00  0.00     0.124 S 
ATOM     46  O   UNL     1       8.221  -8.104  -2.614  1.00  0.00    -0.237 OA
ATOM     47  O   UNL     1      10.653  -8.428  -2.324  1.00  0.00    -0.237 OA
ATOM     48  O   UNL     1       9.297 -10.162  -3.441  1.00  0.00    -0.744 OA
ENDBRANCH  41  45
ENDBRANCH  24  38
BRANCH  25  49
ATOM     49  C   UNL     1       7.030  -1.572   8.999  1.00  0.00     0.023 A 
ATOM     50  C   UNL     1       8.138  -0.928   9.561  1.00  0.00     0.031 A 
ATOM     51  C   UNL     1       5.764  -1.340   9.567  1.00  0.00     0.131 A 
ATOM     52  C   UNL     1       7.971  -0.148  10.715  1.00  0.00     0.055 A 
ATOM     53  C   UNL     1       5.595  -0.515  10.677  1.00  0.00     0.041 A 
ATOM     54  F   UNL     1       4.672  -1.927   9.050  1.00  0.00    -0.206 F 
ATOM     55  C   UNL     1       6.708   0.071  11.270  1.00  0.00     0.022 A 
BRANCH  52  56
ATOM     56  S   UNL     1       9.453   0.467  11.561  1.00  0.00     0.124 S 
ATOM     57  O   UNL     1      10.181  -0.770  11.814  1.00  0.00    -0.237 OA
ATOM     58  O   UNL     1      10.026   1.356  10.556  1.00  0.00    -0.237 OA
ATOM     59  O   UNL     1       8.914   1.133  12.745  1.00  0.00    -0.744 OA
ENDBRANCH  52  56
ENDBRANCH  25  49
BRANCH  37  60
ATOM     60  C   UNL     1      10.678  -7.559   8.316  1.00  0.00     0.023 A 
ATOM     61  C   UNL     1      10.331  -8.004   9.608  1.00  0.00     0.031 A 
ATOM     62  C   UNL     1      12.038  -7.631   7.952  1.00  0.00     0.131 A 
ATOM     63  C   UNL     1      11.327  -8.435  10.501  1.00  0.00     0.055 A 
ATOM     64  C   UNL     1      13.008  -8.160   8.810  1.00  0.00     0.041 A 
ATOM     65  F   UNL     1      12.449  -7.203   6.748  1.00  0.00    -0.206 F 
ATOM     66  C   UNL     1      12.658  -8.552  10.098  1.00  0.00     0.022 A 
BRANCH  63  67
ATOM     67  S   UNL     1      10.884  -8.707  12.241  1.00  0.00     0.124 S 
ATOM     68  O   UNL     1      10.376  -7.395  12.630  1.00  0.00    -0.237 OA
ATOM     69  O   UNL     1       9.893  -9.774  12.150  1.00  0.00    -0.237 OA
ATOM     70  O   UNL     1      12.151  -9.090  12.862  1.00  0.00    -0.744 OA
ENDBRANCH  63  67
ENDBRANCH  37  60
ENDBRANCH  11  12
ENDBRANCH   4   6
ENDBRANCH   3   4
ENDBRANCH   2   3
ENDBRANCH   1   2
BRANCH   1  71
ATOM     71  O   UNL     1       3.516   1.235   1.535  1.00  0.00    -0.462 OA
BRANCH  71  72
ATOM     72  C   UNL     1       2.200   0.842   1.470  1.00  0.00     0.310 C 
ATOM     73  O   UNL     1       1.395   1.383   0.723  1.00  0.00    -0.252 OA
BRANCH  72  74
ATOM     74  C   UNL     1       1.866  -0.312   2.462  1.00  0.00     0.119 C 
ATOM     75  C   UNL     1       0.850  -1.468   1.929  1.00  0.00     0.100 C 
ATOM     76  C   UNL     1       1.107   0.312   3.679  1.00  0.00     0.027 C 
ATOM     77  C   UNL     1      -0.333  -1.235   2.930  1.00  0.00     0.025 C 
ATOM     78  C   UNL     1      -0.116   1.045   3.180  1.00  0.00    -0.027 C 
ATOM     79  C   UNL     1       0.385  -0.894   4.257  1.00  0.00     0.017 C 
ATOM     80  C   UNL     1      -0.950   0.122   2.679  1.00  0.00    -0.027 C 
BRANCH  75  81
ATOM     81  C   UNL     1       1.240  -2.986   2.152  1.00  0.00     0.227 C 
ATOM     82  O   UNL     1       1.622  -3.322   3.283  1.00  0.00    -0.275 OA
ATOM     83  N   UNL     1       1.085  -4.010   1.183  1.00  0.00    -0.331 N 
ATOM     84  C   UNL     1       1.278  -5.378   1.718  1.00  0.00     0.181 C 
ATOM     85  C   UNL     1       1.349  -3.883  -0.271  1.00  0.00     0.181 C 
ATOM     86  C   UNL     1       0.976  -6.540   0.754  1.00  0.00     0.284 C 
ATOM     87  C   UNL     1       1.121  -5.122  -1.158  1.00  0.00     0.284 C 
ATOM     88  N   UNL     1       1.560  -6.398  -0.576  1.00  0.00    -0.329 N 
ATOM     89  H   UNL     1       1.194  -7.106  -1.213  1.00  0.00     0.348 HD
BRANCH  88  90
ATOM     90  C   UNL     1       2.983  -6.775  -0.652  1.00  0.00     0.291 C 
BRANCH  90  91
ATOM     91  C   UNL     1       4.010  -6.139   0.270  1.00  0.00     0.034 C 
ATOM     92  C   UNL     1       4.724  -6.712   1.281  1.00  0.00     0.009 C 
BRANCH  92  93
ATOM     93  C   UNL     1       6.023  -6.123   2.143  1.00  0.00    -0.026 A 
ATOM     94  C   UNL     1       7.986  -5.450   1.817  1.00  0.00     0.008 A 
ATOM     95  C   UNL     1       5.395  -5.981   3.784  1.00  0.00     0.008 A 
ATOM     96  C   UNL     1       8.897  -4.733   3.088  1.00  0.00     0.001 A 
ATOM     97  C   UNL     1       6.493  -5.356   4.944  1.00  0.00     0.001 A 
ATOM     98  C   UNL     1       8.136  -4.700   4.582  1.00  0.00     0.000 A 
ENDBRANCH  92  93
ENDBRANCH  90  91
ENDBRANCH  88  90
ENDBRANCH  75  81
ENDBRANCH  72  74
ENDBRANCH  71  72
ENDBRANCH   1  71
TORSDOF 18
