REMARK SMILES O=C(OCCOC(=O)c1cccnc1SCC(=O)c1ccccc1Cl)c1ccc(-c2c3nc(c(-c4cc(S(=O)(=O)[O-])ccc4F)c4ccc([nH]4)c(-c4cc(S(=O)(=O)[O-])ccc4F)c4nc(c(-c5cc(S(=O)(=O)[O-])ccc5F)c5ccc2[nH]5)C=C4)C=C3)cc1
REMARK SMILES IDX 5 1 4 2 3 3 2 4 1 5 26 6 27 7 88 8 28 9 87 10 29 11 30 12
REMARK SMILES IDX 31 13 81 14 32 15 86 16 80 17 82 18 33 19 85 20 79 21 78 22
REMARK SMILES IDX 34 24 66 25 46 26 65 27 47 28 50 29 64 30 83 31 48 32 49 33
REMARK SMILES IDX 63 35 84 36 51 37 35 38 36 39 44 40 37 41 43 42 45 43 42 44
REMARK SMILES IDX 38 45 39 46 40 47 41 48 67 49 68 50 76 51 69 52 75 53 77 54
REMARK SMILES IDX 74 55 70 56 71 57 72 58 73 59 52 60 53 61 61 62 54 63 60 64
REMARK SMILES IDX 62 65 59 66 55 67 56 68 57 69 58 70 6 71 7 72 8 73 9 74
REMARK SMILES IDX 10 75 14 76 11 77 13 78 12 79 15 80 16 81 17 82 18 83 19 84
REMARK SMILES IDX 20 85 24 86 21 87 23 88 25 89 22 90
REMARK H PARENT 82 23 50 34
REMARK Flexibility Score: inf
ROOT
ATOM      1  C   UNL     1       3.867  -0.281   1.967  1.00  0.00     0.275 C 
ENDROOT
BRANCH   1   2
ATOM      2  C   UNL     1       4.578   0.894   1.292  1.00  0.00     0.275 C 
BRANCH   2   3
ATOM      3  O   UNL     1       3.965   1.404   0.094  1.00  0.00    -0.458 OA
BRANCH   3   4
ATOM      4  C   UNL     1       4.072   0.904  -1.163  1.00  0.00     0.338 C 
ATOM      5  O   UNL     1       3.610   1.535  -2.111  1.00  0.00    -0.246 OA
BRANCH   4   6
ATOM      6  C   UNL     1       4.563  -0.481  -1.392  1.00  0.00     0.060 A 
ATOM      7  C   UNL     1       5.713  -1.024  -0.817  1.00  0.00     0.016 A 
ATOM      8  C   UNL     1       3.789  -1.286  -2.233  1.00  0.00     0.016 A 
ATOM      9  C   UNL     1       6.012  -2.379  -0.975  1.00  0.00     0.010 A 
ATOM     10  C   UNL     1       4.061  -2.649  -2.367  1.00  0.00     0.010 A 
ATOM     11  C   UNL     1       5.187  -3.203  -1.746  1.00  0.00    -0.014 A 
BRANCH  11  12
ATOM     12  C   UNL     1       5.652  -4.562  -2.110  1.00  0.00     0.031 A 
ATOM     13  C   UNL     1       6.210  -4.747  -3.493  1.00  0.00     0.074 A 
ATOM     14  C   UNL     1       5.666  -5.576  -1.221  1.00  0.00     0.049 A 
ATOM     15  N   UNL     1       6.805  -5.790  -4.005  1.00  0.00    -0.248 NA
ATOM     16  C   UNL     1       6.134  -3.591  -4.404  1.00  0.00     0.031 C 
ATOM     17  C   UNL     1       5.247  -5.484   0.176  1.00  0.00     0.029 A 
ATOM     18  N   UNL     1       6.043  -6.888  -1.360  1.00  0.00    -0.354 N 
ATOM     19  C   UNL     1       7.230  -5.390  -5.265  1.00  0.00     0.074 A 
ATOM     20  C   UNL     1       6.737  -4.052  -5.485  1.00  0.00     0.031 C 
ATOM     21  C   UNL     1       5.312  -6.704   0.742  1.00  0.00     0.029 A 
ATOM     22  C   UNL     1       5.808  -7.658  -0.242  1.00  0.00     0.049 A 
ATOM     23  H   UNL     1       6.445  -7.247  -2.184  1.00  0.00     0.167 HD
ATOM     24  C   UNL     1       8.017  -6.059  -6.136  1.00  0.00     0.034 A 
ATOM     25  C   UNL     1       5.981  -8.980  -0.042  1.00  0.00     0.034 A 
ATOM     26  C   UNL     1       8.474  -7.402  -5.913  1.00  0.00     0.049 A 
ATOM     27  C   UNL     1       6.685  -9.771  -1.119  1.00  0.00     0.074 A 
ATOM     28  C   UNL     1       9.285  -8.179  -6.717  1.00  0.00     0.029 A 
ATOM     29  N   UNL     1       8.132  -8.179  -4.814  1.00  0.00    -0.354 N 
ATOM     30  N   UNL     1       7.163  -9.349  -2.268  1.00  0.00    -0.248 NA
ATOM     31  C   UNL     1       6.931 -11.194  -0.853  1.00  0.00     0.031 C 
ATOM     32  C   UNL     1       9.359  -9.454  -6.150  1.00  0.00     0.029 A 
ATOM     33  C   UNL     1       8.668  -9.447  -4.947  1.00  0.00     0.049 A 
ATOM     34  H   UNL     1       7.587  -7.872  -4.053  1.00  0.00     0.167 HD
ATOM     35  C   UNL     1       7.827 -10.437  -2.826  1.00  0.00     0.074 A 
ATOM     36  C   UNL     1       7.684 -11.532  -1.889  1.00  0.00     0.031 C 
ATOM     37  C   UNL     1       8.510 -10.521  -3.997  1.00  0.00     0.034 A 
BRANCH  24  38
ATOM     38  C   UNL     1       8.389  -5.348  -7.408  1.00  0.00     0.023 A 
ATOM     39  C   UNL     1       9.207  -4.202  -7.399  1.00  0.00     0.031 A 
ATOM     40  C   UNL     1       7.891  -5.798  -8.640  1.00  0.00     0.131 A 
ATOM     41  C   UNL     1       9.457  -3.515  -8.595  1.00  0.00     0.055 A 
ATOM     42  C   UNL     1       8.200  -5.150  -9.836  1.00  0.00     0.041 A 
ATOM     43  F   UNL     1       7.079  -6.866  -8.699  1.00  0.00    -0.206 F 
ATOM     44  C   UNL     1       8.979  -3.996  -9.817  1.00  0.00     0.022 A 
BRANCH  41  45
ATOM     45  S   UNL     1      10.318  -1.920  -8.521  1.00  0.00     0.124 S 
ATOM     46  O   UNL     1       9.396  -1.122  -7.718  1.00  0.00    -0.237 OA
ATOM     47  O   UNL     1      11.581  -2.271  -7.881  1.00  0.00    -0.237 OA
ATOM     48  O   UNL     1      10.421  -1.521  -9.923  1.00  0.00    -0.744 OA
ENDBRANCH  41  45
ENDBRANCH  24  38
BRANCH  25  49
ATOM     49  C   UNL     1       5.487  -9.652   1.199  1.00  0.00     0.023 A 
ATOM     50  C   UNL     1       6.358 -10.319   2.076  1.00  0.00     0.031 A 
ATOM     51  C   UNL     1       4.106  -9.734   1.462  1.00  0.00     0.131 A 
ATOM     52  C   UNL     1       5.839 -11.102   3.122  1.00  0.00     0.055 A 
ATOM     53  C   UNL     1       3.598 -10.473   2.534  1.00  0.00     0.041 A 
ATOM     54  F   UNL     1       3.224  -9.108   0.665  1.00  0.00    -0.206 F 
ATOM     55  C   UNL     1       4.466 -11.179   3.359  1.00  0.00     0.022 A 
BRANCH  52  56
ATOM     56  S   UNL     1       6.984 -12.125   4.092  1.00  0.00     0.124 S 
ATOM     57  O   UNL     1       7.671 -12.874   3.047  1.00  0.00    -0.237 OA
ATOM     58  O   UNL     1       7.775 -11.112   4.783  1.00  0.00    -0.237 OA
ATOM     59  O   UNL     1       6.096 -12.912   4.945  1.00  0.00    -0.744 OA
ENDBRANCH  52  56
ENDBRANCH  25  49
BRANCH  37  60
ATOM     60  C   UNL     1       9.193 -11.829  -4.298  1.00  0.00     0.023 A 
ATOM     61  C   UNL     1       8.462 -13.007  -4.521  1.00  0.00     0.031 A 
ATOM     62  C   UNL     1      10.597 -11.896  -4.364  1.00  0.00     0.131 A 
ATOM     63  C   UNL     1       9.138 -14.214  -4.737  1.00  0.00     0.055 A 
ATOM     64  C   UNL     1      11.261 -13.085  -4.657  1.00  0.00     0.041 A 
ATOM     65  F   UNL     1      11.345 -10.800  -4.156  1.00  0.00    -0.206 F 
ATOM     66  C   UNL     1      10.532 -14.258  -4.831  1.00  0.00     0.022 A 
BRANCH  63  67
ATOM     67  S   UNL     1       8.171 -15.746  -4.792  1.00  0.00     0.124 S 
ATOM     68  O   UNL     1       7.538 -15.748  -3.477  1.00  0.00    -0.237 OA
ATOM     69  O   UNL     1       7.283 -15.515  -5.926  1.00  0.00    -0.237 OA
ATOM     70  O   UNL     1       9.182 -16.782  -4.996  1.00  0.00    -0.744 OA
ENDBRANCH  63  67
ENDBRANCH  37  60
ENDBRANCH  11  12
ENDBRANCH   4   6
ENDBRANCH   3   4
ENDBRANCH   2   3
ENDBRANCH   1   2
BRANCH   1  71
ATOM     71  O   UNL     1       3.236  -1.183   1.046  1.00  0.00    -0.458 OA
BRANCH  71  72
ATOM     72  C   UNL     1       2.334  -2.009   1.632  1.00  0.00     0.341 C 
ATOM     73  O   UNL     1       2.043  -2.044   2.816  1.00  0.00    -0.246 OA
BRANCH  72  74
ATOM     74  C   UNL     1       1.896  -3.062   0.710  1.00  0.00     0.092 A 
ATOM     75  C   UNL     1       2.200  -4.354   1.189  1.00  0.00     0.020 A 
ATOM     76  C   UNL     1       1.256  -2.940  -0.517  1.00  0.00     0.111 A 
ATOM     77  C   UNL     1       1.950  -5.480   0.419  1.00  0.00     0.021 A 
ATOM     78  N   UNL     1       1.035  -4.064  -1.271  1.00  0.00    -0.249 NA
ATOM     79  C   UNL     1       1.398  -5.282  -0.819  1.00  0.00     0.112 A 
BRANCH  76  80
ATOM     80  S   UNL     1       0.589  -1.596  -1.454  1.00  0.00    -0.097 SA
BRANCH  80  81
ATOM     81  C   UNL     1       0.325  -0.098  -0.521  1.00  0.00     0.157 C 
BRANCH  81  82
ATOM     82  C   UNL     1       0.084  -0.104   0.953  1.00  0.00     0.174 C 
ATOM     83  O   UNL     1       0.955   0.370   1.692  1.00  0.00    -0.293 OA
BRANCH  82  84
ATOM     84  C   UNL     1      -1.254  -0.324   1.572  1.00  0.00     0.037 A 
ATOM     85  C   UNL     1      -1.513   0.541   2.660  1.00  0.00     0.013 A 
ATOM     86  C   UNL     1      -2.248  -1.238   1.213  1.00  0.00     0.051 A 
ATOM     87  C   UNL     1      -2.736   0.538   3.326  1.00  0.00     0.001 A 
ATOM     88  C   UNL     1      -3.485  -1.221   1.876  1.00  0.00     0.021 A 
ATOM     89  Cl  UNL     1      -2.093  -2.501   0.064  1.00  0.00    -0.084 Cl
ATOM     90  C   UNL     1      -3.734  -0.331   2.916  1.00  0.00     0.002 A 
ENDBRANCH  82  84
ENDBRANCH  81  82
ENDBRANCH  80  81
ENDBRANCH  76  80
ENDBRANCH  72  74
ENDBRANCH  71  72
ENDBRANCH   1  71
TORSDOF 18
