REMARK SMILES COc1cc(Cl)c2c(c1)C=C(C(=O)OCCOC(=O)c1ccc(-c3c4nc(c(-c5cc(S(=O)(=O)[O-])ccc5F)c5ccc([nH]5)c(-c5cc(S(=O)(=O)[O-])ccc5F)c5nc(c(-c6cc(S(=O)(=O)[O-])ccc6F)c6ccc3[nH]6)C=C5)C=C4)cc1)[C@@H](C(F)(F)F)O2
REMARK SMILES IDX 16 1 15 2 14 3 12 4 13 5 11 6 3 7 4 8 9 9 5 10 8 11 6 12
REMARK SMILES IDX 7 13 10 14 88 15 83 16 2 17 1 18 84 19 85 20 86 21 87 22
REMARK SMILES IDX 17 23 18 24 19 25 20 26 21 27 82 28 22 29 81 30 23 31 24 32
REMARK SMILES IDX 25 33 75 34 26 35 80 36 74 37 76 38 27 39 79 40 73 41 72 42
REMARK SMILES IDX 28 44 60 45 40 46 59 47 41 48 44 49 58 50 77 51 42 52 43 53
REMARK SMILES IDX 57 55 78 56 45 57 29 58 30 59 38 60 31 61 37 62 39 63 36 64
REMARK SMILES IDX 32 65 33 66 34 67 35 68 61 69 62 70 70 71 63 72 69 73 71 74
REMARK SMILES IDX 68 75 64 76 65 77 66 78 67 79 46 80 47 81 55 82 48 83 54 84
REMARK SMILES IDX 56 85 53 86 49 87 50 88 51 89 52 90
REMARK H PARENT 76 43 44 54
REMARK Flexibility Score: inf
ROOT
ATOM      1  C   UNL     1      -2.742  -3.990  -9.577  1.00  0.00     0.275 C 
ENDROOT
BRANCH   1   2
ATOM      2  C   UNL     1      -1.971  -2.689  -9.796  1.00  0.00     0.275 C 
BRANCH   2   3
ATOM      3  O   UNL     1      -0.956  -2.503  -8.785  1.00  0.00    -0.459 OA
BRANCH   3   4
ATOM      4  C   UNL     1      -1.262  -1.612  -7.811  1.00  0.00     0.338 C 
ATOM      5  O   UNL     1      -2.268  -0.930  -7.740  1.00  0.00    -0.246 OA
BRANCH   4   6
ATOM      6  C   UNL     1      -0.190  -1.569  -6.797  1.00  0.00     0.087 C 
ATOM      7  C   UNL     1       1.070  -1.185  -2.164  1.00  0.00     0.121 A 
ATOM      8  C   UNL     1       2.399  -0.984  -2.526  1.00  0.00     0.070 A 
ATOM      9  C   UNL     1       0.112  -1.433  -3.144  1.00  0.00     0.058 A 
ATOM     10  C   UNL     1       2.761  -1.022  -3.878  1.00  0.00     0.087 A 
ATOM     11  C   UNL     1       0.472  -1.439  -4.498  1.00  0.00     0.022 A 
ATOM     12  Cl  UNL     1       4.423  -0.772  -4.284  1.00  0.00    -0.080 Cl
ATOM     13  C   UNL     1       1.801  -1.250  -4.874  1.00  0.00     0.146 A 
ATOM     14  C   UNL     1      -0.551  -1.608  -5.510  1.00  0.00     0.027 C 
ATOM     15  O   UNL     1       2.213  -1.301  -6.180  1.00  0.00    -0.474 OA
ATOM     16  C   UNL     1       1.224  -1.356  -7.246  1.00  0.00     0.316 C 
BRANCH   7  17
ATOM     17  O   UNL     1       0.636  -1.237  -0.870  1.00  0.00    -0.497 OA
ATOM     18  C   UNL     1       1.036  -0.120  -0.081  1.00  0.00     0.278 C 
ENDBRANCH   7  17
BRANCH  16  19
ATOM     19  C   UNL     1       1.355  -0.082  -8.096  1.00  0.00     0.430 C 
ATOM     20  F   UNL     1       2.635   0.117  -8.494  1.00  0.00    -0.167 F 
ATOM     21  F   UNL     1       0.612  -0.152  -9.227  1.00  0.00    -0.167 F 
ATOM     22  F   UNL     1       0.964   1.024  -7.423  1.00  0.00    -0.167 F 
ENDBRANCH  16  19
ENDBRANCH   4   6
ENDBRANCH   3   4
ENDBRANCH   2   3
ENDBRANCH   1   2
BRANCH   1  23
ATOM     23  O   UNL     1      -3.530  -3.917  -8.376  1.00  0.00    -0.458 OA
BRANCH  23  24
ATOM     24  C   UNL     1      -2.979  -4.517  -7.299  1.00  0.00     0.338 C 
ATOM     25  O   UNL     1      -1.921  -5.125  -7.251  1.00  0.00    -0.246 OA
BRANCH  24  26
ATOM     26  C   UNL     1      -3.807  -4.286  -6.109  1.00  0.00     0.060 A 
ATOM     27  C   UNL     1      -3.830  -3.015  -5.543  1.00  0.00     0.016 A 
ATOM     28  C   UNL     1      -4.394  -5.363  -5.449  1.00  0.00     0.016 A 
ATOM     29  C   UNL     1      -4.290  -2.846  -4.242  1.00  0.00     0.010 A 
ATOM     30  C   UNL     1      -4.983  -5.159  -4.198  1.00  0.00     0.010 A 
ATOM     31  C   UNL     1      -4.885  -3.913  -3.555  1.00  0.00    -0.014 A 
BRANCH  31  32
ATOM     32  C   UNL     1      -5.386  -3.732  -2.164  1.00  0.00     0.031 A 
ATOM     33  C   UNL     1      -4.862  -4.598  -1.048  1.00  0.00     0.074 A 
ATOM     34  C   UNL     1      -6.311  -2.787  -1.901  1.00  0.00     0.049 A 
ATOM     35  N   UNL     1      -5.283  -4.697   0.186  1.00  0.00    -0.248 NA
ATOM     36  C   UNL     1      -3.724  -5.479  -1.361  1.00  0.00     0.031 C 
ATOM     37  C   UNL     1      -6.865  -1.854  -2.885  1.00  0.00     0.029 A 
ATOM     38  N   UNL     1      -6.949  -2.449  -0.733  1.00  0.00    -0.354 N 
ATOM     39  C   UNL     1      -4.495  -5.675   0.783  1.00  0.00     0.074 A 
ATOM     40  C   UNL     1      -3.583  -6.158  -0.230  1.00  0.00     0.031 C 
ATOM     41  C   UNL     1      -7.726  -1.029  -2.275  1.00  0.00     0.029 A 
ATOM     42  C   UNL     1      -7.865  -1.434  -0.880  1.00  0.00     0.049 A 
ATOM     43  H   UNL     1      -6.767  -2.891   0.128  1.00  0.00     0.167 HD
ATOM     44  C   UNL     1      -4.525  -6.120   2.062  1.00  0.00     0.034 A 
ATOM     45  C   UNL     1      -8.752  -0.909  -0.011  1.00  0.00     0.034 A 
ATOM     46  C   UNL     1      -5.410  -5.595   3.070  1.00  0.00     0.049 A 
ATOM     47  C   UNL     1      -8.800  -1.449   1.391  1.00  0.00     0.074 A 
ATOM     48  C   UNL     1      -5.505  -5.967   4.399  1.00  0.00     0.029 A 
ATOM     49  N   UNL     1      -6.335  -4.581   2.872  1.00  0.00    -0.354 N 
ATOM     50  N   UNL     1      -8.059  -2.385   1.935  1.00  0.00    -0.248 NA
ATOM     51  C   UNL     1      -9.803  -0.875   2.297  1.00  0.00     0.031 C 
ATOM     52  C   UNL     1      -6.522  -5.218   4.990  1.00  0.00     0.029 A 
ATOM     53  C   UNL     1      -7.018  -4.329   4.049  1.00  0.00     0.049 A 
ATOM     54  H   UNL     1      -6.484  -4.110   2.020  1.00  0.00     0.167 HD
ATOM     55  C   UNL     1      -8.490  -2.497   3.252  1.00  0.00     0.074 A 
ATOM     56  C   UNL     1      -9.546  -1.520   3.428  1.00  0.00     0.031 C 
ATOM     57  C   UNL     1      -8.052  -3.336   4.222  1.00  0.00     0.034 A 
BRANCH  44  58
ATOM     58  C   UNL     1      -3.582  -7.224   2.471  1.00  0.00     0.023 A 
ATOM     59  C   UNL     1      -4.098  -8.469   2.880  1.00  0.00     0.031 A 
ATOM     60  C   UNL     1      -2.198  -7.008   2.582  1.00  0.00     0.131 A 
ATOM     61  C   UNL     1      -3.240  -9.437   3.416  1.00  0.00     0.055 A 
ATOM     62  C   UNL     1      -1.341  -7.992   3.079  1.00  0.00     0.041 A 
ATOM     63  F   UNL     1      -1.658  -5.839   2.202  1.00  0.00    -0.206 F 
ATOM     64  C   UNL     1      -1.863  -9.208   3.511  1.00  0.00     0.022 A 
BRANCH  61  65
ATOM     65  S   UNL     1      -3.881 -11.009   4.052  1.00  0.00     0.124 S 
ATOM     66  O   UNL     1      -3.085 -11.984   3.309  1.00  0.00    -0.237 OA
ATOM     67  O   UNL     1      -3.575 -10.909   5.476  1.00  0.00    -0.237 OA
ATOM     68  O   UNL     1      -5.298 -10.976   3.705  1.00  0.00    -0.744 OA
ENDBRANCH  61  65
ENDBRANCH  44  58
BRANCH  45  69
ATOM     69  C   UNL     1      -9.637   0.201  -0.465  1.00  0.00     0.023 A 
ATOM     70  C   UNL     1     -10.567   0.007  -1.503  1.00  0.00     0.031 A 
ATOM     71  C   UNL     1      -9.473   1.499   0.044  1.00  0.00     0.131 A 
ATOM     72  C   UNL     1     -11.238   1.107  -2.051  1.00  0.00     0.055 A 
ATOM     73  C   UNL     1     -10.196   2.582  -0.460  1.00  0.00     0.041 A 
ATOM     74  F   UNL     1      -8.592   1.732   1.029  1.00  0.00    -0.206 F 
ATOM     75  C   UNL     1     -11.070   2.391  -1.526  1.00  0.00     0.022 A 
BRANCH  72  76
ATOM     76  S   UNL     1     -12.262   0.924  -3.538  1.00  0.00     0.124 S 
ATOM     77  O   UNL     1     -13.529   1.509  -3.112  1.00  0.00    -0.237 OA
ATOM     78  O   UNL     1     -11.504   1.703  -4.515  1.00  0.00    -0.237 OA
ATOM     79  O   UNL     1     -12.280  -0.516  -3.770  1.00  0.00    -0.744 OA
ENDBRANCH  72  76
ENDBRANCH  45  69
BRANCH  57  80
ATOM     80  C   UNL     1      -8.677  -3.245   5.590  1.00  0.00     0.023 A 
ATOM     81  C   UNL     1      -7.890  -2.856   6.691  1.00  0.00     0.031 A 
ATOM     82  C   UNL     1      -9.984  -3.700   5.830  1.00  0.00     0.131 A 
ATOM     83  C   UNL     1      -8.402  -2.976   7.988  1.00  0.00     0.055 A 
ATOM     84  C   UNL     1     -10.506  -3.773   7.121  1.00  0.00     0.041 A 
ATOM     85  F   UNL     1     -10.767  -4.088   4.811  1.00  0.00    -0.206 F 
ATOM     86  C   UNL     1      -9.708  -3.425   8.209  1.00  0.00     0.022 A 
BRANCH  83  87
ATOM     87  S   UNL     1      -7.366  -2.627   9.435  1.00  0.00     0.124 S 
ATOM     88  O   UNL     1      -8.168  -1.638  10.152  1.00  0.00    -0.237 OA
ATOM     89  O   UNL     1      -7.279  -3.938  10.071  1.00  0.00    -0.237 OA
ATOM     90  O   UNL     1      -6.123  -2.119   8.865  1.00  0.00    -0.744 OA
ENDBRANCH  83  87
ENDBRANCH  57  80
ENDBRANCH  31  32
ENDBRANCH  24  26
ENDBRANCH  23  24
ENDBRANCH   1  23
TORSDOF 16
