REMARK SMILES Cc1c(CC(=O)N[C@H](CO)C(=O)OCCOC(=O)c2ccc(-c3c4nc(c(-c5cc(S(=O)(=O)[O-])ccc5F)c5ccc([nH]5)c(-c5cc(S(=O)(=O)[O-])ccc5F)c5nc(c(-c6cc(S(=O)(=O)[O-])ccc6F)c6ccc3[nH]6)C=C5)C=C4)cc2)cc(-c2ccc(S(C)(=O)=O)cc2)n1-c1cccc(F)c1
REMARK SMILES IDX 14 1 13 2 11 3 12 4 8 5 7 6 5 7 6 8 4 10 3 11 1 12 2 13
REMARK SMILES IDX 94 14 82 15 83 16 95 17 96 18 101 19 97 20 99 21 98 22
REMARK SMILES IDX 100 23 84 24 85 25 93 26 86 27 92 28 87 29 88 30 89 31 90 32
REMARK SMILES IDX 91 33 9 34 10 35 15 37 16 38 17 39 18 40 19 41 20 42 81 43
REMARK SMILES IDX 21 44 80 45 22 46 23 47 24 48 74 49 25 50 79 51 73 52 75 53
REMARK SMILES IDX 26 54 78 55 72 56 71 57 27 59 59 60 39 61 58 62 40 63 43 64
REMARK SMILES IDX 57 65 76 66 41 67 42 68 56 70 77 71 44 72 28 73 29 74 37 75
REMARK SMILES IDX 30 76 36 77 38 78 35 79 31 80 32 81 33 82 34 83 60 84 61 85
REMARK SMILES IDX 69 86 62 87 68 88 70 89 67 90 63 91 64 92 65 93 66 94 45 95
REMARK SMILES IDX 46 96 54 97 47 98 53 99 55 100 52 101 48 102 49 103 50 104
REMARK SMILES IDX 51 105
REMARK H PARENT 7 9 10 36 75 58 43 69
REMARK Flexibility Score: inf
ROOT
ATOM      1  C   UNL     1      -6.486   1.524   2.255  1.00  0.00     0.274 C 
ENDROOT
BRANCH   1   2
ATOM      2  O   UNL     1      -5.100   1.357   1.851  1.00  0.00    -0.460 OA
BRANCH   2   3
ATOM      3  C   UNL     1      -4.679   2.187   0.842  1.00  0.00     0.331 C 
ATOM      4  O   UNL     1      -5.382   3.062   0.343  1.00  0.00    -0.250 OA
BRANCH   3   5
ATOM      5  C   UNL     1      -3.222   1.899   0.392  1.00  0.00     0.218 C 
BRANCH   5   6
ATOM      6  N   UNL     1      -2.883   2.672  -0.836  1.00  0.00    -0.341 N 
ATOM      7  C   UNL     1      -2.213   3.853  -0.960  1.00  0.00     0.225 C 
ATOM      8  O   UNL     1      -2.076   4.319  -2.096  1.00  0.00    -0.275 OA
ATOM      9  H   UNL     1      -3.187   2.270  -1.681  1.00  0.00     0.164 HD
BRANCH   7  10
ATOM     10  C   UNL     1      -1.628   4.549   0.263  1.00  0.00     0.137 C 
BRANCH  10  11
ATOM     11  C   UNL     1      -2.697   5.117   1.151  1.00  0.00    -0.017 A 
ATOM     12  C   UNL     1      -4.022   6.550  -0.567  1.00  0.00     0.065 C 
ATOM     13  C   UNL     1      -3.754   5.933   0.769  1.00  0.00     0.024 A 
ATOM     14  N   UNL     1      -4.596   6.093   1.861  1.00  0.00    -0.313 N 
ATOM     15  C   UNL     1      -2.837   4.892   2.551  1.00  0.00     0.033 A 
ATOM     16  C   UNL     1      -4.034   5.451   2.971  1.00  0.00     0.053 A 
BRANCH  14  17
ATOM     17  C   UNL     1      -5.883   6.704   1.840  1.00  0.00     0.049 A 
ATOM     18  C   UNL     1      -6.251   7.595   2.858  1.00  0.00     0.027 A 
ATOM     19  C   UNL     1      -6.827   6.266   0.906  1.00  0.00     0.065 A 
ATOM     20  C   UNL     1      -7.574   8.024   2.962  1.00  0.00     0.005 A 
ATOM     21  C   UNL     1      -8.141   6.700   1.028  1.00  0.00     0.125 A 
ATOM     22  C   UNL     1      -8.524   7.566   2.049  1.00  0.00     0.039 A 
ATOM     23  F   UNL     1      -9.068   6.242   0.176  1.00  0.00    -0.207 F 
ENDBRANCH  14  17
BRANCH  16  24
ATOM     24  C   UNL     1      -4.740   5.272   4.254  1.00  0.00    -0.001 A 
ATOM     25  C   UNL     1      -6.033   4.723   4.258  1.00  0.00     0.011 A 
ATOM     26  C   UNL     1      -4.200   5.704   5.468  1.00  0.00     0.011 A 
ATOM     27  C   UNL     1      -6.818   4.696   5.408  1.00  0.00     0.021 A 
ATOM     28  C   UNL     1      -4.982   5.680   6.636  1.00  0.00     0.021 A 
ATOM     29  C   UNL     1      -6.307   5.218   6.590  1.00  0.00     0.067 A 
BRANCH  29  30
ATOM     30  S   UNL     1      -7.301   5.127   8.066  1.00  0.00     0.175 S 
ATOM     31  C   UNL     1      -8.497   6.401   7.936  1.00  0.00     0.163 C 
ATOM     32  O   UNL     1      -8.060   3.889   7.998  1.00  0.00    -0.224 OA
ATOM     33  O   UNL     1      -6.455   5.473   9.188  1.00  0.00    -0.224 OA
ENDBRANCH  29  30
ENDBRANCH  16  24
ENDBRANCH  10  11
ENDBRANCH   7  10
ENDBRANCH   5   6
BRANCH   5  34
ATOM     34  C   UNL     1      -3.027   0.411   0.066  1.00  0.00     0.193 C 
BRANCH  34  35
ATOM     35  O   UNL     1      -1.784   0.185  -0.614  1.00  0.00    -0.394 OA
ATOM     36  H   UNL     1      -1.780   0.675  -1.451  1.00  0.00     0.210 HD
ENDBRANCH  34  35
ENDBRANCH   5  34
ENDBRANCH   3   5
ENDBRANCH   2   3
ENDBRANCH   1   2
BRANCH   1  37
ATOM     37  C   UNL     1      -6.880   0.688   3.507  1.00  0.00     0.275 C 
BRANCH  37  38
ATOM     38  O   UNL     1      -6.910   1.332   4.833  1.00  0.00    -0.458 OA
BRANCH  38  39
ATOM     39  C   UNL     1      -5.842   1.104   5.667  1.00  0.00     0.338 C 
ATOM     40  O   UNL     1      -4.762   0.721   5.238  1.00  0.00    -0.246 OA
BRANCH  39  41
ATOM     41  C   UNL     1      -6.051   1.474   7.147  1.00  0.00     0.060 A 
ATOM     42  C   UNL     1      -5.163   2.377   7.704  1.00  0.00     0.016 A 
ATOM     43  C   UNL     1      -6.956   0.909   8.076  1.00  0.00     0.016 A 
ATOM     44  C   UNL     1      -5.269   2.780   9.078  1.00  0.00     0.010 A 
ATOM     45  C   UNL     1      -6.990   1.265   9.525  1.00  0.00     0.010 A 
ATOM     46  C   UNL     1      -6.161   2.252  10.092  1.00  0.00    -0.014 A 
BRANCH  46  47
ATOM     47  C   UNL     1      -5.763   2.580  11.678  1.00  0.00     0.031 A 
ATOM     48  C   UNL     1      -4.275   2.607  11.606  1.00  0.00     0.074 A 
ATOM     49  C   UNL     1      -6.218   2.781  12.999  1.00  0.00     0.049 A 
ATOM     50  N   UNL     1      -3.652   1.625  11.021  1.00  0.00    -0.248 NA
ATOM     51  C   UNL     1      -3.474   3.822  11.761  1.00  0.00     0.031 C 
ATOM     52  C   UNL     1      -7.600   2.792  13.512  1.00  0.00     0.029 A 
ATOM     53  N   UNL     1      -5.519   3.034  14.249  1.00  0.00    -0.354 N 
ATOM     54  C   UNL     1      -2.326   1.946  11.007  1.00  0.00     0.074 A 
ATOM     55  C   UNL     1      -2.304   3.381  11.280  1.00  0.00     0.031 C 
ATOM     56  C   UNL     1      -7.663   3.140  14.838  1.00  0.00     0.029 A 
ATOM     57  C   UNL     1      -6.330   3.326  15.423  1.00  0.00     0.049 A 
ATOM     58  H   UNL     1      -4.537   3.009  14.300  1.00  0.00     0.167 HD
ATOM     59  C   UNL     1      -1.510   0.959  11.474  1.00  0.00     0.034 A 
ATOM     60  C   UNL     1      -5.994   3.609  16.761  1.00  0.00     0.034 A 
ATOM     61  C   UNL     1      -1.131   1.215  12.835  1.00  0.00     0.049 A 
ATOM     62  C   UNL     1      -4.677   3.025  17.017  1.00  0.00     0.074 A 
ATOM     63  C   UNL     1      -0.632   2.337  13.461  1.00  0.00     0.029 A 
ATOM     64  N   UNL     1      -1.727   0.437  13.807  1.00  0.00    -0.354 N 
ATOM     65  N   UNL     1      -4.532   1.754  17.217  1.00  0.00    -0.248 NA
ATOM     66  C   UNL     1      -3.471   3.826  17.197  1.00  0.00     0.031 C 
ATOM     67  C   UNL     1      -1.371   2.426  14.661  1.00  0.00     0.029 A 
ATOM     68  C   UNL     1      -2.005   1.210  14.911  1.00  0.00     0.049 A 
ATOM     69  H   UNL     1      -1.924  -0.524  13.723  1.00  0.00     0.167 HD
ATOM     70  C   UNL     1      -3.218   1.568  16.934  1.00  0.00     0.074 A 
ATOM     71  C   UNL     1      -2.583   2.830  17.267  1.00  0.00     0.031 C 
ATOM     72  C   UNL     1      -2.954   0.728  15.900  1.00  0.00     0.034 A 
BRANCH  59  73
ATOM     73  C   UNL     1      -1.859  -0.407  10.931  1.00  0.00     0.023 A 
ATOM     74  C   UNL     1      -1.035  -0.980   9.957  1.00  0.00     0.031 A 
ATOM     75  C   UNL     1      -3.064  -1.077  11.250  1.00  0.00     0.131 A 
ATOM     76  C   UNL     1      -1.448  -2.151   9.300  1.00  0.00     0.055 A 
ATOM     77  C   UNL     1      -3.501  -2.197  10.547  1.00  0.00     0.041 A 
ATOM     78  F   UNL     1      -3.846  -0.646  12.254  1.00  0.00    -0.206 F 
ATOM     79  C   UNL     1      -2.691  -2.738   9.558  1.00  0.00     0.022 A 
BRANCH  76  80
ATOM     80  S   UNL     1      -0.309  -2.928   8.125  1.00  0.00     0.124 S 
ATOM     81  O   UNL     1      -0.216  -1.928   7.066  1.00  0.00    -0.237 OA
ATOM     82  O   UNL     1       0.895  -3.103   8.933  1.00  0.00    -0.237 OA
ATOM     83  O   UNL     1      -0.985  -4.169   7.753  1.00  0.00    -0.744 OA
ENDBRANCH  76  80
ENDBRANCH  59  73
BRANCH  60  84
ATOM     84  C   UNL     1      -6.524   4.142  18.142  1.00  0.00     0.023 A 
ATOM     85  C   UNL     1      -6.000   3.668  19.421  1.00  0.00     0.031 A 
ATOM     86  C   UNL     1      -7.174   5.380  18.223  1.00  0.00     0.131 A 
ATOM     87  C   UNL     1      -6.095   4.420  20.633  1.00  0.00     0.055 A 
ATOM     88  C   UNL     1      -7.280   6.115  19.433  1.00  0.00     0.041 A 
ATOM     89  F   UNL     1      -7.621   5.979  17.110  1.00  0.00    -0.206 F 
ATOM     90  C   UNL     1      -6.732   5.653  20.630  1.00  0.00     0.022 A 
BRANCH  87  91
ATOM     91  S   UNL     1      -5.237   3.920  22.198  1.00  0.00     0.124 S 
ATOM     92  O   UNL     1      -6.038   2.798  22.670  1.00  0.00    -0.237 OA
ATOM     93  O   UNL     1      -3.883   3.614  21.746  1.00  0.00    -0.237 OA
ATOM     94  O   UNL     1      -5.325   5.119  23.037  1.00  0.00    -0.744 OA
ENDBRANCH  87  91
ENDBRANCH  60  84
BRANCH  72  95
ATOM     95  C   UNL     1      -3.834  -0.530  15.791  1.00  0.00     0.023 A 
ATOM     96  C   UNL     1      -5.248  -0.592  15.977  1.00  0.00     0.031 A 
ATOM     97  C   UNL     1      -3.193  -1.763  15.601  1.00  0.00     0.131 A 
ATOM     98  C   UNL     1      -5.936  -1.823  16.030  1.00  0.00     0.055 A 
ATOM     99  C   UNL     1      -3.880  -2.982  15.606  1.00  0.00     0.041 A 
ATOM    100  F   UNL     1      -1.864  -1.812  15.421  1.00  0.00    -0.206 F 
ATOM    101  C   UNL     1      -5.250  -3.019  15.842  1.00  0.00     0.022 A 
BRANCH  98 102
ATOM    102  S   UNL     1      -7.716  -1.885  16.447  1.00  0.00     0.124 S 
ATOM    103  O   UNL     1      -7.836  -0.982  17.586  1.00  0.00    -0.237 OA
ATOM    104  O   UNL     1      -8.351  -1.435  15.211  1.00  0.00    -0.237 OA
ATOM    105  O   UNL     1      -7.940  -3.296  16.768  1.00  0.00    -0.744 OA
ENDBRANCH  98 102
ENDBRANCH  72  95
ENDBRANCH  46  47
ENDBRANCH  39  41
ENDBRANCH  38  39
ENDBRANCH  37  38
ENDBRANCH   1  37
TORSDOF 22
