REMARK SMILES O=C(OCCOC(=O)C1(C[C@@H]2COc3ccccc32)CC[NH2+]CC1)c1ccc(-c2c3nc(c(-c4cc(S(=O)(=O)[O-])ccc4F)c4ccc([nH]4)c(-c4cc(S(=O)(=O)[O-])ccc4F)c4nc(c(-c5cc(S(=O)(=O)[O-])ccc5F)c5ccc2[nH]5)C=C4)C=C3)cc1
REMARK SMILES IDX 4 1 3 2 2 3 1 4 25 5 26 6 87 7 27 8 86 9 28 10 29 11 30 12
REMARK SMILES IDX 80 13 31 14 85 15 79 16 81 17 32 18 84 19 78 20 77 21 33 23
REMARK SMILES IDX 65 24 45 25 64 26 46 27 49 28 63 29 82 30 47 31 48 32 62 34
REMARK SMILES IDX 83 35 50 36 34 37 35 38 43 39 36 40 42 41 44 42 41 43 37 44
REMARK SMILES IDX 38 45 39 46 40 47 66 48 67 49 75 50 68 51 74 52 76 53 73 54
REMARK SMILES IDX 69 55 70 56 71 57 72 58 51 59 52 60 60 61 53 62 59 63 61 64
REMARK SMILES IDX 58 65 54 66 55 67 56 68 57 69 5 70 6 71 7 72 8 73 9 74 20 75
REMARK SMILES IDX 24 76 21 77 23 78 22 79 10 82 11 83 12 84 19 85 13 86 14 87
REMARK SMILES IDX 18 88 15 89 17 90 16 91
REMARK H PARENT 81 22 49 33 22 80 22 81
REMARK Flexibility Score: inf
ROOT
ATOM      1  C   UNL     1      -2.023   1.623   5.987  1.00  0.00     0.275 C 
ENDROOT
BRANCH   1   2
ATOM      2  O   UNL     1      -2.282   2.148   4.674  1.00  0.00    -0.458 OA
BRANCH   2   3
ATOM      3  C   UNL     1      -1.333   2.244   3.728  1.00  0.00     0.338 C 
ATOM      4  O   UNL     1      -1.467   1.666   2.646  1.00  0.00    -0.246 OA
BRANCH   3   5
ATOM      5  C   UNL     1      -0.171   3.150   3.971  1.00  0.00     0.060 A 
ATOM      6  C   UNL     1       0.106   3.824   5.163  1.00  0.00     0.016 A 
ATOM      7  C   UNL     1       0.746   3.266   2.927  1.00  0.00     0.016 A 
ATOM      8  C   UNL     1       1.307   4.531   5.323  1.00  0.00     0.010 A 
ATOM      9  C   UNL     1       1.991   3.855   3.130  1.00  0.00     0.010 A 
ATOM     10  C   UNL     1       2.275   4.542   4.313  1.00  0.00    -0.014 A 
BRANCH  10  11
ATOM     11  C   UNL     1       3.498   5.386   4.419  1.00  0.00     0.031 A 
ATOM     12  C   UNL     1       3.766   6.420   3.347  1.00  0.00     0.074 A 
ATOM     13  C   UNL     1       4.369   5.231   5.439  1.00  0.00     0.049 A 
ATOM     14  N   UNL     1       4.725   7.306   3.268  1.00  0.00    -0.248 NA
ATOM     15  C   UNL     1       2.887   6.406   2.165  1.00  0.00     0.031 C 
ATOM     16  C   UNL     1       4.310   4.185   6.465  1.00  0.00     0.029 A 
ATOM     17  N   UNL     1       5.473   5.966   5.795  1.00  0.00    -0.354 N 
ATOM     18  C   UNL     1       4.554   7.919   2.030  1.00  0.00     0.074 A 
ATOM     19  C   UNL     1       3.556   7.165   1.319  1.00  0.00     0.031 C 
ATOM     20  C   UNL     1       5.294   4.381   7.361  1.00  0.00     0.029 A 
ATOM     21  C   UNL     1       6.049   5.570   6.983  1.00  0.00     0.049 A 
ATOM     22  H   UNL     1       5.822   6.709   5.251  1.00  0.00     0.167 HD
ATOM     23  C   UNL     1       5.078   9.079   1.566  1.00  0.00     0.034 A 
ATOM     24  C   UNL     1       7.036   6.141   7.704  1.00  0.00     0.034 A 
ATOM     25  C   UNL     1       6.023   9.849   2.321  1.00  0.00     0.049 A 
ATOM     26  C   UNL     1       7.600   7.453   7.209  1.00  0.00     0.074 A 
ATOM     27  C   UNL     1       6.602  11.066   2.019  1.00  0.00     0.029 A 
ATOM     28  N   UNL     1       6.523   9.458   3.558  1.00  0.00    -0.354 N 
ATOM     29  N   UNL     1       7.316   8.114   6.108  1.00  0.00    -0.248 NA
ATOM     30  C   UNL     1       8.575   8.123   8.078  1.00  0.00     0.031 C 
ATOM     31  C   UNL     1       7.487  11.388   3.056  1.00  0.00     0.029 A 
ATOM     32  C   UNL     1       7.412  10.402   4.030  1.00  0.00     0.049 A 
ATOM     33  H   UNL     1       6.278   8.629   4.029  1.00  0.00     0.167 HD
ATOM     34  C   UNL     1       8.033   9.305   6.182  1.00  0.00     0.074 A 
ATOM     35  C   UNL     1       8.757   9.270   7.438  1.00  0.00     0.031 C 
ATOM     36  C   UNL     1       8.089  10.339   5.303  1.00  0.00     0.034 A 
BRANCH  23  37
ATOM     37  C   UNL     1       4.589   9.550   0.213  1.00  0.00     0.023 A 
ATOM     38  C   UNL     1       3.217   9.775  -0.024  1.00  0.00     0.031 A 
ATOM     39  C   UNL     1       5.462   9.631  -0.882  1.00  0.00     0.131 A 
ATOM     40  C   UNL     1       2.743   9.911  -1.337  1.00  0.00     0.055 A 
ATOM     41  C   UNL     1       4.994   9.881  -2.176  1.00  0.00     0.041 A 
ATOM     42  F   UNL     1       6.778   9.416  -0.726  1.00  0.00    -0.206 F 
ATOM     43  C   UNL     1       3.626   9.991  -2.414  1.00  0.00     0.022 A 
BRANCH  40  44
ATOM     44  S   UNL     1       0.957   9.751  -1.629  1.00  0.00     0.124 S 
ATOM     45  O   UNL     1       0.705   8.391  -1.155  1.00  0.00    -0.237 OA
ATOM     46  O   UNL     1       0.405  10.823  -0.810  1.00  0.00    -0.237 OA
ATOM     47  O   UNL     1       0.829   9.935  -3.073  1.00  0.00    -0.744 OA
ENDBRANCH  40  44
ENDBRANCH  23  37
BRANCH  24  48
ATOM     48  C   UNL     1       7.483   5.555   9.005  1.00  0.00     0.023 A 
ATOM     49  C   UNL     1       7.255   6.228  10.219  1.00  0.00     0.031 A 
ATOM     50  C   UNL     1       8.180   4.336   9.057  1.00  0.00     0.131 A 
ATOM     51  C   UNL     1       7.762   5.708  11.422  1.00  0.00     0.055 A 
ATOM     52  C   UNL     1       8.648   3.801  10.262  1.00  0.00     0.041 A 
ATOM     53  F   UNL     1       8.414   3.640   7.933  1.00  0.00    -0.206 F 
ATOM     54  C   UNL     1       8.452   4.495  11.452  1.00  0.00     0.022 A 
BRANCH  51  55
ATOM     55  S   UNL     1       7.571   6.682  12.943  1.00  0.00     0.124 S 
ATOM     56  O   UNL     1       8.188   7.948  12.567  1.00  0.00    -0.237 OA
ATOM     57  O   UNL     1       6.121   6.698  13.108  1.00  0.00    -0.237 OA
ATOM     58  O   UNL     1       8.300   5.902  13.941  1.00  0.00    -0.744 OA
ENDBRANCH  51  55
ENDBRANCH  24  48
BRANCH  36  59
ATOM     59  C   UNL     1       8.902  11.537   5.710  1.00  0.00     0.023 A 
ATOM     60  C   UNL     1      10.299  11.473   5.825  1.00  0.00     0.031 A 
ATOM     61  C   UNL     1       8.264  12.762   5.973  1.00  0.00     0.131 A 
ATOM     62  C   UNL     1      11.011  12.600   6.255  1.00  0.00     0.055 A 
ATOM     63  C   UNL     1       8.984  13.898   6.337  1.00  0.00     0.041 A 
ATOM     64  F   UNL     1       6.929  12.873   5.872  1.00  0.00    -0.206 F 
ATOM     65  C   UNL     1      10.366  13.817   6.493  1.00  0.00     0.022 A 
BRANCH  62  66
ATOM     66  S   UNL     1      12.782  12.423   6.591  1.00  0.00     0.124 S 
ATOM     67  O   UNL     1      12.795  11.363   7.594  1.00  0.00    -0.237 OA
ATOM     68  O   UNL     1      13.314  12.066   5.280  1.00  0.00    -0.237 OA
ATOM     69  O   UNL     1      13.171  13.745   7.080  1.00  0.00    -0.744 OA
ENDBRANCH  62  66
ENDBRANCH  36  59
ENDBRANCH  10  11
ENDBRANCH   3   5
ENDBRANCH   2   3
ENDBRANCH   1   2
BRANCH   1  70
ATOM     70  C   UNL     1      -1.022   0.471   6.149  1.00  0.00     0.274 C 
BRANCH  70  71
ATOM     71  O   UNL     1       0.306   0.699   5.631  1.00  0.00    -0.462 OA
BRANCH  71  72
ATOM     72  C   UNL     1       0.832  -0.308   4.864  1.00  0.00     0.312 C 
ATOM     73  O   UNL     1       0.147  -1.200   4.373  1.00  0.00    -0.252 OA
BRANCH  72  74
ATOM     74  C   UNL     1       2.380  -0.292   4.786  1.00  0.00     0.079 C 
ATOM     75  C   UNL     1       2.870  -1.752   4.713  1.00  0.00     0.080 C 
ATOM     76  C   UNL     1       2.974   0.340   6.090  1.00  0.00     0.080 C 
ATOM     77  C   UNL     1       2.675  -2.529   6.011  1.00  0.00     0.261 C 
ATOM     78  C   UNL     1       2.829  -0.529   7.335  1.00  0.00     0.261 C 
ATOM     79  N   UNL     1       3.368  -1.863   7.107  1.00  0.00    -0.346 N 
ATOM     80  H   UNL     1       4.359  -1.787   6.877  1.00  0.00     0.346 HD
ATOM     81  H   UNL     1       3.238  -2.415   7.955  1.00  0.00     0.346 HD
BRANCH  74  82
ATOM     82  C   UNL     1       2.945   0.570   3.611  1.00  0.00     0.031 C 
BRANCH  82  83
ATOM     83  C   UNL     1       2.944   0.236   2.101  1.00  0.00     0.062 C 
ATOM     84  C   UNL     1       1.634   0.492   1.340  1.00  0.00     0.238 C 
ATOM     85  C   UNL     1       3.249  -1.130   1.628  1.00  0.00     0.001 A 
ATOM     86  O   UNL     1       1.246  -0.662   0.571  1.00  0.00    -0.493 OA
ATOM     87  C   UNL     1       2.229  -1.575   0.804  1.00  0.00     0.122 A 
ATOM     88  C   UNL     1       4.356  -1.927   1.860  1.00  0.00     0.008 A 
ATOM     89  C   UNL     1       2.218  -2.841   0.262  1.00  0.00     0.047 A 
ATOM     90  C   UNL     1       4.358  -3.224   1.339  1.00  0.00     0.001 A 
ATOM     91  C   UNL     1       3.288  -3.683   0.555  1.00  0.00     0.004 A 
ENDBRANCH  82  83
ENDBRANCH  74  82
ENDBRANCH  72  74
ENDBRANCH  71  72
ENDBRANCH  70  71
ENDBRANCH   1  70
TORSDOF 16
