REMARK SMILES Cc1ccc2c(c1)C=C(C(=O)OCCOC(=O)c1ccc(-c3c4nc(c(-c5cc(S(=O)(=O)[O-])ccc5F)c5ccc([nH]5)c(-c5cc(S(=O)(=O)[O-])ccc5F)c5nc(c(-c6cc(S(=O)(=O)[O-])ccc6F)c6ccc3[nH]6)C=C5)C=C4)cc1)[C@@H](C(F)(F)F)O2
REMARK SMILES IDX 14 1 13 2 12 3 10 4 11 5 9 6 1 7 2 8 3 9 7 10 4 11 6 12 5 13
REMARK SMILES IDX 8 14 86 15 81 16 82 17 83 18 84 19 85 20 15 21 16 22 17 23
REMARK SMILES IDX 18 24 19 25 80 26 20 27 79 28 21 29 22 30 23 31 73 32 24 33
REMARK SMILES IDX 78 34 72 35 74 36 25 37 77 38 71 39 70 40 26 42 58 43 38 44
REMARK SMILES IDX 57 45 39 46 42 47 56 48 75 49 40 50 41 51 55 53 76 54 43 55
REMARK SMILES IDX 27 56 28 57 36 58 29 59 35 60 37 61 34 62 30 63 31 64 32 65
REMARK SMILES IDX 33 66 59 67 60 68 68 69 61 70 67 71 69 72 66 73 62 74 63 75
REMARK SMILES IDX 64 76 65 77 44 78 45 79 53 80 46 81 52 82 54 83 51 84 47 85
REMARK SMILES IDX 48 86 49 87 50 88
REMARK H PARENT 74 41 42 52
REMARK Flexibility Score: inf
ROOT
ATOM      1  C   UNL     1      -5.865  -5.182  -5.190  1.00  0.00     0.275 C 
ENDROOT
BRANCH   1   2
ATOM      2  C   UNL     1      -4.485  -5.751  -5.526  1.00  0.00     0.275 C 
BRANCH   2   3
ATOM      3  O   UNL     1      -3.550  -5.581  -4.437  1.00  0.00    -0.459 OA
BRANCH   3   4
ATOM      4  C   UNL     1      -2.629  -4.602  -4.606  1.00  0.00     0.338 C 
ATOM      5  O   UNL     1      -2.525  -3.869  -5.577  1.00  0.00    -0.246 OA
BRANCH   4   6
ATOM      6  C   UNL     1      -1.746  -4.502  -3.427  1.00  0.00     0.087 C 
ATOM      7  C   UNL     1       1.077  -0.321   0.111  1.00  0.00     0.044 C 
ATOM      8  C   UNL     1       0.735  -1.694  -0.390  1.00  0.00    -0.050 A 
ATOM      9  C   UNL     1       1.338  -2.833   0.156  1.00  0.00     0.007 A 
ATOM     10  C   UNL     1      -0.219  -1.857  -1.396  1.00  0.00     0.015 A 
ATOM     11  C   UNL     1       0.996  -4.111  -0.303  1.00  0.00     0.047 A 
ATOM     12  C   UNL     1      -0.538  -3.135  -1.872  1.00  0.00     0.017 A 
ATOM     13  C   UNL     1       0.057  -4.265  -1.321  1.00  0.00     0.128 A 
ATOM     14  C   UNL     1      -1.472  -3.278  -2.966  1.00  0.00     0.027 C 
ATOM     15  O   UNL     1      -0.240  -5.541  -1.713  1.00  0.00    -0.475 OA
ATOM     16  C   UNL     1      -1.087  -5.738  -2.885  1.00  0.00     0.316 C 
BRANCH  16  17
ATOM     17  C   UNL     1      -0.257  -6.436  -3.974  1.00  0.00     0.430 C 
ATOM     18  F   UNL     1       0.362  -7.542  -3.493  1.00  0.00    -0.167 F 
ATOM     19  F   UNL     1      -1.033  -6.854  -5.005  1.00  0.00    -0.167 F 
ATOM     20  F   UNL     1       0.699  -5.632  -4.492  1.00  0.00    -0.167 F 
ENDBRANCH  16  17
ENDBRANCH   4   6
ENDBRANCH   3   4
ENDBRANCH   2   3
ENDBRANCH   1   2
BRANCH   1  21
ATOM     21  O   UNL     1      -5.828  -3.746  -5.130  1.00  0.00    -0.458 OA
BRANCH  21  22
ATOM     22  C   UNL     1      -5.805  -3.224  -3.882  1.00  0.00     0.338 C 
ATOM     23  O   UNL     1      -5.842  -3.832  -2.827  1.00  0.00    -0.246 OA
BRANCH  22  24
ATOM     24  C   UNL     1      -5.602  -1.771  -3.965  1.00  0.00     0.060 A 
ATOM     25  C   UNL     1      -6.639  -0.869  -3.771  1.00  0.00     0.016 A 
ATOM     26  C   UNL     1      -4.298  -1.313  -4.094  1.00  0.00     0.016 A 
ATOM     27  C   UNL     1      -6.344   0.501  -3.721  1.00  0.00     0.010 A 
ATOM     28  C   UNL     1      -3.989   0.027  -3.895  1.00  0.00     0.010 A 
ATOM     29  C   UNL     1      -5.010   0.966  -3.743  1.00  0.00    -0.014 A 
BRANCH  29  30
ATOM     30  C   UNL     1      -4.686   2.417  -3.591  1.00  0.00     0.031 A 
ATOM     31  C   UNL     1      -3.847   3.149  -4.614  1.00  0.00     0.074 A 
ATOM     32  C   UNL     1      -5.117   3.077  -2.495  1.00  0.00     0.049 A 
ATOM     33  N   UNL     1      -3.527   4.418  -4.658  1.00  0.00    -0.248 NA
ATOM     34  C   UNL     1      -3.251   2.356  -5.703  1.00  0.00     0.031 C 
ATOM     35  C   UNL     1      -5.820   2.460  -1.369  1.00  0.00     0.029 A 
ATOM     36  N   UNL     1      -5.050   4.406  -2.152  1.00  0.00    -0.354 N 
ATOM     37  C   UNL     1      -2.689   4.566  -5.760  1.00  0.00     0.074 A 
ATOM     38  C   UNL     1      -2.475   3.246  -6.303  1.00  0.00     0.031 C 
ATOM     39  C   UNL     1      -6.196   3.415  -0.508  1.00  0.00     0.029 A 
ATOM     40  C   UNL     1      -5.724   4.710  -0.990  1.00  0.00     0.049 A 
ATOM     41  H   UNL     1      -4.566   5.077  -2.686  1.00  0.00     0.167 HD
ATOM     42  C   UNL     1      -2.186   5.701  -6.304  1.00  0.00     0.034 A 
ATOM     43  C   UNL     1      -5.961   5.896  -0.391  1.00  0.00     0.034 A 
ATOM     44  C   UNL     1      -2.455   7.017  -5.785  1.00  0.00     0.049 A 
ATOM     45  C   UNL     1      -5.464   7.156  -1.054  1.00  0.00     0.074 A 
ATOM     46  C   UNL     1      -2.074   8.238  -6.312  1.00  0.00     0.029 A 
ATOM     47  N   UNL     1      -3.181   7.288  -4.634  1.00  0.00    -0.354 N 
ATOM     48  N   UNL     1      -4.784   7.286  -2.169  1.00  0.00    -0.248 NA
ATOM     49  C   UNL     1      -5.777   8.430  -0.393  1.00  0.00     0.031 C 
ATOM     50  C   UNL     1      -2.520   9.242  -5.453  1.00  0.00     0.029 A 
ATOM     51  C   UNL     1      -3.242   8.656  -4.425  1.00  0.00     0.049 A 
ATOM     52  H   UNL     1      -3.592   6.609  -4.052  1.00  0.00     0.167 HD
ATOM     53  C   UNL     1      -4.602   8.654  -2.351  1.00  0.00     0.074 A 
ATOM     54  C   UNL     1      -5.276   9.311  -1.250  1.00  0.00     0.031 C 
ATOM     55  C   UNL     1      -3.927   9.304  -3.333  1.00  0.00     0.034 A 
BRANCH  42  56
ATOM     56  C   UNL     1      -1.348   5.599  -7.559  1.00  0.00     0.023 A 
ATOM     57  C   UNL     1      -0.025   6.083  -7.574  1.00  0.00     0.031 A 
ATOM     58  C   UNL     1      -1.899   5.145  -8.773  1.00  0.00     0.131 A 
ATOM     59  C   UNL     1       0.687   6.129  -8.781  1.00  0.00     0.055 A 
ATOM     60  C   UNL     1      -1.167   5.144  -9.961  1.00  0.00     0.041 A 
ATOM     61  F   UNL     1      -3.159   4.683  -8.819  1.00  0.00    -0.206 F 
ATOM     62  C   UNL     1       0.128   5.651  -9.970  1.00  0.00     0.022 A 
BRANCH  59  63
ATOM     63  S   UNL     1       2.338   6.875  -8.873  1.00  0.00     0.124 S 
ATOM     64  O   UNL     1       3.139   5.769  -9.392  1.00  0.00    -0.237 OA
ATOM     65  O   UNL     1       2.122   7.978  -9.804  1.00  0.00    -0.237 OA
ATOM     66  O   UNL     1       2.628   7.258  -7.495  1.00  0.00    -0.744 OA
ENDBRANCH  59  63
ENDBRANCH  42  56
BRANCH  43  67
ATOM     67  C   UNL     1      -6.802   5.930   0.844  1.00  0.00     0.023 A 
ATOM     68  C   UNL     1      -6.399   5.269   2.019  1.00  0.00     0.031 A 
ATOM     69  C   UNL     1      -8.081   6.514   0.823  1.00  0.00     0.131 A 
ATOM     70  C   UNL     1      -7.292   5.146   3.092  1.00  0.00     0.055 A 
ATOM     71  C   UNL     1      -8.939   6.455   1.923  1.00  0.00     0.041 A 
ATOM     72  F   UNL     1      -8.521   7.139  -0.280  1.00  0.00    -0.206 F 
ATOM     73  C   UNL     1      -8.553   5.750   3.058  1.00  0.00     0.022 A 
BRANCH  70  74
ATOM     74  S   UNL     1      -6.907   4.072   4.503  1.00  0.00     0.124 S 
ATOM     75  O   UNL     1      -6.923   5.015   5.617  1.00  0.00    -0.237 OA
ATOM     76  O   UNL     1      -8.016   3.121   4.465  1.00  0.00    -0.237 OA
ATOM     77  O   UNL     1      -5.602   3.515   4.165  1.00  0.00    -0.744 OA
ENDBRANCH  70  74
ENDBRANCH  43  67
BRANCH  55  78
ATOM     78  C   UNL     1      -3.858  10.812  -3.287  1.00  0.00     0.023 A 
ATOM     79  C   UNL     1      -4.399  11.575  -4.340  1.00  0.00     0.031 A 
ATOM     80  C   UNL     1      -3.122  11.479  -2.293  1.00  0.00     0.131 A 
ATOM     81  C   UNL     1      -4.158  12.953  -4.397  1.00  0.00     0.055 A 
ATOM     82  C   UNL     1      -2.928  12.861  -2.327  1.00  0.00     0.041 A 
ATOM     83  F   UNL     1      -2.573  10.795  -1.276  1.00  0.00    -0.206 F 
ATOM     84  C   UNL     1      -3.434  13.601  -3.392  1.00  0.00     0.022 A 
BRANCH  81  85
ATOM     85  S   UNL     1      -4.687  13.938  -5.827  1.00  0.00     0.124 S 
ATOM     86  O   UNL     1      -5.618  14.882  -5.214  1.00  0.00    -0.237 OA
ATOM     87  O   UNL     1      -3.426  14.515  -6.286  1.00  0.00    -0.237 OA
ATOM     88  O   UNL     1      -5.293  12.961  -6.724  1.00  0.00    -0.744 OA
ENDBRANCH  81  85
ENDBRANCH  55  78
ENDBRANCH  29  30
ENDBRANCH  22  24
ENDBRANCH  21  22
ENDBRANCH   1  21
TORSDOF 15
