REMARK SMILES Cc1coc2c(C)c3oc(=O)c(CC(=O)NCC(=O)N[C@H](C(=O)OCCOC(=O)c4ccc(-c5c6nc(c(-c7cc(S(=O)(=O)[O-])ccc7F)c7ccc([nH]7)c(-c7cc(S(=O)(=O)[O-])ccc7F)c7nc(c(-c8cc(S(=O)(=O)[O-])ccc8F)c8ccc5[nH]8)C=C7)C=C6)cc4)C(C)C)c(C)c3cc12
REMARK SMILES IDX 25 1 24 2 22 3 23 4 21 5 20 6 18 7 19 8 17 10 16 11 14 12
REMARK SMILES IDX 15 13 13 15 12 16 1 17 2 18 3 19 100 20 4 21 5 22 99 23 6 24
REMARK SMILES IDX 98 25 7 26 8 27 96 28 9 29 97 30 10 31 11 32 93 33 94 34
REMARK SMILES IDX 95 35 26 36 27 37 28 38 29 39 30 40 31 41 92 42 32 43 91 44
REMARK SMILES IDX 33 45 34 46 35 47 85 48 36 49 90 50 84 51 86 52 37 53 89 54
REMARK SMILES IDX 83 55 82 56 38 58 70 59 50 60 69 61 51 62 54 63 68 64 87 65
REMARK SMILES IDX 52 66 53 67 67 69 88 70 55 71 39 72 40 73 48 74 41 75 47 76
REMARK SMILES IDX 49 77 46 78 42 79 43 80 44 81 45 82 71 83 72 84 80 85 73 86
REMARK SMILES IDX 79 87 81 88 78 89 74 90 75 91 76 92 77 93 56 94 57 95 65 96
REMARK SMILES IDX 58 97 64 98 66 99 63 100 59 101 60 102 61 103 62 104
REMARK H PARENT 20 9 16 14 86 57 54 68
REMARK Flexibility Score: inf
ROOT
ATOM      1  C   UNL     1       6.906   5.565   1.301  1.00  0.00     0.274 C 
ENDROOT
BRANCH   1   2
ATOM      2  O   UNL     1       5.816   4.967   0.564  1.00  0.00    -0.461 OA
BRANCH   2   3
ATOM      3  C   UNL     1       5.582   3.615   0.722  1.00  0.00     0.329 C 
ATOM      4  O   UNL     1       6.159   2.896   1.500  1.00  0.00    -0.250 OA
BRANCH   3   5
ATOM      5  C   UNL     1       4.627   3.117  -0.402  1.00  0.00     0.194 C 
BRANCH   5   6
ATOM      6  N   UNL     1       4.251   1.672  -0.514  1.00  0.00    -0.341 N 
ATOM      7  C   UNL     1       3.183   1.018  -1.115  1.00  0.00     0.240 C 
ATOM      8  O   UNL     1       3.472  -0.133  -1.492  1.00  0.00    -0.273 OA
ATOM      9  H   UNL     1       4.888   1.064  -0.074  1.00  0.00     0.164 HD
BRANCH   7  10
ATOM     10  C   UNL     1       1.673   1.591  -1.546  1.00  0.00     0.216 C 
BRANCH  10  11
ATOM     11  N   UNL     1       0.739   2.464  -0.731  1.00  0.00    -0.347 N 
ATOM     12  C   UNL     1       0.075   3.663  -0.694  1.00  0.00     0.225 C 
ATOM     13  O   UNL     1      -0.496   3.834   0.398  1.00  0.00    -0.275 OA
ATOM     14  H   UNL     1       0.525   1.978   0.098  1.00  0.00     0.164 HD
BRANCH  12  15
ATOM     15  C   UNL     1      -0.148   4.801  -1.782  1.00  0.00     0.143 C 
BRANCH  15  16
ATOM     16  C   UNL     1       0.849   5.954  -2.113  1.00  0.00     0.051 A 
ATOM     17  C   UNL     1       5.859   9.911   1.002  1.00  0.00     0.048 C 
ATOM     18  C   UNL     1       5.866   9.259  -0.329  1.00  0.00    -0.005 A 
ATOM     19  C   UNL     1       6.968   9.122  -1.151  1.00  0.00     0.199 A 
ATOM     20  C   UNL     1       4.775   8.636  -1.028  1.00  0.00     0.024 A 
ATOM     21  O   UNL     1       6.649   8.446  -2.279  1.00  0.00    -0.464 OA
ATOM     22  C   UNL     1       5.319   8.154  -2.212  1.00  0.00     0.140 A 
ATOM     23  C   UNL     1       3.401   8.372  -0.770  1.00  0.00     0.024 A 
ATOM     24  C   UNL     1       4.609   7.446  -3.183  1.00  0.00     0.036 A 
ATOM     25  C   UNL     1       2.613   7.645  -1.702  1.00  0.00     0.022 A 
ATOM     26  C   UNL     1       5.292   6.840  -4.370  1.00  0.00     0.052 C 
ATOM     27  C   UNL     1       3.230   7.275  -2.900  1.00  0.00     0.145 A 
ATOM     28  C   UNL     1       1.285   7.007  -1.361  1.00  0.00    -0.029 A 
ATOM     29  O   UNL     1       2.475   6.579  -3.866  1.00  0.00    -0.422 OA
ATOM     30  C   UNL     1       0.661   7.429  -0.050  1.00  0.00     0.046 C 
ATOM     31  C   UNL     1       1.298   5.924  -3.542  1.00  0.00     0.340 A 
ATOM     32  O   UNL     1       0.692   5.292  -4.402  1.00  0.00    -0.246 OA
ENDBRANCH  15  16
ENDBRANCH  12  15
ENDBRANCH  10  11
ENDBRANCH   7  10
ENDBRANCH   5   6
BRANCH   5  33
ATOM     33  C   UNL     1       3.348   3.864  -0.564  1.00  0.00     0.017 C 
ATOM     34  C   UNL     1       2.969   4.998   0.327  1.00  0.00     0.010 C 
ATOM     35  C   UNL     1       3.209   4.048  -2.063  1.00  0.00     0.010 C 
ENDBRANCH   5  33
ENDBRANCH   3   5
ENDBRANCH   2   3
ENDBRANCH   1   2
BRANCH   1  36
ATOM     36  C   UNL     1       6.511   6.187   2.636  1.00  0.00     0.275 C 
BRANCH  36  37
ATOM     37  O   UNL     1       5.799   5.255   3.441  1.00  0.00    -0.458 OA
BRANCH  37  38
ATOM     38  C   UNL     1       4.471   5.441   3.324  1.00  0.00     0.338 C 
ATOM     39  O   UNL     1       3.900   6.294   2.659  1.00  0.00    -0.246 OA
BRANCH  38  40
ATOM     40  C   UNL     1       3.742   4.608   4.258  1.00  0.00     0.060 A 
ATOM     41  C   UNL     1       2.709   3.788   3.791  1.00  0.00     0.016 A 
ATOM     42  C   UNL     1       3.822   5.058   5.572  1.00  0.00     0.016 A 
ATOM     43  C   UNL     1       1.627   3.569   4.612  1.00  0.00     0.010 A 
ATOM     44  C   UNL     1       2.757   4.813   6.398  1.00  0.00     0.010 A 
ATOM     45  C   UNL     1       1.644   4.126   5.892  1.00  0.00    -0.014 A 
BRANCH  45  46
ATOM     46  C   UNL     1       0.611   3.721   6.829  1.00  0.00     0.031 A 
ATOM     47  C   UNL     1       0.682   2.263   7.140  1.00  0.00     0.074 A 
ATOM     48  C   UNL     1      -0.088   4.648   7.514  1.00  0.00     0.049 A 
ATOM     49  N   UNL     1      -0.270   1.392   7.176  1.00  0.00    -0.248 NA
ATOM     50  C   UNL     1       2.031   1.662   7.272  1.00  0.00     0.031 C 
ATOM     51  C   UNL     1       0.024   6.106   7.397  1.00  0.00     0.029 A 
ATOM     52  N   UNL     1      -0.894   4.492   8.597  1.00  0.00    -0.354 N 
ATOM     53  C   UNL     1       0.334   0.194   7.551  1.00  0.00     0.074 A 
ATOM     54  C   UNL     1       1.747   0.369   7.389  1.00  0.00     0.031 C 
ATOM     55  C   UNL     1      -0.454   6.676   8.524  1.00  0.00     0.029 A 
ATOM     56  C   UNL     1      -0.991   5.638   9.387  1.00  0.00     0.049 A 
ATOM     57  H   UNL     1      -1.365   3.652   8.804  1.00  0.00     0.167 HD
ATOM     58  C   UNL     1      -0.347  -0.765   8.229  1.00  0.00     0.034 A 
ATOM     59  C   UNL     1      -1.373   5.700  10.692  1.00  0.00     0.034 A 
ATOM     60  C   UNL     1      -1.767  -0.624   8.049  1.00  0.00     0.049 A 
ATOM     61  C   UNL     1      -2.118   4.443  10.967  1.00  0.00     0.074 A 
ATOM     62  C   UNL     1      -2.600  -0.656   6.949  1.00  0.00     0.029 A 
ATOM     63  N   UNL     1      -2.481  -0.008   9.050  1.00  0.00    -0.354 N 
ATOM     64  N   UNL     1      -3.227   4.112  10.361  1.00  0.00    -0.248 NA
ATOM     65  C   UNL     1      -1.389   3.332  11.564  1.00  0.00     0.031 C 
ATOM     66  C   UNL     1      -3.572   0.355   7.196  1.00  0.00     0.029 A 
ATOM     67  C   UNL     1      -3.324   0.900   8.459  1.00  0.00     0.049 A 
ATOM     68  H   UNL     1      -2.402  -0.186  10.015  1.00  0.00     0.167 HD
ATOM     69  C   UNL     1      -3.116   2.749  10.125  1.00  0.00     0.074 A 
ATOM     70  C   UNL     1      -2.019   2.306  10.983  1.00  0.00     0.031 C 
ATOM     71  C   UNL     1      -3.724   2.163   9.051  1.00  0.00     0.034 A 
BRANCH  58  72
ATOM     72  C   UNL     1       0.264  -1.589   9.334  1.00  0.00     0.023 A 
ATOM     73  C   UNL     1      -0.508  -2.630   9.877  1.00  0.00     0.031 A 
ATOM     74  C   UNL     1       1.426  -1.233  10.062  1.00  0.00     0.131 A 
ATOM     75  C   UNL     1      -0.158  -3.214  11.106  1.00  0.00     0.055 A 
ATOM     76  C   UNL     1       1.806  -1.865  11.246  1.00  0.00     0.041 A 
ATOM     77  F   UNL     1       2.201  -0.194   9.728  1.00  0.00    -0.206 F 
ATOM     78  C   UNL     1       0.997  -2.844  11.791  1.00  0.00     0.022 A 
BRANCH  75  79
ATOM     79  S   UNL     1      -1.325  -4.365  11.874  1.00  0.00     0.124 S 
ATOM     80  O   UNL     1      -2.519  -3.537  11.998  1.00  0.00    -0.237 OA
ATOM     81  O   UNL     1      -1.383  -5.438  10.888  1.00  0.00    -0.237 OA
ATOM     82  O   UNL     1      -0.674  -4.714  13.135  1.00  0.00    -0.744 OA
ENDBRANCH  75  79
ENDBRANCH  58  72
BRANCH  59  83
ATOM     83  C   UNL     1      -0.846   6.612  11.756  1.00  0.00     0.023 A 
ATOM     84  C   UNL     1      -1.484   6.766  13.007  1.00  0.00     0.031 A 
ATOM     85  C   UNL     1       0.437   7.198  11.639  1.00  0.00     0.131 A 
ATOM     86  C   UNL     1      -0.852   7.481  14.055  1.00  0.00     0.055 A 
ATOM     87  C   UNL     1       1.048   7.918  12.670  1.00  0.00     0.041 A 
ATOM     88  F   UNL     1       1.193   7.022  10.545  1.00  0.00    -0.206 F 
ATOM     89  C   UNL     1       0.409   8.056  13.888  1.00  0.00     0.022 A 
BRANCH  86  90
ATOM     90  S   UNL     1      -1.616   7.578  15.708  1.00  0.00     0.124 S 
ATOM     91  O   UNL     1      -2.675   8.559  15.499  1.00  0.00    -0.237 OA
ATOM     92  O   UNL     1      -2.042   6.203  15.940  1.00  0.00    -0.237 OA
ATOM     93  O   UNL     1      -0.518   8.029  16.564  1.00  0.00    -0.744 OA
ENDBRANCH  86  90
ENDBRANCH  59  83
BRANCH  71  94
ATOM     94  C   UNL     1      -4.750   2.959   8.272  1.00  0.00     0.023 A 
ATOM     95  C   UNL     1      -4.460   4.096   7.482  1.00  0.00     0.031 A 
ATOM     96  C   UNL     1      -6.038   2.406   8.177  1.00  0.00     0.131 A 
ATOM     97  C   UNL     1      -5.450   4.630   6.631  1.00  0.00     0.055 A 
ATOM     98  C   UNL     1      -7.004   2.921   7.315  1.00  0.00     0.041 A 
ATOM     99  F   UNL     1      -6.356   1.304   8.878  1.00  0.00    -0.206 F 
ATOM    100  C   UNL     1      -6.712   4.034   6.537  1.00  0.00     0.022 A 
BRANCH  97 101
ATOM    101  S   UNL     1      -5.096   6.085   5.587  1.00  0.00     0.124 S 
ATOM    102  O   UNL     1      -4.832   7.136   6.564  1.00  0.00    -0.237 OA
ATOM    103  O   UNL     1      -3.956   5.648   4.789  1.00  0.00    -0.237 OA
ATOM    104  O   UNL     1      -6.333   6.267   4.823  1.00  0.00    -0.744 OA
ENDBRANCH  97 101
ENDBRANCH  71  94
ENDBRANCH  45  46
ENDBRANCH  38  40
ENDBRANCH  37  38
ENDBRANCH  36  37
ENDBRANCH   1  36
TORSDOF 20
