REMARK SMILES O=C(OCCOC(=O)[C@@H]1CN(c2nccc(N3CCC(O)CC3)n2)CC[NH2+]1)c1ccc(-c2c3nc(c(-c4cc(S(=O)(=O)[O-])ccc4F)c4ccc([nH]4)c(-c4cc(S(=O)(=O)[O-])ccc4F)c4nc(c(-c5cc(S(=O)(=O)[O-])ccc5F)c5ccc2[nH]5)C=C4)C=C3)cc1
REMARK SMILES IDX 4 1 3 2 2 3 1 4 28 5 29 6 90 7 30 8 89 9 31 10 32 11 33 12
REMARK SMILES IDX 83 13 34 14 88 15 82 16 84 17 35 18 87 19 81 20 80 21 36 23
REMARK SMILES IDX 68 24 48 25 67 26 49 27 52 28 66 29 85 30 50 31 51 32 65 34
REMARK SMILES IDX 86 35 53 36 37 37 38 38 46 39 39 40 45 41 47 42 44 43 40 44
REMARK SMILES IDX 41 45 42 46 43 47 69 48 70 49 78 50 71 51 77 52 79 53 76 54
REMARK SMILES IDX 72 55 73 56 74 57 75 58 54 59 55 60 63 61 56 62 62 63 64 64
REMARK SMILES IDX 61 65 57 66 58 67 59 68 60 69 5 70 6 71 7 72 8 73 9 74 10 75
REMARK SMILES IDX 27 76 11 77 26 78 25 81 12 82 13 83 24 84 14 85 16 86 15 87
REMARK SMILES IDX 17 88 18 89 23 90 19 91 22 92 20 93 21 94
REMARK H PARENT 84 22 52 33 27 79 27 80 21 95
REMARK Flexibility Score: inf
ROOT
ATOM      1  C   UNL     1       4.328  -1.400   0.361  1.00  0.00     0.275 C 
ENDROOT
BRANCH   1   2
ATOM      2  O   UNL     1       3.320  -0.562   0.938  1.00  0.00    -0.458 OA
BRANCH   2   3
ATOM      3  C   UNL     1       3.257   0.791   0.967  1.00  0.00     0.338 C 
ATOM      4  O   UNL     1       2.460   1.310   1.749  1.00  0.00    -0.246 OA
BRANCH   3   5
ATOM      5  C   UNL     1       3.989   1.693   0.008  1.00  0.00     0.060 A 
ATOM      6  C   UNL     1       5.140   1.399  -0.739  1.00  0.00     0.016 A 
ATOM      7  C   UNL     1       3.401   2.952  -0.197  1.00  0.00     0.016 A 
ATOM      8  C   UNL     1       5.645   2.281  -1.709  1.00  0.00     0.010 A 
ATOM      9  C   UNL     1       3.877   3.817  -1.187  1.00  0.00     0.010 A 
ATOM     10  C   UNL     1       5.012   3.494  -1.954  1.00  0.00    -0.014 A 
BRANCH  10  11
ATOM     11  C   UNL     1       5.602   4.541  -2.832  1.00  0.00     0.031 A 
ATOM     12  C   UNL     1       6.020   5.814  -2.158  1.00  0.00     0.074 A 
ATOM     13  C   UNL     1       5.692   4.434  -4.172  1.00  0.00     0.049 A 
ATOM     14  N   UNL     1       6.283   6.984  -2.668  1.00  0.00    -0.248 NA
ATOM     15  C   UNL     1       6.107   5.753  -0.689  1.00  0.00     0.031 C 
ATOM     16  C   UNL     1       5.415   3.237  -4.960  1.00  0.00     0.029 A 
ATOM     17  N   UNL     1       5.968   5.389  -5.125  1.00  0.00    -0.354 N 
ATOM     18  C   UNL     1       6.578   7.792  -1.578  1.00  0.00     0.074 A 
ATOM     19  C   UNL     1       6.287   7.024  -0.388  1.00  0.00     0.031 C 
ATOM     20  C   UNL     1       5.402   3.558  -6.266  1.00  0.00     0.029 A 
ATOM     21  C   UNL     1       5.670   4.978  -6.408  1.00  0.00     0.049 A 
ATOM     22  H   UNL     1       6.341   6.276  -4.912  1.00  0.00     0.167 HD
ATOM     23  C   UNL     1       7.129   9.029  -1.568  1.00  0.00     0.034 A 
ATOM     24  C   UNL     1       5.578   5.680  -7.554  1.00  0.00     0.034 A 
ATOM     25  C   UNL     1       7.409   9.767  -2.768  1.00  0.00     0.049 A 
ATOM     26  C   UNL     1       5.992   7.125  -7.535  1.00  0.00     0.074 A 
ATOM     27  C   UNL     1       8.001  11.007  -2.909  1.00  0.00     0.029 A 
ATOM     28  N   UNL     1       7.092   9.324  -4.049  1.00  0.00    -0.354 N 
ATOM     29  N   UNL     1       6.317   7.875  -6.510  1.00  0.00    -0.248 NA
ATOM     30  C   UNL     1       6.096   7.796  -8.837  1.00  0.00     0.031 C 
ATOM     31  C   UNL     1       7.982  11.342  -4.268  1.00  0.00     0.029 A 
ATOM     32  C   UNL     1       7.452  10.278  -4.983  1.00  0.00     0.049 A 
ATOM     33  H   UNL     1       6.674   8.459  -4.259  1.00  0.00     0.167 HD
ATOM     34  C   UNL     1       6.756   9.078  -7.049  1.00  0.00     0.074 A 
ATOM     35  C   UNL     1       6.596   8.973  -8.487  1.00  0.00     0.031 C 
ATOM     36  C   UNL     1       7.295  10.148  -6.413  1.00  0.00     0.034 A 
BRANCH  23  37
ATOM     37  C   UNL     1       7.437   9.606  -0.209  1.00  0.00     0.023 A 
ATOM     38  C   UNL     1       8.280   8.920   0.689  1.00  0.00     0.031 A 
ATOM     39  C   UNL     1       6.767  10.746   0.258  1.00  0.00     0.131 A 
ATOM     40  C   UNL     1       8.294   9.278   2.043  1.00  0.00     0.055 A 
ATOM     41  C   UNL     1       6.885  11.170   1.584  1.00  0.00     0.041 A 
ATOM     42  F   UNL     1       5.941  11.433  -0.546  1.00  0.00    -0.206 F 
ATOM     43  C   UNL     1       7.623  10.415   2.494  1.00  0.00     0.022 A 
BRANCH  40  44
ATOM     44  S   UNL     1       8.982   8.090   3.233  1.00  0.00     0.124 S 
ATOM     45  O   UNL     1       8.146   6.915   2.992  1.00  0.00    -0.237 OA
ATOM     46  O   UNL     1      10.371   7.980   2.805  1.00  0.00    -0.237 OA
ATOM     47  O   UNL     1       8.773   8.739   4.525  1.00  0.00    -0.744 OA
ENDBRANCH  40  44
ENDBRANCH  23  37
BRANCH  24  48
ATOM     48  C   UNL     1       5.055   5.077  -8.812  1.00  0.00     0.023 A 
ATOM     49  C   UNL     1       5.910   4.644  -9.838  1.00  0.00     0.031 A 
ATOM     50  C   UNL     1       3.668   5.037  -9.043  1.00  0.00     0.131 A 
ATOM     51  C   UNL     1       5.369   4.225 -11.066  1.00  0.00     0.055 A 
ATOM     52  C   UNL     1       3.136   4.599 -10.259  1.00  0.00     0.041 A 
ATOM     53  F   UNL     1       2.811   5.452  -8.098  1.00  0.00    -0.206 F 
ATOM     54  C   UNL     1       3.988   4.193 -11.281  1.00  0.00     0.022 A 
BRANCH  51  55
ATOM     55  S   UNL     1       6.495   3.761 -12.413  1.00  0.00     0.124 S 
ATOM     56  O   UNL     1       7.071   5.050 -12.776  1.00  0.00    -0.237 OA
ATOM     57  O   UNL     1       7.392   2.817 -11.755  1.00  0.00    -0.237 OA
ATOM     58  O   UNL     1       5.603   3.169 -13.409  1.00  0.00    -0.744 OA
ENDBRANCH  51  55
ENDBRANCH  24  48
BRANCH  36  59
ATOM     59  C   UNL     1       7.865  11.242  -7.271  1.00  0.00     0.023 A 
ATOM     60  C   UNL     1       7.055  12.103  -8.027  1.00  0.00     0.031 A 
ATOM     61  C   UNL     1       9.258  11.440  -7.293  1.00  0.00     0.131 A 
ATOM     62  C   UNL     1       7.652  13.111  -8.797  1.00  0.00     0.055 A 
ATOM     63  C   UNL     1       9.839  12.483  -8.010  1.00  0.00     0.041 A 
ATOM     64  F   UNL     1      10.074  10.632  -6.596  1.00  0.00    -0.206 F 
ATOM     65  C   UNL     1       9.034  13.323  -8.773  1.00  0.00     0.022 A 
BRANCH  62  66
ATOM     66  S   UNL     1       6.600  14.112  -9.881  1.00  0.00     0.124 S 
ATOM     67  O   UNL     1       6.072  13.108 -10.798  1.00  0.00    -0.237 OA
ATOM     68  O   UNL     1       5.641  14.688  -8.944  1.00  0.00    -0.237 OA
ATOM     69  O   UNL     1       7.533  15.067 -10.476  1.00  0.00    -0.744 OA
ENDBRANCH  62  66
ENDBRANCH  36  59
ENDBRANCH  10  11
ENDBRANCH   3   5
ENDBRANCH   2   3
ENDBRANCH   1   2
BRANCH   1  70
ATOM     70  C   UNL     1       4.020  -1.815  -1.079  1.00  0.00     0.274 C 
BRANCH  70  71
ATOM     71  O   UNL     1       3.477  -0.746  -1.875  1.00  0.00    -0.458 OA
BRANCH  71  72
ATOM     72  C   UNL     1       2.175  -0.870  -2.275  1.00  0.00     0.366 C 
ATOM     73  O   UNL     1       1.446  -1.810  -1.964  1.00  0.00    -0.245 OA
BRANCH  72  74
ATOM     74  C   UNL     1       1.718   0.306  -3.153  1.00  0.00     0.313 C 
ATOM     75  C   UNL     1       2.771   0.592  -4.242  1.00  0.00     0.197 C 
ATOM     76  N   UNL     1       1.430   1.497  -2.302  1.00  0.00    -0.332 N 
ATOM     77  N   UNL     1       2.457   1.805  -4.978  1.00  0.00    -0.328 N 
ATOM     78  C   UNL     1       0.990   2.622  -3.161  1.00  0.00     0.283 C 
ATOM     79  H   UNL     1       2.274   1.765  -1.796  1.00  0.00     0.347 HD
ATOM     80  H   UNL     1       0.693   1.269  -1.635  1.00  0.00     0.347 HD
ATOM     81  C   UNL     1       1.990   2.987  -4.274  1.00  0.00     0.181 C 
BRANCH  77  82
ATOM     82  C   UNL     1       2.038   1.653  -6.271  1.00  0.00     0.227 A 
ATOM     83  N   UNL     1       2.983   1.690  -7.214  1.00  0.00    -0.221 NA
ATOM     84  N   UNL     1       0.739   1.440  -6.511  1.00  0.00    -0.196 NA
ATOM     85  C   UNL     1       2.579   1.623  -8.484  1.00  0.00     0.119 A 
ATOM     86  C   UNL     1       0.369   1.284  -7.791  1.00  0.00     0.134 A 
ATOM     87  C   UNL     1       1.272   1.425  -8.829  1.00  0.00     0.067 A 
BRANCH  86  88
ATOM     88  N   UNL     1      -0.947   0.923  -8.079  1.00  0.00    -0.356 N 
ATOM     89  C   UNL     1      -1.107  -0.363  -8.755  1.00  0.00     0.121 C 
ATOM     90  C   UNL     1      -1.988   1.341  -7.142  1.00  0.00     0.121 C 
ATOM     91  C   UNL     1      -1.374  -1.468  -7.734  1.00  0.00     0.053 C 
ATOM     92  C   UNL     1      -2.338   0.237  -6.145  1.00  0.00     0.053 C 
ATOM     93  C   UNL     1      -2.551  -1.111  -6.830  1.00  0.00     0.118 C 
BRANCH  93  94
ATOM     94  O   UNL     1      -3.771  -1.122  -7.576  1.00  0.00    -0.393 OA
ATOM     95  H   UNL     1      -3.727  -0.454  -8.278  1.00  0.00     0.210 HD
ENDBRANCH  93  94
ENDBRANCH  86  88
ENDBRANCH  77  82
ENDBRANCH  72  74
ENDBRANCH  71  72
ENDBRANCH  70  71
ENDBRANCH   1  70
TORSDOF 17
