REMARK SMILES COc1cc2c(cc1OC)[C@@H](CC(=O)OCCOC(=O)c1ccc(-c3c4nc(c(-c5cc(S(=O)(=O)[O-])ccc5F)c5ccc([nH]5)c(-c5cc(S(=O)(=O)[O-])ccc5F)c5nc(c(-c6cc(S(=O)(=O)[O-])ccc6F)c6ccc3[nH]6)C=C5)C=C4)cc1)N(C(=O)Nc1ccc(Cl)cc1)CC2
REMARK SMILES IDX 16 1 15 2 13 3 14 4 12 5 11 6 3 7 4 8 8 9 5 10 7 11 6 12
REMARK SMILES IDX 96 13 95 14 84 15 2 16 1 17 9 18 10 19 85 20 86 21 87 22
REMARK SMILES IDX 88 24 89 25 94 26 90 27 93 28 91 29 92 30 17 31 18 32 19 33
REMARK SMILES IDX 20 34 21 35 22 36 83 37 23 38 82 39 24 40 25 41 26 42 76 43
REMARK SMILES IDX 27 44 81 45 75 46 77 47 28 48 80 49 74 50 73 51 29 53 61 54
REMARK SMILES IDX 41 55 60 56 42 57 45 58 59 59 78 60 43 61 44 62 58 64 79 65
REMARK SMILES IDX 46 66 30 67 31 68 39 69 32 70 38 71 40 72 37 73 33 74 34 75
REMARK SMILES IDX 35 76 36 77 62 78 63 79 71 80 64 81 70 82 72 83 69 84 65 85
REMARK SMILES IDX 66 86 67 87 68 88 47 89 48 90 56 91 49 92 55 93 57 94 54 95
REMARK SMILES IDX 50 96 51 97 52 98 53 99
REMARK H PARENT 87 23 77 52 45 63
REMARK Flexibility Score: inf
ROOT
ATOM      1  C   UNL     1       2.850  -6.520  -8.288  1.00  0.00     0.274 C 
ENDROOT
BRANCH   1   2
ATOM      2  O   UNL     1       2.539  -5.926  -7.014  1.00  0.00    -0.462 OA
BRANCH   2   3
ATOM      3  C   UNL     1       3.586  -5.601  -6.220  1.00  0.00     0.308 C 
ATOM      4  O   UNL     1       4.763  -5.703  -6.556  1.00  0.00    -0.252 OA
BRANCH   3   5
ATOM      5  C   UNL     1       3.207  -5.070  -4.852  1.00  0.00     0.152 C 
BRANCH   5   6
ATOM      6  C   UNL     1       1.737  -4.683  -4.569  1.00  0.00     0.128 C 
ATOM      7  C   UNL     1       1.162  -1.921  -1.202  1.00  0.00     0.161 A 
ATOM      8  C   UNL     1       0.082  -2.486  -1.870  1.00  0.00     0.054 A 
ATOM      9  C   UNL     1       2.470  -2.194  -1.620  1.00  0.00     0.161 A 
ATOM     10  C   UNL     1       0.300  -3.346  -2.952  1.00  0.00    -0.037 A 
ATOM     11  C   UNL     1       2.675  -3.069  -2.705  1.00  0.00     0.056 A 
ATOM     12  C   UNL     1       1.600  -3.678  -3.382  1.00  0.00    -0.018 A 
ATOM     13  C   UNL     1      -0.849  -4.025  -3.627  1.00  0.00     0.057 C 
ATOM     14  C   UNL     1      -0.496  -5.502  -3.690  1.00  0.00     0.127 C 
ATOM     15  N   UNL     1       0.728  -5.808  -4.444  1.00  0.00    -0.317 N 
BRANCH   7  16
ATOM     16  O   UNL     1       0.857  -1.208  -0.070  1.00  0.00    -0.493 OA
ATOM     17  C   UNL     1       1.190   0.173  -0.196  1.00  0.00     0.278 C 
ENDBRANCH   7  16
BRANCH   9  18
ATOM     18  O   UNL     1       3.483  -1.636  -0.885  1.00  0.00    -0.493 OA
ATOM     19  C   UNL     1       4.766  -1.566  -1.499  1.00  0.00     0.278 C 
ENDBRANCH   9  18
BRANCH  15  20
ATOM     20  C   UNL     1       1.029  -7.075  -4.883  1.00  0.00     0.322 C 
ATOM     21  O   UNL     1       2.169  -7.548  -4.849  1.00  0.00    -0.248 OA
ATOM     22  N   UNL     1       0.111  -7.874  -5.503  1.00  0.00    -0.308 N 
ATOM     23  H   UNL     1       0.418  -8.322  -6.324  1.00  0.00     0.171 HD
BRANCH  22  24
ATOM     24  C   UNL     1      -1.206  -8.138  -5.125  1.00  0.00     0.042 A 
ATOM     25  C   UNL     1      -1.424  -9.153  -4.193  1.00  0.00     0.028 A 
ATOM     26  C   UNL     1      -2.278  -7.440  -5.685  1.00  0.00     0.028 A 
ATOM     27  C   UNL     1      -2.714  -9.400  -3.731  1.00  0.00     0.022 A 
ATOM     28  C   UNL     1      -3.570  -7.678  -5.208  1.00  0.00     0.022 A 
ATOM     29  C   UNL     1      -3.778  -8.646  -4.223  1.00  0.00     0.041 A 
ATOM     30  Cl  UNL     1      -5.358  -8.901  -3.592  1.00  0.00    -0.084 Cl
ENDBRANCH  22  24
ENDBRANCH  15  20
ENDBRANCH   5   6
ENDBRANCH   3   5
ENDBRANCH   2   3
ENDBRANCH   1   2
BRANCH   1  31
ATOM     31  C   UNL     1       2.323  -5.647  -9.426  1.00  0.00     0.275 C 
BRANCH  31  32
ATOM     32  O   UNL     1       3.000  -4.380  -9.452  1.00  0.00    -0.458 OA
BRANCH  32  33
ATOM     33  C   UNL     1       2.456  -3.432  -8.655  1.00  0.00     0.338 C 
ATOM     34  O   UNL     1       1.413  -3.505  -8.018  1.00  0.00    -0.246 OA
BRANCH  33  35
ATOM     35  C   UNL     1       3.397  -2.314  -8.525  1.00  0.00     0.060 A 
ATOM     36  C   UNL     1       3.844  -1.977  -7.244  1.00  0.00     0.016 A 
ATOM     37  C   UNL     1       3.794  -1.574  -9.640  1.00  0.00     0.016 A 
ATOM     38  C   UNL     1       4.691  -0.888  -7.068  1.00  0.00     0.010 A 
ATOM     39  C   UNL     1       4.640  -0.478  -9.461  1.00  0.00     0.010 A 
ATOM     40  C   UNL     1       5.083  -0.123  -8.174  1.00  0.00    -0.014 A 
BRANCH  40  41
ATOM     41  C   UNL     1       5.893   1.100  -7.974  1.00  0.00     0.031 A 
ATOM     42  C   UNL     1       5.231   2.443  -8.073  1.00  0.00     0.074 A 
ATOM     43  C   UNL     1       7.206   0.999  -7.698  1.00  0.00     0.049 A 
ATOM     44  N   UNL     1       5.765   3.636  -8.036  1.00  0.00    -0.248 NA
ATOM     45  C   UNL     1       3.770   2.438  -8.242  1.00  0.00     0.031 C 
ATOM     46  C   UNL     1       7.936  -0.258  -7.529  1.00  0.00     0.029 A 
ATOM     47  N   UNL     1       8.159   1.968  -7.519  1.00  0.00    -0.354 N 
ATOM     48  C   UNL     1       4.709   4.527  -8.194  1.00  0.00     0.074 A 
ATOM     49  C   UNL     1       3.509   3.732  -8.353  1.00  0.00     0.031 C 
ATOM     50  C   UNL     1       9.227   0.018  -7.278  1.00  0.00     0.029 A 
ATOM     51  C   UNL     1       9.423   1.465  -7.320  1.00  0.00     0.049 A 
ATOM     52  H   UNL     1       7.957   2.932  -7.532  1.00  0.00     0.167 HD
ATOM     53  C   UNL     1       4.743   5.883  -8.201  1.00  0.00     0.034 A 
ATOM     54  C   UNL     1      10.607   2.100  -7.222  1.00  0.00     0.034 A 
ATOM     55  C   UNL     1       5.955   6.652  -8.048  1.00  0.00     0.049 A 
ATOM     56  C   UNL     1      10.631   3.605  -7.315  1.00  0.00     0.074 A 
ATOM     57  C   UNL     1       6.111   8.027  -8.037  1.00  0.00     0.029 A 
ATOM     58  N   UNL     1       7.225   6.109  -7.888  1.00  0.00    -0.354 N 
ATOM     59  N   UNL     1       9.630   4.440  -7.482  1.00  0.00    -0.248 NA
ATOM     60  C   UNL     1      11.944   4.254  -7.206  1.00  0.00     0.031 C 
ATOM     61  C   UNL     1       7.477   8.314  -7.935  1.00  0.00     0.029 A 
ATOM     62  C   UNL     1       8.170   7.121  -7.807  1.00  0.00     0.049 A 
ATOM     63  H   UNL     1       7.424   5.147  -7.838  1.00  0.00     0.167 HD
ATOM     64  C   UNL     1      10.192   5.713  -7.474  1.00  0.00     0.074 A 
ATOM     65  C   UNL     1      11.616   5.536  -7.270  1.00  0.00     0.031 C 
ATOM     66  C   UNL     1       9.589   6.921  -7.619  1.00  0.00     0.034 A 
BRANCH  53  67
ATOM     67  C   UNL     1       3.440   6.605  -8.444  1.00  0.00     0.023 A 
ATOM     68  C   UNL     1       2.367   6.525  -7.539  1.00  0.00     0.031 A 
ATOM     69  C   UNL     1       3.253   7.350  -9.622  1.00  0.00     0.131 A 
ATOM     70  C   UNL     1       1.135   7.117  -7.859  1.00  0.00     0.055 A 
ATOM     71  C   UNL     1       2.049   8.002  -9.898  1.00  0.00     0.041 A 
ATOM     72  F   UNL     1       4.233   7.443 -10.535  1.00  0.00    -0.206 F 
ATOM     73  C   UNL     1       0.976   7.874  -9.022  1.00  0.00     0.022 A 
BRANCH  70  74
ATOM     74  S   UNL     1      -0.299   6.760  -6.807  1.00  0.00     0.124 S 
ATOM     75  O   UNL     1      -0.377   5.304  -6.896  1.00  0.00    -0.237 OA
ATOM     76  O   UNL     1       0.114   7.301  -5.517  1.00  0.00    -0.237 OA
ATOM     77  O   UNL     1      -1.392   7.476  -7.462  1.00  0.00    -0.744 OA
ENDBRANCH  70  74
ENDBRANCH  53  67
BRANCH  54  78
ATOM     78  C   UNL     1      11.871   1.323  -7.078  1.00  0.00     0.023 A 
ATOM     79  C   UNL     1      12.665   1.434  -5.927  1.00  0.00     0.031 A 
ATOM     80  C   UNL     1      12.324   0.487  -8.115  1.00  0.00     0.131 A 
ATOM     81  C   UNL     1      13.891   0.753  -5.856  1.00  0.00     0.055 A 
ATOM     82  C   UNL     1      13.518  -0.228  -8.018  1.00  0.00     0.041 A 
ATOM     83  F   UNL     1      11.603   0.346  -9.239  1.00  0.00    -0.206 F 
ATOM     84  C   UNL     1      14.316  -0.087  -6.887  1.00  0.00     0.022 A 
BRANCH  81  85
ATOM     85  S   UNL     1      14.964   1.046  -4.423  1.00  0.00     0.124 S 
ATOM     86  O   UNL     1      15.165   2.489  -4.491  1.00  0.00    -0.237 OA
ATOM     87  O   UNL     1      14.136   0.565  -3.322  1.00  0.00    -0.237 OA
ATOM     88  O   UNL     1      16.145   0.235  -4.711  1.00  0.00    -0.744 OA
ENDBRANCH  81  85
ENDBRANCH  54  78
BRANCH  66  89
ATOM     89  C   UNL     1      10.473   8.139  -7.518  1.00  0.00     0.023 A 
ATOM     90  C   UNL     1      11.437   8.436  -8.497  1.00  0.00     0.031 A 
ATOM     91  C   UNL     1      10.358   9.005  -6.416  1.00  0.00     0.131 A 
ATOM     92  C   UNL     1      12.287   9.539  -8.326  1.00  0.00     0.055 A 
ATOM     93  C   UNL     1      11.168  10.133  -6.281  1.00  0.00     0.041 A 
ATOM     94  F   UNL     1       9.454   8.767  -5.452  1.00  0.00    -0.206 F 
ATOM     95  C   UNL     1      12.148  10.398  -7.233  1.00  0.00     0.022 A 
BRANCH  92  96
ATOM     96  S   UNL     1      13.639   9.789  -9.510  1.00  0.00     0.124 S 
ATOM     97  O   UNL     1      14.389   8.544  -9.381  1.00  0.00    -0.237 OA
ATOM     98  O   UNL     1      12.922   9.974 -10.768  1.00  0.00    -0.237 OA
ATOM     99  O   UNL     1      14.321  10.980  -9.006  1.00  0.00    -0.744 OA
ENDBRANCH  92  96
ENDBRANCH  66  89
ENDBRANCH  40  41
ENDBRANCH  33  35
ENDBRANCH  32  33
ENDBRANCH  31  32
ENDBRANCH   1  31
TORSDOF 19
