REMARK SMILES Cc1cccc(CC(=O)NC2(CC(=O)OCCOC(=O)c3ccc(-c4c5nc(c(-c6cc(S(=O)(=O)[O-])ccc6F)c6ccc([nH]6)c(-c6cc(S(=O)(=O)[O-])ccc6F)c6nc(c(-c7cc(S(=O)(=O)[O-])ccc7F)c7ccc4[nH]7)C=C6)C=C5)cc3)CCC2)c1
REMARK SMILES IDX 16 1 15 2 13 3 14 4 12 5 11 6 84 7 86 8 85 9 10 10 8 11 9 12
REMARK SMILES IDX 7 14 6 15 1 16 2 17 3 18 87 19 4 20 5 21 17 22 18 23 19 24
REMARK SMILES IDX 20 25 21 26 22 27 83 28 23 29 82 30 24 31 25 32 26 33 76 34
REMARK SMILES IDX 27 35 81 36 75 37 77 38 28 39 80 40 74 41 73 42 29 44 61 45
REMARK SMILES IDX 41 46 60 47 42 48 45 49 59 50 78 51 43 52 44 53 58 55 79 56
REMARK SMILES IDX 46 57 30 58 31 59 39 60 32 61 38 62 40 63 37 64 33 65 34 66
REMARK SMILES IDX 35 67 36 68 62 69 63 70 71 71 64 72 70 73 72 74 69 75 65 76
REMARK SMILES IDX 66 77 67 78 68 79 47 80 48 81 56 82 49 83 55 84 57 85 54 86
REMARK SMILES IDX 50 87 51 88 52 89 53 90
REMARK H PARENT 10 13 77 43 45 54
REMARK Flexibility Score: inf
ROOT
ATOM      1  C   UNL     1      -2.546  -1.561  -3.497  1.00  0.00     0.274 C 
ENDROOT
BRANCH   1   2
ATOM      2  O   UNL     1      -1.397  -0.712  -3.611  1.00  0.00    -0.462 OA
BRANCH   2   3
ATOM      3  C   UNL     1      -1.223   0.091  -2.542  1.00  0.00     0.308 C 
ATOM      4  O   UNL     1      -1.838  -0.076  -1.505  1.00  0.00    -0.252 OA
BRANCH   3   5
ATOM      5  C   UNL     1      -0.279   1.218  -2.835  1.00  0.00     0.151 C 
BRANCH   5   6
ATOM      6  C   UNL     1      -0.262   2.370  -1.814  1.00  0.00     0.050 C 
ATOM      7  C   UNL     1       0.435   3.675  -2.355  1.00  0.00     0.029 C 
ATOM      8  C   UNL     1       0.938   2.277  -0.855  1.00  0.00     0.029 C 
ATOM      9  C   UNL     1       1.766   3.134  -1.820  1.00  0.00     0.005 C 
BRANCH   6  10
ATOM     10  N   UNL     1      -1.632   2.704  -1.335  1.00  0.00    -0.350 N 
ATOM     11  C   UNL     1      -2.311   2.561  -0.153  1.00  0.00     0.224 C 
ATOM     12  O   UNL     1      -3.517   2.846  -0.160  1.00  0.00    -0.275 OA
ATOM     13  H   UNL     1      -2.181   3.128  -2.034  1.00  0.00     0.164 HD
BRANCH  11  14
ATOM     14  C   UNL     1      -1.661   2.217   1.178  1.00  0.00     0.135 C 
BRANCH  14  15
ATOM     15  C   UNL     1      -1.096   0.826   1.338  1.00  0.00    -0.038 A 
ATOM     16  C   UNL     1       2.409  -0.582   1.271  1.00  0.00     0.044 C 
ATOM     17  C   UNL     1       0.911  -0.542   1.343  1.00  0.00    -0.051 A 
ATOM     18  C   UNL     1       0.148  -1.657   0.992  1.00  0.00     0.003 A 
ATOM     19  C   UNL     1       0.264   0.666   1.619  1.00  0.00     0.007 A 
ATOM     20  C   UNL     1      -1.241  -1.556   0.925  1.00  0.00     0.001 A 
ATOM     21  C   UNL     1      -1.866  -0.316   1.103  1.00  0.00     0.004 A 
ENDBRANCH  14  15
ENDBRANCH  11  14
ENDBRANCH   6  10
ENDBRANCH   5   6
ENDBRANCH   3   5
ENDBRANCH   2   3
ENDBRANCH   1   2
BRANCH   1  22
ATOM     22  C   UNL     1      -3.930  -0.855  -3.360  1.00  0.00     0.275 C 
BRANCH  22  23
ATOM     23  O   UNL     1      -4.023   0.603  -3.190  1.00  0.00    -0.458 OA
BRANCH  23  24
ATOM     24  C   UNL     1      -3.806   1.680  -4.004  1.00  0.00     0.338 C 
ATOM     25  O   UNL     1      -3.962   2.825  -3.586  1.00  0.00    -0.246 OA
BRANCH  24  26
ATOM     26  C   UNL     1      -3.036   1.484  -5.246  1.00  0.00     0.060 A 
ATOM     27  C   UNL     1      -2.024   2.400  -5.607  1.00  0.00     0.016 A 
ATOM     28  C   UNL     1      -3.083   0.253  -5.839  1.00  0.00     0.016 A 
ATOM     29  C   UNL     1      -0.932   1.964  -6.369  1.00  0.00     0.010 A 
ATOM     30  C   UNL     1      -1.904  -0.248  -6.302  1.00  0.00     0.010 A 
ATOM     31  C   UNL     1      -0.838   0.600  -6.630  1.00  0.00    -0.014 A 
BRANCH  31  32
ATOM     32  C   UNL     1       0.125  -0.074  -7.490  1.00  0.00     0.031 A 
ATOM     33  C   UNL     1       1.535  -0.317  -7.170  1.00  0.00     0.074 A 
ATOM     34  C   UNL     1      -0.465  -0.624  -8.576  1.00  0.00     0.049 A 
ATOM     35  N   UNL     1       2.458  -0.360  -8.069  1.00  0.00    -0.248 NA
ATOM     36  C   UNL     1       2.037  -0.576  -5.821  1.00  0.00     0.031 C 
ATOM     37  C   UNL     1      -0.000  -1.573  -9.562  1.00  0.00     0.029 A 
ATOM     38  N   UNL     1      -1.731  -0.291  -9.036  1.00  0.00    -0.354 N 
ATOM     39  C   UNL     1       3.547  -0.979  -7.497  1.00  0.00     0.074 A 
ATOM     40  C   UNL     1       3.301  -0.955  -6.073  1.00  0.00     0.031 C 
ATOM     41  C   UNL     1      -0.837  -1.513 -10.624  1.00  0.00     0.029 A 
ATOM     42  C   UNL     1      -1.784  -0.419 -10.404  1.00  0.00     0.049 A 
ATOM     43  H   UNL     1      -2.482  -0.005  -8.466  1.00  0.00     0.167 HD
ATOM     44  C   UNL     1       4.437  -1.646  -8.287  1.00  0.00     0.034 A 
ATOM     45  C   UNL     1      -1.897   0.772 -11.072  1.00  0.00     0.034 A 
ATOM     46  C   UNL     1       3.978  -1.685  -9.675  1.00  0.00     0.049 A 
ATOM     47  C   UNL     1      -0.586   1.126 -11.749  1.00  0.00     0.074 A 
ATOM     48  C   UNL     1       3.342  -2.650 -10.439  1.00  0.00     0.029 A 
ATOM     49  N   UNL     1       3.849  -0.502 -10.372  1.00  0.00    -0.354 N 
ATOM     50  N   UNL     1       0.515   0.441 -11.600  1.00  0.00    -0.248 NA
ATOM     51  C   UNL     1      -0.393   2.298 -12.596  1.00  0.00     0.031 C 
ATOM     52  C   UNL     1       2.769  -2.003 -11.575  1.00  0.00     0.029 A 
ATOM     53  C   UNL     1       3.085  -0.658 -11.511  1.00  0.00     0.049 A 
ATOM     54  H   UNL     1       4.252   0.351 -10.091  1.00  0.00     0.167 HD
ATOM     55  C   UNL     1       1.531   1.033 -12.281  1.00  0.00     0.074 A 
ATOM     56  C   UNL     1       0.919   2.211 -12.876  1.00  0.00     0.031 C 
ATOM     57  C   UNL     1       2.796   0.522 -12.306  1.00  0.00     0.034 A 
BRANCH  44  58
ATOM     58  C   UNL     1       5.565  -2.506  -7.781  1.00  0.00     0.023 A 
ATOM     59  C   UNL     1       5.940  -3.651  -8.513  1.00  0.00     0.031 A 
ATOM     60  C   UNL     1       6.334  -2.232  -6.635  1.00  0.00     0.131 A 
ATOM     61  C   UNL     1       6.976  -4.496  -8.085  1.00  0.00     0.055 A 
ATOM     62  C   UNL     1       7.356  -3.088  -6.191  1.00  0.00     0.041 A 
ATOM     63  F   UNL     1       6.145  -1.110  -5.923  1.00  0.00    -0.206 F 
ATOM     64  C   UNL     1       7.678  -4.232  -6.913  1.00  0.00     0.022 A 
BRANCH  61  65
ATOM     65  S   UNL     1       7.394  -5.938  -9.104  1.00  0.00     0.124 S 
ATOM     66  O   UNL     1       6.142  -6.688  -9.100  1.00  0.00    -0.237 OA
ATOM     67  O   UNL     1       7.772  -5.323 -10.371  1.00  0.00    -0.237 OA
ATOM     68  O   UNL     1       8.492  -6.566  -8.369  1.00  0.00    -0.744 OA
ENDBRANCH  61  65
ENDBRANCH  44  58
BRANCH  45  69
ATOM     69  C   UNL     1      -2.824   1.757 -10.367  1.00  0.00     0.023 A 
ATOM     70  C   UNL     1      -4.084   1.276  -9.918  1.00  0.00     0.031 A 
ATOM     71  C   UNL     1      -2.396   2.980  -9.823  1.00  0.00     0.131 A 
ATOM     72  C   UNL     1      -4.775   1.909  -8.867  1.00  0.00     0.055 A 
ATOM     73  C   UNL     1      -3.142   3.661  -8.843  1.00  0.00     0.041 A 
ATOM     74  F   UNL     1      -1.204   3.500 -10.145  1.00  0.00    -0.206 F 
ATOM     75  C   UNL     1      -4.316   3.109  -8.333  1.00  0.00     0.022 A 
BRANCH  72  76
ATOM     76  S   UNL     1      -6.082   0.977  -8.000  1.00  0.00     0.124 S 
ATOM     77  O   UNL     1      -7.243   1.206  -8.850  1.00  0.00    -0.237 OA
ATOM     78  O   UNL     1      -5.546  -0.384  -7.995  1.00  0.00    -0.237 OA
ATOM     79  O   UNL     1      -6.128   1.599  -6.679  1.00  0.00    -0.744 OA
ENDBRANCH  72  76
ENDBRANCH  45  69
BRANCH  57  80
ATOM     80  C   UNL     1       3.879   1.136 -13.133  1.00  0.00     0.023 A 
ATOM     81  C   UNL     1       3.600   1.605 -14.421  1.00  0.00     0.031 A 
ATOM     82  C   UNL     1       5.221   1.204 -12.705  1.00  0.00     0.131 A 
ATOM     83  C   UNL     1       4.599   2.217 -15.183  1.00  0.00     0.055 A 
ATOM     84  C   UNL     1       6.237   1.706 -13.515  1.00  0.00     0.041 A 
ATOM     85  F   UNL     1       5.592   0.834 -11.470  1.00  0.00    -0.206 F 
ATOM     86  C   UNL     1       5.926   2.239 -14.757  1.00  0.00     0.022 A 
BRANCH  83  87
ATOM     87  S   UNL     1       4.092   3.098 -16.674  1.00  0.00     0.124 S 
ATOM     88  O   UNL     1       3.373   2.073 -17.423  1.00  0.00    -0.237 OA
ATOM     89  O   UNL     1       3.268   4.167 -16.114  1.00  0.00    -0.237 OA
ATOM     90  O   UNL     1       5.356   3.531 -17.262  1.00  0.00    -0.744 OA
ENDBRANCH  83  87
ENDBRANCH  57  80
ENDBRANCH  31  32
ENDBRANCH  24  26
ENDBRANCH  23  24
ENDBRANCH  22  23
ENDBRANCH   1  22
TORSDOF 18
