REMARK SMILES COc1ccc(NC(=O)c2nn(C)cc2C(=O)OCCOC(=O)c2ccc(-c3c4nc(c(-c5cc(S(=O)(=O)[O-])ccc5F)c5ccc([nH]5)c(-c5cc(S(=O)(=O)[O-])ccc5F)c5nc(c(-c6cc(S(=O)(=O)[O-])ccc6F)c6ccc3[nH]6)C=C5)C=C4)cc2)c(C)c1
REMARK SMILES IDX 19 1 18 2 16 3 17 4 15 5 10 6 11 7 12 8 14 9 13 10 8 11 7 12
REMARK SMILES IDX 9 14 6 15 3 16 4 17 89 18 5 19 87 20 88 21 2 22 1 23 20 24
REMARK SMILES IDX 21 25 22 26 23 27 24 28 25 29 86 30 26 31 85 32 27 33 28 34
REMARK SMILES IDX 29 35 79 36 30 37 84 38 78 39 80 40 31 41 83 42 77 43 76 44
REMARK SMILES IDX 32 46 64 47 44 48 63 49 45 50 48 51 62 52 81 53 46 54 47 55
REMARK SMILES IDX 61 57 82 58 49 59 33 60 34 61 42 62 35 63 41 64 43 65 40 66
REMARK SMILES IDX 36 67 37 68 38 69 39 70 65 71 66 72 74 73 67 74 73 75 75 76
REMARK SMILES IDX 72 77 68 78 69 79 70 80 71 81 50 82 51 83 59 84 52 85 58 86
REMARK SMILES IDX 60 87 57 88 53 89 54 90 55 91 56 92
REMARK H PARENT 7 13 80 45 48 56
REMARK Flexibility Score: inf
ROOT
ATOM      1  C   UNL     1       3.331   2.181  -1.813  1.00  0.00     0.275 C 
ENDROOT
BRANCH   1   2
ATOM      2  O   UNL     1       4.205   2.468  -0.672  1.00  0.00    -0.458 OA
BRANCH   2   3
ATOM      3  C   UNL     1       3.678   2.663   0.556  1.00  0.00     0.342 C 
ATOM      4  O   UNL     1       2.455   2.628   0.725  1.00  0.00    -0.246 OA
BRANCH   3   5
ATOM      5  C   UNL     1       4.592   2.803   1.669  1.00  0.00     0.111 A 
ATOM      6  C   UNL     1       4.454   3.486   2.943  1.00  0.00     0.165 A 
ATOM      7  N   UNL     1       5.511   3.196   3.734  1.00  0.00    -0.167 NA
ATOM      8  N   UNL     1       6.328   2.465   2.979  1.00  0.00    -0.274 N 
ATOM      9  C   UNL     1       5.853   2.224   1.729  1.00  0.00     0.125 A 
ATOM     10  C   UNL     1       7.540   1.958   3.575  1.00  0.00     0.173 C 
BRANCH   6  11
ATOM     11  C   UNL     1       3.501   4.503   3.455  1.00  0.00     0.277 C 
ATOM     12  N   UNL     1       2.131   4.355   3.514  1.00  0.00    -0.320 N 
ATOM     13  H   UNL     1       1.660   5.159   3.833  1.00  0.00     0.170 HD
ATOM     14  O   UNL     1       3.926   5.598   3.848  1.00  0.00    -0.267 OA
BRANCH  12  15
ATOM     15  C   UNL     1       1.279   3.288   3.208  1.00  0.00     0.044 A 
ATOM     16  C   UNL     1      -0.047   1.291   1.791  1.00  0.00     0.119 A 
ATOM     17  C   UNL     1       1.067   0.966   2.562  1.00  0.00     0.048 A 
ATOM     18  C   UNL     1      -0.635   2.547   1.938  1.00  0.00     0.052 A 
ATOM     19  C   UNL     1       1.728   1.966   3.276  1.00  0.00     0.030 A 
ATOM     20  C   UNL     1       0.001   3.562   2.682  1.00  0.00    -0.024 A 
ATOM     21  C   UNL     1      -0.696   4.900   2.763  1.00  0.00     0.047 C 
BRANCH  16  22
ATOM     22  O   UNL     1      -0.591   0.454   0.853  1.00  0.00    -0.497 OA
ATOM     23  C   UNL     1       0.376  -0.321   0.140  1.00  0.00     0.278 C 
ENDBRANCH  16  22
ENDBRANCH  12  15
ENDBRANCH   6  11
ENDBRANCH   3   5
ENDBRANCH   2   3
ENDBRANCH   1   2
BRANCH   1  24
ATOM     24  C   UNL     1       1.784   2.465  -1.850  1.00  0.00     0.275 C 
BRANCH  24  25
ATOM     25  O   UNL     1       1.256   3.804  -1.954  1.00  0.00    -0.458 OA
BRANCH  25  26
ATOM     26  C   UNL     1       1.377   4.611  -0.873  1.00  0.00     0.338 C 
ATOM     27  O   UNL     1       0.580   4.693   0.049  1.00  0.00    -0.246 OA
BRANCH  26  28
ATOM     28  C   UNL     1       2.689   5.252  -0.913  1.00  0.00     0.060 A 
ATOM     29  C   UNL     1       3.310   5.735   0.252  1.00  0.00     0.016 A 
ATOM     30  C   UNL     1       3.378   5.116  -2.116  1.00  0.00     0.016 A 
ATOM     31  C   UNL     1       4.652   6.075   0.208  1.00  0.00     0.010 A 
ATOM     32  C   UNL     1       4.730   5.202  -2.103  1.00  0.00     0.010 A 
ATOM     33  C   UNL     1       5.313   5.840  -0.997  1.00  0.00    -0.014 A 
BRANCH  33  34
ATOM     34  C   UNL     1       6.314   6.753  -1.516  1.00  0.00     0.031 A 
ATOM     35  C   UNL     1       7.668   6.228  -1.717  1.00  0.00     0.074 A 
ATOM     36  C   UNL     1       5.637   7.719  -2.196  1.00  0.00     0.049 A 
ATOM     37  N   UNL     1       8.728   6.942  -1.827  1.00  0.00    -0.248 NA
ATOM     38  C   UNL     1       7.962   4.783  -1.741  1.00  0.00     0.031 C 
ATOM     39  C   UNL     1       5.880   8.401  -3.454  1.00  0.00     0.029 A 
ATOM     40  N   UNL     1       4.383   8.220  -1.831  1.00  0.00    -0.354 N 
ATOM     41  C   UNL     1       9.641   6.118  -2.452  1.00  0.00     0.074 A 
ATOM     42  C   UNL     1       9.241   4.771  -2.131  1.00  0.00     0.031 C 
ATOM     43  C   UNL     1       4.997   9.420  -3.575  1.00  0.00     0.029 A 
ATOM     44  C   UNL     1       4.189   9.483  -2.359  1.00  0.00     0.049 A 
ATOM     45  H   UNL     1       3.729   7.739  -1.274  1.00  0.00     0.167 HD
ATOM     46  C   UNL     1      10.373   6.606  -3.494  1.00  0.00     0.034 A 
ATOM     47  C   UNL     1       4.172  10.480  -1.425  1.00  0.00     0.034 A 
ATOM     48  C   UNL     1       9.897   7.949  -3.845  1.00  0.00     0.049 A 
ATOM     49  C   UNL     1       5.546  11.109  -1.365  1.00  0.00     0.074 A 
ATOM     50  C   UNL     1       9.107   8.419  -4.883  1.00  0.00     0.029 A 
ATOM     51  N   UNL     1       9.896   8.948  -2.880  1.00  0.00    -0.354 N 
ATOM     52  N   UNL     1       6.630  10.534  -1.818  1.00  0.00    -0.248 NA
ATOM     53  C   UNL     1       5.787  12.472  -0.917  1.00  0.00     0.031 C 
ATOM     54  C   UNL     1       8.585   9.688  -4.497  1.00  0.00     0.029 A 
ATOM     55  C   UNL     1       9.029   9.970  -3.216  1.00  0.00     0.049 A 
ATOM     56  H   UNL     1      10.443   8.931  -2.061  1.00  0.00     0.167 HD
ATOM     57  C   UNL     1       7.661  11.420  -1.827  1.00  0.00     0.074 A 
ATOM     58  C   UNL     1       7.084  12.622  -1.239  1.00  0.00     0.031 C 
ATOM     59  C   UNL     1       8.898  11.114  -2.328  1.00  0.00     0.034 A 
BRANCH  46  60
ATOM     60  C   UNL     1      11.225   5.767  -4.413  1.00  0.00     0.023 A 
ATOM     61  C   UNL     1      11.452   6.207  -5.732  1.00  0.00     0.031 A 
ATOM     62  C   UNL     1      11.893   4.581  -4.046  1.00  0.00     0.131 A 
ATOM     63  C   UNL     1      12.245   5.476  -6.631  1.00  0.00     0.055 A 
ATOM     64  C   UNL     1      12.658   3.830  -4.952  1.00  0.00     0.041 A 
ATOM     65  F   UNL     1      11.870   4.126  -2.784  1.00  0.00    -0.206 F 
ATOM     66  C   UNL     1      12.838   4.277  -6.255  1.00  0.00     0.022 A 
BRANCH  63  67
ATOM     67  S   UNL     1      12.527   6.160  -8.286  1.00  0.00     0.124 S 
ATOM     68  O   UNL     1      11.189   6.114  -8.866  1.00  0.00    -0.237 OA
ATOM     69  O   UNL     1      13.056   7.487  -7.989  1.00  0.00    -0.237 OA
ATOM     70  O   UNL     1      13.491   5.231  -8.875  1.00  0.00    -0.744 OA
ENDBRANCH  63  67
ENDBRANCH  46  60
BRANCH  47  71
ATOM     71  C   UNL     1       3.252  10.140  -0.275  1.00  0.00     0.023 A 
ATOM     72  C   UNL     1       1.892   9.919  -0.610  1.00  0.00     0.031 A 
ATOM     73  C   UNL     1       3.683   9.653   0.970  1.00  0.00     0.131 A 
ATOM     74  C   UNL     1       1.057   9.130   0.199  1.00  0.00     0.055 A 
ATOM     75  C   UNL     1       2.833   8.893   1.799  1.00  0.00     0.041 A 
ATOM     76  F   UNL     1       4.958   9.802   1.358  1.00  0.00    -0.206 F 
ATOM     77  C   UNL     1       1.528   8.593   1.396  1.00  0.00     0.022 A 
BRANCH  74  78
ATOM     78  S   UNL     1      -0.574   8.630  -0.443  1.00  0.00     0.124 S 
ATOM     79  O   UNL     1      -1.447   9.659   0.111  1.00  0.00    -0.237 OA
ATOM     80  O   UNL     1      -0.382   8.669  -1.890  1.00  0.00    -0.237 OA
ATOM     81  O   UNL     1      -0.759   7.297   0.116  1.00  0.00    -0.744 OA
ENDBRANCH  74  78
ENDBRANCH  47  71
BRANCH  59  82
ATOM     82  C   UNL     1      10.129  11.924  -2.049  1.00  0.00     0.023 A 
ATOM     83  C   UNL     1      10.192  12.803  -0.969  1.00  0.00     0.031 A 
ATOM     84  C   UNL     1      11.321  11.757  -2.792  1.00  0.00     0.131 A 
ATOM     85  C   UNL     1      11.329  13.581  -0.748  1.00  0.00     0.055 A 
ATOM     86  C   UNL     1      12.504  12.422  -2.474  1.00  0.00     0.041 A 
ATOM     87  F   UNL     1      11.395  10.936  -3.850  1.00  0.00    -0.206 F 
ATOM     88  C   UNL     1      12.504  13.370  -1.464  1.00  0.00     0.022 A 
BRANCH  85  89
ATOM     89  S   UNL     1      11.158  14.972   0.387  1.00  0.00     0.124 S 
ATOM     90  O   UNL     1      10.100  15.748  -0.256  1.00  0.00    -0.237 OA
ATOM     91  O   UNL     1      10.790  14.317   1.637  1.00  0.00    -0.237 OA
ATOM     92  O   UNL     1      12.481  15.591   0.369  1.00  0.00    -0.744 OA
ENDBRANCH  85  89
ENDBRANCH  59  82
ENDBRANCH  33  34
ENDBRANCH  26  28
ENDBRANCH  25  26
ENDBRANCH  24  25
ENDBRANCH   1  24
TORSDOF 17
