REMARK SMILES O=C(/C=C/N[C@@H](Cc1c[nH]c2ccccc12)C(=O)OCCOC(=O)c1ccc(-c2c3nc(c(-c4cc(S(=O)(=O)[O-])ccc4F)c4ccc([nH]4)c(-c4cc(S(=O)(=O)[O-])ccc4F)c4nc(c(-c5cc(S(=O)(=O)[O-])ccc5F)c5ccc2[nH]5)C=C4)C=C3)cc1)c1ccccc1
REMARK SMILES IDX 20 1 19 2 17 3 18 4 6 5 5 6 4 8 3 9 2 10 1 11 88 12 89 13
REMARK SMILES IDX 93 14 90 15 92 16 91 17 7 18 8 19 9 20 16 21 10 22 11 23
REMARK SMILES IDX 15 24 12 26 14 27 13 28 21 29 22 30 23 31 24 32 25 33 26 34
REMARK SMILES IDX 87 35 27 36 86 37 28 38 29 39 30 40 80 41 31 42 85 43 79 44
REMARK SMILES IDX 81 45 32 46 84 47 78 48 77 49 33 51 65 52 45 53 64 54 46 55
REMARK SMILES IDX 49 56 63 57 82 58 47 59 48 60 62 62 83 63 50 64 34 65 35 66
REMARK SMILES IDX 43 67 36 68 42 69 44 70 41 71 37 72 38 73 39 74 40 75 66 76
REMARK SMILES IDX 67 77 75 78 68 79 74 80 76 81 73 82 69 83 70 84 71 85 72 86
REMARK SMILES IDX 51 87 52 88 60 89 53 90 59 91 61 92 58 93 54 94 55 95 56 96
REMARK SMILES IDX 57 97
REMARK H PARENT 5 7 10 25 81 50 49 61
REMARK Flexibility Score: inf
ROOT
ATOM      1  C   UNL     1       7.452  -4.747  -2.957  1.00  0.00     0.274 C 
ENDROOT
BRANCH   1   2
ATOM      2  O   UNL     1       6.832  -4.141  -1.812  1.00  0.00    -0.461 OA
BRANCH   2   3
ATOM      3  C   UNL     1       7.653  -3.588  -0.868  1.00  0.00     0.329 C 
ATOM      4  O   UNL     1       8.877  -3.646  -0.881  1.00  0.00    -0.250 OA
BRANCH   3   5
ATOM      5  C   UNL     1       6.838  -2.891   0.240  1.00  0.00     0.194 C 
BRANCH   5   6
ATOM      6  N   UNL     1       5.496  -2.530  -0.246  1.00  0.00    -0.378 N 
ATOM      7  H   UNL     1       5.106  -3.138  -0.915  1.00  0.00     0.160 HD
BRANCH   6   8
ATOM      8  C   UNL     1       4.720  -1.460   0.110  1.00  0.00     0.082 C 
ATOM      9  C   UNL     1       3.494  -1.210  -0.367  1.00  0.00     0.070 C 
BRANCH   9  10
ATOM     10  C   UNL     1       2.670  -0.048   0.051  1.00  0.00     0.187 C 
ATOM     11  O   UNL     1       1.470  -0.212   0.258  1.00  0.00    -0.289 OA
BRANCH  10  12
ATOM     12  C   UNL     1       3.305   1.286   0.220  1.00  0.00     0.022 A 
ATOM     13  C   UNL     1       4.416   1.674  -0.540  1.00  0.00     0.012 A 
ATOM     14  C   UNL     1       2.753   2.179   1.144  1.00  0.00     0.012 A 
ATOM     15  C   UNL     1       5.002   2.922  -0.331  1.00  0.00     0.001 A 
ATOM     16  C   UNL     1       3.333   3.434   1.335  1.00  0.00     0.001 A 
ATOM     17  C   UNL     1       4.462   3.800   0.605  1.00  0.00     0.000 A 
ENDBRANCH  10  12
ENDBRANCH   9  10
ENDBRANCH   6   8
ENDBRANCH   5   6
BRANCH   5  18
ATOM     18  C   UNL     1       6.784  -3.766   1.501  1.00  0.00     0.074 C 
BRANCH  18  19
ATOM     19  C   UNL     1       6.372  -5.186   1.242  1.00  0.00    -0.020 A 
ATOM     20  C   UNL     1       7.218  -6.277   1.187  1.00  0.00     0.087 A 
ATOM     21  C   UNL     1       5.059  -5.663   0.932  1.00  0.00     0.003 A 
ATOM     22  N   UNL     1       6.485  -7.369   0.812  1.00  0.00    -0.361 N 
ATOM     23  C   UNL     1       5.173  -7.015   0.609  1.00  0.00     0.046 A 
ATOM     24  C   UNL     1       3.789  -5.058   0.847  1.00  0.00     0.010 A 
ATOM     25  H   UNL     1       6.846  -8.279   0.703  1.00  0.00     0.166 HD
ATOM     26  C   UNL     1       4.088  -7.778   0.162  1.00  0.00     0.026 A 
ATOM     27  C   UNL     1       2.696  -5.800   0.392  1.00  0.00     0.001 A 
ATOM     28  C   UNL     1       2.849  -7.139   0.045  1.00  0.00     0.002 A 
ENDBRANCH  18  19
ENDBRANCH   5  18
ENDBRANCH   3   5
ENDBRANCH   2   3
ENDBRANCH   1   2
BRANCH   1  29
ATOM     29  C   UNL     1       7.016  -4.013  -4.225  1.00  0.00     0.275 C 
BRANCH  29  30
ATOM     30  O   UNL     1       7.467  -2.647  -4.189  1.00  0.00    -0.458 OA
BRANCH  30  31
ATOM     31  C   UNL     1       6.543  -1.750  -3.765  1.00  0.00     0.338 C 
ATOM     32  O   UNL     1       5.372  -1.956  -3.505  1.00  0.00    -0.246 OA
BRANCH  31  33
ATOM     33  C   UNL     1       7.213  -0.459  -3.549  1.00  0.00     0.060 A 
ATOM     34  C   UNL     1       7.454  -0.049  -2.237  1.00  0.00     0.016 A 
ATOM     35  C   UNL     1       7.542   0.368  -4.622  1.00  0.00     0.016 A 
ATOM     36  C   UNL     1       8.011   1.201  -1.986  1.00  0.00     0.010 A 
ATOM     37  C   UNL     1       8.112   1.620  -4.370  1.00  0.00     0.010 A 
ATOM     38  C   UNL     1       8.333   2.053  -3.049  1.00  0.00    -0.014 A 
BRANCH  38  39
ATOM     39  C   UNL     1       8.834   3.422  -2.772  1.00  0.00     0.031 A 
ATOM     40  C   UNL     1       7.936   4.605  -3.010  1.00  0.00     0.074 A 
ATOM     41  C   UNL     1      10.074   3.601  -2.277  1.00  0.00     0.049 A 
ATOM     42  N   UNL     1       8.188   5.879  -2.865  1.00  0.00    -0.248 NA
ATOM     43  C   UNL     1       6.566   4.309  -3.458  1.00  0.00     0.031 C 
ATOM     44  C   UNL     1      11.015   2.527  -1.954  1.00  0.00     0.029 A 
ATOM     45  N   UNL     1      10.758   4.749  -1.965  1.00  0.00    -0.354 N 
ATOM     46  C   UNL     1       7.011   6.541  -3.198  1.00  0.00     0.074 A 
ATOM     47  C   UNL     1       6.051   5.524  -3.574  1.00  0.00     0.031 C 
ATOM     48  C   UNL     1      12.155   3.068  -1.496  1.00  0.00     0.029 A 
ATOM     49  C   UNL     1      12.047   4.524  -1.543  1.00  0.00     0.049 A 
ATOM     50  H   UNL     1      10.363   5.648  -2.037  1.00  0.00     0.167 HD
ATOM     51  C   UNL     1       6.755   7.872  -3.189  1.00  0.00     0.034 A 
ATOM     52  C   UNL     1      13.040   5.392  -1.264  1.00  0.00     0.034 A 
ATOM     53  C   UNL     1       7.734   8.877  -2.852  1.00  0.00     0.049 A 
ATOM     54  C   UNL     1      12.769   6.871  -1.386  1.00  0.00     0.074 A 
ATOM     55  C   UNL     1       7.587  10.253  -2.831  1.00  0.00     0.029 A 
ATOM     56  N   UNL     1       9.051   8.614  -2.497  1.00  0.00    -0.354 N 
ATOM     57  N   UNL     1      11.653   7.482  -1.712  1.00  0.00    -0.248 NA
ATOM     58  C   UNL     1      13.892   7.775  -1.104  1.00  0.00     0.031 C 
ATOM     59  C   UNL     1       8.831  10.822  -2.532  1.00  0.00     0.029 A 
ATOM     60  C   UNL     1       9.737   9.802  -2.293  1.00  0.00     0.049 A 
ATOM     61  H   UNL     1       9.441   7.715  -2.404  1.00  0.00     0.167 HD
ATOM     62  C   UNL     1      11.936   8.844  -1.651  1.00  0.00     0.074 A 
ATOM     63  C   UNL     1      13.321   8.963  -1.244  1.00  0.00     0.031 C 
ATOM     64  C   UNL     1      11.124   9.902  -1.904  1.00  0.00     0.034 A 
BRANCH  51  65
ATOM     65  C   UNL     1       5.379   8.309  -3.626  1.00  0.00     0.023 A 
ATOM     66  C   UNL     1       4.233   8.001  -2.873  1.00  0.00     0.031 A 
ATOM     67  C   UNL     1       5.208   9.008  -4.834  1.00  0.00     0.131 A 
ATOM     68  C   UNL     1       2.963   8.335  -3.367  1.00  0.00     0.055 A 
ATOM     69  C   UNL     1       3.947   9.398  -5.286  1.00  0.00     0.041 A 
ATOM     70  F   UNL     1       6.266   9.307  -5.605  1.00  0.00    -0.206 F 
ATOM     71  C   UNL     1       2.813   9.050  -4.558  1.00  0.00     0.022 A 
BRANCH  68  72
ATOM     72  S   UNL     1       1.500   7.710  -2.495  1.00  0.00     0.124 S 
ATOM     73  O   UNL     1       1.695   6.266  -2.598  1.00  0.00    -0.237 OA
ATOM     74  O   UNL     1       1.657   8.284  -1.164  1.00  0.00    -0.237 OA
ATOM     75  O   UNL     1       0.384   8.240  -3.276  1.00  0.00    -0.744 OA
ENDBRANCH  68  72
ENDBRANCH  51  65
BRANCH  52  76
ATOM     76  C   UNL     1      14.401   4.895  -0.909  1.00  0.00     0.023 A 
ATOM     77  C   UNL     1      14.969   5.160   0.346  1.00  0.00     0.031 A 
ATOM     78  C   UNL     1      15.175   4.189  -1.848  1.00  0.00     0.131 A 
ATOM     79  C   UNL     1      16.287   4.757   0.615  1.00  0.00     0.055 A 
ATOM     80  C   UNL     1      16.466   3.746  -1.558  1.00  0.00     0.041 A 
ATOM     81  F   UNL     1      14.680   3.913  -3.066  1.00  0.00    -0.206 F 
ATOM     82  C   UNL     1      17.034   4.040  -0.323  1.00  0.00     0.022 A 
BRANCH  79  83
ATOM     83  S   UNL     1      17.046   5.255   2.186  1.00  0.00     0.124 S 
ATOM     84  O   UNL     1      16.942   6.708   2.120  1.00  0.00    -0.237 OA
ATOM     85  O   UNL     1      16.184   4.593   3.160  1.00  0.00    -0.237 OA
ATOM     86  O   UNL     1      18.403   4.720   2.093  1.00  0.00    -0.744 OA
ENDBRANCH  79  83
ENDBRANCH  52  76
BRANCH  64  87
ATOM     87  C   UNL     1      11.713  11.277  -1.706  1.00  0.00     0.023 A 
ATOM     88  C   UNL     1      12.719  11.778  -2.549  1.00  0.00     0.031 A 
ATOM     89  C   UNL     1      11.270  12.088  -0.646  1.00  0.00     0.131 A 
ATOM     90  C   UNL     1      13.287  13.034  -2.287  1.00  0.00     0.055 A 
ATOM     91  C   UNL     1      11.799  13.359  -0.424  1.00  0.00     0.041 A 
ATOM     92  F   UNL     1      10.312  11.656   0.191  1.00  0.00    -0.206 F 
ATOM     93  C   UNL     1      12.822  13.834  -1.239  1.00  0.00     0.022 A 
BRANCH  90  94
ATOM     94  S   UNL     1      14.701  13.577  -3.285  1.00  0.00     0.124 S 
ATOM     95  O   UNL     1      15.674  12.520  -3.032  1.00  0.00    -0.237 OA
ATOM     96  O   UNL     1      14.138  13.616  -4.631  1.00  0.00    -0.237 OA
ATOM     97  O   UNL     1      15.040  14.881  -2.719  1.00  0.00    -0.744 OA
ENDBRANCH  90  94
ENDBRANCH  64  87
ENDBRANCH  38  39
ENDBRANCH  31  33
ENDBRANCH  30  31
ENDBRANCH  29  30
ENDBRANCH   1  29
TORSDOF 20
