REMARK SMILES CN1C(=O)C[C@@H](C(=O)OCCOC(=O)c2ccc(-c3c4nc(c(-c5cc(S(=O)(=O)[O-])ccc5F)c5ccc([nH]5)c(-c5cc(S(=O)(=O)[O-])ccc5F)c5nc(c(-c6cc(S(=O)(=O)[O-])ccc6F)c6ccc3[nH]6)C=C5)C=C4)cc2)C12CCN(C(=O)c1ccccc1-n1cccn1)CC2
REMARK SMILES IDX 11 1 10 2 9 3 7 4 8 5 6 6 1 7 2 8 3 9 78 10 4 11 5 12 79 13
REMARK SMILES IDX 96 14 80 15 95 16 81 17 82 18 83 19 84 20 85 21 89 22 86 23
REMARK SMILES IDX 88 24 87 25 90 26 91 27 94 28 92 29 93 30 12 31 13 32 14 33
REMARK SMILES IDX 15 34 16 35 77 36 17 37 76 38 18 39 19 40 20 41 70 42 21 43
REMARK SMILES IDX 75 44 69 45 71 46 22 47 74 48 68 49 67 50 23 52 55 53 35 54
REMARK SMILES IDX 54 55 36 56 39 57 53 58 72 59 37 60 38 61 52 63 73 64 40 65
REMARK SMILES IDX 24 66 25 67 33 68 26 69 32 70 34 71 31 72 27 73 28 74 29 75
REMARK SMILES IDX 30 76 56 77 57 78 65 79 58 80 64 81 66 82 63 83 59 84 60 85
REMARK SMILES IDX 61 86 62 87 41 88 42 89 50 90 43 91 49 92 51 93 48 94 44 95
REMARK SMILES IDX 45 96 46 97 47 98
REMARK H PARENT 71 51 39 62
REMARK Flexibility Score: inf
ROOT
ATOM      1  C   UNL     1      -0.382  -0.759  -6.540  1.00  0.00     0.275 C 
ENDROOT
BRANCH   1   2
ATOM      2  C   UNL     1       0.743   0.036  -5.874  1.00  0.00     0.274 C 
BRANCH   2   3
ATOM      3  O   UNL     1       0.432   0.307  -4.490  1.00  0.00    -0.462 OA
BRANCH   3   4
ATOM      4  C   UNL     1      -0.179   1.487  -4.254  1.00  0.00     0.311 C 
ATOM      5  O   UNL     1      -0.382   2.335  -5.120  1.00  0.00    -0.252 OA
BRANCH   4   6
ATOM      6  C   UNL     1      -0.597   1.737  -2.814  1.00  0.00     0.134 C 
ATOM      7  C   UNL     1       1.492   0.029  -0.205  1.00  0.00     0.147 C 
ATOM      8  N   UNL     1       0.846   0.881  -1.184  1.00  0.00    -0.339 N 
ATOM      9  C   UNL     1       1.345   2.138  -1.493  1.00  0.00     0.223 C 
ATOM     10  C   UNL     1      -0.517   0.660  -1.698  1.00  0.00     0.060 C 
ATOM     11  O   UNL     1       2.408   2.612  -1.122  1.00  0.00    -0.275 OA
ATOM     12  C   UNL     1       0.320   2.865  -2.316  1.00  0.00     0.118 C 
ATOM     13  C   UNL     1      -0.762  -0.806  -2.112  1.00  0.00     0.051 C 
ATOM     14  C   UNL     1      -1.547   1.000  -0.566  1.00  0.00     0.051 C 
ATOM     15  C   UNL     1      -2.208  -1.068  -2.506  1.00  0.00     0.122 C 
ATOM     16  C   UNL     1      -2.994   0.616  -0.897  1.00  0.00     0.122 C 
ATOM     17  N   UNL     1      -3.087  -0.755  -1.387  1.00  0.00    -0.338 N 
ATOM     18  C   UNL     1      -4.056  -1.601  -0.836  1.00  0.00     0.256 C 
ATOM     19  O   UNL     1      -4.807  -1.253   0.070  1.00  0.00    -0.269 OA
BRANCH  18  20
ATOM     20  C   UNL     1      -4.211  -2.982  -1.350  1.00  0.00     0.065 A 
ATOM     21  C   UNL     1      -5.419  -3.260  -2.010  1.00  0.00     0.016 A 
ATOM     22  C   UNL     1      -3.214  -3.968  -1.282  1.00  0.00     0.077 A 
ATOM     23  C   UNL     1      -5.602  -4.480  -2.664  1.00  0.00     0.001 A 
ATOM     24  C   UNL     1      -3.382  -5.167  -2.000  1.00  0.00     0.029 A 
ATOM     25  C   UNL     1      -4.574  -5.420  -2.682  1.00  0.00     0.002 A 
BRANCH  22  26
ATOM     26  N   UNL     1      -2.044  -3.817  -0.497  1.00  0.00    -0.240 N 
ATOM     27  C   UNL     1      -1.868  -3.078   0.655  1.00  0.00     0.115 A 
ATOM     28  N   UNL     1      -0.893  -4.465  -0.836  1.00  0.00    -0.177 NA
ATOM     29  C   UNL     1      -0.546  -3.187   1.014  1.00  0.00     0.042 A 
ATOM     30  C   UNL     1       0.006  -4.043   0.052  1.00  0.00     0.135 A 
ENDBRANCH  22  26
ENDBRANCH  18  20
ENDBRANCH   4   6
ENDBRANCH   3   4
ENDBRANCH   2   3
ENDBRANCH   1   2
BRANCH   1  31
ATOM     31  O   UNL     1      -1.634  -0.069  -6.376  1.00  0.00    -0.458 OA
BRANCH  31  32
ATOM     32  C   UNL     1      -2.692  -0.845  -6.042  1.00  0.00     0.338 C 
ATOM     33  O   UNL     1      -2.697  -2.062  -5.955  1.00  0.00    -0.246 OA
BRANCH  32  34
ATOM     34  C   UNL     1      -3.876  -0.012  -5.723  1.00  0.00     0.060 A 
ATOM     35  C   UNL     1      -3.749   1.217  -5.069  1.00  0.00     0.016 A 
ATOM     36  C   UNL     1      -5.146  -0.529  -5.977  1.00  0.00     0.016 A 
ATOM     37  C   UNL     1      -4.880   1.894  -4.613  1.00  0.00     0.010 A 
ATOM     38  C   UNL     1      -6.280   0.203  -5.615  1.00  0.00     0.010 A 
ATOM     39  C   UNL     1      -6.161   1.418  -4.917  1.00  0.00    -0.014 A 
BRANCH  39  40
ATOM     40  C   UNL     1      -7.379   2.201  -4.569  1.00  0.00     0.031 A 
ATOM     41  C   UNL     1      -8.469   1.590  -3.730  1.00  0.00     0.074 A 
ATOM     42  C   UNL     1      -7.544   3.436  -5.083  1.00  0.00     0.049 A 
ATOM     43  N   UNL     1      -9.695   2.000  -3.535  1.00  0.00    -0.248 NA
ATOM     44  C   UNL     1      -8.136   0.335  -3.042  1.00  0.00     0.031 C 
ATOM     45  C   UNL     1      -6.562   4.151  -5.902  1.00  0.00     0.029 A 
ATOM     46  N   UNL     1      -8.611   4.298  -5.020  1.00  0.00    -0.354 N 
ATOM     47  C   UNL     1     -10.304   1.027  -2.748  1.00  0.00     0.074 A 
ATOM     48  C   UNL     1      -9.306   0.001  -2.515  1.00  0.00     0.031 C 
ATOM     49  C   UNL     1      -7.070   5.335  -6.267  1.00  0.00     0.029 A 
ATOM     50  C   UNL     1      -8.443   5.427  -5.788  1.00  0.00     0.049 A 
ATOM     51  H   UNL     1      -9.415   4.126  -4.479  1.00  0.00     0.167 HD
ATOM     52  C   UNL     1     -11.577   0.996  -2.275  1.00  0.00     0.034 A 
ATOM     53  C   UNL     1      -9.309   6.399  -6.133  1.00  0.00     0.034 A 
ATOM     54  C   UNL     1     -12.541   2.052  -2.494  1.00  0.00     0.049 A 
ATOM     55  C   UNL     1     -10.720   6.335  -5.623  1.00  0.00     0.074 A 
ATOM     56  C   UNL     1     -13.831   2.159  -1.999  1.00  0.00     0.029 A 
ATOM     57  N   UNL     1     -12.329   3.181  -3.278  1.00  0.00    -0.354 N 
ATOM     58  N   UNL     1     -11.289   5.407  -4.891  1.00  0.00    -0.248 NA
ATOM     59  C   UNL     1     -11.602   7.449  -5.988  1.00  0.00     0.031 C 
ATOM     60  C   UNL     1     -14.419   3.308  -2.541  1.00  0.00     0.029 A 
ATOM     61  C   UNL     1     -13.474   3.965  -3.312  1.00  0.00     0.049 A 
ATOM     62  H   UNL     1     -11.487   3.393  -3.742  1.00  0.00     0.167 HD
ATOM     63  C   UNL     1     -12.600   5.830  -4.700  1.00  0.00     0.074 A 
ATOM     64  C   UNL     1     -12.728   7.105  -5.378  1.00  0.00     0.031 C 
ATOM     65  C   UNL     1     -13.604   5.219  -4.020  1.00  0.00     0.034 A 
BRANCH  52  66
ATOM     66  C   UNL     1     -12.018  -0.248  -1.534  1.00  0.00     0.023 A 
ATOM     67  C   UNL     1     -11.421  -0.663  -0.331  1.00  0.00     0.031 A 
ATOM     68  C   UNL     1     -13.042  -1.054  -2.066  1.00  0.00     0.131 A 
ATOM     69  C   UNL     1     -11.792  -1.887   0.250  1.00  0.00     0.055 A 
ATOM     70  C   UNL     1     -13.466  -2.226  -1.437  1.00  0.00     0.041 A 
ATOM     71  F   UNL     1     -13.639  -0.726  -3.223  1.00  0.00    -0.206 F 
ATOM     72  C   UNL     1     -12.828  -2.659  -0.280  1.00  0.00     0.022 A 
BRANCH  69  73
ATOM     73  S   UNL     1     -10.790  -2.540   1.615  1.00  0.00     0.124 S 
ATOM     74  O   UNL     1      -9.472  -2.623   0.992  1.00  0.00    -0.237 OA
ATOM     75  O   UNL     1     -10.954  -1.518   2.643  1.00  0.00    -0.237 OA
ATOM     76  O   UNL     1     -11.412  -3.829   1.911  1.00  0.00    -0.744 OA
ENDBRANCH  69  73
ENDBRANCH  52  66
BRANCH  53  77
ATOM     77  C   UNL     1      -8.872   7.468  -7.072  1.00  0.00     0.023 A 
ATOM     78  C   UNL     1      -8.707   8.791  -6.641  1.00  0.00     0.031 A 
ATOM     79  C   UNL     1      -8.582   7.164  -8.415  1.00  0.00     0.131 A 
ATOM     80  C   UNL     1      -8.278   9.770  -7.551  1.00  0.00     0.055 A 
ATOM     81  C   UNL     1      -8.113   8.131  -9.304  1.00  0.00     0.041 A 
ATOM     82  F   UNL     1      -8.714   5.908  -8.870  1.00  0.00    -0.206 F 
ATOM     83  C   UNL     1      -7.964   9.445  -8.874  1.00  0.00     0.022 A 
BRANCH  80  84
ATOM     84  S   UNL     1      -8.162  11.489  -6.987  1.00  0.00     0.124 S 
ATOM     85  O   UNL     1      -9.546  11.778  -6.631  1.00  0.00    -0.237 OA
ATOM     86  O   UNL     1      -7.223  11.381  -5.876  1.00  0.00    -0.237 OA
ATOM     87  O   UNL     1      -7.657  12.198  -8.160  1.00  0.00    -0.744 OA
ENDBRANCH  80  84
ENDBRANCH  53  77
BRANCH  65  88
ATOM     88  C   UNL     1     -14.922   5.951  -3.959  1.00  0.00     0.023 A 
ATOM     89  C   UNL     1     -15.718   6.139  -5.104  1.00  0.00     0.031 A 
ATOM     90  C   UNL     1     -15.372   6.498  -2.744  1.00  0.00     0.131 A 
ATOM     91  C   UNL     1     -16.892   6.903  -5.020  1.00  0.00     0.055 A 
ATOM     92  C   UNL     1     -16.570   7.207  -2.656  1.00  0.00     0.041 A 
ATOM     93  F   UNL     1     -14.649   6.355  -1.622  1.00  0.00    -0.206 F 
ATOM     94  C   UNL     1     -17.331   7.425  -3.801  1.00  0.00     0.022 A 
BRANCH  91  95
ATOM     95  S   UNL     1     -17.793   7.289  -6.548  1.00  0.00     0.124 S 
ATOM     96  O   UNL     1     -16.779   7.992  -7.327  1.00  0.00    -0.237 OA
ATOM     97  O   UNL     1     -18.167   5.965  -7.033  1.00  0.00    -0.237 OA
ATOM     98  O   UNL     1     -18.906   8.118  -6.089  1.00  0.00    -0.744 OA
ENDBRANCH  91  95
ENDBRANCH  65  88
ENDBRANCH  39  40
ENDBRANCH  32  34
ENDBRANCH  31  32
ENDBRANCH   1  31
TORSDOF 16
