REMARK SMILES C[C@H]1[C@H](C(=O)OCCOC(=O)c2ccc(-c3c4nc(c(-c5cc(S(=O)(=O)[O-])ccc5F)c5ccc([nH]5)c(-c5cc(S(=O)(=O)[O-])ccc5F)c5nc(c(-c6cc(S(=O)(=O)[O-])ccc6F)c6ccc3[nH]6)C=C5)C=C4)cc2)CC[N@@H+]1CC(=O)N1CCCC1
REMARK SMILES IDX 8 1 7 2 6 3 4 4 5 5 3 6 1 7 2 8 77 9 75 10 76 11 78 13 79 14
REMARK SMILES IDX 80 15 81 16 82 17 85 18 83 19 84 20 9 21 10 22 11 23 12 24
REMARK SMILES IDX 13 25 74 26 14 27 73 28 15 29 16 30 17 31 67 32 18 33 72 34
REMARK SMILES IDX 66 35 68 36 19 37 71 38 65 39 64 40 20 42 52 43 32 44 51 45
REMARK SMILES IDX 33 46 36 47 50 48 69 49 34 50 35 51 49 53 70 54 37 55 21 56
REMARK SMILES IDX 22 57 30 58 23 59 29 60 31 61 28 62 24 63 25 64 26 65 27 66
REMARK SMILES IDX 53 67 54 68 62 69 55 70 61 71 63 72 60 73 56 74 57 75 58 76
REMARK SMILES IDX 59 77 38 78 39 79 47 80 40 81 46 82 48 83 45 84 41 85 42 86
REMARK SMILES IDX 43 87 44 88
REMARK H PARENT 77 12 68 41 36 52
REMARK Flexibility Score: inf
ROOT
ATOM      1  C   UNL     1       0.489   4.231   3.059  1.00  0.00     0.275 C 
ENDROOT
BRANCH   1   2
ATOM      2  C   UNL     1      -0.864   3.717   2.562  1.00  0.00     0.274 C 
BRANCH   2   3
ATOM      3  O   UNL     1      -0.727   2.512   1.777  1.00  0.00    -0.462 OA
BRANCH   3   4
ATOM      4  C   UNL     1      -0.907   2.632   0.437  1.00  0.00     0.315 C 
ATOM      5  O   UNL     1      -1.161   3.688  -0.132  1.00  0.00    -0.252 OA
BRANCH   4   6
ATOM      6  C   UNL     1      -0.854   1.312  -0.309  1.00  0.00     0.162 C 
ATOM      7  C   UNL     1       1.324   0.140  -1.000  1.00  0.00     0.076 C 
ATOM      8  C   UNL     1       0.255   0.325   0.084  1.00  0.00     0.195 C 
ATOM      9  N   UNL     1      -0.395  -0.980   0.249  1.00  0.00    -0.324 N 
ATOM     10  C   UNL     1      -2.156   0.555  -0.090  1.00  0.00     0.083 C 
ATOM     11  C   UNL     1      -1.761  -0.895  -0.248  1.00  0.00     0.264 C 
ATOM     12  H   UNL     1       0.104  -1.652  -0.334  1.00  0.00     0.348 HD
BRANCH   9  13
ATOM     13  C   UNL     1      -0.209  -1.644   1.544  1.00  0.00     0.364 C 
BRANCH  13  14
ATOM     14  C   UNL     1      -0.899  -1.007   2.763  1.00  0.00     0.277 C 
ATOM     15  O   UNL     1      -2.106  -1.181   2.962  1.00  0.00    -0.268 OA
ATOM     16  N   UNL     1      -0.117  -0.331   3.682  1.00  0.00    -0.338 N 
ATOM     17  C   UNL     1       1.194   0.249   3.463  1.00  0.00     0.119 C 
ATOM     18  C   UNL     1      -0.632   0.043   4.986  1.00  0.00     0.119 C 
ATOM     19  C   UNL     1       1.685   0.666   4.835  1.00  0.00     0.023 C 
ATOM     20  C   UNL     1       0.395   1.007   5.569  1.00  0.00     0.023 C 
ENDBRANCH  13  14
ENDBRANCH   9  13
ENDBRANCH   4   6
ENDBRANCH   3   4
ENDBRANCH   2   3
ENDBRANCH   1   2
BRANCH   1  21
ATOM     21  O   UNL     1       1.280   4.706   1.965  1.00  0.00    -0.458 OA
BRANCH  21  22
ATOM     22  C   UNL     1       2.120   3.806   1.408  1.00  0.00     0.338 C 
ATOM     23  O   UNL     1       2.391   2.682   1.786  1.00  0.00    -0.246 OA
BRANCH  22  24
ATOM     24  C   UNL     1       2.550   4.373   0.134  1.00  0.00     0.060 A 
ATOM     25  C   UNL     1       1.977   3.877  -1.040  1.00  0.00     0.016 A 
ATOM     26  C   UNL     1       3.460   5.424   0.116  1.00  0.00     0.016 A 
ATOM     27  C   UNL     1       2.289   4.451  -2.258  1.00  0.00     0.010 A 
ATOM     28  C   UNL     1       3.767   6.008  -1.103  1.00  0.00     0.010 A 
ATOM     29  C   UNL     1       3.171   5.529  -2.285  1.00  0.00    -0.014 A 
BRANCH  29  30
ATOM     30  C   UNL     1       3.524   6.163  -3.561  1.00  0.00     0.031 A 
ATOM     31  C   UNL     1       4.877   5.891  -4.124  1.00  0.00     0.074 A 
ATOM     32  C   UNL     1       2.657   7.022  -4.122  1.00  0.00     0.049 A 
ATOM     33  N   UNL     1       5.524   6.524  -5.060  1.00  0.00    -0.248 NA
ATOM     34  C   UNL     1       5.612   4.765  -3.525  1.00  0.00     0.031 C 
ATOM     35  C   UNL     1       1.294   7.276  -3.647  1.00  0.00     0.029 A 
ATOM     36  N   UNL     1       2.804   7.866  -5.188  1.00  0.00    -0.354 N 
ATOM     37  C   UNL     1       6.761   5.898  -5.143  1.00  0.00     0.074 A 
ATOM     38  C   UNL     1       6.777   4.848  -4.147  1.00  0.00     0.031 C 
ATOM     39  C   UNL     1       0.741   8.238  -4.403  1.00  0.00     0.029 A 
ATOM     40  C   UNL     1       1.733   8.711  -5.362  1.00  0.00     0.049 A 
ATOM     41  H   UNL     1       3.597   7.869  -5.771  1.00  0.00     0.167 HD
ATOM     42  C   UNL     1       7.784   6.197  -5.977  1.00  0.00     0.034 A 
ATOM     43  C   UNL     1       1.605   9.782  -6.168  1.00  0.00     0.034 A 
ATOM     44  C   UNL     1       7.710   7.274  -6.933  1.00  0.00     0.049 A 
ATOM     45  C   UNL     1       2.784  10.143  -7.038  1.00  0.00     0.074 A 
ATOM     46  C   UNL     1       8.666   7.702  -7.834  1.00  0.00     0.029 A 
ATOM     47  N   UNL     1       6.603   8.103  -7.100  1.00  0.00    -0.354 N 
ATOM     48  N   UNL     1       3.967   9.571  -7.100  1.00  0.00    -0.248 NA
ATOM     49  C   UNL     1       2.619  11.286  -7.941  1.00  0.00     0.031 C 
ATOM     50  C   UNL     1       8.164   8.827  -8.495  1.00  0.00     0.029 A 
ATOM     51  C   UNL     1       6.861   9.052  -8.073  1.00  0.00     0.049 A 
ATOM     52  H   UNL     1       5.759   8.025  -6.599  1.00  0.00     0.167 HD
ATOM     53  C   UNL     1       4.671  10.258  -8.082  1.00  0.00     0.074 A 
ATOM     54  C   UNL     1       3.781  11.290  -8.579  1.00  0.00     0.031 C 
ATOM     55  C   UNL     1       5.932  10.055  -8.543  1.00  0.00     0.034 A 
BRANCH  42  56
ATOM     56  C   UNL     1       9.057   5.405  -5.824  1.00  0.00     0.023 A 
ATOM     57  C   UNL     1       9.094   4.013  -6.024  1.00  0.00     0.031 A 
ATOM     58  C   UNL     1      10.241   6.038  -5.405  1.00  0.00     0.131 A 
ATOM     59  C   UNL     1      10.260   3.292  -5.725  1.00  0.00     0.055 A 
ATOM     60  C   UNL     1      11.423   5.326  -5.193  1.00  0.00     0.041 A 
ATOM     61  F   UNL     1      10.262   7.359  -5.165  1.00  0.00    -0.206 F 
ATOM     62  C   UNL     1      11.433   3.942  -5.336  1.00  0.00     0.022 A 
BRANCH  59  63
ATOM     63  S   UNL     1      10.174   1.480  -5.695  1.00  0.00     0.124 S 
ATOM     64  O   UNL     1       9.160   1.250  -4.668  1.00  0.00    -0.237 OA
ATOM     65  O   UNL     1       9.781   1.159  -7.062  1.00  0.00    -0.237 OA
ATOM     66  O   UNL     1      11.529   1.078  -5.324  1.00  0.00    -0.744 OA
ENDBRANCH  59  63
ENDBRANCH  42  56
BRANCH  43  67
ATOM     67  C   UNL     1       0.357  10.595  -6.159  1.00  0.00     0.023 A 
ATOM     68  C   UNL     1      -0.450  10.689  -7.303  1.00  0.00     0.031 A 
ATOM     69  C   UNL     1      -0.045  11.306  -5.013  1.00  0.00     0.131 A 
ATOM     70  C   UNL     1      -1.592  11.505  -7.291  1.00  0.00     0.055 A 
ATOM     71  C   UNL     1      -1.212  12.073  -4.988  1.00  0.00     0.041 A 
ATOM     72  F   UNL     1       0.686  11.252  -3.888  1.00  0.00    -0.206 F 
ATOM     73  C   UNL     1      -1.987  12.186  -6.138  1.00  0.00     0.022 A 
BRANCH  70  74
ATOM     74  S   UNL     1      -2.509  11.734  -8.839  1.00  0.00     0.124 S 
ATOM     75  O   UNL     1      -1.468  12.239  -9.728  1.00  0.00    -0.237 OA
ATOM     76  O   UNL     1      -2.986  10.382  -9.111  1.00  0.00    -0.237 OA
ATOM     77  O   UNL     1      -3.546  12.699  -8.481  1.00  0.00    -0.744 OA
ENDBRANCH  70  74
ENDBRANCH  43  67
BRANCH  55  78
ATOM     78  C   UNL     1       6.384  10.913  -9.694  1.00  0.00     0.023 A 
ATOM     79  C   UNL     1       6.663  12.280  -9.538  1.00  0.00     0.031 A 
ATOM     80  C   UNL     1       6.581  10.328 -10.958  1.00  0.00     0.131 A 
ATOM     81  C   UNL     1       7.097  13.027 -10.642  1.00  0.00     0.055 A 
ATOM     82  C   UNL     1       7.066  11.064 -12.037  1.00  0.00     0.041 A 
ATOM     83  F   UNL     1       6.326   9.024 -11.154  1.00  0.00    -0.206 F 
ATOM     84  C   UNL     1       7.320  12.423 -11.884  1.00  0.00     0.022 A 
BRANCH  81  85
ATOM     85  S   UNL     1       7.318  14.816 -10.450  1.00  0.00     0.124 S 
ATOM     86  O   UNL     1       5.968  15.252 -10.108  1.00  0.00    -0.237 OA
ATOM     87  O   UNL     1       8.304  14.897  -9.377  1.00  0.00    -0.237 OA
ATOM     88  O   UNL     1       7.796  15.245 -11.763  1.00  0.00    -0.744 OA
ENDBRANCH  81  85
ENDBRANCH  55  78
ENDBRANCH  29  30
ENDBRANCH  22  24
ENDBRANCH  21  22
ENDBRANCH   1  21
TORSDOF 16
