REMARK SMILES Cc1cccc(N2CCN(c3ncc(NC(=O)c4ccccc4F)cc3C(=O)OCCOC(=O)c3ccc(-c4c5nc(c(-c6cc(S(=O)(=O)[O-])ccc6F)c6ccc([nH]6)c(-c6cc(S(=O)(=O)[O-])ccc6F)c6nc(c(-c7cc(S(=O)(=O)[O-])ccc7F)c7ccc4[nH]7)C=C6)C=C5)cc3)C[C@@H]2C)c1
REMARK SMILES IDX 31 1 30 2 29 3 27 4 28 5 26 6 11 7 12 8 13 9 25 10 14 11
REMARK SMILES IDX 10 12 7 13 8 14 99 15 9 16 98 17 100 18 6 19 1 20 2 21 3 22
REMARK SMILES IDX 101 23 4 24 5 25 15 26 16 27 17 29 18 30 19 31 23 32 20 33
REMARK SMILES IDX 22 34 24 35 21 36 32 37 33 38 34 39 35 40 36 41 97 42 37 43
REMARK SMILES IDX 96 44 38 45 39 46 40 47 90 48 41 49 95 50 89 51 91 52 42 53
REMARK SMILES IDX 94 54 88 55 87 56 43 58 75 59 55 60 74 61 56 62 59 63 73 64
REMARK SMILES IDX 92 65 57 66 58 67 72 69 93 70 60 71 44 72 45 73 53 74 46 75
REMARK SMILES IDX 52 76 54 77 51 78 47 79 48 80 49 81 50 82 76 83 77 84 85 85
REMARK SMILES IDX 78 86 84 87 86 88 83 89 79 90 80 91 81 92 82 93 61 94 62 95
REMARK SMILES IDX 70 96 63 97 69 98 71 99 68 100 64 101 65 102 66 103 67 104
REMARK H PARENT 15 28 91 57 59 68
REMARK Flexibility Score: inf
ROOT
ATOM      1  C   UNL     1      -4.481   6.706  -4.790  1.00  0.00     0.275 C 
ENDROOT
BRANCH   1   2
ATOM      2  C   UNL     1      -5.337   7.064  -3.553  1.00  0.00     0.275 C 
BRANCH   2   3
ATOM      3  O   UNL     1      -4.605   7.356  -2.328  1.00  0.00    -0.458 OA
BRANCH   3   4
ATOM      4  C   UNL     1      -5.145   6.761  -1.220  1.00  0.00     0.342 C 
ATOM      5  O   UNL     1      -6.226   6.171  -1.243  1.00  0.00    -0.246 OA
BRANCH   4   6
ATOM      6  C   UNL     1      -4.667   7.213   0.106  1.00  0.00     0.104 A 
ATOM      7  C   UNL     1      -3.783   6.668   1.089  1.00  0.00     0.143 A 
ATOM      8  N   UNL     1      -3.954   7.092   2.382  1.00  0.00    -0.236 NA
ATOM      9  C   UNL     1      -5.011   7.866   2.739  1.00  0.00     0.139 A 
ATOM     10  C   UNL     1      -5.690   8.102   0.519  1.00  0.00     0.047 A 
ATOM     11  C   UNL     1      -5.907   8.396   1.840  1.00  0.00     0.061 A 
BRANCH   7  12
ATOM     12  N   UNL     1      -2.843   5.610   0.976  1.00  0.00    -0.352 N 
ATOM     13  N   UNL     1      -0.836   3.417   1.201  1.00  0.00    -0.365 N 
ATOM     14  C   UNL     1      -1.878   3.570   2.231  1.00  0.00     0.138 C 
ATOM     15  C   UNL     1      -0.529   4.584   0.306  1.00  0.00     0.098 C 
ATOM     16  C   UNL     1      -2.742   4.840   2.250  1.00  0.00     0.139 C 
ATOM     17  C   UNL     1      -1.450   5.890   0.514  1.00  0.00     0.142 C 
ATOM     18  C   UNL     1      -0.540   4.221  -1.175  1.00  0.00     0.033 C 
BRANCH  13  19
ATOM     19  C   UNL     1      -0.167   2.166   1.155  1.00  0.00     0.037 A 
ATOM     20  C   UNL     1       2.922   0.404  -0.373  1.00  0.00     0.044 C 
ATOM     21  C   UNL     1       1.623   0.638   0.344  1.00  0.00    -0.049 A 
ATOM     22  C   UNL     1       0.947  -0.479   0.835  1.00  0.00     0.003 A 
ATOM     23  C   UNL     1       1.050   1.935   0.483  1.00  0.00     0.029 A 
ATOM     24  C   UNL     1      -0.216  -0.294   1.552  1.00  0.00     0.002 A 
ATOM     25  C   UNL     1      -0.719   1.002   1.749  1.00  0.00     0.026 A 
ENDBRANCH  13  19
ENDBRANCH   7  12
BRANCH  11  26
ATOM     26  N   UNL     1      -7.011   9.204   2.141  1.00  0.00    -0.320 N 
ATOM     27  C   UNL     1      -7.072  10.265   3.010  1.00  0.00     0.258 C 
ATOM     28  H   UNL     1      -7.847   8.985   1.670  1.00  0.00     0.170 HD
ATOM     29  O   UNL     1      -8.142  10.808   3.274  1.00  0.00    -0.269 OA
BRANCH  27  30
ATOM     30  C   UNL     1      -5.828  10.801   3.592  1.00  0.00     0.075 A 
ATOM     31  C   UNL     1      -5.810  11.091   4.956  1.00  0.00     0.017 A 
ATOM     32  C   UNL     1      -4.675  10.990   2.825  1.00  0.00     0.135 A 
ATOM     33  C   UNL     1      -4.613  11.474   5.558  1.00  0.00     0.001 A 
ATOM     34  C   UNL     1      -3.471  11.318   3.431  1.00  0.00     0.040 A 
ATOM     35  F   UNL     1      -4.689  10.838   1.492  1.00  0.00    -0.206 F 
ATOM     36  C   UNL     1      -3.438  11.553   4.803  1.00  0.00     0.003 A 
ENDBRANCH  27  30
ENDBRANCH  11  26
ENDBRANCH   4   6
ENDBRANCH   3   4
ENDBRANCH   2   3
ENDBRANCH   1   2
BRANCH   1  37
ATOM     37  O   UNL     1      -3.299   5.895  -4.652  1.00  0.00    -0.458 OA
BRANCH  37  38
ATOM     38  C   UNL     1      -2.998   5.440  -3.420  1.00  0.00     0.338 C 
ATOM     39  O   UNL     1      -2.181   6.013  -2.705  1.00  0.00    -0.246 OA
BRANCH  38  40
ATOM     40  C   UNL     1      -3.914   4.350  -2.995  1.00  0.00     0.060 A 
ATOM     41  C   UNL     1      -4.148   4.173  -1.627  1.00  0.00     0.016 A 
ATOM     42  C   UNL     1      -4.715   3.702  -3.925  1.00  0.00     0.016 A 
ATOM     43  C   UNL     1      -5.261   3.502  -1.159  1.00  0.00     0.010 A 
ATOM     44  C   UNL     1      -5.820   3.020  -3.476  1.00  0.00     0.010 A 
ATOM     45  C   UNL     1      -6.082   2.927  -2.101  1.00  0.00    -0.014 A 
BRANCH  45  46
ATOM     46  C   UNL     1      -7.166   2.056  -1.721  1.00  0.00     0.031 A 
ATOM     47  C   UNL     1      -8.412   2.637  -1.173  1.00  0.00     0.074 A 
ATOM     48  C   UNL     1      -6.907   0.770  -2.045  1.00  0.00     0.049 A 
ATOM     49  N   UNL     1      -9.184   2.045  -0.328  1.00  0.00    -0.248 NA
ATOM     50  C   UNL     1      -8.857   4.014  -1.443  1.00  0.00     0.031 C 
ATOM     51  C   UNL     1      -7.810  -0.333  -2.275  1.00  0.00     0.029 A 
ATOM     52  N   UNL     1      -5.645   0.172  -2.179  1.00  0.00    -0.354 N 
ATOM     53  C   UNL     1     -10.391   2.721  -0.387  1.00  0.00     0.074 A 
ATOM     54  C   UNL     1     -10.069   4.036  -0.871  1.00  0.00     0.031 C 
ATOM     55  C   UNL     1      -7.109  -1.484  -2.217  1.00  0.00     0.029 A 
ATOM     56  C   UNL     1      -5.760  -1.160  -1.775  1.00  0.00     0.049 A 
ATOM     57  H   UNL     1      -4.826   0.613  -2.500  1.00  0.00     0.167 HD
ATOM     58  C   UNL     1     -11.546   1.994  -0.351  1.00  0.00     0.034 A 
ATOM     59  C   UNL     1      -5.134  -1.678  -0.668  1.00  0.00     0.034 A 
ATOM     60  C   UNL     1     -11.221   0.581  -0.222  1.00  0.00     0.049 A 
ATOM     61  C   UNL     1      -6.138  -2.043   0.401  1.00  0.00     0.074 A 
ATOM     62  C   UNL     1     -11.071  -0.404  -1.184  1.00  0.00     0.029 A 
ATOM     63  N   UNL     1     -10.639   0.110   0.936  1.00  0.00    -0.354 N 
ATOM     64  N   UNL     1      -7.367  -1.617   0.405  1.00  0.00    -0.248 NA
ATOM     65  C   UNL     1      -5.813  -2.837   1.580  1.00  0.00     0.031 C 
ATOM     66  C   UNL     1     -10.327  -1.457  -0.606  1.00  0.00     0.029 A 
ATOM     67  C   UNL     1     -10.027  -1.102   0.696  1.00  0.00     0.049 A 
ATOM     68  H   UNL     1     -10.657   0.572   1.806  1.00  0.00     0.167 HD
ATOM     69  C   UNL     1      -8.006  -2.072   1.521  1.00  0.00     0.074 A 
ATOM     70  C   UNL     1      -6.995  -2.848   2.219  1.00  0.00     0.031 C 
ATOM     71  C   UNL     1      -9.312  -1.759   1.767  1.00  0.00     0.034 A 
BRANCH  58  72
ATOM     72  C   UNL     1     -12.909   2.428  -0.836  1.00  0.00     0.023 A 
ATOM     73  C   UNL     1     -13.764   1.423  -1.346  1.00  0.00     0.031 A 
ATOM     74  C   UNL     1     -13.434   3.728  -0.850  1.00  0.00     0.131 A 
ATOM     75  C   UNL     1     -15.016   1.708  -1.901  1.00  0.00     0.055 A 
ATOM     76  C   UNL     1     -14.694   4.021  -1.406  1.00  0.00     0.041 A 
ATOM     77  F   UNL     1     -12.773   4.759  -0.304  1.00  0.00    -0.206 F 
ATOM     78  C   UNL     1     -15.489   3.011  -1.944  1.00  0.00     0.022 A 
BRANCH  75  79
ATOM     79  S   UNL     1     -15.989   0.329  -2.563  1.00  0.00     0.124 S 
ATOM     80  O   UNL     1     -15.144  -0.146  -3.654  1.00  0.00    -0.237 OA
ATOM     81  O   UNL     1     -16.105  -0.555  -1.408  1.00  0.00    -0.237 OA
ATOM     82  O   UNL     1     -17.237   0.966  -2.980  1.00  0.00    -0.744 OA
ENDBRANCH  75  79
ENDBRANCH  58  72
BRANCH  59  83
ATOM     83  C   UNL     1      -3.846  -1.005  -0.314  1.00  0.00     0.023 A 
ATOM     84  C   UNL     1      -2.797  -1.086  -1.258  1.00  0.00     0.031 A 
ATOM     85  C   UNL     1      -3.967   0.138   0.483  1.00  0.00     0.131 A 
ATOM     86  C   UNL     1      -2.139   0.087  -1.625  1.00  0.00     0.055 A 
ATOM     87  C   UNL     1      -3.345   1.298   0.076  1.00  0.00     0.041 A 
ATOM     88  F   UNL     1      -4.847   0.210   1.491  1.00  0.00    -0.206 F 
ATOM     89  C   UNL     1      -2.477   1.282  -1.010  1.00  0.00     0.022 A 
BRANCH  86  90
ATOM     90  S   UNL     1      -1.038   0.151  -3.062  1.00  0.00     0.124 S 
ATOM     91  O   UNL     1      -0.640  -1.242  -3.241  1.00  0.00    -0.237 OA
ATOM     92  O   UNL     1      -1.925   0.694  -4.087  1.00  0.00    -0.237 OA
ATOM     93  O   UNL     1       0.037   1.047  -2.647  1.00  0.00    -0.744 OA
ENDBRANCH  86  90
ENDBRANCH  59  83
BRANCH  71  94
ATOM     94  C   UNL     1     -10.073  -2.131   2.999  1.00  0.00     0.023 A 
ATOM     95  C   UNL     1      -9.441  -2.412   4.207  1.00  0.00     0.031 A 
ATOM     96  C   UNL     1     -11.488  -2.195   2.993  1.00  0.00     0.131 A 
ATOM     97  C   UNL     1     -10.175  -2.920   5.283  1.00  0.00     0.055 A 
ATOM     98  C   UNL     1     -12.228  -2.562   4.113  1.00  0.00     0.041 A 
ATOM     99  F   UNL     1     -12.208  -1.919   1.895  1.00  0.00    -0.206 F 
ATOM    100  C   UNL     1     -11.568  -2.972   5.259  1.00  0.00     0.022 A 
BRANCH  97 101
ATOM    101  S   UNL     1      -9.240  -3.690   6.622  1.00  0.00     0.124 S 
ATOM    102  O   UNL     1      -8.490  -4.720   5.906  1.00  0.00    -0.237 OA
ATOM    103  O   UNL     1      -8.449  -2.576   7.134  1.00  0.00    -0.237 OA
ATOM    104  O   UNL     1     -10.277  -4.189   7.521  1.00  0.00    -0.744 OA
ENDBRANCH  97 101
ENDBRANCH  71  94
ENDBRANCH  45  46
ENDBRANCH  38  40
ENDBRANCH  37  38
ENDBRANCH   1  37
TORSDOF 18
