REMARK SMILES C[NH2+]C[C@H](C)C(=O)N1CC[C@@](C(=O)OCCOC(=O)c2ccc(-c3c4nc(c(-c5cc(S(=O)(=O)[O-])ccc5F)c5ccc([nH]5)c(-c5cc(S(=O)(=O)[O-])ccc5F)c5nc(c(-c6cc(S(=O)(=O)[O-])ccc6F)c6ccc3[nH]6)C=C5)C=C4)cc2)(C(F)(F)F)C1
REMARK SMILES IDX 15 1 14 2 12 3 13 4 11 5 8 6 9 7 87 8 10 9 6 10 7 11 4 12
REMARK SMILES IDX 5 13 3 14 2 15 1 16 83 19 84 20 85 21 86 22 16 23 17 24
REMARK SMILES IDX 18 25 19 26 20 27 21 28 82 29 22 30 81 31 23 32 24 33 25 34
REMARK SMILES IDX 75 35 26 36 80 37 74 38 76 39 27 40 79 41 73 42 72 43 28 45
REMARK SMILES IDX 60 46 40 47 59 48 41 49 44 50 58 51 77 52 42 53 43 54 57 56
REMARK SMILES IDX 78 57 45 58 29 59 30 60 38 61 31 62 37 63 39 64 36 65 32 66
REMARK SMILES IDX 33 67 34 68 35 69 61 70 62 71 70 72 63 73 69 74 71 75 68 76
REMARK SMILES IDX 64 77 65 78 66 79 67 80 46 81 47 82 55 83 48 84 54 85 56 86
REMARK SMILES IDX 53 87 49 88 50 89 51 90 52 91
REMARK H PARENT 2 17 2 18 76 44 44 55
REMARK Flexibility Score: inf
ROOT
ATOM      1  C   UNL     1      -5.074  -1.416  -6.968  1.00  0.00     0.274 C 
ENDROOT
BRANCH   1   2
ATOM      2  O   UNL     1      -4.705  -1.824  -5.633  1.00  0.00    -0.461 OA
BRANCH   2   3
ATOM      3  C   UNL     1      -5.556  -1.525  -4.614  1.00  0.00     0.323 C 
ATOM      4  O   UNL     1      -6.621  -0.946  -4.775  1.00  0.00    -0.251 OA
BRANCH   3   5
ATOM      5  C   UNL     1      -4.984  -1.867  -3.258  1.00  0.00     0.182 C 
ATOM      6  N   UNL     1      -3.279  -0.769  -2.008  1.00  0.00    -0.341 N 
ATOM      7  C   UNL     1      -2.882  -2.161  -2.112  1.00  0.00     0.121 C 
ATOM      8  C   UNL     1      -4.599  -0.555  -2.584  1.00  0.00     0.148 C 
ATOM      9  C   UNL     1      -3.679  -2.684  -3.289  1.00  0.00     0.052 C 
BRANCH   6  10
ATOM     10  C   UNL     1      -2.629   0.282  -1.409  1.00  0.00     0.231 C 
ATOM     11  O   UNL     1      -3.219   1.351  -1.215  1.00  0.00    -0.274 OA
BRANCH  10  12
ATOM     12  C   UNL     1      -1.131   0.213  -1.144  1.00  0.00     0.130 C 
ATOM     13  C   UNL     1      -0.694  -0.913  -0.212  1.00  0.00     0.024 C 
BRANCH  12  14
ATOM     14  C   UNL     1      -0.357   0.221  -2.478  1.00  0.00     0.273 C 
BRANCH  14  15
ATOM     15  N   UNL     1      -0.619   1.371  -3.359  1.00  0.00    -0.348 N 
ATOM     16  C   UNL     1      -0.034   2.606  -2.855  1.00  0.00     0.330 C 
ATOM     17  H   UNL     1      -0.225   1.174  -4.279  1.00  0.00     0.346 HD
ATOM     18  H   UNL     1      -1.629   1.502  -3.403  1.00  0.00     0.346 HD
ENDBRANCH  14  15
ENDBRANCH  12  14
ENDBRANCH  10  12
ENDBRANCH   6  10
BRANCH   5  19
ATOM     19  C   UNL     1      -6.035  -2.570  -2.435  1.00  0.00     0.406 C 
ATOM     20  F   UNL     1      -5.622  -2.723  -1.153  1.00  0.00    -0.170 F 
ATOM     21  F   UNL     1      -7.209  -1.913  -2.391  1.00  0.00    -0.170 F 
ATOM     22  F   UNL     1      -6.267  -3.811  -2.908  1.00  0.00    -0.170 F 
ENDBRANCH   5  19
ENDBRANCH   3   5
ENDBRANCH   2   3
ENDBRANCH   1   2
BRANCH   1  23
ATOM     23  C   UNL     1      -5.279  -2.640  -7.854  1.00  0.00     0.275 C 
BRANCH  23  24
ATOM     24  O   UNL     1      -6.435  -3.360  -7.397  1.00  0.00    -0.458 OA
BRANCH  24  25
ATOM     25  C   UNL     1      -6.179  -4.510  -6.739  1.00  0.00     0.338 C 
ATOM     26  O   UNL     1      -5.090  -5.050  -6.583  1.00  0.00    -0.246 OA
BRANCH  25  27
ATOM     27  C   UNL     1      -7.415  -5.001  -6.121  1.00  0.00     0.060 A 
ATOM     28  C   UNL     1      -7.951  -4.285  -5.055  1.00  0.00     0.016 A 
ATOM     29  C   UNL     1      -7.944  -6.241  -6.470  1.00  0.00     0.016 A 
ATOM     30  C   UNL     1      -8.916  -4.867  -4.241  1.00  0.00     0.010 A 
ATOM     31  C   UNL     1      -9.007  -6.765  -5.725  1.00  0.00     0.010 A 
ATOM     32  C   UNL     1      -9.470  -6.111  -4.566  1.00  0.00    -0.014 A 
BRANCH  32  33
ATOM     33  C   UNL     1     -10.467  -6.757  -3.660  1.00  0.00     0.031 A 
ATOM     34  C   UNL     1     -10.207  -8.143  -3.125  1.00  0.00     0.074 A 
ATOM     35  C   UNL     1     -11.587  -6.106  -3.284  1.00  0.00     0.049 A 
ATOM     36  N   UNL     1     -11.026  -8.974  -2.533  1.00  0.00    -0.248 NA
ATOM     37  C   UNL     1      -8.846  -8.673  -3.304  1.00  0.00     0.031 C 
ATOM     38  C   UNL     1     -11.944  -4.737  -3.663  1.00  0.00     0.029 A 
ATOM     39  N   UNL     1     -12.632  -6.507  -2.487  1.00  0.00    -0.354 N 
ATOM     40  C   UNL     1     -10.307 -10.151  -2.343  1.00  0.00     0.074 A 
ATOM     41  C   UNL     1      -8.983  -9.921  -2.883  1.00  0.00     0.031 C 
ATOM     42  C   UNL     1     -13.093  -4.396  -3.060  1.00  0.00     0.029 A 
ATOM     43  C   UNL     1     -13.614  -5.554  -2.344  1.00  0.00     0.049 A 
ATOM     44  H   UNL     1     -12.674  -7.392  -2.059  1.00  0.00     0.167 HD
ATOM     45  C   UNL     1     -10.720 -11.315  -1.781  1.00  0.00     0.034 A 
ATOM     46  C   UNL     1     -14.824  -5.614  -1.754  1.00  0.00     0.034 A 
ATOM     47  C   UNL     1     -12.022 -11.499  -1.184  1.00  0.00     0.049 A 
ATOM     48  C   UNL     1     -15.265  -6.913  -1.135  1.00  0.00     0.074 A 
ATOM     49  C   UNL     1     -12.552 -12.634  -0.593  1.00  0.00     0.029 A 
ATOM     50  N   UNL     1     -12.993 -10.511  -1.077  1.00  0.00    -0.354 N 
ATOM     51  N   UNL     1     -14.623  -8.057  -1.075  1.00  0.00    -0.248 NA
ATOM     52  C   UNL     1     -16.599  -6.935  -0.524  1.00  0.00     0.031 C 
ATOM     53  C   UNL     1     -13.854 -12.344  -0.168  1.00  0.00     0.029 A 
ATOM     54  C   UNL     1     -14.117 -11.011  -0.437  1.00  0.00     0.049 A 
ATOM     55  H   UNL     1     -12.896  -9.588  -1.407  1.00  0.00     0.167 HD
ATOM     56  C   UNL     1     -15.477  -8.934  -0.414  1.00  0.00     0.074 A 
ATOM     57  C   UNL     1     -16.666  -8.179  -0.073  1.00  0.00     0.031 C 
ATOM     58  C   UNL     1     -15.299 -10.247  -0.120  1.00  0.00     0.034 A 
BRANCH  45  59
ATOM     59  C   UNL     1      -9.780 -12.495  -1.856  1.00  0.00     0.023 A 
ATOM     60  C   UNL     1      -8.545 -12.521  -1.186  1.00  0.00     0.031 A 
ATOM     61  C   UNL     1     -10.116 -13.604  -2.656  1.00  0.00     0.131 A 
ATOM     62  C   UNL     1      -7.663 -13.596  -1.385  1.00  0.00     0.055 A 
ATOM     63  C   UNL     1      -9.269 -14.706  -2.787  1.00  0.00     0.041 A 
ATOM     64  F   UNL     1     -11.272 -13.628  -3.338  1.00  0.00    -0.206 F 
ATOM     65  C   UNL     1      -8.026 -14.699  -2.162  1.00  0.00     0.022 A 
BRANCH  62  66
ATOM     66  S   UNL     1      -5.975 -13.469  -0.732  1.00  0.00     0.124 S 
ATOM     67  O   UNL     1      -5.489 -12.264  -1.400  1.00  0.00    -0.237 OA
ATOM     68  O   UNL     1      -6.200 -13.357   0.705  1.00  0.00    -0.237 OA
ATOM     69  O   UNL     1      -5.343 -14.712  -1.169  1.00  0.00    -0.744 OA
ENDBRANCH  62  66
ENDBRANCH  45  59
BRANCH  46  70
ATOM     70  C   UNL     1     -15.739  -4.437  -1.793  1.00  0.00     0.023 A 
ATOM     71  C   UNL     1     -16.119  -3.771  -0.618  1.00  0.00     0.031 A 
ATOM     72  C   UNL     1     -16.266  -3.977  -3.013  1.00  0.00     0.131 A 
ATOM     73  C   UNL     1     -17.023  -2.699  -0.684  1.00  0.00     0.055 A 
ATOM     74  C   UNL     1     -17.122  -2.877  -3.080  1.00  0.00     0.041 A 
ATOM     75  F   UNL     1     -15.936  -4.580  -4.167  1.00  0.00    -0.206 F 
ATOM     76  C   UNL     1     -17.513  -2.237  -1.909  1.00  0.00     0.022 A 
BRANCH  73  77
ATOM     77  S   UNL     1     -17.608  -1.956   0.863  1.00  0.00     0.124 S 
ATOM     78  O   UNL     1     -18.219  -3.099   1.530  1.00  0.00    -0.237 OA
ATOM     79  O   UNL     1     -16.368  -1.458   1.449  1.00  0.00    -0.237 OA
ATOM     80  O   UNL     1     -18.540  -0.924   0.414  1.00  0.00    -0.744 OA
ENDBRANCH  73  77
ENDBRANCH  46  70
BRANCH  58  81
ATOM     81  C   UNL     1     -16.409 -10.924   0.641  1.00  0.00     0.023 A 
ATOM     82  C   UNL     1     -17.654 -11.190   0.045  1.00  0.00     0.031 A 
ATOM     83  C   UNL     1     -16.227 -11.276   1.989  1.00  0.00     0.131 A 
ATOM     84  C   UNL     1     -18.690 -11.742   0.813  1.00  0.00     0.055 A 
ATOM     85  C   UNL     1     -17.245 -11.869   2.735  1.00  0.00     0.041 A 
ATOM     86  F   UNL     1     -15.056 -11.041   2.604  1.00  0.00    -0.206 F 
ATOM     87  C   UNL     1     -18.490 -12.093   2.151  1.00  0.00     0.022 A 
BRANCH  84  88
ATOM     88  S   UNL     1     -20.334 -11.914   0.065  1.00  0.00     0.124 S 
ATOM     89  O   UNL     1     -20.638 -10.540  -0.322  1.00  0.00    -0.237 OA
ATOM     90  O   UNL     1     -20.081 -12.844  -1.030  1.00  0.00    -0.237 OA
ATOM     91  O   UNL     1     -21.151 -12.447   1.154  1.00  0.00    -0.744 OA
ENDBRANCH  84  88
ENDBRANCH  58  81
ENDBRANCH  32  33
ENDBRANCH  25  27
ENDBRANCH  24  25
ENDBRANCH  23  24
ENDBRANCH   1  23
TORSDOF 19
