REMARK SMILES COc1cc(OC)c(-c2cc(C(=O)OCCOC(=O)c3ccc(-c4c5nc(c(-c6cc(S(=O)(=O)[O-])ccc6F)c6ccc([nH]6)c(-c6cc(S(=O)(=O)[O-])ccc6F)c6nc(c(-c7cc(S(=O)(=O)[O-])ccc7F)c7ccc4[nH]7)C=C6)C=C5)cc3)c3c(-c4ccc(Cl)cc4)[nH]nc3n2)cc1OC
REMARK SMILES IDX 16 1 15 2 14 3 12 4 13 5 11 6 9 7 10 8 95 9 94 10 83 11
REMARK SMILES IDX 93 12 84 13 92 14 8 16 3 17 4 18 97 19 5 20 96 21 2 22 1 23
REMARK SMILES IDX 98 24 99 25 6 26 7 27 85 28 86 29 91 30 87 31 90 32 88 33
REMARK SMILES IDX 89 34 17 35 18 36 19 37 20 38 21 39 82 40 22 41 81 42 23 43
REMARK SMILES IDX 24 44 25 45 75 46 26 47 80 48 74 49 76 50 27 51 79 52 73 53
REMARK SMILES IDX 72 54 28 56 60 57 40 58 59 59 41 60 44 61 58 62 77 63 42 64
REMARK SMILES IDX 43 65 57 67 78 68 45 69 29 70 30 71 38 72 31 73 37 74 39 75
REMARK SMILES IDX 36 76 32 77 33 78 34 79 35 80 61 81 62 82 70 83 63 84 69 85
REMARK SMILES IDX 71 86 68 87 64 88 65 89 66 90 67 91 46 92 47 93 55 94 48 95
REMARK SMILES IDX 54 96 56 97 53 98 49 99 50 100 51 101 52 102
REMARK H PARENT 92 15 76 55 44 66
REMARK Flexibility Score: inf
ROOT
ATOM      1  C   UNL     1       5.752   4.626  -8.601  1.00  0.00     0.275 C 
ENDROOT
BRANCH   1   2
ATOM      2  C   UNL     1       6.489   4.497  -7.282  1.00  0.00     0.275 C 
BRANCH   2   3
ATOM      3  O   UNL     1       5.550   4.722  -6.223  1.00  0.00    -0.458 OA
BRANCH   3   4
ATOM      4  C   UNL     1       5.675   5.876  -5.520  1.00  0.00     0.339 C 
ATOM      5  O   UNL     1       6.659   6.588  -5.478  1.00  0.00    -0.246 OA
BRANCH   4   6
ATOM      6  C   UNL     1       4.419   6.106  -4.792  1.00  0.00     0.075 A 
ATOM      7  C   UNL     1       2.500   5.155  -3.538  1.00  0.00     0.078 A 
ATOM      8  C   UNL     1       3.630   5.018  -4.382  1.00  0.00     0.045 A 
ATOM      9  N   UNL     1       2.021   6.332  -3.056  1.00  0.00    -0.226 NA
ATOM     10  C   UNL     1       2.714   7.417  -3.496  1.00  0.00     0.182 A 
ATOM     11  C   UNL     1       3.884   7.317  -4.333  1.00  0.00     0.061 A 
ATOM     12  N   UNL     1       2.428   8.684  -3.207  1.00  0.00    -0.154 NA
ATOM     13  C   UNL     1       4.275   8.628  -4.575  1.00  0.00     0.075 A 
ATOM     14  N   UNL     1       3.337   9.383  -3.902  1.00  0.00    -0.275 N 
ATOM     15  H   UNL     1       3.336  10.367  -3.930  1.00  0.00     0.190 HD
BRANCH   7  16
ATOM     16  C   UNL     1       1.889   3.917  -3.010  1.00  0.00     0.046 A 
ATOM     17  C   UNL     1       1.064   1.410  -1.946  1.00  0.00     0.164 A 
ATOM     18  C   UNL     1       0.166   2.248  -2.627  1.00  0.00     0.097 A 
ATOM     19  C   UNL     1       2.389   1.805  -1.795  1.00  0.00     0.161 A 
ATOM     20  C   UNL     1       0.567   3.484  -3.182  1.00  0.00     0.132 A 
ATOM     21  C   UNL     1       2.761   3.056  -2.298  1.00  0.00     0.064 A 
BRANCH  17  22
ATOM     22  O   UNL     1       0.617   0.168  -1.584  1.00  0.00    -0.493 OA
ATOM     23  C   UNL     1       0.047   0.160  -0.275  1.00  0.00     0.278 C 
ENDBRANCH  17  22
BRANCH  19  24
ATOM     24  O   UNL     1       3.454   1.141  -1.260  1.00  0.00    -0.493 OA
ATOM     25  C   UNL     1       3.250  -0.078  -0.573  1.00  0.00     0.278 C 
ENDBRANCH  19  24
BRANCH  20  26
ATOM     26  O   UNL     1      -0.454   4.120  -3.839  1.00  0.00    -0.496 OA
ATOM     27  C   UNL     1      -0.131   4.880  -5.000  1.00  0.00     0.278 C 
ENDBRANCH  20  26
ENDBRANCH   7  16
BRANCH  13  28
ATOM     28  C   UNL     1       5.274   9.285  -5.421  1.00  0.00     0.000 A 
ATOM     29  C   UNL     1       6.104  10.306  -4.943  1.00  0.00     0.012 A 
ATOM     30  C   UNL     1       5.383   8.931  -6.766  1.00  0.00     0.012 A 
ATOM     31  C   UNL     1       7.036  10.923  -5.792  1.00  0.00     0.021 A 
ATOM     32  C   UNL     1       6.318   9.525  -7.615  1.00  0.00     0.021 A 
ATOM     33  C   UNL     1       7.146  10.522  -7.122  1.00  0.00     0.041 A 
ATOM     34  Cl  UNL     1       8.307  11.255  -8.157  1.00  0.00    -0.084 Cl
ENDBRANCH  13  28
ENDBRANCH   4   6
ENDBRANCH   3   4
ENDBRANCH   2   3
ENDBRANCH   1   2
BRANCH   1  35
ATOM     35  O   UNL     1       5.224   5.942  -8.726  1.00  0.00    -0.458 OA
BRANCH  35  36
ATOM     36  C   UNL     1       3.899   6.114  -8.520  1.00  0.00     0.338 C 
ATOM     37  O   UNL     1       3.147   5.409  -7.867  1.00  0.00    -0.246 OA
BRANCH  36  38
ATOM     38  C   UNL     1       3.531   7.329  -9.266  1.00  0.00     0.060 A 
ATOM     39  C   UNL     1       2.330   7.995  -9.003  1.00  0.00     0.016 A 
ATOM     40  C   UNL     1       4.415   7.779 -10.263  1.00  0.00     0.016 A 
ATOM     41  C   UNL     1       1.967   9.051  -9.825  1.00  0.00     0.010 A 
ATOM     42  C   UNL     1       4.072   8.839 -11.052  1.00  0.00     0.010 A 
ATOM     43  C   UNL     1       2.817   9.407 -10.878  1.00  0.00    -0.014 A 
BRANCH  43  44
ATOM     44  C   UNL     1       2.412  10.382 -11.866  1.00  0.00     0.031 A 
ATOM     45  C   UNL     1       2.496  11.790 -11.414  1.00  0.00     0.074 A 
ATOM     46  C   UNL     1       2.198   9.989 -13.140  1.00  0.00     0.049 A 
ATOM     47  N   UNL     1       1.522  12.619 -11.250  1.00  0.00    -0.248 NA
ATOM     48  C   UNL     1       3.792  12.303 -10.935  1.00  0.00     0.031 C 
ATOM     49  C   UNL     1       2.391   8.657 -13.729  1.00  0.00     0.029 A 
ATOM     50  N   UNL     1       1.855  10.736 -14.218  1.00  0.00    -0.354 N 
ATOM     51  C   UNL     1       2.104  13.832 -10.896  1.00  0.00     0.074 A 
ATOM     52  C   UNL     1       3.456  13.525 -10.519  1.00  0.00     0.031 C 
ATOM     53  C   UNL     1       2.381   8.751 -15.079  1.00  0.00     0.029 A 
ATOM     54  C   UNL     1       2.034  10.112 -15.450  1.00  0.00     0.049 A 
ATOM     55  H   UNL     1       1.506  11.653 -14.136  1.00  0.00     0.167 HD
ATOM     56  C   UNL     1       1.485  15.010 -11.186  1.00  0.00     0.034 A 
ATOM     57  C   UNL     1       1.938  10.690 -16.681  1.00  0.00     0.034 A 
ATOM     58  C   UNL     1       0.080  14.793 -11.462  1.00  0.00     0.049 A 
ATOM     59  C   UNL     1       1.125  11.922 -16.494  1.00  0.00     0.074 A 
ATOM     60  C   UNL     1      -0.962  14.249 -10.733  1.00  0.00     0.029 A 
ATOM     61  N   UNL     1      -0.326  14.734 -12.778  1.00  0.00    -0.354 N 
ATOM     62  N   UNL     1      -0.127  11.893 -16.119  1.00  0.00    -0.248 NA
ATOM     63  C   UNL     1       1.831  13.159 -16.186  1.00  0.00     0.031 C 
ATOM     64  C   UNL     1      -1.661  13.422 -11.662  1.00  0.00     0.029 A 
ATOM     65  C   UNL     1      -1.086  13.595 -12.924  1.00  0.00     0.049 A 
ATOM     66  H   UNL     1      -0.112  15.386 -13.483  1.00  0.00     0.167 HD
ATOM     67  C   UNL     1      -0.243  12.891 -15.162  1.00  0.00     0.074 A 
ATOM     68  C   UNL     1       0.976  13.692 -15.306  1.00  0.00     0.031 C 
ATOM     69  C   UNL     1      -1.153  12.806 -14.145  1.00  0.00     0.034 A 
BRANCH  56  70
ATOM     70  C   UNL     1       2.199  16.289 -11.563  1.00  0.00     0.023 A 
ATOM     71  C   UNL     1       1.406  17.421 -11.838  1.00  0.00     0.031 A 
ATOM     72  C   UNL     1       3.561  16.394 -11.931  1.00  0.00     0.131 A 
ATOM     73  C   UNL     1       1.938  18.531 -12.519  1.00  0.00     0.055 A 
ATOM     74  C   UNL     1       4.099  17.525 -12.551  1.00  0.00     0.041 A 
ATOM     75  F   UNL     1       4.428  15.384 -11.803  1.00  0.00    -0.206 F 
ATOM     76  C   UNL     1       3.281  18.591 -12.877  1.00  0.00     0.022 A 
BRANCH  73  77
ATOM     77  S   UNL     1       0.801  19.823 -13.084  1.00  0.00     0.124 S 
ATOM     78  O   UNL     1      -0.176  19.047 -13.839  1.00  0.00    -0.237 OA
ATOM     79  O   UNL     1       0.340  20.389 -11.821  1.00  0.00    -0.237 OA
ATOM     80  O   UNL     1       1.655  20.698 -13.884  1.00  0.00    -0.744 OA
ENDBRANCH  73  77
ENDBRANCH  56  70
BRANCH  57  81
ATOM     81  C   UNL     1       2.827  10.446 -17.858  1.00  0.00     0.023 A 
ATOM     82  C   UNL     1       2.481  10.786 -19.186  1.00  0.00     0.031 A 
ATOM     83  C   UNL     1       4.174  10.072 -17.638  1.00  0.00     0.131 A 
ATOM     84  C   UNL     1       3.457  10.739 -20.216  1.00  0.00     0.055 A 
ATOM     85  C   UNL     1       5.131  10.031 -18.655  1.00  0.00     0.041 A 
ATOM     86  F   UNL     1       4.629   9.810 -16.402  1.00  0.00    -0.206 F 
ATOM     87  C   UNL     1       4.779  10.374 -19.949  1.00  0.00     0.022 A 
BRANCH  84  88
ATOM     88  S   UNL     1       3.044  11.226 -21.927  1.00  0.00     0.124 S 
ATOM     89  O   UNL     1       2.127  10.169 -22.338  1.00  0.00    -0.237 OA
ATOM     90  O   UNL     1       2.467  12.553 -21.747  1.00  0.00    -0.237 OA
ATOM     91  O   UNL     1       4.339  11.212 -22.610  1.00  0.00    -0.744 OA
ENDBRANCH  84  88
ENDBRANCH  57  81
BRANCH  69  92
ATOM     92  C   UNL     1      -2.193  11.694 -14.191  1.00  0.00     0.023 A 
ATOM     93  C   UNL     1      -1.907  10.307 -14.242  1.00  0.00     0.031 A 
ATOM     94  C   UNL     1      -3.540  12.069 -14.044  1.00  0.00     0.131 A 
ATOM     95  C   UNL     1      -2.954   9.362 -14.157  1.00  0.00     0.055 A 
ATOM     96  C   UNL     1      -4.569  11.133 -13.937  1.00  0.00     0.041 A 
ATOM     97  F   UNL     1      -3.879  13.366 -13.963  1.00  0.00    -0.206 F 
ATOM     98  C   UNL     1      -4.281   9.775 -13.999  1.00  0.00     0.022 A 
BRANCH  95  99
ATOM     99  S   UNL     1      -2.620   7.571 -14.273  1.00  0.00     0.124 S 
ATOM    100  O   UNL     1      -1.737   7.461 -15.428  1.00  0.00    -0.237 OA
ATOM    101  O   UNL     1      -2.015   7.277 -12.976  1.00  0.00    -0.237 OA
ATOM    102  O   UNL     1      -3.950   6.989 -14.466  1.00  0.00    -0.744 OA
ENDBRANCH  95  99
ENDBRANCH  69  92
ENDBRANCH  43  44
ENDBRANCH  36  38
ENDBRANCH  35  36
ENDBRANCH   1  35
TORSDOF 19
