REMARK SMILES COc1cc(/C=C2/SC(=O)N(c3ccc(O)cc3C)C2=O)ccc1OCC(=O)OCCOC(=O)c1ccc(-c2c3nc(c(-c4cc(S(=O)(=O)[O-])ccc4F)c4ccc([nH]4)c(-c4cc(S(=O)(=O)[O-])ccc4F)c4nc(c(-c5cc(S(=O)(=O)[O-])ccc5F)c5ccc2[nH]5)C=C4)C=C3)cc1
REMARK SMILES IDX 30 1 29 2 27 3 28 4 26 5 25 6 24 7 3 8 4 9 5 10 23 11 22 12
REMARK SMILES IDX 2 13 1 14 6 15 7 16 8 17 20 18 9 19 11 20 21 21 10 22 12 23
REMARK SMILES IDX 13 24 18 25 14 26 17 27 19 28 15 29 16 30 31 32 32 33 33 34
REMARK SMILES IDX 34 35 35 36 36 37 97 38 37 39 96 40 38 41 39 42 40 43 90 44
REMARK SMILES IDX 41 45 95 46 89 47 91 48 42 49 94 50 88 51 87 52 43 54 75 55
REMARK SMILES IDX 55 56 74 57 56 58 59 59 73 60 92 61 57 62 58 63 72 65 93 66
REMARK SMILES IDX 60 67 44 68 45 69 53 70 46 71 52 72 54 73 51 74 47 75 48 76
REMARK SMILES IDX 49 77 50 78 76 79 77 80 85 81 78 82 84 83 86 84 83 85 79 86
REMARK SMILES IDX 80 87 81 88 82 89 61 90 62 91 70 92 63 93 69 94 71 95 68 96
REMARK SMILES IDX 64 97 65 98 66 99 67 100
REMARK H PARENT 16 31 91 53 59 64
REMARK Flexibility Score: inf
ROOT
ATOM      1  C   UNL     1       0.774  -2.338  -2.153  1.00  0.00     0.274 C 
ENDROOT
BRANCH   1   2
ATOM      2  O   UNL     1       1.869  -2.447  -1.217  1.00  0.00    -0.460 OA
BRANCH   2   3
ATOM      3  C   UNL     1       2.991  -1.736  -1.513  1.00  0.00     0.344 C 
ATOM      4  O   UNL     1       3.166  -1.131  -2.567  1.00  0.00    -0.248 OA
BRANCH   3   5
ATOM      5  C   UNL     1       4.014  -1.721  -0.365  1.00  0.00     0.352 C 
BRANCH   5   6
ATOM      6  O   UNL     1       3.895  -2.515   0.786  1.00  0.00    -0.478 OA
BRANCH   6   7
ATOM      7  C   UNL     1       2.818  -2.480   1.618  1.00  0.00     0.162 A 
ATOM      8  C   UNL     1       1.948  -1.441   1.976  1.00  0.00     0.161 A 
ATOM      9  C   UNL     1       0.926  -1.690   2.932  1.00  0.00     0.058 A 
ATOM     10  C   UNL     1       0.816  -2.934   3.579  1.00  0.00    -0.020 A 
ATOM     11  C   UNL     1       2.701  -3.710   2.286  1.00  0.00     0.051 A 
ATOM     12  C   UNL     1       1.729  -3.937   3.256  1.00  0.00     0.012 A 
BRANCH   8  13
ATOM     13  O   UNL     1       2.222  -0.112   1.756  1.00  0.00    -0.493 OA
ATOM     14  C   UNL     1       1.937   0.412   0.474  1.00  0.00     0.278 C 
ENDBRANCH   8  13
BRANCH  10  15
ATOM     15  C   UNL     1      -0.101  -3.211   4.701  1.00  0.00     0.029 C 
ATOM     16  C   UNL     1       0.175  -2.938   5.989  1.00  0.00     0.083 C 
ATOM     17  S   UNL     1      -0.697  -3.601   7.315  1.00  0.00    -0.022 SA
ATOM     18  C   UNL     1       1.344  -2.169   6.495  1.00  0.00     0.272 C 
ATOM     19  C   UNL     1       0.539  -3.094   8.487  1.00  0.00     0.298 C 
ATOM     20  N   UNL     1       1.442  -2.257   7.878  1.00  0.00    -0.236 N 
ATOM     21  O   UNL     1       2.142  -1.631   5.739  1.00  0.00    -0.268 OA
ATOM     22  O   UNL     1       0.567  -3.608   9.607  1.00  0.00    -0.260 OA
BRANCH  20  23
ATOM     23  C   UNL     1       2.544  -1.599   8.515  1.00  0.00     0.056 A 
ATOM     24  C   UNL     1       2.816  -0.273   8.101  1.00  0.00     0.031 A 
ATOM     25  C   UNL     1       3.443  -2.212   9.412  1.00  0.00    -0.023 A 
ATOM     26  C   UNL     1       3.958   0.414   8.507  1.00  0.00     0.048 A 
ATOM     27  C   UNL     1       4.579  -1.487   9.843  1.00  0.00     0.051 A 
ATOM     28  C   UNL     1       3.324  -3.622   9.919  1.00  0.00     0.047 C 
ATOM     29  C   UNL     1       4.839  -0.204   9.370  1.00  0.00     0.115 A 
BRANCH  29  30
ATOM     30  O   UNL     1       5.970   0.471   9.722  1.00  0.00    -0.508 OA
ATOM     31  H   UNL     1       6.123   1.333   9.390  1.00  0.00     0.293 HD
ENDBRANCH  29  30
ENDBRANCH  20  23
ENDBRANCH  10  15
ENDBRANCH   6   7
ENDBRANCH   5   6
ENDBRANCH   3   5
ENDBRANCH   2   3
ENDBRANCH   1   2
BRANCH   1  32
ATOM     32  C   UNL     1      -0.552  -2.523  -1.403  1.00  0.00     0.275 C 
BRANCH  32  33
ATOM     33  O   UNL     1      -0.885  -1.315  -0.688  1.00  0.00    -0.458 OA
BRANCH  33  34
ATOM     34  C   UNL     1      -1.973  -1.394   0.131  1.00  0.00     0.338 C 
ATOM     35  O   UNL     1      -2.718  -2.356   0.223  1.00  0.00    -0.246 OA
BRANCH  34  36
ATOM     36  C   UNL     1      -2.087  -0.166   0.977  1.00  0.00     0.060 A 
ATOM     37  C   UNL     1      -1.203   0.890   0.811  1.00  0.00     0.016 A 
ATOM     38  C   UNL     1      -3.021  -0.079   2.012  1.00  0.00     0.016 A 
ATOM     39  C   UNL     1      -1.097   1.892   1.778  1.00  0.00     0.010 A 
ATOM     40  C   UNL     1      -3.033   1.040   2.875  1.00  0.00     0.010 A 
ATOM     41  C   UNL     1      -2.038   2.032   2.806  1.00  0.00    -0.014 A 
BRANCH  41  42
ATOM     42  C   UNL     1      -1.961   3.201   3.760  1.00  0.00     0.031 A 
ATOM     43  C   UNL     1      -2.123   3.011   5.255  1.00  0.00     0.074 A 
ATOM     44  C   UNL     1      -1.726   4.457   3.310  1.00  0.00     0.049 A 
ATOM     45  N   UNL     1      -2.311   3.908   6.194  1.00  0.00    -0.248 NA
ATOM     46  C   UNL     1      -2.104   1.630   5.753  1.00  0.00     0.031 C 
ATOM     47  C   UNL     1      -1.522   4.833   1.908  1.00  0.00     0.029 A 
ATOM     48  N   UNL     1      -1.601   5.657   3.978  1.00  0.00    -0.354 N 
ATOM     49  C   UNL     1      -2.515   3.199   7.376  1.00  0.00     0.074 A 
ATOM     50  C   UNL     1      -2.442   1.794   7.024  1.00  0.00     0.031 C 
ATOM     51  C   UNL     1      -1.204   6.130   1.831  1.00  0.00     0.029 A 
ATOM     52  C   UNL     1      -1.349   6.730   3.149  1.00  0.00     0.049 A 
ATOM     53  H   UNL     1      -1.683   5.739   4.955  1.00  0.00     0.167 HD
ATOM     54  C   UNL     1      -2.742   3.672   8.632  1.00  0.00     0.034 A 
ATOM     55  C   UNL     1      -1.313   8.059   3.378  1.00  0.00     0.034 A 
ATOM     56  C   UNL     1      -2.744   5.074   8.984  1.00  0.00     0.049 A 
ATOM     57  C   UNL     1      -1.587   8.564   4.765  1.00  0.00     0.074 A 
ATOM     58  C   UNL     1      -2.948   5.653  10.226  1.00  0.00     0.029 A 
ATOM     59  N   UNL     1      -2.511   6.119   8.099  1.00  0.00    -0.354 N 
ATOM     60  N   UNL     1      -1.873   7.880   5.848  1.00  0.00    -0.248 NA
ATOM     61  C   UNL     1      -1.553  10.018   4.958  1.00  0.00     0.031 C 
ATOM     62  C   UNL     1      -2.910   7.044  10.079  1.00  0.00     0.029 A 
ATOM     63  C   UNL     1      -2.592   7.336   8.763  1.00  0.00     0.049 A 
ATOM     64  H   UNL     1      -2.317   6.013   7.140  1.00  0.00     0.167 HD
ATOM     65  C   UNL     1      -2.039   8.822   6.856  1.00  0.00     0.074 A 
ATOM     66  C   UNL     1      -1.799  10.119   6.255  1.00  0.00     0.031 C 
ATOM     67  C   UNL     1      -2.364   8.629   8.160  1.00  0.00     0.034 A 
BRANCH  54  68
ATOM     68  C   UNL     1      -3.066   2.659   9.709  1.00  0.00     0.023 A 
ATOM     69  C   UNL     1      -2.158   1.654  10.072  1.00  0.00     0.031 A 
ATOM     70  C   UNL     1      -4.327   2.655  10.335  1.00  0.00     0.131 A 
ATOM     71  C   UNL     1      -2.568   0.616  10.921  1.00  0.00     0.055 A 
ATOM     72  C   UNL     1      -4.689   1.681  11.269  1.00  0.00     0.041 A 
ATOM     73  F   UNL     1      -5.245   3.586  10.029  1.00  0.00    -0.206 F 
ATOM     74  C   UNL     1      -3.817   0.633  11.544  1.00  0.00     0.022 A 
BRANCH  71  75
ATOM     75  S   UNL     1      -1.545  -0.880  10.968  1.00  0.00     0.124 S 
ATOM     76  O   UNL     1      -1.346  -1.129   9.540  1.00  0.00    -0.237 OA
ATOM     77  O   UNL     1      -0.373  -0.428  11.708  1.00  0.00    -0.237 OA
ATOM     78  O   UNL     1      -2.398  -1.848  11.655  1.00  0.00    -0.744 OA
ENDBRANCH  71  75
ENDBRANCH  54  68
BRANCH  55  79
ATOM     79  C   UNL     1      -1.104   9.004   2.237  1.00  0.00     0.023 A 
ATOM     80  C   UNL     1       0.026   9.833   2.164  1.00  0.00     0.031 A 
ATOM     81  C   UNL     1      -2.040   9.074   1.186  1.00  0.00     0.131 A 
ATOM     82  C   UNL     1       0.186  10.700   1.069  1.00  0.00     0.055 A 
ATOM     83  C   UNL     1      -1.845   9.890   0.072  1.00  0.00     0.041 A 
ATOM     84  F   UNL     1      -3.143   8.308   1.207  1.00  0.00    -0.206 F 
ATOM     85  C   UNL     1      -0.728  10.715   0.013  1.00  0.00     0.022 A 
BRANCH  82  86
ATOM     86  S   UNL     1       1.586  11.855   1.063  1.00  0.00     0.124 S 
ATOM     87  O   UNL     1       1.331  12.637   2.266  1.00  0.00    -0.237 OA
ATOM     88  O   UNL     1       2.728  10.948   1.115  1.00  0.00    -0.237 OA
ATOM     89  O   UNL     1       1.425  12.577  -0.198  1.00  0.00    -0.744 OA
ENDBRANCH  82  86
ENDBRANCH  55  79
BRANCH  67  90
ATOM     90  C   UNL     1      -2.423   9.855   9.037  1.00  0.00     0.023 A 
ATOM     91  C   UNL     1      -3.384  10.861   8.842  1.00  0.00     0.031 A 
ATOM     92  C   UNL     1      -1.476  10.035  10.061  1.00  0.00     0.131 A 
ATOM     93  C   UNL     1      -3.333  12.034   9.611  1.00  0.00     0.055 A 
ATOM     94  C   UNL     1      -1.474  11.172  10.870  1.00  0.00     0.041 A 
ATOM     95  F   UNL     1      -0.530   9.109  10.289  1.00  0.00    -0.206 F 
ATOM     96  C   UNL     1      -2.396  12.188  10.636  1.00  0.00     0.022 A 
BRANCH  93  97
ATOM     97  S   UNL     1      -4.428  13.411   9.170  1.00  0.00     0.124 S 
ATOM     98  O   UNL     1      -4.079  13.639   7.771  1.00  0.00    -0.237 OA
ATOM     99  O   UNL     1      -5.752  12.847   9.413  1.00  0.00    -0.237 OA
ATOM    100  O   UNL     1      -4.029  14.475  10.089  1.00  0.00    -0.744 OA
ENDBRANCH  93  97
ENDBRANCH  67  90
ENDBRANCH  41  42
ENDBRANCH  34  36
ENDBRANCH  33  34
ENDBRANCH  32  33
ENDBRANCH   1  32
TORSDOF 20
