REMARK SMILES CCOc1ccccc1NC(=O)N[C@@](C)(CC)C(=O)OCCOC(=O)c1ccc(-c2c3nc(c(-c4cc(S(=O)(=O)[O-])ccc4F)c4ccc([nH]4)c(-c4cc(S(=O)(=O)[O-])ccc4F)c4nc(c(-c5cc(S(=O)(=O)[O-])ccc5F)c5ccc2[nH]5)C=C4)C=C3)cc1
REMARK SMILES IDX 21 1 20 2 18 3 19 4 14 5 15 6 13 7 10 8 11 9 12 11 9 13 4 14
REMARK SMILES IDX 5 15 6 16 8 17 7 18 3 19 2 20 1 21 16 22 17 23 22 24 23 25
REMARK SMILES IDX 24 26 25 27 26 28 27 29 88 30 28 31 87 32 29 33 30 34 31 35
REMARK SMILES IDX 81 36 32 37 86 38 80 39 82 40 33 41 85 42 79 43 78 44 34 46
REMARK SMILES IDX 66 47 46 48 65 49 47 50 50 51 64 52 83 53 48 54 49 55 63 57
REMARK SMILES IDX 84 58 51 59 35 60 36 61 44 62 37 63 43 64 45 65 42 66 38 67
REMARK SMILES IDX 39 68 40 69 41 70 67 71 68 72 76 73 69 74 75 75 77 76 74 77
REMARK SMILES IDX 70 78 71 79 72 80 73 81 52 82 53 83 61 84 54 85 60 86 62 87
REMARK SMILES IDX 59 88 55 89 56 90 57 91 58 92
REMARK H PARENT 10 10 13 12 82 45 50 56
REMARK Flexibility Score: inf
ROOT
ATOM      1  C   UNL     1       3.683  -2.604  -3.816  1.00  0.00     0.274 C 
ENDROOT
BRANCH   1   2
ATOM      2  O   UNL     1       4.875  -2.602  -2.990  1.00  0.00    -0.460 OA
BRANCH   2   3
ATOM      3  C   UNL     1       4.711  -1.959  -1.801  1.00  0.00     0.331 C 
ATOM      4  O   UNL     1       3.615  -1.659  -1.379  1.00  0.00    -0.249 OA
BRANCH   3   5
ATOM      5  C   UNL     1       6.008  -1.701  -1.005  1.00  0.00     0.136 C 
ATOM      6  C   UNL     1       7.150  -1.072  -1.819  1.00  0.00     0.047 C 
BRANCH   5   7
ATOM      7  N   UNL     1       5.724  -0.812   0.164  1.00  0.00    -0.322 N 
ATOM      8  N   UNL     1       4.109   0.792  -0.514  1.00  0.00    -0.305 N 
ATOM      9  C   UNL     1       5.051   0.355   0.349  1.00  0.00     0.320 C 
ATOM     10  H   UNL     1       3.225   0.907  -0.095  1.00  0.00     0.172 HD
ATOM     11  O   UNL     1       5.116   0.848   1.478  1.00  0.00    -0.248 OA
ATOM     12  H   UNL     1       6.119  -1.153   0.999  1.00  0.00     0.166 HD
BRANCH   8  13
ATOM     13  C   UNL     1       4.116   1.120  -1.881  1.00  0.00     0.085 A 
ATOM     14  C   UNL     1       2.899   1.040  -2.587  1.00  0.00     0.142 A 
ATOM     15  C   UNL     1       2.853   1.238  -3.967  1.00  0.00     0.048 A 
ATOM     16  C   UNL     1       4.025   1.556  -4.651  1.00  0.00     0.004 A 
ATOM     17  C   UNL     1       5.258   1.525  -2.560  1.00  0.00     0.030 A 
ATOM     18  C   UNL     1       5.220   1.714  -3.946  1.00  0.00     0.002 A 
BRANCH  14  19
ATOM     19  O   UNL     1       1.788   0.551  -1.950  1.00  0.00    -0.492 OA
BRANCH  19  20
ATOM     20  C   UNL     1       0.831   1.564  -1.641  1.00  0.00     0.226 C 
ATOM     21  C   UNL     1       0.231   1.214  -0.290  1.00  0.00     0.049 C 
ENDBRANCH  19  20
ENDBRANCH  14  19
ENDBRANCH   8  13
ENDBRANCH   5   7
BRANCH   5  22
ATOM     22  C   UNL     1       6.562  -3.075  -0.498  1.00  0.00     0.037 C 
ATOM     23  C   UNL     1       5.566  -4.101   0.024  1.00  0.00     0.007 C 
ENDBRANCH   5  22
ENDBRANCH   3   5
ENDBRANCH   2   3
ENDBRANCH   1   2
BRANCH   1  24
ATOM     24  C   UNL     1       2.549  -3.567  -3.401  1.00  0.00     0.275 C 
BRANCH  24  25
ATOM     25  O   UNL     1       1.755  -3.075  -2.296  1.00  0.00    -0.458 OA
BRANCH  25  26
ATOM     26  C   UNL     1       1.778  -3.834  -1.172  1.00  0.00     0.338 C 
ATOM     27  O   UNL     1       2.223  -4.970  -1.082  1.00  0.00    -0.246 OA
BRANCH  26  28
ATOM     28  C   UNL     1       1.297  -3.091   0.018  1.00  0.00     0.060 A 
ATOM     29  C   UNL     1       2.250  -2.603   0.920  1.00  0.00     0.016 A 
ATOM     30  C   UNL     1      -0.052  -3.053   0.362  1.00  0.00     0.016 A 
ATOM     31  C   UNL     1       1.888  -2.106   2.166  1.00  0.00     0.010 A 
ATOM     32  C   UNL     1      -0.425  -2.569   1.628  1.00  0.00     0.010 A 
ATOM     33  C   UNL     1       0.548  -2.132   2.549  1.00  0.00    -0.014 A 
BRANCH  33  34
ATOM     34  C   UNL     1       0.218  -1.931   3.982  1.00  0.00     0.031 A 
ATOM     35  C   UNL     1       0.008  -3.150   4.839  1.00  0.00     0.074 A 
ATOM     36  C   UNL     1       0.207  -0.706   4.538  1.00  0.00     0.049 A 
ATOM     37  N   UNL     1      -0.405  -3.242   6.075  1.00  0.00    -0.248 NA
ATOM     38  C   UNL     1       0.317  -4.444   4.209  1.00  0.00     0.031 C 
ATOM     39  C   UNL     1       0.553   0.536   3.849  1.00  0.00     0.029 A 
ATOM     40  N   UNL     1      -0.098  -0.307   5.815  1.00  0.00    -0.354 N 
ATOM     41  C   UNL     1      -0.430  -4.603   6.365  1.00  0.00     0.074 A 
ATOM     42  C   UNL     1       0.001  -5.297   5.170  1.00  0.00     0.031 C 
ATOM     43  C   UNL     1       0.425   1.562   4.708  1.00  0.00     0.029 A 
ATOM     44  C   UNL     1      -0.065   1.058   5.989  1.00  0.00     0.049 A 
ATOM     45  H   UNL     1      -0.319  -0.937   6.538  1.00  0.00     0.167 HD
ATOM     46  C   UNL     1      -0.790  -5.214   7.520  1.00  0.00     0.034 A 
ATOM     47  C   UNL     1      -0.430   1.810   7.048  1.00  0.00     0.034 A 
ATOM     48  C   UNL     1      -1.225  -4.500   8.695  1.00  0.00     0.049 A 
ATOM     49  C   UNL     1      -0.954   1.112   8.281  1.00  0.00     0.074 A 
ATOM     50  C   UNL     1      -1.680  -5.007   9.900  1.00  0.00     0.029 A 
ATOM     51  N   UNL     1      -1.259  -3.115   8.809  1.00  0.00    -0.354 N 
ATOM     52  N   UNL     1      -1.074  -0.176   8.517  1.00  0.00    -0.248 NA
ATOM     53  C   UNL     1      -1.402   1.968   9.388  1.00  0.00     0.031 C 
ATOM     54  C   UNL     1      -2.043  -3.930  10.719  1.00  0.00     0.029 A 
ATOM     55  C   UNL     1      -1.751  -2.751  10.052  1.00  0.00     0.049 A 
ATOM     56  H   UNL     1      -0.975  -2.485   8.109  1.00  0.00     0.167 HD
ATOM     57  C   UNL     1      -1.588  -0.281   9.806  1.00  0.00     0.074 A 
ATOM     58  C   UNL     1      -1.743   1.071  10.302  1.00  0.00     0.031 C 
ATOM     59  C   UNL     1      -1.903  -1.393  10.520  1.00  0.00     0.034 A 
BRANCH  46  60
ATOM     60  C   UNL     1      -0.820  -6.723   7.513  1.00  0.00     0.023 A 
ATOM     61  C   UNL     1       0.349  -7.493   7.375  1.00  0.00     0.031 A 
ATOM     62  C   UNL     1      -2.052  -7.398   7.566  1.00  0.00     0.131 A 
ATOM     63  C   UNL     1       0.253  -8.886   7.220  1.00  0.00     0.055 A 
ATOM     64  C   UNL     1      -2.135  -8.789   7.485  1.00  0.00     0.041 A 
ATOM     65  F   UNL     1      -3.202  -6.714   7.669  1.00  0.00    -0.206 F 
ATOM     66  C   UNL     1      -0.979  -9.540   7.295  1.00  0.00     0.022 A 
BRANCH  63  67
ATOM     67  S   UNL     1       1.744  -9.818   6.769  1.00  0.00     0.124 S 
ATOM     68  O   UNL     1       2.115  -9.189   5.504  1.00  0.00    -0.237 OA
ATOM     69  O   UNL     1       2.632  -9.559   7.896  1.00  0.00    -0.237 OA
ATOM     70  O   UNL     1       1.266 -11.195   6.655  1.00  0.00    -0.744 OA
ENDBRANCH  63  67
ENDBRANCH  46  60
BRANCH  47  71
ATOM     71  C   UNL     1      -0.401   3.300   6.972  1.00  0.00     0.023 A 
ATOM     72  C   UNL     1       0.400   4.063   7.838  1.00  0.00     0.031 A 
ATOM     73  C   UNL     1      -1.236   3.990   6.072  1.00  0.00     0.131 A 
ATOM     74  C   UNL     1       0.319   5.466   7.814  1.00  0.00     0.055 A 
ATOM     75  C   UNL     1      -1.273   5.384   6.016  1.00  0.00     0.041 A 
ATOM     76  F   UNL     1      -2.033   3.313   5.229  1.00  0.00    -0.206 F 
ATOM     77  C   UNL     1      -0.502   6.130   6.900  1.00  0.00     0.022 A 
BRANCH  74  78
ATOM     78  S   UNL     1       1.233   6.415   9.062  1.00  0.00     0.124 S 
ATOM     79  O   UNL     1       0.691   5.876  10.303  1.00  0.00    -0.237 OA
ATOM     80  O   UNL     1       2.616   6.065   8.759  1.00  0.00    -0.237 OA
ATOM     81  O   UNL     1       0.866   7.800   8.772  1.00  0.00    -0.744 OA
ENDBRANCH  74  78
ENDBRANCH  47  71
BRANCH  59  82
ATOM     82  C   UNL     1      -2.402  -1.181  11.927  1.00  0.00     0.023 A 
ATOM     83  C   UNL     1      -3.664  -0.617  12.186  1.00  0.00     0.031 A 
ATOM     84  C   UNL     1      -1.598  -1.545  13.021  1.00  0.00     0.131 A 
ATOM     85  C   UNL     1      -4.066  -0.390  13.511  1.00  0.00     0.055 A 
ATOM     86  C   UNL     1      -2.025  -1.363  14.337  1.00  0.00     0.041 A 
ATOM     87  F   UNL     1      -0.386  -2.088  12.827  1.00  0.00    -0.206 F 
ATOM     88  C   UNL     1      -3.260  -0.772  14.588  1.00  0.00     0.022 A 
BRANCH  85  89
ATOM     89  S   UNL     1      -5.628   0.481  13.812  1.00  0.00     0.124 S 
ATOM     90  O   UNL     1      -5.402   1.755  13.137  1.00  0.00    -0.237 OA
ATOM     91  O   UNL     1      -6.606  -0.406  13.190  1.00  0.00    -0.237 OA
ATOM     92  O   UNL     1      -5.703   0.558  15.270  1.00  0.00    -0.744 OA
ENDBRANCH  85  89
ENDBRANCH  59  82
ENDBRANCH  33  34
ENDBRANCH  26  28
ENDBRANCH  25  26
ENDBRANCH  24  25
ENDBRANCH   1  24
TORSDOF 19
