REMARK SMILES CC(C)[C@H](C(=O)OCCOC(=O)c1ccc(-c2c3nc(c(-c4cc(S(=O)(=O)[O-])ccc4F)c4ccc([nH]4)c(-c4cc(S(=O)(=O)[O-])ccc4F)c4nc(c(-c5cc(S(=O)(=O)[O-])ccc5F)c5ccc2[nH]5)C=C4)C=C3)cc1)[C@H](C)[C@@H](C)O
REMARK SMILES IDX 8 1 7 2 5 3 6 4 4 5 2 6 1 7 3 8 76 9 77 10 78 11 79 12 80 13
REMARK SMILES IDX 9 15 10 16 11 17 12 18 13 19 14 20 75 21 15 22 74 23 16 24
REMARK SMILES IDX 17 25 18 26 68 27 19 28 73 29 67 30 69 31 20 32 72 33 66 34
REMARK SMILES IDX 65 35 21 37 53 38 33 39 52 40 34 41 37 42 51 43 70 44 35 45
REMARK SMILES IDX 36 46 50 48 71 49 38 50 22 51 23 52 31 53 24 54 30 55 32 56
REMARK SMILES IDX 29 57 25 58 26 59 27 60 28 61 54 62 55 63 63 64 56 65 62 66
REMARK SMILES IDX 64 67 61 68 57 69 58 70 59 71 60 72 39 73 40 74 48 75 41 76
REMARK SMILES IDX 47 77 49 78 46 79 42 80 43 81 44 82 45 83
REMARK H PARENT 80 14 69 36 37 47
REMARK Flexibility Score: inf
ROOT
ATOM      1  C   UNL     1      -2.301  -4.397  -0.823  1.00  0.00     0.274 C 
ENDROOT
BRANCH   1   2
ATOM      2  O   UNL     1      -2.413  -3.555  -1.990  1.00  0.00    -0.462 OA
BRANCH   2   3
ATOM      3  C   UNL     1      -1.522  -2.534  -2.010  1.00  0.00     0.309 C 
ATOM      4  O   UNL     1      -0.783  -2.261  -1.067  1.00  0.00    -0.252 OA
BRANCH   3   5
ATOM      5  C   UNL     1      -1.504  -1.716  -3.299  1.00  0.00     0.107 C 
BRANCH   5   6
ATOM      6  C   UNL     1      -1.928  -2.410  -4.633  1.00  0.00    -0.003 C 
ATOM      7  C   UNL     1      -1.335  -3.817  -4.806  1.00  0.00     0.008 C 
ATOM      8  C   UNL     1      -3.413  -2.463  -4.964  1.00  0.00     0.008 C 
ENDBRANCH   5   6
BRANCH   5   9
ATOM      9  C   UNL     1      -2.008  -0.251  -3.028  1.00  0.00     0.029 C 
ATOM     10  C   UNL     1      -1.051   0.449  -2.034  1.00  0.00     0.011 C 
BRANCH   9  11
ATOM     11  C   UNL     1      -3.485  -0.142  -2.555  1.00  0.00     0.115 C 
ATOM     12  C   UNL     1      -3.829   1.096  -1.729  1.00  0.00     0.038 C 
BRANCH  11  13
ATOM     13  O   UNL     1      -4.354  -0.083  -3.686  1.00  0.00    -0.393 OA
ATOM     14  H   UNL     1      -4.176   0.726  -4.189  1.00  0.00     0.210 HD
ENDBRANCH  11  13
ENDBRANCH   9  11
ENDBRANCH   5   9
ENDBRANCH   3   5
ENDBRANCH   2   3
ENDBRANCH   1   2
BRANCH   1  15
ATOM     15  C   UNL     1      -1.283  -5.521  -1.039  1.00  0.00     0.275 C 
BRANCH  15  16
ATOM     16  O   UNL     1      -0.020  -4.989  -1.478  1.00  0.00    -0.458 OA
BRANCH  16  17
ATOM     17  C   UNL     1       0.658  -5.761  -2.362  1.00  0.00     0.338 C 
ATOM     18  O   UNL     1       0.327  -6.870  -2.748  1.00  0.00    -0.246 OA
BRANCH  17  19
ATOM     19  C   UNL     1       1.903  -5.088  -2.811  1.00  0.00     0.060 A 
ATOM     20  C   UNL     1       1.984  -3.703  -2.988  1.00  0.00     0.016 A 
ATOM     21  C   UNL     1       2.998  -5.888  -3.146  1.00  0.00     0.016 A 
ATOM     22  C   UNL     1       3.124  -3.128  -3.558  1.00  0.00     0.010 A 
ATOM     23  C   UNL     1       4.167  -5.303  -3.639  1.00  0.00     0.010 A 
ATOM     24  C   UNL     1       4.237  -3.919  -3.874  1.00  0.00    -0.014 A 
BRANCH  24  25
ATOM     25  C   UNL     1       5.482  -3.338  -4.450  1.00  0.00     0.031 A 
ATOM     26  C   UNL     1       5.972  -3.800  -5.798  1.00  0.00     0.074 A 
ATOM     27  C   UNL     1       6.213  -2.456  -3.740  1.00  0.00     0.049 A 
ATOM     28  N   UNL     1       7.142  -3.635  -6.359  1.00  0.00    -0.248 NA
ATOM     29  C   UNL     1       5.016  -4.564  -6.612  1.00  0.00     0.031 C 
ATOM     30  C   UNL     1       5.836  -1.891  -2.443  1.00  0.00     0.029 A 
ATOM     31  N   UNL     1       7.444  -1.902  -3.997  1.00  0.00    -0.354 N 
ATOM     32  C   UNL     1       7.082  -4.313  -7.573  1.00  0.00     0.074 A 
ATOM     33  C   UNL     1       5.759  -4.899  -7.657  1.00  0.00     0.031 C 
ATOM     34  C   UNL     1       6.815  -1.079  -2.016  1.00  0.00     0.029 A 
ATOM     35  C   UNL     1       7.923  -1.130  -2.963  1.00  0.00     0.049 A 
ATOM     36  H   UNL     1       7.936  -2.044  -4.838  1.00  0.00     0.167 HD
ATOM     37  C   UNL     1       8.043  -4.437  -8.523  1.00  0.00     0.034 A 
ATOM     38  C   UNL     1       9.136  -0.576  -2.766  1.00  0.00     0.034 A 
ATOM     39  C   UNL     1       9.350  -3.830  -8.429  1.00  0.00     0.049 A 
ATOM     40  C   UNL     1      10.211  -0.781  -3.800  1.00  0.00     0.074 A 
ATOM     41  C   UNL     1      10.391  -3.873  -9.342  1.00  0.00     0.029 A 
ATOM     42  N   UNL     1       9.798  -3.068  -7.357  1.00  0.00    -0.354 N 
ATOM     43  N   UNL     1      10.159  -1.460  -4.922  1.00  0.00    -0.248 NA
ATOM     44  C   UNL     1      11.511  -0.151  -3.536  1.00  0.00     0.031 C 
ATOM     45  C   UNL     1      11.485  -3.190  -8.797  1.00  0.00     0.029 A 
ATOM     46  C   UNL     1      11.106  -2.659  -7.574  1.00  0.00     0.049 A 
ATOM     47  H   UNL     1       9.265  -2.849  -6.559  1.00  0.00     0.167 HD
ATOM     48  C   UNL     1      11.414  -1.321  -5.507  1.00  0.00     0.074 A 
ATOM     49  C   UNL     1      12.195  -0.483  -4.621  1.00  0.00     0.031 C 
ATOM     50  C   UNL     1      11.878  -1.836  -6.674  1.00  0.00     0.034 A 
BRANCH  37  51
ATOM     51  C   UNL     1       7.735  -5.312  -9.716  1.00  0.00     0.023 A 
ATOM     52  C   UNL     1       6.735  -4.981 -10.646  1.00  0.00     0.031 A 
ATOM     53  C   UNL     1       8.444  -6.511  -9.912  1.00  0.00     0.131 A 
ATOM     54  C   UNL     1       6.427  -5.869 -11.689  1.00  0.00     0.055 A 
ATOM     55  C   UNL     1       8.184  -7.355 -10.993  1.00  0.00     0.041 A 
ATOM     56  F   UNL     1       9.398  -6.890  -9.046  1.00  0.00    -0.206 F 
ATOM     57  C   UNL     1       7.160  -7.043 -11.882  1.00  0.00     0.022 A 
BRANCH  54  58
ATOM     58  S   UNL     1       4.968  -5.534 -12.714  1.00  0.00     0.124 S 
ATOM     59  O   UNL     1       3.904  -5.506 -11.713  1.00  0.00    -0.237 OA
ATOM     60  O   UNL     1       5.301  -4.254 -13.328  1.00  0.00    -0.237 OA
ATOM     61  O   UNL     1       4.922  -6.672 -13.629  1.00  0.00    -0.744 OA
ENDBRANCH  54  58
ENDBRANCH  37  51
BRANCH  38  62
ATOM     62  C   UNL     1       9.425   0.165  -1.505  1.00  0.00     0.023 A 
ATOM     63  C   UNL     1       9.698   1.541  -1.521  1.00  0.00     0.031 A 
ATOM     64  C   UNL     1       9.460  -0.503  -0.268  1.00  0.00     0.131 A 
ATOM     65  C   UNL     1      10.028   2.200  -0.327  1.00  0.00     0.055 A 
ATOM     66  C   UNL     1       9.739   0.167   0.924  1.00  0.00     0.041 A 
ATOM     67  F   UNL     1       9.205  -1.819  -0.198  1.00  0.00    -0.206 F 
ATOM     68  C   UNL     1      10.036   1.526   0.897  1.00  0.00     0.022 A 
BRANCH  65  69
ATOM     69  S   UNL     1      10.518   3.944  -0.405  1.00  0.00     0.124 S 
ATOM     70  O   UNL     1      11.666   3.890  -1.304  1.00  0.00    -0.237 OA
ATOM     71  O   UNL     1       9.315   4.573  -0.939  1.00  0.00    -0.237 OA
ATOM     72  O   UNL     1      10.828   4.274   0.984  1.00  0.00    -0.744 OA
ENDBRANCH  65  69
ENDBRANCH  38  62
BRANCH  50  73
ATOM     73  C   UNL     1      13.282  -1.459  -7.073  1.00  0.00     0.023 A 
ATOM     74  C   UNL     1      14.404  -1.937  -6.373  1.00  0.00     0.031 A 
ATOM     75  C   UNL     1      13.496  -0.589  -8.156  1.00  0.00     0.131 A 
ATOM     76  C   UNL     1      15.688  -1.501  -6.734  1.00  0.00     0.055 A 
ATOM     77  C   UNL     1      14.779  -0.200  -8.543  1.00  0.00     0.041 A 
ATOM     78  F   UNL     1      12.459  -0.101  -8.856  1.00  0.00    -0.206 F 
ATOM     79  C   UNL     1      15.883  -0.647  -7.823  1.00  0.00     0.022 A 
BRANCH  76  80
ATOM     80  S   UNL     1      17.099  -2.001  -5.709  1.00  0.00     0.124 S 
ATOM     81  O   UNL     1      16.739  -1.449  -4.407  1.00  0.00    -0.237 OA
ATOM     82  O   UNL     1      17.064  -3.456  -5.816  1.00  0.00    -0.237 OA
ATOM     83  O   UNL     1      18.240  -1.360  -6.360  1.00  0.00    -0.744 OA
ENDBRANCH  76  80
ENDBRANCH  50  73
ENDBRANCH  24  25
ENDBRANCH  17  19
ENDBRANCH  16  17
ENDBRANCH  15  16
ENDBRANCH   1  15
TORSDOF 18
