REMARK SMILES CCCC[C@@H](C(=O)OCCOC(=O)c1ccc(-c2c3nc(c(-c4cc(S(=O)(=O)[O-])ccc4F)c4ccc([nH]4)c(-c4cc(S(=O)(=O)[O-])ccc4F)c4nc(c(-c5cc(S(=O)(=O)[O-])ccc5F)c5ccc2[nH]5)C=C4)C=C3)cc1)[C@]1(O)COc2cc(O)ccc21
REMARK SMILES IDX 9 1 8 2 6 3 7 4 5 5 4 6 3 7 2 8 1 9 77 10 79 11 87 12 80 13
REMARK SMILES IDX 81 14 86 15 82 16 85 17 83 18 78 19 84 21 10 23 11 24 12 25
REMARK SMILES IDX 13 26 14 27 15 28 76 29 16 30 75 31 17 32 18 33 19 34 69 35
REMARK SMILES IDX 20 36 74 37 68 38 70 39 21 40 73 41 67 42 66 43 22 45 54 46
REMARK SMILES IDX 34 47 53 48 35 49 38 50 52 51 71 52 36 53 37 54 51 56 72 57
REMARK SMILES IDX 39 58 23 59 24 60 32 61 25 62 31 63 33 64 30 65 26 66 27 67
REMARK SMILES IDX 28 68 29 69 55 70 56 71 64 72 57 73 63 74 65 75 62 76 58 77
REMARK SMILES IDX 59 78 60 79 61 80 40 81 41 82 49 83 42 84 48 85 50 86 47 87
REMARK SMILES IDX 43 88 44 89 45 90 46 91
REMARK H PARENT 78 20 84 22 70 44 38 55
REMARK Flexibility Score: inf
ROOT
ATOM      1  C   UNL     1      -1.456  -5.709  -1.489  1.00  0.00     0.274 C 
ENDROOT
BRANCH   1   2
ATOM      2  O   UNL     1      -1.166  -4.542  -0.705  1.00  0.00    -0.462 OA
BRANCH   2   3
ATOM      3  C   UNL     1      -1.941  -3.452  -0.958  1.00  0.00     0.312 C 
ATOM      4  O   UNL     1      -2.730  -3.360  -1.891  1.00  0.00    -0.252 OA
BRANCH   3   5
ATOM      5  C   UNL     1      -1.738  -2.363   0.090  1.00  0.00     0.139 C 
BRANCH   5   6
ATOM      6  C   UNL     1      -0.233  -2.247   0.479  1.00  0.00     0.019 C 
BRANCH   6   7
ATOM      7  C   UNL     1       0.755  -1.952  -0.659  1.00  0.00     0.001 C 
BRANCH   7   8
ATOM      8  C   UNL     1       0.680  -0.543  -1.239  1.00  0.00    -0.003 C 
ATOM      9  C   UNL     1       1.096   0.532  -0.247  1.00  0.00     0.004 C 
ENDBRANCH   7   8
ENDBRANCH   6   7
ENDBRANCH   5   6
BRANCH   5  10
ATOM     10  C   UNL     1      -2.696  -2.547   1.328  1.00  0.00     0.140 C 
ATOM     11  C   UNL     1      -2.024  -3.325   2.474  1.00  0.00     0.270 C 
ATOM     12  C   UNL     1      -3.825  -3.539   1.180  1.00  0.00     0.030 A 
ATOM     13  O   UNL     1      -2.061  -4.697   2.052  1.00  0.00    -0.490 OA
ATOM     14  C   UNL     1      -3.324  -4.788   1.536  1.00  0.00     0.129 A 
ATOM     15  C   UNL     1      -5.161  -3.428   0.847  1.00  0.00     0.014 A 
ATOM     16  C   UNL     1      -4.032  -5.960   1.427  1.00  0.00     0.093 A 
ATOM     17  C   UNL     1      -5.944  -4.599   0.829  1.00  0.00     0.047 A 
ATOM     18  C   UNL     1      -5.365  -5.851   1.087  1.00  0.00     0.119 A 
BRANCH  10  19
ATOM     19  O   UNL     1      -3.147  -1.279   1.794  1.00  0.00    -0.381 OA
ATOM     20  H   UNL     1      -2.391  -0.676   1.874  1.00  0.00     0.212 HD
ENDBRANCH  10  19
BRANCH  18  21
ATOM     21  O   UNL     1      -6.089  -7.006   1.047  1.00  0.00    -0.508 OA
ATOM     22  H   UNL     1      -5.673  -7.826   1.225  1.00  0.00     0.293 HD
ENDBRANCH  18  21
ENDBRANCH   5  10
ENDBRANCH   3   5
ENDBRANCH   2   3
ENDBRANCH   1   2
BRANCH   1  23
ATOM     23  C   UNL     1      -0.580  -6.871  -1.009  1.00  0.00     0.275 C 
BRANCH  23  24
ATOM     24  O   UNL     1      -0.953  -7.274   0.326  1.00  0.00    -0.458 OA
BRANCH  24  25
ATOM     25  C   UNL     1      -0.027  -7.074   1.302  1.00  0.00     0.338 C 
ATOM     26  O   UNL     1       1.124  -6.696   1.145  1.00  0.00    -0.246 OA
BRANCH  25  27
ATOM     27  C   UNL     1      -0.674  -7.214   2.631  1.00  0.00     0.060 A 
ATOM     28  C   UNL     1      -0.438  -6.198   3.565  1.00  0.00     0.016 A 
ATOM     29  C   UNL     1      -1.599  -8.225   2.920  1.00  0.00     0.016 A 
ATOM     30  C   UNL     1      -1.230  -6.105   4.710  1.00  0.00     0.010 A 
ATOM     31  C   UNL     1      -2.341  -8.172   4.111  1.00  0.00     0.010 A 
ATOM     32  C   UNL     1      -2.182  -7.095   4.998  1.00  0.00    -0.014 A 
BRANCH  32  33
ATOM     33  C   UNL     1      -2.786  -7.100   6.356  1.00  0.00     0.031 A 
ATOM     34  C   UNL     1      -1.910  -7.598   7.472  1.00  0.00     0.074 A 
ATOM     35  C   UNL     1      -4.003  -6.587   6.621  1.00  0.00     0.049 A 
ATOM     36  N   UNL     1      -2.136  -7.642   8.757  1.00  0.00    -0.248 NA
ATOM     37  C   UNL     1      -0.575  -8.075   7.074  1.00  0.00     0.031 C 
ATOM     38  C   UNL     1      -4.899  -5.971   5.643  1.00  0.00     0.029 A 
ATOM     39  N   UNL     1      -4.688  -6.480   7.810  1.00  0.00    -0.354 N 
ATOM     40  C   UNL     1      -0.957  -8.115   9.323  1.00  0.00     0.074 A 
ATOM     41  C   UNL     1      -0.029  -8.356   8.242  1.00  0.00     0.031 C 
ATOM     42  C   UNL     1      -6.011  -5.547   6.274  1.00  0.00     0.029 A 
ATOM     43  C   UNL     1      -5.931  -5.895   7.694  1.00  0.00     0.049 A 
ATOM     44  H   UNL     1      -4.322  -6.793   8.669  1.00  0.00     0.167 HD
ATOM     45  C   UNL     1      -0.673  -8.346  10.627  1.00  0.00     0.034 A 
ATOM     46  C   UNL     1      -6.890  -5.690   8.625  1.00  0.00     0.034 A 
ATOM     47  C   UNL     1      -1.643  -8.219  11.681  1.00  0.00     0.049 A 
ATOM     48  C   UNL     1      -6.618  -6.136  10.051  1.00  0.00     0.074 A 
ATOM     49  C   UNL     1      -1.524  -8.567  13.013  1.00  0.00     0.029 A 
ATOM     50  N   UNL     1      -2.933  -7.733  11.507  1.00  0.00    -0.354 N 
ATOM     51  N   UNL     1      -5.516  -6.632  10.569  1.00  0.00    -0.248 NA
ATOM     52  C   UNL     1      -7.721  -6.001  11.015  1.00  0.00     0.031 C 
ATOM     53  C   UNL     1      -2.763  -8.357  13.629  1.00  0.00     0.029 A 
ATOM     54  C   UNL     1      -3.631  -7.800  12.701  1.00  0.00     0.049 A 
ATOM     55  H   UNL     1      -3.298  -7.391  10.659  1.00  0.00     0.167 HD
ATOM     56  C   UNL     1      -5.788  -6.842  11.921  1.00  0.00     0.074 A 
ATOM     57  C   UNL     1      -7.149  -6.400  12.142  1.00  0.00     0.031 C 
ATOM     58  C   UNL     1      -4.991  -7.354  12.895  1.00  0.00     0.034 A 
BRANCH  45  59
ATOM     59  C   UNL     1       0.703  -8.884  10.917  1.00  0.00     0.023 A 
ATOM     60  C   UNL     1       1.857  -8.112  10.684  1.00  0.00     0.031 A 
ATOM     61  C   UNL     1       0.869 -10.229  11.289  1.00  0.00     0.131 A 
ATOM     62  C   UNL     1       3.121  -8.718  10.733  1.00  0.00     0.055 A 
ATOM     63  C   UNL     1       2.134 -10.803  11.417  1.00  0.00     0.041 A 
ATOM     64  F   UNL     1      -0.197 -11.021  11.483  1.00  0.00    -0.206 F 
ATOM     65  C   UNL     1       3.269 -10.053  11.120  1.00  0.00     0.022 A 
BRANCH  62  66
ATOM     66  S   UNL     1       4.552  -7.794  10.106  1.00  0.00     0.124 S 
ATOM     67  O   UNL     1       4.162  -7.554   8.719  1.00  0.00    -0.237 OA
ATOM     68  O   UNL     1       4.578  -6.623  10.975  1.00  0.00    -0.237 OA
ATOM     69  O   UNL     1       5.664  -8.726  10.281  1.00  0.00    -0.744 OA
ENDBRANCH  62  66
ENDBRANCH  45  59
BRANCH  46  70
ATOM     70  C   UNL     1      -8.228  -5.116   8.264  1.00  0.00     0.023 A 
ATOM     71  C   UNL     1      -8.730  -3.957   8.885  1.00  0.00     0.031 A 
ATOM     72  C   UNL     1      -9.080  -5.791   7.369  1.00  0.00     0.131 A 
ATOM     73  C   UNL     1     -10.054  -3.543   8.645  1.00  0.00     0.055 A 
ATOM     74  C   UNL     1     -10.374  -5.344   7.090  1.00  0.00     0.041 A 
ATOM     75  F   UNL     1      -8.671  -6.914   6.756  1.00  0.00    -0.206 F 
ATOM     76  C   UNL     1     -10.874  -4.222   7.742  1.00  0.00     0.022 A 
BRANCH  73  77
ATOM     77  S   UNL     1     -10.736  -2.164   9.611  1.00  0.00     0.124 S 
ATOM     78  O   UNL     1     -10.575  -2.650  10.977  1.00  0.00    -0.237 OA
ATOM     79  O   UNL     1      -9.869  -1.060   9.215  1.00  0.00    -0.237 OA
ATOM     80  O   UNL     1     -12.116  -2.068   9.141  1.00  0.00    -0.744 OA
ENDBRANCH  73  77
ENDBRANCH  46  70
BRANCH  58  81
ATOM     81  C   UNL     1      -5.556  -7.420  14.293  1.00  0.00     0.023 A 
ATOM     82  C   UNL     1      -6.617  -8.279  14.627  1.00  0.00     0.031 A 
ATOM     83  C   UNL     1      -5.005  -6.622  15.312  1.00  0.00     0.131 A 
ATOM     84  C   UNL     1      -7.125  -8.286  15.935  1.00  0.00     0.055 A 
ATOM     85  C   UNL     1      -5.476  -6.676  16.624  1.00  0.00     0.041 A 
ATOM     86  F   UNL     1      -3.989  -5.784  15.049  1.00  0.00    -0.206 F 
ATOM     87  C   UNL     1      -6.549  -7.503  16.940  1.00  0.00     0.022 A 
BRANCH  84  88
ATOM     88  S   UNL     1      -8.603  -9.275  16.293  1.00  0.00     0.124 S 
ATOM     89  O   UNL     1      -9.575  -8.719  15.357  1.00  0.00    -0.237 OA
ATOM     90  O   UNL     1      -8.148 -10.632  16.008  1.00  0.00    -0.237 OA
ATOM     91  O   UNL     1      -8.870  -8.996  17.703  1.00  0.00    -0.744 OA
ENDBRANCH  84  88
ENDBRANCH  58  81
ENDBRANCH  32  33
ENDBRANCH  25  27
ENDBRANCH  24  25
ENDBRANCH  23  24
ENDBRANCH   1  23
TORSDOF 20
