REMARK SMILES CC[NH2+][C@@]1(C(=O)OCCOC(=O)c2ccc(-c3c4nc(c(-c5cc(S(=O)(=O)[O-])ccc5F)c5ccc([nH]5)c(-c5cc(S(=O)(=O)[O-])ccc5F)c5nc(c(-c6cc(S(=O)(=O)[O-])ccc6F)c6ccc3[nH]6)C=C5)C=C4)cc2)CC[C@@H]([N@@H+](C)Cc2nccn2C)C1
REMARK SMILES IDX 8 1 7 2 5 3 6 4 4 5 76 6 88 7 77 8 78 9 3 10 2 13 1 14 79 15
REMARK SMILES IDX 80 16 81 18 82 19 83 20 86 21 84 22 85 23 87 24 9 25 10 26
REMARK SMILES IDX 11 27 12 28 13 29 14 30 75 31 15 32 74 33 16 34 17 35 18 36
REMARK SMILES IDX 68 37 19 38 73 39 67 40 69 41 20 42 72 43 66 44 65 45 21 47
REMARK SMILES IDX 53 48 33 49 52 50 34 51 37 52 51 53 70 54 35 55 36 56 50 58
REMARK SMILES IDX 71 59 38 60 22 61 23 62 31 63 24 64 30 65 32 66 29 67 25 68
REMARK SMILES IDX 26 69 27 70 28 71 54 72 55 73 63 74 56 75 62 76 64 77 61 78
REMARK SMILES IDX 57 79 58 80 59 81 60 82 39 83 40 84 48 85 41 86 47 87 49 88
REMARK SMILES IDX 46 89 42 90 43 91 44 92 45 93
REMARK H PARENT 3 11 3 12 79 17 69 46 37 57
REMARK Flexibility Score: inf
ROOT
ATOM      1  C   UNL     1      -2.430  -3.828   3.476  1.00  0.00     0.274 C 
ENDROOT
BRANCH   1   2
ATOM      2  O   UNL     1      -1.370  -4.136   2.547  1.00  0.00    -0.457 OA
BRANCH   2   3
ATOM      3  C   UNL     1      -1.016  -3.139   1.683  1.00  0.00     0.368 C 
ATOM      4  O   UNL     1      -1.503  -2.015   1.718  1.00  0.00    -0.245 OA
BRANCH   3   5
ATOM      5  C   UNL     1       0.030  -3.618   0.623  1.00  0.00     0.200 C 
ATOM      6  C   UNL     1      -0.663  -4.420  -0.480  1.00  0.00     0.087 C 
ATOM      7  C   UNL     1       1.060  -4.589   1.238  1.00  0.00     0.146 C 
ATOM      8  C   UNL     1      -0.636  -5.867  -0.019  1.00  0.00     0.072 C 
ATOM      9  C   UNL     1       0.600  -6.020   0.885  1.00  0.00     0.191 C 
BRANCH   5  10
ATOM     10  N   UNL     1       0.798  -2.469   0.065  1.00  0.00    -0.332 N 
ATOM     11  H   UNL     1       1.133  -1.912   0.851  1.00  0.00     0.347 HD
ATOM     12  H   UNL     1       1.532  -2.890  -0.504  1.00  0.00     0.347 HD
BRANCH  10  13
ATOM     13  C   UNL     1       0.080  -1.574  -0.838  1.00  0.00     0.257 C 
ATOM     14  C   UNL     1       0.795  -0.228  -0.888  1.00  0.00     0.071 C 
ENDBRANCH  10  13
ENDBRANCH   5  10
BRANCH   9  15
ATOM     15  N   UNL     1       1.659  -6.953   0.466  1.00  0.00    -0.328 N 
ATOM     16  C   UNL     1       1.165  -8.297   0.179  1.00  0.00     0.333 C 
ATOM     17  H   UNL     1       2.216  -6.975   1.321  1.00  0.00     0.348 HD
BRANCH  15  18
ATOM     18  C   UNL     1       2.655  -6.508  -0.528  1.00  0.00     0.338 C 
BRANCH  18  19
ATOM     19  C   UNL     1       2.134  -6.061  -1.866  1.00  0.00     0.164 A 
ATOM     20  N   UNL     1       1.395  -6.796  -2.685  1.00  0.00    -0.236 NA
ATOM     21  N   UNL     1       2.410  -4.841  -2.451  1.00  0.00    -0.333 N 
ATOM     22  C   UNL     1       1.151  -6.020  -3.784  1.00  0.00     0.131 A 
ATOM     23  C   UNL     1       1.769  -4.803  -3.663  1.00  0.00     0.107 A 
ATOM     24  C   UNL     1       3.222  -3.756  -1.953  1.00  0.00     0.151 C 
ENDBRANCH  18  19
ENDBRANCH  15  18
ENDBRANCH   9  15
ENDBRANCH   3   5
ENDBRANCH   2   3
ENDBRANCH   1   2
BRANCH   1  25
ATOM     25  C   UNL     1      -1.909  -3.422   4.857  1.00  0.00     0.275 C 
BRANCH  25  26
ATOM     26  O   UNL     1      -1.260  -2.139   4.815  1.00  0.00    -0.458 OA
BRANCH  26  27
ATOM     27  C   UNL     1       0.086  -2.166   4.952  1.00  0.00     0.338 C 
ATOM     28  O   UNL     1       0.787  -3.139   5.166  1.00  0.00    -0.246 OA
BRANCH  27  29
ATOM     29  C   UNL     1       0.636  -0.846   4.606  1.00  0.00     0.060 A 
ATOM     30  C   UNL     1       1.194  -0.720   3.336  1.00  0.00     0.016 A 
ATOM     31  C   UNL     1       0.704   0.210   5.512  1.00  0.00     0.016 A 
ATOM     32  C   UNL     1       1.811   0.462   2.943  1.00  0.00     0.010 A 
ATOM     33  C   UNL     1       1.332   1.403   5.122  1.00  0.00     0.010 A 
ATOM     34  C   UNL     1       1.893   1.534   3.836  1.00  0.00    -0.014 A 
BRANCH  34  35
ATOM     35  C   UNL     1       2.665   2.742   3.447  1.00  0.00     0.031 A 
ATOM     36  C   UNL     1       4.036   2.955   4.023  1.00  0.00     0.074 A 
ATOM     37  C   UNL     1       2.182   3.601   2.529  1.00  0.00     0.049 A 
ATOM     38  N   UNL     1       4.835   3.984   3.911  1.00  0.00    -0.248 NA
ATOM     39  C   UNL     1       4.578   1.852   4.829  1.00  0.00     0.031 C 
ATOM     40  C   UNL     1       0.916   3.447   1.813  1.00  0.00     0.029 A 
ATOM     41  N   UNL     1       2.705   4.771   2.035  1.00  0.00    -0.354 N 
ATOM     42  C   UNL     1       5.968   3.666   4.652  1.00  0.00     0.074 A 
ATOM     43  C   UNL     1       5.742   2.351   5.217  1.00  0.00     0.031 C 
ATOM     44  C   UNL     1       0.762   4.481   0.969  1.00  0.00     0.029 A 
ATOM     45  C   UNL     1       1.883   5.404   1.132  1.00  0.00     0.049 A 
ATOM     46  H   UNL     1       3.585   5.123   2.302  1.00  0.00     0.167 HD
ATOM     47  C   UNL     1       7.090   4.404   4.844  1.00  0.00     0.034 A 
ATOM     48  C   UNL     1       2.000   6.610   0.539  1.00  0.00     0.034 A 
ATOM     49  C   UNL     1       7.295   5.716   4.279  1.00  0.00     0.049 A 
ATOM     50  C   UNL     1       3.199   7.468   0.862  1.00  0.00     0.074 A 
ATOM     51  C   UNL     1       8.369   6.573   4.446  1.00  0.00     0.029 A 
ATOM     52  N   UNL     1       6.402   6.364   3.434  1.00  0.00    -0.354 N 
ATOM     53  N   UNL     1       4.225   7.197   1.635  1.00  0.00    -0.248 NA
ATOM     54  C   UNL     1       3.245   8.801   0.245  1.00  0.00     0.031 C 
ATOM     55  C   UNL     1       8.099   7.759   3.751  1.00  0.00     0.029 A 
ATOM     56  C   UNL     1       6.888   7.617   3.094  1.00  0.00     0.049 A 
ATOM     57  H   UNL     1       5.548   5.987   3.122  1.00  0.00     0.167 HD
ATOM     58  C   UNL     1       5.046   8.321   1.584  1.00  0.00     0.074 A 
ATOM     59  C   UNL     1       4.404   9.264   0.691  1.00  0.00     0.031 C 
ATOM     60  C   UNL     1       6.225   8.553   2.216  1.00  0.00     0.034 A 
BRANCH  47  61
ATOM     61  C   UNL     1       8.131   3.831   5.774  1.00  0.00     0.023 A 
ATOM     62  C   UNL     1       8.843   2.660   5.460  1.00  0.00     0.031 A 
ATOM     63  C   UNL     1       8.362   4.428   7.026  1.00  0.00     0.131 A 
ATOM     64  C   UNL     1       9.689   2.080   6.418  1.00  0.00     0.055 A 
ATOM     65  C   UNL     1       9.265   3.889   7.944  1.00  0.00     0.041 A 
ATOM     66  F   UNL     1       7.693   5.534   7.388  1.00  0.00    -0.206 F 
ATOM     67  C   UNL     1       9.921   2.698   7.649  1.00  0.00     0.022 A 
BRANCH  64  68
ATOM     68  S   UNL     1      10.356   0.423   6.096  1.00  0.00     0.124 S 
ATOM     69  O   UNL     1       9.136  -0.352   5.890  1.00  0.00    -0.237 OA
ATOM     70  O   UNL     1      11.182   0.641   4.914  1.00  0.00    -0.237 OA
ATOM     71  O   UNL     1      11.089   0.105   7.320  1.00  0.00    -0.744 OA
ENDBRANCH  64  68
ENDBRANCH  47  61
BRANCH  48  72
ATOM     72  C   UNL     1       0.920   7.124  -0.353  1.00  0.00     0.023 A 
ATOM     73  C   UNL     1       1.160   7.392  -1.710  1.00  0.00     0.031 A 
ATOM     74  C   UNL     1      -0.359   7.408   0.159  1.00  0.00     0.131 A 
ATOM     75  C   UNL     1       0.147   7.960  -2.499  1.00  0.00     0.055 A 
ATOM     76  C   UNL     1      -1.378   7.926  -0.642  1.00  0.00     0.041 A 
ATOM     77  F   UNL     1      -0.640   7.179   1.452  1.00  0.00    -0.206 F 
ATOM     78  C   UNL     1      -1.124   8.215  -1.978  1.00  0.00     0.022 A 
BRANCH  75  79
ATOM     79  S   UNL     1       0.535   8.432  -4.208  1.00  0.00     0.124 S 
ATOM     80  O   UNL     1       1.611   9.398  -4.012  1.00  0.00    -0.237 OA
ATOM     81  O   UNL     1       0.920   7.153  -4.796  1.00  0.00    -0.237 OA
ATOM     82  O   UNL     1      -0.723   8.989  -4.701  1.00  0.00    -0.744 OA
ENDBRANCH  75  79
ENDBRANCH  48  72
BRANCH  60  83
ATOM     83  C   UNL     1       6.905   9.868   1.928  1.00  0.00     0.023 A 
ATOM     84  C   UNL     1       6.378  11.088   2.386  1.00  0.00     0.031 A 
ATOM     85  C   UNL     1       8.090   9.899   1.173  1.00  0.00     0.131 A 
ATOM     86  C   UNL     1       7.010  12.294   2.043  1.00  0.00     0.055 A 
ATOM     87  C   UNL     1       8.742  11.097   0.877  1.00  0.00     0.041 A 
ATOM     88  F   UNL     1       8.635   8.762   0.710  1.00  0.00    -0.206 F 
ATOM     89  C   UNL     1       8.196  12.304   1.304  1.00  0.00     0.022 A 
BRANCH  86  90
ATOM     90  S   UNL     1       6.221  13.858   2.513  1.00  0.00     0.124 S 
ATOM     91  O   UNL     1       4.931  13.763   1.837  1.00  0.00    -0.237 OA
ATOM     92  O   UNL     1       6.186  13.766   3.969  1.00  0.00    -0.237 OA
ATOM     93  O   UNL     1       7.127  14.874   1.979  1.00  0.00    -0.744 OA
ENDBRANCH  86  90
ENDBRANCH  60  83
ENDBRANCH  34  35
ENDBRANCH  27  29
ENDBRANCH  26  27
ENDBRANCH  25  26
ENDBRANCH   1  25
TORSDOF 19
