REMARK SMILES Cc1[nH]c2ccccc2c1[C@H](C(=O)OCCOC(=O)c1ccc(-c2c3nc(c(-c4cc(S(=O)(=O)[O-])ccc4F)c4ccc([nH]4)c(-c4cc(S(=O)(=O)[O-])ccc4F)c4nc(c(-c5cc(S(=O)(=O)[O-])ccc5F)c5ccc2[nH]5)C=C4)C=C3)cc1)[NH+]1CCN(C(=O)c2ccco2)CC1
REMARK SMILES IDX 16 1 15 2 14 3 12 4 13 5 11 6 10 7 1 8 2 9 3 10 4 11 9 13
REMARK SMILES IDX 5 14 8 15 6 16 7 17 83 18 84 19 95 20 85 22 94 23 86 24
REMARK SMILES IDX 87 25 88 26 89 27 90 28 93 29 91 30 92 31 17 32 18 33 19 34
REMARK SMILES IDX 20 35 21 36 82 37 22 38 81 39 23 40 24 41 25 42 75 43 26 44
REMARK SMILES IDX 80 45 74 46 76 47 27 48 79 49 73 50 72 51 28 53 60 54 40 55
REMARK SMILES IDX 59 56 41 57 44 58 58 59 77 60 42 61 43 62 57 64 78 65 45 66
REMARK SMILES IDX 29 67 30 68 38 69 31 70 37 71 39 72 36 73 32 74 33 75 34 76
REMARK SMILES IDX 35 77 61 78 62 79 70 80 63 81 69 82 71 83 68 84 64 85 65 86
REMARK SMILES IDX 66 87 67 88 46 89 47 90 55 91 48 92 54 93 56 94 53 95 49 96
REMARK SMILES IDX 50 97 51 98 52 99
REMARK H PARENT 3 12 83 21 76 52 44 63
REMARK Flexibility Score: inf
ROOT
ATOM      1  C   UNL     1       0.682   1.291  -1.543  1.00  0.00     0.275 C 
ENDROOT
BRANCH   1   2
ATOM      2  C   UNL     1       1.301   0.192  -0.664  1.00  0.00     0.274 C 
BRANCH   2   3
ATOM      3  O   UNL     1       0.645  -1.091  -0.786  1.00  0.00    -0.457 OA
BRANCH   3   4
ATOM      4  C   UNL     1      -0.498  -1.246  -0.071  1.00  0.00     0.370 C 
ATOM      5  O   UNL     1      -0.938  -0.363   0.662  1.00  0.00    -0.245 OA
BRANCH   4   6
ATOM      6  C   UNL     1      -1.142  -2.640  -0.121  1.00  0.00     0.328 C 
BRANCH   6   7
ATOM      7  C   UNL     1      -0.871  -3.568  -1.325  1.00  0.00     0.049 A 
ATOM      8  C   UNL     1      -0.136  -2.000  -3.338  1.00  0.00     0.065 C 
ATOM      9  C   UNL     1      -0.442  -3.264  -2.622  1.00  0.00     0.022 A 
ATOM     10  N   UNL     1      -0.355  -4.431  -3.337  1.00  0.00    -0.358 N 
ATOM     11  C   UNL     1      -0.903  -5.471  -2.643  1.00  0.00     0.046 A 
ATOM     12  H   UNL     1       0.049  -4.508  -4.231  1.00  0.00     0.166 HD
ATOM     13  C   UNL     1      -1.254  -4.976  -1.389  1.00  0.00     0.009 A 
ATOM     14  C   UNL     1      -1.138  -6.788  -3.055  1.00  0.00     0.027 A 
ATOM     15  C   UNL     1      -1.909  -5.869  -0.508  1.00  0.00     0.011 A 
ATOM     16  C   UNL     1      -1.786  -7.640  -2.162  1.00  0.00     0.002 A 
ATOM     17  C   UNL     1      -2.172  -7.187  -0.906  1.00  0.00     0.001 A 
ENDBRANCH   6   7
BRANCH   6  18
ATOM     18  N   UNL     1      -0.941  -3.375   1.165  1.00  0.00    -0.316 N 
ATOM     19  C   UNL     1       0.442  -3.631   1.567  1.00  0.00     0.285 C 
ATOM     20  C   UNL     1      -1.716  -2.873   2.307  1.00  0.00     0.285 C 
ATOM     21  H   UNL     1      -1.330  -4.280   0.900  1.00  0.00     0.349 HD
ATOM     22  C   UNL     1       1.153  -2.487   2.303  1.00  0.00     0.181 C 
ATOM     23  C   UNL     1      -1.092  -1.780   3.205  1.00  0.00     0.181 C 
ATOM     24  N   UNL     1       0.372  -1.789   3.325  1.00  0.00    -0.325 N 
ATOM     25  C   UNL     1       1.077  -0.793   4.040  1.00  0.00     0.289 C 
ATOM     26  O   UNL     1       2.271  -0.598   3.792  1.00  0.00    -0.265 OA
BRANCH  25  27
ATOM     27  C   UNL     1       0.388  -0.012   5.055  1.00  0.00     0.191 A 
ATOM     28  C   UNL     1      -0.523  -0.324   6.050  1.00  0.00     0.056 A 
ATOM     29  O   UNL     1       0.723   1.316   5.169  1.00  0.00    -0.459 OA
ATOM     30  C   UNL     1      -0.776   0.868   6.774  1.00  0.00     0.043 A 
ATOM     31  C   UNL     1       0.005   1.837   6.195  1.00  0.00     0.196 A 
ENDBRANCH  25  27
ENDBRANCH   6  18
ENDBRANCH   4   6
ENDBRANCH   3   4
ENDBRANCH   2   3
ENDBRANCH   1   2
BRANCH   1  32
ATOM     32  O   UNL     1      -0.472   1.892  -0.923  1.00  0.00    -0.458 OA
BRANCH  32  33
ATOM     33  C   UNL     1      -1.677   1.454  -1.363  1.00  0.00     0.338 C 
ATOM     34  O   UNL     1      -1.881   0.694  -2.295  1.00  0.00    -0.246 OA
BRANCH  33  35
ATOM     35  C   UNL     1      -2.754   1.913  -0.467  1.00  0.00     0.060 A 
ATOM     36  C   UNL     1      -3.686   0.967  -0.019  1.00  0.00     0.016 A 
ATOM     37  C   UNL     1      -2.890   3.260  -0.129  1.00  0.00     0.016 A 
ATOM     38  C   UNL     1      -4.775   1.370   0.750  1.00  0.00     0.010 A 
ATOM     39  C   UNL     1      -3.988   3.664   0.635  1.00  0.00     0.010 A 
ATOM     40  C   UNL     1      -4.947   2.725   1.056  1.00  0.00    -0.014 A 
BRANCH  40  41
ATOM     41  C   UNL     1      -6.193   3.178   1.717  1.00  0.00     0.031 A 
ATOM     42  C   UNL     1      -7.276   3.801   0.880  1.00  0.00     0.074 A 
ATOM     43  C   UNL     1      -6.354   3.022   3.042  1.00  0.00     0.049 A 
ATOM     44  N   UNL     1      -8.422   4.311   1.250  1.00  0.00    -0.248 NA
ATOM     45  C   UNL     1      -7.025   3.862  -0.568  1.00  0.00     0.031 C 
ATOM     46  C   UNL     1      -5.381   2.401   3.942  1.00  0.00     0.029 A 
ATOM     47  N   UNL     1      -7.392   3.379   3.864  1.00  0.00    -0.354 N 
ATOM     48  C   UNL     1      -9.030   4.760   0.082  1.00  0.00     0.074 A 
ATOM     49  C   UNL     1      -8.105   4.495  -1.001  1.00  0.00     0.031 C 
ATOM     50  C   UNL     1      -5.868   2.429   5.194  1.00  0.00     0.029 A 
ATOM     51  C   UNL     1      -7.166   3.100   5.190  1.00  0.00     0.049 A 
ATOM     52  H   UNL     1      -8.221   3.796   3.534  1.00  0.00     0.167 HD
ATOM     53  C   UNL     1     -10.251   5.331  -0.072  1.00  0.00     0.034 A 
ATOM     54  C   UNL     1      -7.913   3.378   6.277  1.00  0.00     0.034 A 
ATOM     55  C   UNL     1     -11.149   5.602   1.025  1.00  0.00     0.049 A 
ATOM     56  C   UNL     1      -9.238   4.076   6.090  1.00  0.00     0.074 A 
ATOM     57  C   UNL     1     -12.410   6.171   0.989  1.00  0.00     0.029 A 
ATOM     58  N   UNL     1     -10.877   5.332   2.362  1.00  0.00    -0.354 N 
ATOM     59  N   UNL     1      -9.808   4.489   4.980  1.00  0.00    -0.248 NA
ATOM     60  C   UNL     1     -10.024   4.333   7.302  1.00  0.00     0.031 C 
ATOM     61  C   UNL     1     -12.869   6.308   2.305  1.00  0.00     0.029 A 
ATOM     62  C   UNL     1     -11.932   5.749   3.160  1.00  0.00     0.049 A 
ATOM     63  H   UNL     1     -10.054   4.906   2.694  1.00  0.00     0.167 HD
ATOM     64  C   UNL     1     -11.035   5.026   5.361  1.00  0.00     0.074 A 
ATOM     65  C   UNL     1     -11.127   4.865   6.798  1.00  0.00     0.031 C 
ATOM     66  C   UNL     1     -12.001   5.597   4.595  1.00  0.00     0.034 A 
BRANCH  53  67
ATOM     67  C   UNL     1     -10.649   5.746  -1.468  1.00  0.00     0.023 A 
ATOM     68  C   UNL     1     -10.817   4.807  -2.502  1.00  0.00     0.031 A 
ATOM     69  C   UNL     1     -10.829   7.105  -1.782  1.00  0.00     0.131 A 
ATOM     70  C   UNL     1     -11.082   5.242  -3.810  1.00  0.00     0.055 A 
ATOM     71  C   UNL     1     -11.170   7.527  -3.068  1.00  0.00     0.041 A 
ATOM     72  F   UNL     1     -10.658   8.051  -0.844  1.00  0.00    -0.206 F 
ATOM     73  C   UNL     1     -11.284   6.595  -4.095  1.00  0.00     0.022 A 
BRANCH  70  74
ATOM     74  S   UNL     1     -11.016   4.032  -5.160  1.00  0.00     0.124 S 
ATOM     75  O   UNL     1      -9.649   3.529  -5.040  1.00  0.00    -0.237 OA
ATOM     76  O   UNL     1     -12.075   3.098  -4.798  1.00  0.00    -0.237 OA
ATOM     77  O   UNL     1     -11.273   4.835  -6.354  1.00  0.00    -0.744 OA
ENDBRANCH  70  74
ENDBRANCH  53  67
BRANCH  54  78
ATOM     78  C   UNL     1      -7.423   3.026   7.641  1.00  0.00     0.023 A 
ATOM     79  C   UNL     1      -8.106   2.096   8.440  1.00  0.00     0.031 A 
ATOM     80  C   UNL     1      -6.289   3.655   8.184  1.00  0.00     0.131 A 
ATOM     81  C   UNL     1      -7.678   1.856   9.754  1.00  0.00     0.055 A 
ATOM     82  C   UNL     1      -5.836   3.374   9.475  1.00  0.00     0.041 A 
ATOM     83  F   UNL     1      -5.596   4.550   7.462  1.00  0.00    -0.206 F 
ATOM     84  C   UNL     1      -6.541   2.479  10.273  1.00  0.00     0.022 A 
BRANCH  81  85
ATOM     85  S   UNL     1      -8.680   0.772  10.809  1.00  0.00     0.124 S 
ATOM     86  O   UNL     1      -9.970   1.450  10.792  1.00  0.00    -0.237 OA
ATOM     87  O   UNL     1      -8.611  -0.496  10.090  1.00  0.00    -0.237 OA
ATOM     88  O   UNL     1      -7.975   0.798  12.089  1.00  0.00    -0.744 OA
ENDBRANCH  81  85
ENDBRANCH  54  78
BRANCH  66  89
ATOM     89  C   UNL     1     -13.258   6.045   5.305  1.00  0.00     0.023 A 
ATOM     90  C   UNL     1     -13.243   7.082   6.254  1.00  0.00     0.031 A 
ATOM     91  C   UNL     1     -14.481   5.397   5.055  1.00  0.00     0.131 A 
ATOM     92  C   UNL     1     -14.410   7.392   6.971  1.00  0.00     0.055 A 
ATOM     93  C   UNL     1     -15.654   5.756   5.721  1.00  0.00     0.041 A 
ATOM     94  F   UNL     1     -14.555   4.398   4.161  1.00  0.00    -0.206 F 
ATOM     95  C   UNL     1     -15.618   6.746   6.698  1.00  0.00     0.022 A 
BRANCH  92  96
ATOM     96  S   UNL     1     -14.298   8.565   8.350  1.00  0.00     0.124 S 
ATOM     97  O   UNL     1     -13.266   7.956   9.183  1.00  0.00    -0.237 OA
ATOM     98  O   UNL     1     -13.925   9.804   7.676  1.00  0.00    -0.237 OA
ATOM     99  O   UNL     1     -15.644   8.551   8.921  1.00  0.00    -0.744 OA
ENDBRANCH  92  96
ENDBRANCH  66  89
ENDBRANCH  40  41
ENDBRANCH  33  35
ENDBRANCH  32  33
ENDBRANCH   1  32
TORSDOF 17
