REMARK SMILES NS(=O)(=O)c1ccc(-n2ccnc2-c2ccc(O)c(C(=O)OCCOC(=O)c3ccc(-c4c5nc(c(-c6cc(S(=O)(=O)[O-])ccc6F)c6ccc([nH]6)c(-c6cc(S(=O)(=O)[O-])ccc6F)c6nc(c(-c7cc(S(=O)(=O)[O-])ccc7F)c7ccc4[nH]7)C=C6)C=C5)cc3)c2)cc1
REMARK SMILES IDX 23 1 22 2 20 3 21 4 19 5 14 6 15 7 91 8 16 9 17 10 13 11
REMARK SMILES IDX 9 12 10 13 11 14 12 15 8 16 5 17 6 18 93 19 7 20 92 21 2 22
REMARK SMILES IDX 3 23 4 24 1 25 18 28 24 30 25 31 26 32 27 33 28 34 29 35
REMARK SMILES IDX 90 36 30 37 89 38 31 39 32 40 33 41 83 42 34 43 88 44 82 45
REMARK SMILES IDX 84 46 35 47 87 48 81 49 80 50 36 52 68 53 48 54 67 55 49 56
REMARK SMILES IDX 52 57 66 58 85 59 50 60 51 61 65 63 86 64 53 65 37 66 38 67
REMARK SMILES IDX 46 68 39 69 45 70 47 71 44 72 40 73 41 74 42 75 43 76 69 77
REMARK SMILES IDX 70 78 78 79 71 80 77 81 79 82 76 83 72 84 73 85 74 86 75 87
REMARK SMILES IDX 54 88 55 89 63 90 56 91 62 92 64 93 61 94 57 95 58 96 59 97
REMARK SMILES IDX 60 98
REMARK H PARENT 1 26 1 27 18 29 84 51 52 62
REMARK Flexibility Score: inf
ROOT
ATOM      1  C   UNL     1      -3.379   0.001  -5.181  1.00  0.00     0.275 C 
ENDROOT
BRANCH   1   2
ATOM      2  O   UNL     1      -2.228  -0.788  -5.533  1.00  0.00    -0.458 OA
BRANCH   2   3
ATOM      3  C   UNL     1      -2.425  -2.127  -5.654  1.00  0.00     0.342 C 
ATOM      4  O   UNL     1      -3.409  -2.754  -5.285  1.00  0.00    -0.246 OA
BRANCH   3   5
ATOM      5  C   UNL     1      -1.327  -2.767  -6.423  1.00  0.00     0.102 A 
ATOM      6  C   UNL     1       0.956  -2.712  -7.284  1.00  0.00     0.019 A 
ATOM      7  C   UNL     1       0.773  -3.979  -7.841  1.00  0.00     0.016 A 
ATOM      8  C   UNL     1      -0.127  -2.087  -6.644  1.00  0.00     0.031 A 
ATOM      9  C   UNL     1      -0.449  -4.642  -7.686  1.00  0.00     0.048 A 
ATOM     10  C   UNL     1      -1.483  -4.050  -6.957  1.00  0.00     0.130 A 
BRANCH   6  11
ATOM     11  C   UNL     1       2.267  -2.049  -7.303  1.00  0.00     0.144 A 
ATOM     12  N   UNL     1       2.798  -1.345  -6.220  1.00  0.00    -0.300 N 
ATOM     13  C   UNL     1       3.842  -0.596  -6.711  1.00  0.00     0.113 A 
ATOM     14  C   UNL     1       4.023  -1.030  -8.002  1.00  0.00     0.132 A 
ATOM     15  N   UNL     1       3.071  -1.952  -8.347  1.00  0.00    -0.236 NA
BRANCH  12  16
ATOM     16  C   UNL     1       2.345  -1.364  -4.875  1.00  0.00     0.047 A 
ATOM     17  C   UNL     1       1.225  -1.397  -2.330  1.00  0.00     0.082 A 
ATOM     18  C   UNL     1       1.414  -2.601  -3.011  1.00  0.00     0.024 A 
ATOM     19  C   UNL     1       1.613  -0.180  -2.902  1.00  0.00     0.024 A 
ATOM     20  C   UNL     1       1.966  -2.584  -4.290  1.00  0.00     0.028 A 
ATOM     21  C   UNL     1       2.196  -0.163  -4.173  1.00  0.00     0.028 A 
BRANCH  17  22
ATOM     22  S   UNL     1       0.534  -1.451  -0.705  1.00  0.00     0.238 S 
ATOM     23  O   UNL     1       1.047  -2.611  -0.016  1.00  0.00    -0.207 OA
ATOM     24  O   UNL     1      -0.874  -1.143  -0.787  1.00  0.00    -0.207 OA
BRANCH  22  25
ATOM     25  N   UNL     1       1.247  -0.142   0.076  1.00  0.00    -0.225 NA
ATOM     26  H   UNL     1       0.904  -0.090   1.035  1.00  0.00     0.137 HD
ATOM     27  H   UNL     1       1.008   0.719  -0.417  1.00  0.00     0.137 HD
ENDBRANCH  22  25
ENDBRANCH  17  22
ENDBRANCH  12  16
ENDBRANCH   6  11
BRANCH  10  28
ATOM     28  O   UNL     1      -2.630  -4.786  -6.821  1.00  0.00    -0.507 OA
ATOM     29  H   UNL     1      -2.685  -5.642  -7.197  1.00  0.00     0.293 HD
ENDBRANCH  10  28
ENDBRANCH   3   5
ENDBRANCH   2   3
ENDBRANCH   1   2
BRANCH   1  30
ATOM     30  C   UNL     1      -4.176   0.401  -6.416  1.00  0.00     0.275 C 
BRANCH  30  31
ATOM     31  O   UNL     1      -4.836  -0.727  -6.988  1.00  0.00    -0.458 OA
BRANCH  31  32
ATOM     32  C   UNL     1      -4.151  -1.318  -7.993  1.00  0.00     0.338 C 
ATOM     33  O   UNL     1      -2.967  -1.183  -8.253  1.00  0.00    -0.246 OA
BRANCH  32  34
ATOM     34  C   UNL     1      -5.086  -2.002  -8.880  1.00  0.00     0.060 A 
ATOM     35  C   UNL     1      -4.547  -2.845  -9.857  1.00  0.00     0.016 A 
ATOM     36  C   UNL     1      -6.402  -1.524  -8.942  1.00  0.00     0.016 A 
ATOM     37  C   UNL     1      -5.273  -3.055 -11.009  1.00  0.00     0.010 A 
ATOM     38  C   UNL     1      -7.114  -1.721 -10.095  1.00  0.00     0.010 A 
ATOM     39  C   UNL     1      -6.508  -2.414 -11.143  1.00  0.00    -0.014 A 
BRANCH  39  40
ATOM     40  C   UNL     1      -7.215  -2.525 -12.401  1.00  0.00     0.031 A 
ATOM     41  C   UNL     1      -7.849  -3.847 -12.615  1.00  0.00     0.074 A 
ATOM     42  C   UNL     1      -7.423  -1.444 -13.175  1.00  0.00     0.049 A 
ATOM     43  N   UNL     1      -7.724  -4.647 -13.618  1.00  0.00    -0.248 NA
ATOM     44  C   UNL     1      -8.629  -4.409 -11.497  1.00  0.00     0.031 C 
ATOM     45  C   UNL     1      -7.096  -0.046 -12.870  1.00  0.00     0.029 A 
ATOM     46  N   UNL     1      -8.119  -1.349 -14.338  1.00  0.00    -0.354 N 
ATOM     47  C   UNL     1      -8.557  -5.728 -13.348  1.00  0.00     0.074 A 
ATOM     48  C   UNL     1      -8.940  -5.612 -11.969  1.00  0.00     0.031 C 
ATOM     49  C   UNL     1      -7.809   0.761 -13.687  1.00  0.00     0.029 A 
ATOM     50  C   UNL     1      -8.539  -0.060 -14.639  1.00  0.00     0.049 A 
ATOM     51  H   UNL     1      -8.309  -2.125 -14.914  1.00  0.00     0.167 HD
ATOM     52  C   UNL     1      -9.039  -6.524 -14.338  1.00  0.00     0.034 A 
ATOM     53  C   UNL     1      -9.502   0.291 -15.532  1.00  0.00     0.034 A 
ATOM     54  C   UNL     1      -8.232  -6.416 -15.529  1.00  0.00     0.049 A 
ATOM     55  C   UNL     1      -9.689  -0.864 -16.448  1.00  0.00     0.074 A 
ATOM     56  C   UNL     1      -6.902  -6.671 -15.806  1.00  0.00     0.029 A 
ATOM     57  N   UNL     1      -8.677  -5.618 -16.558  1.00  0.00    -0.354 N 
ATOM     58  N   UNL     1      -8.767  -1.292 -17.267  1.00  0.00    -0.248 NA
ATOM     59  C   UNL     1     -10.714  -1.844 -16.115  1.00  0.00     0.031 C 
ATOM     60  C   UNL     1      -6.501  -5.622 -16.682  1.00  0.00     0.029 A 
ATOM     61  C   UNL     1      -7.620  -4.829 -16.948  1.00  0.00     0.049 A 
ATOM     62  H   UNL     1      -9.583  -5.612 -16.944  1.00  0.00     0.167 HD
ATOM     63  C   UNL     1      -8.844  -2.676 -17.210  1.00  0.00     0.074 A 
ATOM     64  C   UNL     1     -10.127  -2.955 -16.570  1.00  0.00     0.031 C 
ATOM     65  C   UNL     1      -7.745  -3.461 -17.422  1.00  0.00     0.034 A 
BRANCH  52  66
ATOM     66  C   UNL     1     -10.410  -7.157 -14.325  1.00  0.00     0.023 A 
ATOM     67  C   UNL     1     -10.758  -7.973 -15.416  1.00  0.00     0.031 A 
ATOM     68  C   UNL     1     -11.474  -6.800 -13.462  1.00  0.00     0.131 A 
ATOM     69  C   UNL     1     -12.098  -8.321 -15.659  1.00  0.00     0.055 A 
ATOM     70  C   UNL     1     -12.793  -7.210 -13.667  1.00  0.00     0.041 A 
ATOM     71  F   UNL     1     -11.325  -5.958 -12.432  1.00  0.00    -0.206 F 
ATOM     72  C   UNL     1     -13.119  -7.949 -14.788  1.00  0.00     0.022 A 
BRANCH  69  73
ATOM     73  S   UNL     1     -12.509  -9.109 -17.236  1.00  0.00     0.124 S 
ATOM     74  O   UNL     1     -11.868  -8.214 -18.193  1.00  0.00    -0.237 OA
ATOM     75  O   UNL     1     -11.902 -10.427 -17.078  1.00  0.00    -0.237 OA
ATOM     76  O   UNL     1     -13.970  -9.092 -17.252  1.00  0.00    -0.744 OA
ENDBRANCH  69  73
ENDBRANCH  52  66
BRANCH  53  77
ATOM     77  C   UNL     1     -10.483   1.399 -15.374  1.00  0.00     0.023 A 
ATOM     78  C   UNL     1     -11.156   1.986 -16.463  1.00  0.00     0.031 A 
ATOM     79  C   UNL     1     -10.932   1.762 -14.082  1.00  0.00     0.131 A 
ATOM     80  C   UNL     1     -12.212   2.900 -16.238  1.00  0.00     0.055 A 
ATOM     81  C   UNL     1     -11.965   2.676 -13.864  1.00  0.00     0.041 A 
ATOM     82  F   UNL     1     -10.434   1.177 -12.981  1.00  0.00    -0.206 F 
ATOM     83  C   UNL     1     -12.615   3.246 -14.945  1.00  0.00     0.022 A 
BRANCH  80  84
ATOM     84  S   UNL     1     -13.146   3.592 -17.640  1.00  0.00     0.124 S 
ATOM     85  O   UNL     1     -12.156   4.449 -18.280  1.00  0.00    -0.237 OA
ATOM     86  O   UNL     1     -13.541   2.395 -18.374  1.00  0.00    -0.237 OA
ATOM     87  O   UNL     1     -14.251   4.305 -16.997  1.00  0.00    -0.744 OA
ENDBRANCH  80  84
ENDBRANCH  53  77
BRANCH  65  88
ATOM     88  C   UNL     1      -6.486  -2.812 -17.970  1.00  0.00     0.023 A 
ATOM     89  C   UNL     1      -5.796  -1.745 -17.348  1.00  0.00     0.031 A 
ATOM     90  C   UNL     1      -5.886  -3.402 -19.096  1.00  0.00     0.131 A 
ATOM     91  C   UNL     1      -4.560  -1.305 -17.863  1.00  0.00     0.055 A 
ATOM     92  C   UNL     1      -4.652  -2.979 -19.590  1.00  0.00     0.041 A 
ATOM     93  F   UNL     1      -6.475  -4.440 -19.715  1.00  0.00    -0.206 F 
ATOM     94  C   UNL     1      -3.986  -1.925 -18.977  1.00  0.00     0.022 A 
BRANCH  91  95
ATOM     95  S   UNL     1      -3.676   0.094 -17.098  1.00  0.00     0.124 S 
ATOM     96  O   UNL     1      -4.712   1.107 -16.936  1.00  0.00    -0.237 OA
ATOM     97  O   UNL     1      -3.157  -0.496 -15.867  1.00  0.00    -0.237 OA
ATOM     98  O   UNL     1      -2.650   0.428 -18.088  1.00  0.00    -0.744 OA
ENDBRANCH  91  95
ENDBRANCH  65  88
ENDBRANCH  39  40
ENDBRANCH  32  34
ENDBRANCH  31  32
ENDBRANCH  30  31
ENDBRANCH   1  30
TORSDOF 19
