REMARK SMILES CCCc1cc(OCC(=O)OCCOC(=O)c2ccc(-c3c4nc(c(-c5cc(S(=O)(=O)[O-])ccc5F)c5ccc([nH]5)c(-c5cc(S(=O)(=O)[O-])ccc5F)c5nc(c(-c6cc(S(=O)(=O)[O-])ccc6F)c6ccc3[nH]6)C=C5)C=C4)cc2)nc(Nc2ccc(C#N)cc2)n1
REMARK SMILES IDX 12 1 11 2 9 3 10 4 8 5 7 6 6 7 4 8 5 9 91 10 81 11 80 12
REMARK SMILES IDX 3 13 2 14 1 15 82 16 83 18 84 19 90 20 85 21 89 22 86 23
REMARK SMILES IDX 87 24 88 25 13 26 14 27 15 28 16 29 17 30 18 31 79 32 19 33
REMARK SMILES IDX 78 34 20 35 21 36 22 37 72 38 23 39 77 40 71 41 73 42 24 43
REMARK SMILES IDX 76 44 70 45 69 46 25 48 57 49 37 50 56 51 38 52 41 53 55 54
REMARK SMILES IDX 74 55 39 56 40 57 54 59 75 60 42 61 26 62 27 63 35 64 28 65
REMARK SMILES IDX 34 66 36 67 33 68 29 69 30 70 31 71 32 72 58 73 59 74 67 75
REMARK SMILES IDX 60 76 66 77 68 78 65 79 61 80 62 81 63 82 64 83 43 84 44 85
REMARK SMILES IDX 52 86 45 87 51 88 53 89 50 90 46 91 47 92 48 93 49 94
REMARK H PARENT 82 17 73 47 41 58
REMARK Flexibility Score: inf
ROOT
ATOM      1  C   UNL     1       3.475  -1.348  -3.524  1.00  0.00     0.274 C 
ENDROOT
BRANCH   1   2
ATOM      2  O   UNL     1       2.242  -0.683  -3.912  1.00  0.00    -0.460 OA
BRANCH   2   3
ATOM      3  C   UNL     1       1.094  -1.407  -3.790  1.00  0.00     0.344 C 
ATOM      4  O   UNL     1       1.070  -2.617  -3.570  1.00  0.00    -0.248 OA
BRANCH   3   5
ATOM      5  C   UNL     1      -0.196  -0.561  -3.832  1.00  0.00     0.353 C 
BRANCH   5   6
ATOM      6  O   UNL     1      -0.234   0.711  -4.444  1.00  0.00    -0.466 OA
BRANCH   6   7
ATOM      7  C   UNL     1      -0.150   1.871  -3.727  1.00  0.00     0.218 A 
ATOM      8  C   UNL     1       0.326   3.245  -1.884  1.00  0.00     0.050 A 
ATOM      9  C   UNL     1       0.003   1.992  -2.352  1.00  0.00     0.092 A 
ATOM     10  N   UNL     1       0.413   4.259  -2.726  1.00  0.00    -0.218 NA
ATOM     11  C   UNL     1       0.033   4.134  -3.986  1.00  0.00     0.230 A 
ATOM     12  N   UNL     1      -0.227   2.953  -4.542  1.00  0.00    -0.177 NA
BRANCH   8  13
ATOM     13  C   UNL     1       0.614   3.753  -0.508  1.00  0.00     0.056 C 
BRANCH  13  14
ATOM     14  C   UNL     1       0.430   2.843   0.664  1.00  0.00     0.003 C 
ATOM     15  C   UNL     1       1.539   1.834   0.729  1.00  0.00     0.004 C 
ENDBRANCH  13  14
ENDBRANCH   8  13
BRANCH  11  16
ATOM     16  N   UNL     1      -0.188   5.352  -4.636  1.00  0.00    -0.324 N 
ATOM     17  H   UNL     1      -0.534   5.347  -5.557  1.00  0.00     0.170 HD
BRANCH  16  18
ATOM     18  C   UNL     1       0.073   6.590  -4.007  1.00  0.00     0.041 A 
ATOM     19  C   UNL     1      -0.956   7.497  -3.736  1.00  0.00     0.027 A 
ATOM     20  C   UNL     1       1.329   6.824  -3.409  1.00  0.00     0.027 A 
ATOM     21  C   UNL     1      -0.721   8.626  -2.933  1.00  0.00     0.021 A 
ATOM     22  C   UNL     1       1.566   7.935  -2.599  1.00  0.00     0.021 A 
ATOM     23  C   UNL     1       0.543   8.855  -2.377  1.00  0.00     0.052 A 
BRANCH  23  24
ATOM     24  C   UNL     1       0.813  10.034  -1.604  1.00  0.00     0.099 C 
ATOM     25  N   UNL     1       1.085  11.003  -1.029  1.00  0.00    -0.192 NA
ENDBRANCH  23  24
ENDBRANCH  16  18
ENDBRANCH  11  16
ENDBRANCH   6   7
ENDBRANCH   5   6
ENDBRANCH   3   5
ENDBRANCH   2   3
ENDBRANCH   1   2
BRANCH   1  26
ATOM     26  C   UNL     1       4.001  -0.869  -2.150  1.00  0.00     0.275 C 
BRANCH  26  27
ATOM     27  O   UNL     1       3.387  -1.544  -1.015  1.00  0.00    -0.458 OA
BRANCH  27  28
ATOM     28  C   UNL     1       2.145  -1.080  -0.787  1.00  0.00     0.338 C 
ATOM     29  O   UNL     1       1.610  -0.224  -1.479  1.00  0.00    -0.246 OA
BRANCH  28  30
ATOM     30  C   UNL     1       1.371  -1.540   0.381  1.00  0.00     0.060 A 
ATOM     31  C   UNL     1      -0.004  -1.651   0.109  1.00  0.00     0.016 A 
ATOM     32  C   UNL     1       1.802  -1.218   1.674  1.00  0.00     0.016 A 
ATOM     33  C   UNL     1      -0.945  -1.256   1.057  1.00  0.00     0.010 A 
ATOM     34  C   UNL     1       0.842  -0.884   2.653  1.00  0.00     0.010 A 
ATOM     35  C   UNL     1      -0.534  -0.852   2.338  1.00  0.00    -0.014 A 
BRANCH  35  36
ATOM     36  C   UNL     1      -1.564  -0.756   3.405  1.00  0.00     0.031 A 
ATOM     37  C   UNL     1      -2.172   0.511   3.946  1.00  0.00     0.074 A 
ATOM     38  C   UNL     1      -1.966  -1.950   3.870  1.00  0.00     0.049 A 
ATOM     39  N   UNL     1      -3.036   0.670   4.919  1.00  0.00    -0.248 NA
ATOM     40  C   UNL     1      -1.784   1.767   3.307  1.00  0.00     0.031 C 
ATOM     41  C   UNL     1      -1.494  -3.243   3.359  1.00  0.00     0.029 A 
ATOM     42  N   UNL     1      -2.829  -2.276   4.874  1.00  0.00    -0.354 N 
ATOM     43  C   UNL     1      -3.297   2.039   5.003  1.00  0.00     0.074 A 
ATOM     44  C   UNL     1      -2.495   2.669   3.976  1.00  0.00     0.031 C 
ATOM     45  C   UNL     1      -2.042  -4.221   4.081  1.00  0.00     0.029 A 
ATOM     46  C   UNL     1      -2.828  -3.619   5.145  1.00  0.00     0.049 A 
ATOM     47  H   UNL     1      -3.389  -1.621   5.349  1.00  0.00     0.167 HD
ATOM     48  C   UNL     1      -4.114   2.696   5.869  1.00  0.00     0.034 A 
ATOM     49  C   UNL     1      -3.337  -4.294   6.184  1.00  0.00     0.034 A 
ATOM     50  C   UNL     1      -4.864   2.025   6.913  1.00  0.00     0.049 A 
ATOM     51  C   UNL     1      -4.134  -3.545   7.199  1.00  0.00     0.074 A 
ATOM     52  C   UNL     1      -5.741   2.570   7.836  1.00  0.00     0.029 A 
ATOM     53  N   UNL     1      -4.798   0.665   7.193  1.00  0.00    -0.354 N 
ATOM     54  N   UNL     1      -4.381  -2.258   7.264  1.00  0.00    -0.248 NA
ATOM     55  C   UNL     1      -4.745  -4.344   8.261  1.00  0.00     0.031 C 
ATOM     56  C   UNL     1      -6.120   1.563   8.732  1.00  0.00     0.029 A 
ATOM     57  C   UNL     1      -5.571   0.365   8.306  1.00  0.00     0.049 A 
ATOM     58  H   UNL     1      -4.277   0.009   6.676  1.00  0.00     0.167 HD
ATOM     59  C   UNL     1      -5.210  -2.093   8.366  1.00  0.00     0.074 A 
ATOM     60  C   UNL     1      -5.427  -3.418   8.918  1.00  0.00     0.031 C 
ATOM     61  C   UNL     1      -5.749  -0.954   8.868  1.00  0.00     0.034 A 
BRANCH  48  62
ATOM     62  C   UNL     1      -4.199   4.212   5.803  1.00  0.00     0.023 A 
ATOM     63  C   UNL     1      -4.745   4.896   4.702  1.00  0.00     0.031 A 
ATOM     64  C   UNL     1      -3.781   4.986   6.905  1.00  0.00     0.131 A 
ATOM     65  C   UNL     1      -4.830   6.302   4.717  1.00  0.00     0.055 A 
ATOM     66  C   UNL     1      -3.929   6.375   6.941  1.00  0.00     0.041 A 
ATOM     67  F   UNL     1      -3.233   4.400   7.981  1.00  0.00    -0.206 F 
ATOM     68  C   UNL     1      -4.450   7.043   5.839  1.00  0.00     0.022 A 
BRANCH  65  69
ATOM     69  S   UNL     1      -5.348   7.169   3.207  1.00  0.00     0.124 S 
ATOM     70  O   UNL     1      -4.383   6.670   2.231  1.00  0.00    -0.237 OA
ATOM     71  O   UNL     1      -6.723   6.713   3.037  1.00  0.00    -0.237 OA
ATOM     72  O   UNL     1      -5.199   8.582   3.552  1.00  0.00    -0.744 OA
ENDBRANCH  65  69
ENDBRANCH  48  62
BRANCH  49  73
ATOM     73  C   UNL     1      -3.048  -5.743   6.293  1.00  0.00     0.023 A 
ATOM     74  C   UNL     1      -4.069  -6.684   6.143  1.00  0.00     0.031 A 
ATOM     75  C   UNL     1      -1.730  -6.202   6.478  1.00  0.00     0.131 A 
ATOM     76  C   UNL     1      -3.762  -8.047   6.210  1.00  0.00     0.055 A 
ATOM     77  C   UNL     1      -1.421  -7.560   6.480  1.00  0.00     0.041 A 
ATOM     78  F   UNL     1      -0.715  -5.330   6.599  1.00  0.00    -0.206 F 
ATOM     79  C   UNL     1      -2.445  -8.493   6.357  1.00  0.00     0.022 A 
BRANCH  76  80
ATOM     80  S   UNL     1      -5.131  -9.229   6.174  1.00  0.00     0.124 S 
ATOM     81  O   UNL     1      -5.953  -8.763   7.285  1.00  0.00    -0.237 OA
ATOM     82  O   UNL     1      -5.677  -9.017   4.838  1.00  0.00    -0.237 OA
ATOM     83  O   UNL     1      -4.471 -10.516   6.381  1.00  0.00    -0.744 OA
ENDBRANCH  76  80
ENDBRANCH  49  73
BRANCH  61  84
ATOM     84  C   UNL     1      -6.655  -1.113  10.062  1.00  0.00     0.023 A 
ATOM     85  C   UNL     1      -6.171  -1.595  11.291  1.00  0.00     0.031 A 
ATOM     86  C   UNL     1      -8.028  -0.834   9.954  1.00  0.00     0.131 A 
ATOM     87  C   UNL     1      -7.067  -1.863  12.335  1.00  0.00     0.055 A 
ATOM     88  C   UNL     1      -8.902  -1.024  11.024  1.00  0.00     0.041 A 
ATOM     89  F   UNL     1      -8.546  -0.382   8.800  1.00  0.00    -0.206 F 
ATOM     90  C   UNL     1      -8.426  -1.560  12.217  1.00  0.00     0.022 A 
BRANCH  87  91
ATOM     91  S   UNL     1      -6.452  -2.744  13.795  1.00  0.00     0.124 S 
ATOM     92  O   UNL     1      -5.930  -3.973  13.206  1.00  0.00    -0.237 OA
ATOM     93  O   UNL     1      -5.455  -1.817  14.322  1.00  0.00    -0.237 OA
ATOM     94  O   UNL     1      -7.645  -2.909  14.622  1.00  0.00    -0.744 OA
ENDBRANCH  87  91
ENDBRANCH  61  84
ENDBRANCH  35  36
ENDBRANCH  28  30
ENDBRANCH  27  28
ENDBRANCH  26  27
ENDBRANCH   1  26
TORSDOF 21
