REMARK SMILES C[C@@](O)(CNC(=O)CC1([NH3+])CCC1)C(=O)OCCOC(=O)c1ccc(-c2c3nc(c(-c4cc(S(=O)(=O)[O-])ccc4F)c4ccc([nH]4)c(-c4cc(S(=O)(=O)[O-])ccc4F)c4nc(c(-c5cc(S(=O)(=O)[O-])ccc5F)c5ccc2[nH]5)C=C4)C=C3)cc1
REMARK SMILES IDX 17 1 16 2 14 3 15 4 2 5 1 6 3 7 4 9 5 10 6 11 7 13 8 14 9 15
REMARK SMILES IDX 11 16 13 17 12 18 10 19 18 23 19 24 20 25 21 26 22 27 23 28
REMARK SMILES IDX 84 29 24 30 83 31 25 32 26 33 27 34 77 35 28 36 82 37 76 38
REMARK SMILES IDX 78 39 29 40 81 41 75 42 74 43 30 45 62 46 42 47 61 48 43 49
REMARK SMILES IDX 46 50 60 51 79 52 44 53 45 54 59 56 80 57 47 58 31 59 32 60
REMARK SMILES IDX 40 61 33 62 39 63 41 64 38 65 34 66 35 67 36 68 37 69 63 70
REMARK SMILES IDX 64 71 72 72 65 73 71 74 73 75 70 76 66 77 67 78 68 79 69 80
REMARK SMILES IDX 48 81 49 82 57 83 50 84 56 85 58 86 55 87 51 88 52 89 53 90
REMARK SMILES IDX 54 91
REMARK H PARENT 3 8 5 12 10 20 10 21 10 22 78 44 46 55
REMARK Flexibility Score: inf
ROOT
ATOM      1  C   UNL     1       2.425   4.114   0.262  1.00  0.00     0.274 C 
ENDROOT
BRANCH   1   2
ATOM      2  O   UNL     1       1.386   3.184  -0.127  1.00  0.00    -0.460 OA
BRANCH   2   3
ATOM      3  C   UNL     1       1.775   2.051  -0.759  1.00  0.00     0.339 C 
ATOM      4  O   UNL     1       2.949   1.730  -0.932  1.00  0.00    -0.249 OA
BRANCH   3   5
ATOM      5  C   UNL     1       0.616   1.214  -1.342  1.00  0.00     0.176 C 
ATOM      6  C   UNL     1       0.693  -0.246  -0.886  1.00  0.00     0.057 C 
BRANCH   5   7
ATOM      7  O   UNL     1       0.898   1.199  -2.769  1.00  0.00    -0.377 OA
ATOM      8  H   UNL     1       0.213   0.688  -3.229  1.00  0.00     0.212 HD
ENDBRANCH   5   7
BRANCH   5   9
ATOM      9  C   UNL     1      -0.803   1.794  -1.171  1.00  0.00     0.162 C 
BRANCH   9  10
ATOM     10  N   UNL     1      -1.361   1.808   0.175  1.00  0.00    -0.352 N 
ATOM     11  C   UNL     1      -2.451   2.492   0.631  1.00  0.00     0.226 C 
ATOM     12  H   UNL     1      -0.892   1.254   0.840  1.00  0.00     0.163 HD
ATOM     13  O   UNL     1      -2.848   2.263   1.775  1.00  0.00    -0.275 OA
BRANCH  11  14
ATOM     14  C   UNL     1      -3.205   3.451  -0.268  1.00  0.00     0.168 C 
BRANCH  14  15
ATOM     15  C   UNL     1      -2.471   4.707  -0.716  1.00  0.00     0.103 C 
ATOM     16  C   UNL     1      -3.027   6.104  -0.281  1.00  0.00     0.069 C 
ATOM     17  C   UNL     1      -1.143   5.142  -0.038  1.00  0.00     0.069 C 
ATOM     18  C   UNL     1      -1.573   6.609  -0.173  1.00  0.00     0.013 C 
BRANCH  15  19
ATOM     19  N   UNL     1      -2.298   4.749  -2.186  1.00  0.00    -0.352 N 
ATOM     20  H   UNL     1      -3.167   4.465  -2.639  1.00  0.00     0.344 HD
ATOM     21  H   UNL     1      -1.549   4.113  -2.458  1.00  0.00     0.344 HD
ATOM     22  H   UNL     1      -2.059   5.698  -2.473  1.00  0.00     0.344 HD
ENDBRANCH  15  19
ENDBRANCH  14  15
ENDBRANCH  11  14
ENDBRANCH   9  10
ENDBRANCH   5   9
ENDBRANCH   3   5
ENDBRANCH   2   3
ENDBRANCH   1   2
BRANCH   1  23
ATOM     23  C   UNL     1       2.192   4.598   1.690  1.00  0.00     0.275 C 
BRANCH  23  24
ATOM     24  O   UNL     1       2.323   3.470   2.566  1.00  0.00    -0.458 OA
BRANCH  24  25
ATOM     25  C   UNL     1       1.167   3.001   3.086  1.00  0.00     0.338 C 
ATOM     26  O   UNL     1       0.070   3.533   3.074  1.00  0.00    -0.246 OA
BRANCH  25  27
ATOM     27  C   UNL     1       1.430   1.646   3.574  1.00  0.00     0.060 A 
ATOM     28  C   UNL     1       1.532   0.622   2.634  1.00  0.00     0.016 A 
ATOM     29  C   UNL     1       1.568   1.385   4.933  1.00  0.00     0.016 A 
ATOM     30  C   UNL     1       1.749  -0.685   3.047  1.00  0.00     0.010 A 
ATOM     31  C   UNL     1       1.851   0.081   5.346  1.00  0.00     0.010 A 
ATOM     32  C   UNL     1       1.941  -0.963   4.407  1.00  0.00    -0.014 A 
BRANCH  32  33
ATOM     33  C   UNL     1       2.252  -2.352   4.827  1.00  0.00     0.031 A 
ATOM     34  C   UNL     1       1.268  -3.126   5.655  1.00  0.00     0.074 A 
ATOM     35  C   UNL     1       3.411  -2.913   4.429  1.00  0.00     0.049 A 
ATOM     36  N   UNL     1       1.393  -4.309   6.197  1.00  0.00    -0.248 NA
ATOM     37  C   UNL     1      -0.023  -2.474   5.919  1.00  0.00     0.031 C 
ATOM     38  C   UNL     1       4.419  -2.256   3.591  1.00  0.00     0.029 A 
ATOM     39  N   UNL     1       3.933  -4.160   4.655  1.00  0.00    -0.354 N 
ATOM     40  C   UNL     1       0.213  -4.532   6.899  1.00  0.00     0.074 A 
ATOM     41  C   UNL     1      -0.608  -3.352   6.721  1.00  0.00     0.031 C 
ATOM     42  C   UNL     1       5.415  -3.119   3.341  1.00  0.00     0.029 A 
ATOM     43  C   UNL     1       5.158  -4.361   4.060  1.00  0.00     0.049 A 
ATOM     44  H   UNL     1       3.476  -4.847   5.191  1.00  0.00     0.167 HD
ATOM     45  C   UNL     1      -0.141  -5.621   7.627  1.00  0.00     0.034 A 
ATOM     46  C   UNL     1       5.994  -5.416   4.114  1.00  0.00     0.034 A 
ATOM     47  C   UNL     1       0.701  -6.786   7.777  1.00  0.00     0.049 A 
ATOM     48  C   UNL     1       5.582  -6.605   4.939  1.00  0.00     0.074 A 
ATOM     49  C   UNL     1       0.466  -7.938   8.508  1.00  0.00     0.029 A 
ATOM     50  N   UNL     1       1.945  -6.948   7.177  1.00  0.00    -0.354 N 
ATOM     51  N   UNL     1       4.487  -6.780   5.645  1.00  0.00    -0.248 NA
ATOM     52  C   UNL     1       6.516  -7.734   4.979  1.00  0.00     0.031 C 
ATOM     53  C   UNL     1       1.586  -8.770   8.391  1.00  0.00     0.029 A 
ATOM     54  C   UNL     1       2.495  -8.171   7.533  1.00  0.00     0.049 A 
ATOM     55  H   UNL     1       2.374  -6.290   6.584  1.00  0.00     0.167 HD
ATOM     56  C   UNL     1       4.602  -8.044   6.213  1.00  0.00     0.074 A 
ATOM     57  C   UNL     1       5.854  -8.598   5.733  1.00  0.00     0.031 C 
ATOM     58  C   UNL     1       3.759  -8.687   7.062  1.00  0.00     0.034 A 
BRANCH  45  59
ATOM     59  C   UNL     1      -1.456  -5.556   8.370  1.00  0.00     0.023 A 
ATOM     60  C   UNL     1      -2.690  -5.473   7.701  1.00  0.00     0.031 A 
ATOM     61  C   UNL     1      -1.468  -5.521   9.776  1.00  0.00     0.131 A 
ATOM     62  C   UNL     1      -3.873  -5.285   8.434  1.00  0.00     0.055 A 
ATOM     63  C   UNL     1      -2.656  -5.410  10.502  1.00  0.00     0.041 A 
ATOM     64  F   UNL     1      -0.321  -5.573  10.472  1.00  0.00    -0.206 F 
ATOM     65  C   UNL     1      -3.867  -5.275   9.831  1.00  0.00     0.022 A 
BRANCH  62  66
ATOM     66  S   UNL     1      -5.404  -4.910   7.535  1.00  0.00     0.124 S 
ATOM     67  O   UNL     1      -5.039  -3.683   6.831  1.00  0.00    -0.237 OA
ATOM     68  O   UNL     1      -5.582  -6.095   6.705  1.00  0.00    -0.237 OA
ATOM     69  O   UNL     1      -6.394  -4.739   8.598  1.00  0.00    -0.744 OA
ENDBRANCH  62  66
ENDBRANCH  45  59
BRANCH  46  70
ATOM     70  C   UNL     1       7.309  -5.375   3.412  1.00  0.00     0.023 A 
ATOM     71  C   UNL     1       7.605  -6.262   2.365  1.00  0.00     0.031 A 
ATOM     72  C   UNL     1       8.302  -4.454   3.794  1.00  0.00     0.131 A 
ATOM     73  C   UNL     1       8.870  -6.229   1.756  1.00  0.00     0.055 A 
ATOM     74  C   UNL     1       9.539  -4.391   3.152  1.00  0.00     0.041 A 
ATOM     75  F   UNL     1       8.073  -3.582   4.789  1.00  0.00    -0.206 F 
ATOM     76  C   UNL     1       9.833  -5.290   2.132  1.00  0.00     0.022 A 
BRANCH  73  77
ATOM     77  S   UNL     1       9.269  -7.482   0.506  1.00  0.00     0.124 S 
ATOM     78  O   UNL     1       9.060  -8.721   1.247  1.00  0.00    -0.237 OA
ATOM     79  O   UNL     1       8.294  -7.187  -0.539  1.00  0.00    -0.237 OA
ATOM     80  O   UNL     1      10.658  -7.188   0.160  1.00  0.00    -0.744 OA
ENDBRANCH  73  77
ENDBRANCH  46  70
BRANCH  58  81
ATOM     81  C   UNL     1       4.179 -10.069   7.495  1.00  0.00     0.023 A 
ATOM     82  C   UNL     1       5.307 -10.269   8.310  1.00  0.00     0.031 A 
ATOM     83  C   UNL     1       3.477 -11.198   7.042  1.00  0.00     0.131 A 
ATOM     84  C   UNL     1       5.745 -11.572   8.586  1.00  0.00     0.055 A 
ATOM     85  C   UNL     1       3.881 -12.492   7.372  1.00  0.00     0.041 A 
ATOM     86  F   UNL     1       2.395 -11.062   6.259  1.00  0.00    -0.206 F 
ATOM     87  C   UNL     1       5.031 -12.685   8.133  1.00  0.00     0.022 A 
BRANCH  84  88
ATOM     88  S   UNL     1       7.327 -11.793   9.444  1.00  0.00     0.124 S 
ATOM     89  O   UNL     1       8.248 -11.067   8.575  1.00  0.00    -0.237 OA
ATOM     90  O   UNL     1       7.064 -11.185  10.744  1.00  0.00    -0.237 OA
ATOM     91  O   UNL     1       7.507 -13.243   9.464  1.00  0.00    -0.744 OA
ENDBRANCH  84  88
ENDBRANCH  58  81
ENDBRANCH  32  33
ENDBRANCH  25  27
ENDBRANCH  24  25
ENDBRANCH  23  24
ENDBRANCH   1  23
TORSDOF 20
