REMARK SMILES CC(C)(C)OC(=O)c1ccc(C[C@H]([NH3+])C(=O)OCCOC(=O)c2ccc(-c3c4nc(c(-c5cc(S(=O)(=O)[O-])ccc5F)c5ccc([nH]5)c(-c5cc(S(=O)(=O)[O-])ccc5F)c5nc(c(-c6cc(S(=O)(=O)[O-])ccc6F)c6ccc3[nH]6)C=C5)C=C4)cc2)cc1
REMARK SMILES IDX 18 1 17 2 15 3 16 4 13 5 12 6 11 7 8 8 9 9 87 10 10 11 86 12
REMARK SMILES IDX 6 13 7 14 5 15 2 16 1 17 3 18 4 19 14 20 19 24 20 25 21 26
REMARK SMILES IDX 22 27 23 28 24 29 85 30 25 31 84 32 26 33 27 34 28 35 78 36
REMARK SMILES IDX 29 37 83 38 77 39 79 40 30 41 82 42 76 43 75 44 31 46 63 47
REMARK SMILES IDX 43 48 62 49 44 50 47 51 61 52 80 53 45 54 46 55 60 57 81 58
REMARK SMILES IDX 48 59 32 60 33 61 41 62 34 63 40 64 42 65 39 66 35 67 36 68
REMARK SMILES IDX 37 69 38 70 64 71 65 72 73 73 66 74 72 75 74 76 71 77 67 78
REMARK SMILES IDX 68 79 69 80 70 81 49 82 50 83 58 84 51 85 57 86 59 87 56 88
REMARK SMILES IDX 52 89 53 90 54 91 55 92
REMARK H PARENT 14 21 14 22 14 23 79 45 47 56
REMARK Flexibility Score: inf
ROOT
ATOM      1  C   UNL     1       2.980 -10.156   7.967  1.00  0.00     0.274 C 
ENDROOT
BRANCH   1   2
ATOM      2  O   UNL     1       2.513  -8.972   7.299  1.00  0.00    -0.458 OA
BRANCH   2   3
ATOM      3  C   UNL     1       2.254  -7.882   8.072  1.00  0.00     0.365 C 
ATOM      4  O   UNL     1       2.275  -7.878   9.298  1.00  0.00    -0.245 OA
BRANCH   3   5
ATOM      5  C   UNL     1       1.928  -6.625   7.245  1.00  0.00     0.296 C 
BRANCH   5   6
ATOM      6  C   UNL     1       0.420  -6.325   7.311  1.00  0.00     0.113 C 
BRANCH   6   7
ATOM      7  C   UNL     1      -0.432  -7.385   6.649  1.00  0.00    -0.041 A 
ATOM      8  C   UNL     1      -1.738  -9.502   5.381  1.00  0.00     0.060 A 
ATOM      9  C   UNL     1      -1.135  -8.501   4.617  1.00  0.00     0.016 A 
ATOM     10  C   UNL     1      -1.725  -9.433   6.779  1.00  0.00     0.016 A 
ATOM     11  C   UNL     1      -0.503  -7.439   5.250  1.00  0.00     0.005 A 
ATOM     12  C   UNL     1      -1.066  -8.377   7.411  1.00  0.00     0.005 A 
BRANCH   8  13
ATOM     13  C   UNL     1      -2.321 -10.648   4.663  1.00  0.00     0.338 C 
ATOM     14  O   UNL     1      -1.824 -11.130   3.660  1.00  0.00    -0.246 OA
BRANCH  13  15
ATOM     15  O   UNL     1      -3.494 -10.989   5.245  1.00  0.00    -0.456 OA
BRANCH  15  16
ATOM     16  C   UNL     1      -4.317 -12.013   4.634  1.00  0.00     0.104 C 
ATOM     17  C   UNL     1      -5.591 -12.055   5.488  1.00  0.00     0.056 C 
ATOM     18  C   UNL     1      -3.625 -13.378   4.704  1.00  0.00     0.056 C 
ATOM     19  C   UNL     1      -4.710 -11.639   3.198  1.00  0.00     0.056 C 
ENDBRANCH  15  16
ENDBRANCH  13  15
ENDBRANCH   8  13
ENDBRANCH   6   7
ENDBRANCH   5   6
BRANCH   5  20
ATOM     20  N   UNL     1       2.447  -6.686   5.858  1.00  0.00    -0.346 N 
ATOM     21  H   UNL     1       1.998  -7.455   5.360  1.00  0.00     0.345 HD
ATOM     22  H   UNL     1       3.456  -6.838   5.879  1.00  0.00     0.345 HD
ATOM     23  H   UNL     1       2.245  -5.808   5.381  1.00  0.00     0.345 HD
ENDBRANCH   5  20
ENDBRANCH   3   5
ENDBRANCH   2   3
ENDBRANCH   1   2
BRANCH   1  24
ATOM     24  C   UNL     1       4.426 -10.461   7.562  1.00  0.00     0.275 C 
BRANCH  24  25
ATOM     25  O   UNL     1       5.335  -9.447   8.034  1.00  0.00    -0.458 OA
BRANCH  25  26
ATOM     26  C   UNL     1       5.493  -8.397   7.194  1.00  0.00     0.338 C 
ATOM     27  O   UNL     1       4.984  -8.249   6.094  1.00  0.00    -0.246 OA
BRANCH  26  28
ATOM     28  C   UNL     1       6.252  -7.325   7.850  1.00  0.00     0.060 A 
ATOM     29  C   UNL     1       5.642  -6.071   7.937  1.00  0.00     0.016 A 
ATOM     30  C   UNL     1       7.571  -7.503   8.268  1.00  0.00     0.016 A 
ATOM     31  C   UNL     1       6.348  -4.978   8.420  1.00  0.00     0.010 A 
ATOM     32  C   UNL     1       8.284  -6.402   8.755  1.00  0.00     0.010 A 
ATOM     33  C   UNL     1       7.682  -5.131   8.813  1.00  0.00    -0.014 A 
BRANCH  33  34
ATOM     34  C   UNL     1       8.463  -3.928   9.181  1.00  0.00     0.031 A 
ATOM     35  C   UNL     1       9.461  -3.373   8.205  1.00  0.00     0.074 A 
ATOM     36  C   UNL     1       8.233  -3.308  10.353  1.00  0.00     0.049 A 
ATOM     37  N   UNL     1      10.301  -2.383   8.349  1.00  0.00    -0.248 NA
ATOM     38  C   UNL     1       9.518  -4.028   6.889  1.00  0.00     0.031 C 
ATOM     39  C   UNL     1       7.233  -3.719  11.340  1.00  0.00     0.029 A 
ATOM     40  N   UNL     1       8.820  -2.202  10.909  1.00  0.00    -0.354 N 
ATOM     41  C   UNL     1      11.004  -2.305   7.152  1.00  0.00     0.074 A 
ATOM     42  C   UNL     1      10.505  -3.366   6.302  1.00  0.00     0.031 C 
ATOM     43  C   UNL     1       7.279  -2.875  12.384  1.00  0.00     0.029 A 
ATOM     44  C   UNL     1       8.345  -1.901  12.164  1.00  0.00     0.049 A 
ATOM     45  H   UNL     1       9.515  -1.673  10.455  1.00  0.00     0.167 HD
ATOM     46  C   UNL     1      11.976  -1.427   6.799  1.00  0.00     0.034 A 
ATOM     47  C   UNL     1       8.751  -0.969  13.048  1.00  0.00     0.034 A 
ATOM     48  C   UNL     1      12.456  -0.377   7.665  1.00  0.00     0.049 A 
ATOM     49  C   UNL     1       9.886  -0.053  12.664  1.00  0.00     0.074 A 
ATOM     50  C   UNL     1      13.443   0.562   7.421  1.00  0.00     0.029 A 
ATOM     51  N   UNL     1      11.982  -0.128   8.948  1.00  0.00    -0.354 N 
ATOM     52  N   UNL     1      10.573  -0.014  11.545  1.00  0.00    -0.248 NA
ATOM     53  C   UNL     1      10.297   0.944  13.660  1.00  0.00     0.031 C 
ATOM     54  C   UNL     1      13.607   1.337   8.575  1.00  0.00     0.029 A 
ATOM     55  C   UNL     1      12.673   0.932   9.515  1.00  0.00     0.049 A 
ATOM     56  H   UNL     1      11.261  -0.631   9.390  1.00  0.00     0.167 HD
ATOM     57  C   UNL     1      11.482   1.030  11.695  1.00  0.00     0.074 A 
ATOM     58  C   UNL     1      11.244   1.601  13.005  1.00  0.00     0.031 C 
ATOM     59  C   UNL     1      12.425   1.480  10.828  1.00  0.00     0.034 A 
BRANCH  46  60
ATOM     60  C   UNL     1      12.622  -1.619   5.448  1.00  0.00     0.023 A 
ATOM     61  C   UNL     1      11.903  -1.463   4.250  1.00  0.00     0.031 A 
ATOM     62  C   UNL     1      13.970  -2.011   5.360  1.00  0.00     0.131 A 
ATOM     63  C   UNL     1      12.513  -1.767   3.023  1.00  0.00     0.055 A 
ATOM     64  C   UNL     1      14.593  -2.237   4.132  1.00  0.00     0.041 A 
ATOM     65  F   UNL     1      14.700  -2.200   6.471  1.00  0.00    -0.206 F 
ATOM     66  C   UNL     1      13.860  -2.131   2.954  1.00  0.00     0.022 A 
BRANCH  63  67
ATOM     67  S   UNL     1      11.482  -1.824   1.532  1.00  0.00     0.124 S 
ATOM     68  O   UNL     1      10.494  -2.837   1.894  1.00  0.00    -0.237 OA
ATOM     69  O   UNL     1      10.988  -0.455   1.438  1.00  0.00    -0.237 OA
ATOM     70  O   UNL     1      12.418  -2.223   0.482  1.00  0.00    -0.744 OA
ENDBRANCH  63  67
ENDBRANCH  46  60
BRANCH  47  71
ATOM     71  C   UNL     1       8.126  -0.888  14.399  1.00  0.00     0.023 A 
ATOM     72  C   UNL     1       7.413   0.250  14.806  1.00  0.00     0.031 A 
ATOM     73  C   UNL     1       8.271  -1.940  15.322  1.00  0.00     0.131 A 
ATOM     74  C   UNL     1       6.907   0.327  16.113  1.00  0.00     0.055 A 
ATOM     75  C   UNL     1       7.721  -1.881  16.603  1.00  0.00     0.041 A 
ATOM     76  F   UNL     1       8.944  -3.052  14.984  1.00  0.00    -0.206 F 
ATOM     77  C   UNL     1       7.045  -0.735  17.009  1.00  0.00     0.022 A 
BRANCH  74  78
ATOM     78  S   UNL     1       6.131   1.875  16.654  1.00  0.00     0.124 S 
ATOM     79  O   UNL     1       7.207   2.837  16.444  1.00  0.00    -0.237 OA
ATOM     80  O   UNL     1       4.993   1.976  15.746  1.00  0.00    -0.237 OA
ATOM     81  O   UNL     1       5.790   1.614  18.051  1.00  0.00    -0.744 OA
ENDBRANCH  74  78
ENDBRANCH  47  71
BRANCH  59  82
ATOM     82  C   UNL     1      13.229   2.680  11.262  1.00  0.00     0.023 A 
ATOM     83  C   UNL     1      14.155   2.610  12.317  1.00  0.00     0.031 A 
ATOM     84  C   UNL     1      13.052   3.916  10.616  1.00  0.00     0.131 A 
ATOM     85  C   UNL     1      14.828   3.769  12.732  1.00  0.00     0.055 A 
ATOM     86  C   UNL     1      13.766   5.053  10.996  1.00  0.00     0.041 A 
ATOM     87  F   UNL     1      12.179   4.038   9.602  1.00  0.00    -0.206 F 
ATOM     88  C   UNL     1      14.651   4.986  12.069  1.00  0.00     0.022 A 
BRANCH  85  89
ATOM     89  S   UNL     1      15.876   3.686  14.210  1.00  0.00     0.124 S 
ATOM     90  O   UNL     1      14.929   3.244  15.229  1.00  0.00    -0.237 OA
ATOM     91  O   UNL     1      16.891   2.713  13.819  1.00  0.00    -0.237 OA
ATOM     92  O   UNL     1      16.360   5.056  14.366  1.00  0.00    -0.744 OA
ENDBRANCH  85  89
ENDBRANCH  59  82
ENDBRANCH  33  34
ENDBRANCH  26  28
ENDBRANCH  25  26
ENDBRANCH  24  25
ENDBRANCH   1  24
TORSDOF 20
