REMARK SMILES O=C(OCCOC(=O)c1ccc2c(c1)[C@@H](C1CCOCC1)C(=O)N2)c1ccc(-c2c3nc(c(-c4cc(S(=O)(=O)[O-])ccc4F)c4ccc([nH]4)c(-c4cc(S(=O)(=O)[O-])ccc4F)c4nc(c(-c5cc(S(=O)(=O)[O-])ccc5F)c5ccc2[nH]5)C=C4)C=C3)cc1
REMARK SMILES IDX 4 1 3 2 2 3 1 4 25 5 26 6 87 7 27 8 86 9 28 10 29 11 30 12
REMARK SMILES IDX 80 13 31 14 85 15 79 16 81 17 32 18 84 19 78 20 77 21 33 23
REMARK SMILES IDX 65 24 45 25 64 26 46 27 49 28 63 29 82 30 47 31 48 32 62 34
REMARK SMILES IDX 83 35 50 36 34 37 35 38 43 39 36 40 42 41 44 42 41 43 37 44
REMARK SMILES IDX 38 45 39 46 40 47 66 48 67 49 75 50 68 51 74 52 76 53 73 54
REMARK SMILES IDX 69 55 70 56 71 57 72 58 51 59 52 60 60 61 53 62 59 63 61 64
REMARK SMILES IDX 58 65 54 66 55 67 56 68 57 69 5 70 6 71 7 72 8 73 9 74 10 75
REMARK SMILES IDX 14 76 11 77 13 78 12 79 15 80 24 81 22 82 23 84 16 85 17 86
REMARK SMILES IDX 21 87 18 88 20 89 19 90
REMARK H PARENT 81 22 49 33 24 83
REMARK Flexibility Score: inf
ROOT
ATOM      1  C   UNL     1       4.088   0.834  -1.587  1.00  0.00     0.275 C 
ENDROOT
BRANCH   1   2
ATOM      2  O   UNL     1       3.155  -0.223  -1.335  1.00  0.00    -0.458 OA
BRANCH   2   3
ATOM      3  C   UNL     1       3.043  -1.026  -0.254  1.00  0.00     0.338 C 
ATOM      4  O   UNL     1       2.125  -1.847  -0.247  1.00  0.00    -0.246 OA
BRANCH   3   5
ATOM      5  C   UNL     1       3.899  -0.924   0.980  1.00  0.00     0.060 A 
ATOM      6  C   UNL     1       5.066  -0.168   1.164  1.00  0.00     0.016 A 
ATOM      7  C   UNL     1       3.433  -1.644   2.085  1.00  0.00     0.016 A 
ATOM      8  C   UNL     1       5.686  -0.044   2.416  1.00  0.00     0.010 A 
ATOM      9  C   UNL     1       4.061  -1.531   3.323  1.00  0.00     0.010 A 
ATOM     10  C   UNL     1       5.169  -0.704   3.520  1.00  0.00    -0.014 A 
BRANCH  10  11
ATOM     11  C   UNL     1       5.824  -0.658   4.851  1.00  0.00     0.031 A 
ATOM     12  C   UNL     1       6.357  -1.942   5.418  1.00  0.00     0.074 A 
ATOM     13  C   UNL     1       5.890   0.488   5.559  1.00  0.00     0.049 A 
ATOM     14  N   UNL     1       6.864  -2.182   6.597  1.00  0.00    -0.248 NA
ATOM     15  C   UNL     1       6.280  -3.124   4.543  1.00  0.00     0.031 C 
ATOM     16  C   UNL     1       5.427   1.797   5.099  1.00  0.00     0.029 A 
ATOM     17  N   UNL     1       6.356   0.741   6.826  1.00  0.00    -0.354 N 
ATOM     18  C   UNL     1       7.171  -3.538   6.594  1.00  0.00     0.074 A 
ATOM     19  C   UNL     1       6.661  -4.088   5.360  1.00  0.00     0.031 C 
ATOM     20  C   UNL     1       5.597   2.704   6.076  1.00  0.00     0.029 A 
ATOM     21  C   UNL     1       6.183   2.045   7.236  1.00  0.00     0.049 A 
ATOM     22  H   UNL     1       6.777   0.052   7.390  1.00  0.00     0.167 HD
ATOM     23  C   UNL     1       7.888  -4.244   7.500  1.00  0.00     0.034 A 
ATOM     24  C   UNL     1       6.472   2.638   8.412  1.00  0.00     0.034 A 
ATOM     25  C   UNL     1       8.403  -3.665   8.711  1.00  0.00     0.049 A 
ATOM     26  C   UNL     1       7.179   1.812   9.460  1.00  0.00     0.074 A 
ATOM     27  C   UNL     1       9.164  -4.259   9.699  1.00  0.00     0.029 A 
ATOM     28  N   UNL     1       8.202  -2.345   9.097  1.00  0.00    -0.354 N 
ATOM     29  N   UNL     1       7.522   0.544   9.414  1.00  0.00    -0.248 NA
ATOM     30  C   UNL     1       7.580   2.503  10.690  1.00  0.00     0.031 C 
ATOM     31  C   UNL     1       9.371  -3.315  10.711  1.00  0.00     0.029 A 
ATOM     32  C   UNL     1       8.805  -2.110  10.320  1.00  0.00     0.049 A 
ATOM     33  H   UNL     1       7.702  -1.674   8.577  1.00  0.00     0.167 HD
ATOM     34  C   UNL     1       8.236   0.303  10.584  1.00  0.00     0.074 A 
ATOM     35  C   UNL     1       8.270   1.557  11.311  1.00  0.00     0.031 C 
ATOM     36  C   UNL     1       8.826  -0.843  11.013  1.00  0.00     0.034 A 
BRANCH  23  37
ATOM     37  C   UNL     1       8.135  -5.698   7.181  1.00  0.00     0.023 A 
ATOM     38  C   UNL     1       8.823  -6.078   6.012  1.00  0.00     0.031 A 
ATOM     39  C   UNL     1       7.592  -6.714   7.982  1.00  0.00     0.131 A 
ATOM     40  C   UNL     1       8.842  -7.421   5.614  1.00  0.00     0.055 A 
ATOM     41  C   UNL     1       7.703  -8.062   7.632  1.00  0.00     0.041 A 
ATOM     42  F   UNL     1       6.909  -6.413   9.097  1.00  0.00    -0.206 F 
ATOM     43  C   UNL     1       8.310  -8.421   6.430  1.00  0.00     0.022 A 
BRANCH  40  44
ATOM     44  S   UNL     1       9.393  -7.812   3.930  1.00  0.00     0.124 S 
ATOM     45  O   UNL     1       8.428  -7.067   3.124  1.00  0.00    -0.237 OA
ATOM     46  O   UNL     1      10.760  -7.303   3.917  1.00  0.00    -0.237 OA
ATOM     47  O   UNL     1       9.267  -9.266   3.856  1.00  0.00    -0.744 OA
ENDBRANCH  40  44
ENDBRANCH  23  37
BRANCH  24  48
ATOM     48  C   UNL     1       6.132   4.072   8.662  1.00  0.00     0.023 A 
ATOM     49  C   UNL     1       7.134   5.032   8.876  1.00  0.00     0.031 A 
ATOM     50  C   UNL     1       4.792   4.494   8.749  1.00  0.00     0.131 A 
ATOM     51  C   UNL     1       6.787   6.348   9.226  1.00  0.00     0.055 A 
ATOM     52  C   UNL     1       4.451   5.815   9.054  1.00  0.00     0.041 A 
ATOM     53  F   UNL     1       3.791   3.626   8.534  1.00  0.00    -0.206 F 
ATOM     54  C   UNL     1       5.452   6.748   9.310  1.00  0.00     0.022 A 
BRANCH  51  55
ATOM     55  S   UNL     1       8.111   7.513   9.657  1.00  0.00     0.124 S 
ATOM     56  O   UNL     1       8.797   6.800  10.728  1.00  0.00    -0.237 OA
ATOM     57  O   UNL     1       8.833   7.624   8.393  1.00  0.00    -0.237 OA
ATOM     58  O   UNL     1       7.387   8.714  10.067  1.00  0.00    -0.744 OA
ENDBRANCH  51  55
ENDBRANCH  24  48
BRANCH  36  59
ATOM     59  C   UNL     1       9.612  -0.765  12.296  1.00  0.00     0.023 A 
ATOM     60  C   UNL     1       8.990  -0.523  13.530  1.00  0.00     0.031 A 
ATOM     61  C   UNL     1      11.008  -0.942  12.277  1.00  0.00     0.131 A 
ATOM     62  C   UNL     1       9.768  -0.404  14.689  1.00  0.00     0.055 A 
ATOM     63  C   UNL     1      11.768  -0.896  13.444  1.00  0.00     0.041 A 
ATOM     64  F   UNL     1      11.652  -1.171  11.121  1.00  0.00    -0.206 F 
ATOM     65  C   UNL     1      11.150  -0.612  14.658  1.00  0.00     0.022 A 
BRANCH  62  66
ATOM     66  S   UNL     1       8.961   0.131  16.221  1.00  0.00     0.124 S 
ATOM     67  O   UNL     1       8.411   1.426  15.835  1.00  0.00    -0.237 OA
ATOM     68  O   UNL     1       7.989  -0.933  16.449  1.00  0.00    -0.237 OA
ATOM     69  O   UNL     1      10.059   0.185  17.185  1.00  0.00    -0.744 OA
ENDBRANCH  62  66
ENDBRANCH  36  59
ENDBRANCH  10  11
ENDBRANCH   3   5
ENDBRANCH   2   3
ENDBRANCH   1   2
BRANCH   1  70
ATOM     70  C   UNL     1       3.738   2.162  -0.901  1.00  0.00     0.275 C 
BRANCH  70  71
ATOM     71  O   UNL     1       3.336   2.041   0.478  1.00  0.00    -0.458 OA
BRANCH  71  72
ATOM     72  C   UNL     1       2.004   1.893   0.714  1.00  0.00     0.338 C 
ATOM     73  O   UNL     1       1.119   1.890  -0.127  1.00  0.00    -0.246 OA
BRANCH  72  74
ATOM     74  C   UNL     1       1.762   1.654   2.162  1.00  0.00     0.060 A 
ATOM     75  C   UNL     1       2.392   2.474   3.119  1.00  0.00     0.018 A 
ATOM     76  C   UNL     1       0.868   0.635   2.565  1.00  0.00     0.022 A 
ATOM     77  C   UNL     1       2.135   2.297   4.482  1.00  0.00     0.027 A 
ATOM     78  C   UNL     1       0.642   0.449   3.926  1.00  0.00    -0.011 A 
ATOM     79  C   UNL     1       1.264   1.291   4.848  1.00  0.00     0.045 A 
ATOM     80  C   UNL     1      -0.281  -0.502   4.678  1.00  0.00     0.114 C 
ATOM     81  N   UNL     1       0.835   1.000   6.131  1.00  0.00    -0.325 N 
ATOM     82  C   UNL     1      -0.127   0.001   6.133  1.00  0.00     0.232 C 
ATOM     83  H   UNL     1       1.170   1.447   6.941  1.00  0.00     0.169 HD
ATOM     84  O   UNL     1      -0.738  -0.398   7.110  1.00  0.00    -0.274 OA
BRANCH  80  85
ATOM     85  C   UNL     1       0.051  -2.005   4.548  1.00  0.00     0.010 C 
ATOM     86  C   UNL     1      -1.081  -2.929   5.037  1.00  0.00     0.033 C 
ATOM     87  C   UNL     1       1.304  -2.439   5.321  1.00  0.00     0.033 C 
ATOM     88  C   UNL     1      -0.700  -4.400   4.840  1.00  0.00     0.160 C 
ATOM     89  C   UNL     1       1.621  -3.890   4.982  1.00  0.00     0.160 C 
ATOM     90  O   UNL     1       0.555  -4.725   5.435  1.00  0.00    -0.381 OA
ENDBRANCH  80  85
ENDBRANCH  72  74
ENDBRANCH  71  72
ENDBRANCH  70  71
ENDBRANCH   1  70
TORSDOF 15
