REMARK SMILES CCOC(=O)c1sc(NC(=O)CCC(=O)OCCOC(=O)c2ccc(-c3c4nc(c(-c5cc(S(=O)(=O)[O-])ccc5F)c5ccc([nH]5)c(-c5cc(S(=O)(=O)[O-])ccc5F)c5nc(c(-c6cc(S(=O)(=O)[O-])ccc6F)c6ccc3[nH]6)C=C5)C=C4)cc2)c(C#N)c1C
REMARK SMILES IDX 16 1 14 2 15 3 13 4 12 5 10 6 9 7 11 9 8 10 6 11 7 12 88 13
REMARK SMILES IDX 85 14 89 15 4 16 5 17 3 18 2 19 1 20 86 21 87 22 17 23 18 24
REMARK SMILES IDX 19 25 20 26 21 27 22 28 23 29 84 30 24 31 83 32 25 33 26 34
REMARK SMILES IDX 27 35 77 36 28 37 82 38 76 39 78 40 29 41 81 42 75 43 74 44
REMARK SMILES IDX 30 46 62 47 42 48 61 49 43 50 46 51 60 52 79 53 44 54 45 55
REMARK SMILES IDX 59 57 80 58 47 59 31 60 32 61 40 62 33 63 39 64 41 65 38 66
REMARK SMILES IDX 34 67 35 68 36 69 37 70 63 71 64 72 72 73 65 74 71 75 73 76
REMARK SMILES IDX 70 77 66 78 67 79 68 80 69 81 48 82 49 83 57 84 50 85 56 86
REMARK SMILES IDX 58 87 55 88 51 89 52 90 53 91 54 92
REMARK H PARENT 9 8 78 45 46 56
REMARK Flexibility Score: inf
ROOT
ATOM      1  O   UNL     1       6.057   5.701  -0.114  1.00  0.00    -0.462 OA
ENDROOT
BRANCH   1   2
ATOM      2  C   UNL     1       6.990   4.815  -0.525  1.00  0.00     0.306 C 
ATOM      3  O   UNL     1       7.546   4.011   0.218  1.00  0.00    -0.252 OA
BRANCH   2   4
ATOM      4  C   UNL     1       7.257   4.920  -2.014  1.00  0.00     0.132 C 
BRANCH   4   5
ATOM      5  C   UNL     1       6.109   5.346  -2.986  1.00  0.00     0.112 C 
BRANCH   5   6
ATOM      6  C   UNL     1       5.409   6.649  -2.693  1.00  0.00     0.225 C 
ATOM      7  N   UNL     1       4.156   6.936  -2.253  1.00  0.00    -0.317 N 
ATOM      8  H   UNL     1       4.041   7.913  -2.290  1.00  0.00     0.170 HD
ATOM      9  O   UNL     1       6.110   7.671  -2.845  1.00  0.00    -0.275 OA
BRANCH   7  10
ATOM     10  C   UNL     1       2.963   6.383  -1.767  1.00  0.00     0.114 A 
ATOM     11  C   UNL     1       1.243   4.921  -0.651  1.00  0.00     0.118 A 
ATOM     12  S   UNL     1       2.316   4.821  -2.045  1.00  0.00    -0.109 S 
ATOM     13  C   UNL     1       1.141   6.243  -0.245  1.00  0.00    -0.006 A 
ATOM     14  C   UNL     1       2.087   7.082  -0.936  1.00  0.00     0.091 A 
ATOM     15  C   UNL     1       0.363   6.652   0.976  1.00  0.00     0.048 C 
BRANCH  11  16
ATOM     16  C   UNL     1       0.946   3.841   0.318  1.00  0.00     0.348 C 
ATOM     17  O   UNL     1       1.505   3.817   1.413  1.00  0.00    -0.245 OA
BRANCH  16  18
ATOM     18  O   UNL     1      -0.021   2.932  -0.012  1.00  0.00    -0.462 OA
BRANCH  18  19
ATOM     19  C   UNL     1      -0.370   2.018   1.077  1.00  0.00     0.230 C 
ATOM     20  C   UNL     1      -0.003   0.573   0.805  1.00  0.00     0.049 C 
ENDBRANCH  18  19
ENDBRANCH  16  18
ENDBRANCH  11  16
BRANCH  14  21
ATOM     21  C   UNL     1       2.299   8.458  -0.558  1.00  0.00     0.103 C 
ATOM     22  N   UNL     1       2.499   9.535  -0.210  1.00  0.00    -0.192 NA
ENDBRANCH  14  21
ENDBRANCH   7  10
ENDBRANCH   5   6
ENDBRANCH   4   5
ENDBRANCH   2   4
ENDBRANCH   1   2
BRANCH   1  23
ATOM     23  C   UNL     1       5.427   5.330   1.111  1.00  0.00     0.274 C 
BRANCH  23  24
ATOM     24  C   UNL     1       4.303   4.322   0.859  1.00  0.00     0.275 C 
BRANCH  24  25
ATOM     25  O   UNL     1       4.504   2.926   0.469  1.00  0.00    -0.458 OA
BRANCH  25  26
ATOM     26  C   UNL     1       4.699   2.635  -0.854  1.00  0.00     0.338 C 
ATOM     27  O   UNL     1       5.334   3.326  -1.617  1.00  0.00    -0.246 OA
BRANCH  26  28
ATOM     28  C   UNL     1       3.858   1.613  -1.515  1.00  0.00     0.060 A 
ATOM     29  C   UNL     1       3.996   1.242  -2.866  1.00  0.00     0.016 A 
ATOM     30  C   UNL     1       2.601   1.521  -1.014  1.00  0.00     0.016 A 
ATOM     31  C   UNL     1       2.839   0.964  -3.671  1.00  0.00     0.010 A 
ATOM     32  C   UNL     1       1.610   0.884  -1.722  1.00  0.00     0.010 A 
ATOM     33  C   UNL     1       1.560   0.958  -3.103  1.00  0.00    -0.014 A 
BRANCH  33  34
ATOM     34  C   UNL     1       0.287   0.427  -3.693  1.00  0.00     0.031 A 
ATOM     35  C   UNL     1       0.275  -1.074  -3.540  1.00  0.00     0.074 A 
ATOM     36  C   UNL     1      -0.864   1.101  -4.012  1.00  0.00     0.049 A 
ATOM     37  N   UNL     1       0.837  -1.937  -4.333  1.00  0.00    -0.248 NA
ATOM     38  C   UNL     1      -0.009  -1.657  -2.205  1.00  0.00     0.031 C 
ATOM     39  C   UNL     1      -1.182   2.537  -3.994  1.00  0.00     0.029 A 
ATOM     40  N   UNL     1      -2.076   0.581  -4.435  1.00  0.00    -0.354 N 
ATOM     41  C   UNL     1       0.682  -3.153  -3.672  1.00  0.00     0.074 A 
ATOM     42  C   UNL     1       0.633  -2.823  -2.290  1.00  0.00     0.031 C 
ATOM     43  C   UNL     1      -2.518   2.742  -4.192  1.00  0.00     0.029 A 
ATOM     44  C   UNL     1      -3.177   1.475  -4.477  1.00  0.00     0.049 A 
ATOM     45  H   UNL     1      -2.169  -0.364  -4.694  1.00  0.00     0.167 HD
ATOM     46  C   UNL     1       0.118  -4.241  -4.267  1.00  0.00     0.034 A 
ATOM     47  C   UNL     1      -4.500   1.186  -4.772  1.00  0.00     0.034 A 
ATOM     48  C   UNL     1       0.037  -4.031  -5.694  1.00  0.00     0.049 A 
ATOM     49  C   UNL     1      -4.467  -0.108  -5.506  1.00  0.00     0.074 A 
ATOM     50  C   UNL     1       0.965  -3.710  -6.665  1.00  0.00     0.029 A 
ATOM     51  N   UNL     1      -1.187  -3.650  -6.200  1.00  0.00    -0.354 N 
ATOM     52  N   UNL     1      -3.899  -0.236  -6.675  1.00  0.00    -0.248 NA
ATOM     53  C   UNL     1      -4.533  -1.318  -4.700  1.00  0.00     0.031 C 
ATOM     54  C   UNL     1       0.335  -2.693  -7.439  1.00  0.00     0.029 A 
ATOM     55  C   UNL     1      -0.990  -2.562  -7.017  1.00  0.00     0.049 A 
ATOM     56  H   UNL     1      -2.051  -4.082  -6.009  1.00  0.00     0.167 HD
ATOM     57  C   UNL     1      -3.145  -1.394  -6.572  1.00  0.00     0.074 A 
ATOM     58  C   UNL     1      -3.600  -2.037  -5.335  1.00  0.00     0.031 C 
ATOM     59  C   UNL     1      -2.003  -1.563  -7.302  1.00  0.00     0.034 A 
BRANCH  46  60
ATOM     60  C   UNL     1      -0.733  -5.284  -3.557  1.00  0.00     0.023 A 
ATOM     61  C   UNL     1      -1.137  -6.385  -4.329  1.00  0.00     0.031 A 
ATOM     62  C   UNL     1      -1.367  -5.168  -2.292  1.00  0.00     0.131 A 
ATOM     63  C   UNL     1      -2.170  -7.234  -3.897  1.00  0.00     0.055 A 
ATOM     64  C   UNL     1      -2.349  -6.054  -1.840  1.00  0.00     0.041 A 
ATOM     65  F   UNL     1      -1.157  -4.158  -1.443  1.00  0.00    -0.206 F 
ATOM     66  C   UNL     1      -2.779  -7.079  -2.656  1.00  0.00     0.022 A 
BRANCH  63  67
ATOM     67  S   UNL     1      -2.820  -8.447  -5.070  1.00  0.00     0.124 S 
ATOM     68  O   UNL     1      -3.173  -7.597  -6.202  1.00  0.00    -0.237 OA
ATOM     69  O   UNL     1      -1.670  -9.326  -5.256  1.00  0.00    -0.237 OA
ATOM     70  O   UNL     1      -3.948  -9.037  -4.354  1.00  0.00    -0.744 OA
ENDBRANCH  63  67
ENDBRANCH  46  60
BRANCH  47  71
ATOM     71  C   UNL     1      -5.801   1.678  -4.143  1.00  0.00     0.023 A 
ATOM     72  C   UNL     1      -7.121   1.526  -4.689  1.00  0.00     0.031 A 
ATOM     73  C   UNL     1      -5.757   2.057  -2.786  1.00  0.00     0.131 A 
ATOM     74  C   UNL     1      -8.286   1.760  -3.885  1.00  0.00     0.055 A 
ATOM     75  C   UNL     1      -6.901   2.257  -2.000  1.00  0.00     0.041 A 
ATOM     76  F   UNL     1      -4.584   2.159  -2.144  1.00  0.00    -0.206 F 
ATOM     77  C   UNL     1      -8.167   2.104  -2.540  1.00  0.00     0.022 A 
BRANCH  74  78
ATOM     78  S   UNL     1     -10.008   1.589  -4.529  1.00  0.00     0.124 S 
ATOM     79  O   UNL     1     -10.075   2.641  -5.536  1.00  0.00    -0.237 OA
ATOM     80  O   UNL     1     -10.036   0.216  -5.017  1.00  0.00    -0.237 OA
ATOM     81  O   UNL     1     -10.845   1.829  -3.349  1.00  0.00    -0.744 OA
ENDBRANCH  74  78
ENDBRANCH  47  71
BRANCH  59  82
ATOM     82  C   UNL     1      -1.688  -0.581  -8.418  1.00  0.00     0.023 A 
ATOM     83  C   UNL     1      -1.425   0.805  -8.276  1.00  0.00     0.031 A 
ATOM     84  C   UNL     1      -1.492  -1.153  -9.687  1.00  0.00     0.131 A 
ATOM     85  C   UNL     1      -0.975   1.551  -9.391  1.00  0.00     0.055 A 
ATOM     86  C   UNL     1      -1.014  -0.422 -10.770  1.00  0.00     0.041 A 
ATOM     87  F   UNL     1      -1.713  -2.464  -9.879  1.00  0.00    -0.206 F 
ATOM     88  C   UNL     1      -0.755   0.934 -10.627  1.00  0.00     0.022 A 
BRANCH  85  89
ATOM     89  S   UNL     1      -0.679   3.352  -9.275  1.00  0.00     0.124 S 
ATOM     90  O   UNL     1      -1.918   3.858  -8.696  1.00  0.00    -0.237 OA
ATOM     91  O   UNL     1       0.503   3.428  -8.421  1.00  0.00    -0.237 OA
ATOM     92  O   UNL     1      -0.450   3.751 -10.666  1.00  0.00    -0.744 OA
ENDBRANCH  85  89
ENDBRANCH  59  82
ENDBRANCH  33  34
ENDBRANCH  26  28
ENDBRANCH  25  26
ENDBRANCH  24  25
ENDBRANCH  23  24
ENDBRANCH   1  23
TORSDOF 21
