REMARK SMILES O=C(OCCOC(=O)[C@H]1C[C@](O)(c2ccc(Cl)cc2)[C@@H](c2ccc(Cl)cc2)O1)c1ccc(-c2c3nc(c(-c4cc(S(=O)(=O)[O-])ccc4F)c4ccc([nH]4)c(-c4cc(S(=O)(=O)[O-])ccc4F)c4nc(c(-c5cc(S(=O)(=O)[O-])ccc5F)c5ccc2[nH]5)C=C4)C=C3)cc1
REMARK SMILES IDX 4 1 3 2 2 3 1 4 29 5 30 6 91 7 31 8 90 9 32 10 33 11 34 12
REMARK SMILES IDX 84 13 35 14 89 15 83 16 85 17 36 18 88 19 82 20 81 21 37 23
REMARK SMILES IDX 69 24 49 25 68 26 50 27 53 28 67 29 86 30 51 31 52 32 66 34
REMARK SMILES IDX 87 35 54 36 38 37 39 38 47 39 40 40 46 41 48 42 45 43 41 44
REMARK SMILES IDX 42 45 43 46 44 47 70 48 71 49 79 50 72 51 78 52 80 53 77 54
REMARK SMILES IDX 73 55 74 56 75 57 76 58 55 59 56 60 64 61 57 62 63 63 65 64
REMARK SMILES IDX 62 65 58 66 59 67 60 68 61 69 5 70 6 71 7 72 8 73 9 74 10 75
REMARK SMILES IDX 28 76 11 77 20 78 13 79 14 80 19 81 15 82 18 83 16 84 17 85
REMARK SMILES IDX 12 86 21 88 22 89 27 90 23 91 26 92 24 93 25 94
REMARK H PARENT 85 22 53 33 12 87
REMARK Flexibility Score: inf
ROOT
ATOM      1  C   UNL     1       4.966  -0.507  -6.102  1.00  0.00     0.275 C 
ENDROOT
BRANCH   1   2
ATOM      2  O   UNL     1       5.340   0.480  -5.114  1.00  0.00    -0.458 OA
BRANCH   2   3
ATOM      3  C   UNL     1       5.328   1.815  -5.410  1.00  0.00     0.338 C 
ATOM      4  O   UNL     1       6.365   2.449  -5.559  1.00  0.00    -0.246 OA
BRANCH   3   5
ATOM      5  C   UNL     1       4.014   2.503  -5.122  1.00  0.00     0.060 A 
ATOM      6  C   UNL     1       2.798   1.944  -5.461  1.00  0.00     0.016 A 
ATOM      7  C   UNL     1       3.932   3.716  -4.429  1.00  0.00     0.016 A 
ATOM      8  C   UNL     1       1.569   2.466  -4.968  1.00  0.00     0.010 A 
ATOM      9  C   UNL     1       2.674   4.187  -3.893  1.00  0.00     0.010 A 
ATOM     10  C   UNL     1       1.453   3.476  -4.029  1.00  0.00    -0.014 A 
BRANCH  10  11
ATOM     11  C   UNL     1       0.046   3.926  -3.503  1.00  0.00     0.031 A 
ATOM     12  C   UNL     1      -0.413   5.210  -4.036  1.00  0.00     0.074 A 
ATOM     13  C   UNL     1      -0.948   3.344  -2.753  1.00  0.00     0.049 A 
ATOM     14  N   UNL     1      -1.302   6.016  -3.541  1.00  0.00    -0.248 NA
ATOM     15  C   UNL     1       0.243   5.628  -5.270  1.00  0.00     0.031 C 
ATOM     16  C   UNL     1      -0.894   2.003  -2.299  1.00  0.00     0.029 A 
ATOM     17  N   UNL     1      -2.175   3.711  -2.194  1.00  0.00    -0.354 N 
ATOM     18  C   UNL     1      -1.273   7.095  -4.383  1.00  0.00     0.074 A 
ATOM     19  C   UNL     1      -0.199   6.866  -5.335  1.00  0.00     0.031 C 
ATOM     20  C   UNL     1      -1.917   1.597  -1.543  1.00  0.00     0.029 A 
ATOM     21  C   UNL     1      -2.720   2.760  -1.311  1.00  0.00     0.049 A 
ATOM     22  H   UNL     1      -2.622   4.564  -2.401  1.00  0.00     0.167 HD
ATOM     23  C   UNL     1      -2.102   8.156  -4.384  1.00  0.00     0.034 A 
ATOM     24  C   UNL     1      -3.648   2.783  -0.324  1.00  0.00     0.034 A 
ATOM     25  C   UNL     1      -3.202   8.340  -3.479  1.00  0.00     0.049 A 
ATOM     26  C   UNL     1      -4.358   4.071  -0.113  1.00  0.00     0.074 A 
ATOM     27  C   UNL     1      -4.077   9.406  -3.426  1.00  0.00     0.029 A 
ATOM     28  N   UNL     1      -3.590   7.458  -2.477  1.00  0.00    -0.354 N 
ATOM     29  N   UNL     1      -4.184   5.182  -0.779  1.00  0.00    -0.248 NA
ATOM     30  C   UNL     1      -5.369   4.133   0.947  1.00  0.00     0.031 C 
ATOM     31  C   UNL     1      -4.963   9.197  -2.366  1.00  0.00     0.029 A 
ATOM     32  C   UNL     1      -4.690   7.965  -1.797  1.00  0.00     0.049 A 
ATOM     33  H   UNL     1      -3.149   6.600  -2.277  1.00  0.00     0.167 HD
ATOM     34  C   UNL     1      -5.116   6.062  -0.270  1.00  0.00     0.074 A 
ATOM     35  C   UNL     1      -5.814   5.374   0.799  1.00  0.00     0.031 C 
ATOM     36  C   UNL     1      -5.387   7.309  -0.715  1.00  0.00     0.034 A 
BRANCH  23  37
ATOM     37  C   UNL     1      -1.712   9.216  -5.362  1.00  0.00     0.023 A 
ATOM     38  C   UNL     1      -1.677   8.950  -6.743  1.00  0.00     0.031 A 
ATOM     39  C   UNL     1      -1.100  10.378  -4.872  1.00  0.00     0.131 A 
ATOM     40  C   UNL     1      -0.866   9.748  -7.557  1.00  0.00     0.055 A 
ATOM     41  C   UNL     1      -0.420  11.244  -5.721  1.00  0.00     0.041 A 
ATOM     42  F   UNL     1      -1.069  10.631  -3.554  1.00  0.00    -0.206 F 
ATOM     43  C   UNL     1      -0.269  10.911  -7.065  1.00  0.00     0.022 A 
BRANCH  40  44
ATOM     44  S   UNL     1      -0.361   9.068  -9.167  1.00  0.00     0.124 S 
ATOM     45  O   UNL     1       0.411   7.886  -8.753  1.00  0.00    -0.237 OA
ATOM     46  O   UNL     1      -1.612   8.816  -9.823  1.00  0.00    -0.237 OA
ATOM     47  O   UNL     1       0.460  10.149  -9.740  1.00  0.00    -0.744 OA
ENDBRANCH  40  44
ENDBRANCH  23  37
BRANCH  24  48
ATOM     48  C   UNL     1      -3.823   1.664   0.679  1.00  0.00     0.023 A 
ATOM     49  C   UNL     1      -4.992   0.889   0.795  1.00  0.00     0.031 A 
ATOM     50  C   UNL     1      -2.821   1.444   1.646  1.00  0.00     0.131 A 
ATOM     51  C   UNL     1      -5.125  -0.038   1.856  1.00  0.00     0.055 A 
ATOM     52  C   UNL     1      -2.936   0.498   2.667  1.00  0.00     0.041 A 
ATOM     53  F   UNL     1      -1.702   2.176   1.631  1.00  0.00    -0.206 F 
ATOM     54  C   UNL     1      -4.099  -0.246   2.782  1.00  0.00     0.022 A 
BRANCH  51  55
ATOM     55  S   UNL     1      -6.695  -0.932   2.078  1.00  0.00     0.124 S 
ATOM     56  O   UNL     1      -7.623   0.162   2.337  1.00  0.00    -0.237 OA
ATOM     57  O   UNL     1      -6.840  -1.611   0.795  1.00  0.00    -0.237 OA
ATOM     58  O   UNL     1      -6.431  -1.811   3.216  1.00  0.00    -0.744 OA
ENDBRANCH  51  55
ENDBRANCH  24  48
BRANCH  36  59
ATOM     59  C   UNL     1      -6.589   7.975  -0.121  1.00  0.00     0.023 A 
ATOM     60  C   UNL     1      -6.604   8.460   1.194  1.00  0.00     0.031 A 
ATOM     61  C   UNL     1      -7.749   8.108  -0.904  1.00  0.00     0.131 A 
ATOM     62  C   UNL     1      -7.774   9.046   1.696  1.00  0.00     0.055 A 
ATOM     63  C   UNL     1      -8.889   8.740  -0.418  1.00  0.00     0.041 A 
ATOM     64  F   UNL     1      -7.784   7.628  -2.158  1.00  0.00    -0.206 F 
ATOM     65  C   UNL     1      -8.906   9.211   0.891  1.00  0.00     0.022 A 
BRANCH  62  66
ATOM     66  S   UNL     1      -7.817   9.556   3.434  1.00  0.00     0.124 S 
ATOM     67  O   UNL     1      -7.736   8.273   4.125  1.00  0.00    -0.237 OA
ATOM     68  O   UNL     1      -6.641  10.413   3.541  1.00  0.00    -0.237 OA
ATOM     69  O   UNL     1      -9.098  10.249   3.554  1.00  0.00    -0.744 OA
ENDBRANCH  62  66
ENDBRANCH  36  59
ENDBRANCH  10  11
ENDBRANCH   3   5
ENDBRANCH   2   3
ENDBRANCH   1   2
BRANCH   1  70
ATOM     70  C   UNL     1       4.487  -1.795  -5.410  1.00  0.00     0.274 C 
BRANCH  70  71
ATOM     71  O   UNL     1       3.490  -1.551  -4.409  1.00  0.00    -0.460 OA
BRANCH  71  72
ATOM     72  C   UNL     1       3.793  -1.744  -3.091  1.00  0.00     0.335 C 
ATOM     73  O   UNL     1       4.914  -1.982  -2.658  1.00  0.00    -0.249 OA
BRANCH  72  74
ATOM     74  C   UNL     1       2.511  -1.726  -2.216  1.00  0.00     0.232 C 
ATOM     75  C   UNL     1       2.429  -0.574  -1.215  1.00  0.00     0.087 C 
ATOM     76  O   UNL     1       1.327  -1.707  -3.018  1.00  0.00    -0.355 OA
ATOM     77  C   UNL     1       1.994   0.596  -2.081  1.00  0.00     0.123 C 
ATOM     78  C   UNL     1       0.797  -0.357  -3.027  1.00  0.00     0.186 C 
BRANCH  77  79
ATOM     79  C   UNL     1       1.911   1.899  -1.095  1.00  0.00    -0.013 A 
ATOM     80  C   UNL     1       2.925   2.908  -1.059  1.00  0.00     0.008 A 
ATOM     81  C   UNL     1       0.878   2.174  -0.180  1.00  0.00     0.008 A 
ATOM     82  C   UNL     1       2.768   4.178  -0.436  1.00  0.00     0.021 A 
ATOM     83  C   UNL     1       0.677   3.466   0.401  1.00  0.00     0.021 A 
ATOM     84  C   UNL     1       1.602   4.479   0.235  1.00  0.00     0.041 A 
ATOM     85  Cl  UNL     1       1.337   6.052   0.881  1.00  0.00    -0.084 Cl
ENDBRANCH  77  79
BRANCH  77  86
ATOM     86  O   UNL     1       3.143   0.799  -2.906  1.00  0.00    -0.382 OA
ATOM     87  H   UNL     1       3.240   0.050  -3.514  1.00  0.00     0.212 HD
ENDBRANCH  77  86
BRANCH  78  88
ATOM     88  C   UNL     1       0.177  -0.160  -4.500  1.00  0.00    -0.016 A 
ATOM     89  C   UNL     1       0.824  -0.578  -5.680  1.00  0.00     0.008 A 
ATOM     90  C   UNL     1      -1.097   0.425  -4.767  1.00  0.00     0.008 A 
ATOM     91  C   UNL     1       0.395  -0.209  -6.987  1.00  0.00     0.021 A 
ATOM     92  C   UNL     1      -1.532   0.827  -6.061  1.00  0.00     0.021 A 
ATOM     93  C   UNL     1      -0.756   0.543  -7.169  1.00  0.00     0.041 A 
ATOM     94  Cl  UNL     1      -1.192   1.119  -8.730  1.00  0.00    -0.084 Cl
ENDBRANCH  78  88
ENDBRANCH  72  74
ENDBRANCH  71  72
ENDBRANCH  70  71
ENDBRANCH   1  70
TORSDOF 17
