REMARK SMILES CC(=O)N[C@@H](C(=O)OCCOC(=O)c1ccc(-c2c3nc(c(-c4cc(S(=O)(=O)[O-])ccc4F)c4ccc([nH]4)c(-c4cc(S(=O)(=O)[O-])ccc4F)c4nc(c(-c5cc(S(=O)(=O)[O-])ccc5F)c5ccc2[nH]5)C=C4)C=C3)cc1)C(c1ccccc1)c1ccccc1
REMARK SMILES IDX 10 1 9 2 8 3 6 4 7 5 5 6 4 7 1 8 2 9 3 10 77 12 78 13 79 14
REMARK SMILES IDX 83 15 80 16 82 17 81 18 84 19 85 20 89 21 86 22 88 23 87 24
REMARK SMILES IDX 11 25 12 26 13 27 14 28 15 29 76 30 16 31 75 32 17 33 18 34
REMARK SMILES IDX 19 35 69 36 20 37 74 38 68 39 70 40 21 41 73 42 67 43 66 44
REMARK SMILES IDX 22 46 54 47 34 48 53 49 35 50 38 51 52 52 71 53 36 54 37 55
REMARK SMILES IDX 51 57 72 58 39 59 23 60 24 61 32 62 25 63 31 64 33 65 30 66
REMARK SMILES IDX 26 67 27 68 28 69 29 70 55 71 56 72 64 73 57 74 63 75 65 76
REMARK SMILES IDX 62 77 58 78 59 79 60 80 61 81 40 82 41 83 49 84 42 85 48 86
REMARK SMILES IDX 50 87 47 88 43 89 44 90 45 91 46 92
REMARK H PARENT 4 11 70 45 38 56
REMARK Flexibility Score: inf
ROOT
ATOM      1  C   UNL     1       4.378   2.684  -4.596  1.00  0.00     0.275 C 
ENDROOT
BRANCH   1   2
ATOM      2  C   UNL     1       4.547   2.186  -3.159  1.00  0.00     0.274 C 
BRANCH   2   3
ATOM      3  O   UNL     1       3.277   1.990  -2.497  1.00  0.00    -0.461 OA
BRANCH   3   4
ATOM      4  C   UNL     1       3.028   2.778  -1.405  1.00  0.00     0.329 C 
ATOM      5  O   UNL     1       3.794   3.662  -1.047  1.00  0.00    -0.250 OA
BRANCH   4   6
ATOM      6  C   UNL     1       1.763   2.313  -0.603  1.00  0.00     0.204 C 
BRANCH   6   7
ATOM      7  N   UNL     1       0.977   1.383  -1.446  1.00  0.00    -0.342 N 
ATOM      8  C   UNL     1       1.651  -0.690  -0.274  1.00  0.00     0.114 C 
ATOM      9  C   UNL     1       0.981   0.018  -1.423  1.00  0.00     0.217 C 
ATOM     10  O   UNL     1       0.439  -0.615  -2.326  1.00  0.00    -0.275 OA
ATOM     11  H   UNL     1       0.377   1.801  -2.105  1.00  0.00     0.164 HD
ENDBRANCH   6   7
BRANCH   6  12
ATOM     12  C   UNL     1       0.923   3.530  -0.041  1.00  0.00     0.083 C 
BRANCH  12  13
ATOM     13  C   UNL     1      -0.444   3.260   0.623  1.00  0.00    -0.038 A 
ATOM     14  C   UNL     1      -1.298   4.353   0.894  1.00  0.00     0.004 A 
ATOM     15  C   UNL     1      -0.941   1.987   0.923  1.00  0.00     0.004 A 
ATOM     16  C   UNL     1      -2.575   4.181   1.435  1.00  0.00     0.000 A 
ATOM     17  C   UNL     1      -2.232   1.808   1.441  1.00  0.00     0.000 A 
ATOM     18  C   UNL     1      -3.047   2.905   1.700  1.00  0.00     0.000 A 
ENDBRANCH  12  13
BRANCH  12  19
ATOM     19  C   UNL     1       1.773   4.487   0.816  1.00  0.00    -0.038 A 
ATOM     20  C   UNL     1       2.665   4.029   1.797  1.00  0.00     0.004 A 
ATOM     21  C   UNL     1       1.690   5.875   0.597  1.00  0.00     0.004 A 
ATOM     22  C   UNL     1       3.488   4.927   2.484  1.00  0.00     0.000 A 
ATOM     23  C   UNL     1       2.483   6.772   1.311  1.00  0.00     0.000 A 
ATOM     24  C   UNL     1       3.397   6.296   2.243  1.00  0.00     0.000 A 
ENDBRANCH  12  19
ENDBRANCH   6  12
ENDBRANCH   4   6
ENDBRANCH   3   4
ENDBRANCH   2   3
ENDBRANCH   1   2
BRANCH   1  25
ATOM     25  O   UNL     1       3.804   4.001  -4.623  1.00  0.00    -0.458 OA
BRANCH  25  26
ATOM     26  C   UNL     1       2.478   4.031  -4.890  1.00  0.00     0.338 C 
ATOM     27  O   UNL     1       1.762   3.081  -5.174  1.00  0.00    -0.246 OA
BRANCH  26  28
ATOM     28  C   UNL     1       1.935   5.353  -4.553  1.00  0.00     0.060 A 
ATOM     29  C   UNL     1       1.156   5.408  -3.402  1.00  0.00     0.016 A 
ATOM     30  C   UNL     1       2.078   6.478  -5.361  1.00  0.00     0.016 A 
ATOM     31  C   UNL     1       0.521   6.585  -3.030  1.00  0.00     0.010 A 
ATOM     32  C   UNL     1       1.435   7.671  -4.992  1.00  0.00     0.010 A 
ATOM     33  C   UNL     1       0.654   7.730  -3.822  1.00  0.00    -0.014 A 
BRANCH  33  34
ATOM     34  C   UNL     1      -0.118   8.938  -3.440  1.00  0.00     0.031 A 
ATOM     35  C   UNL     1      -1.429   9.219  -4.116  1.00  0.00     0.074 A 
ATOM     36  C   UNL     1       0.287   9.705  -2.410  1.00  0.00     0.049 A 
ATOM     37  N   UNL     1      -2.239  10.234  -3.964  1.00  0.00    -0.248 NA
ATOM     38  C   UNL     1      -1.895   8.211  -5.080  1.00  0.00     0.031 C 
ATOM     39  C   UNL     1       1.480   9.460  -1.599  1.00  0.00     0.029 A 
ATOM     40  N   UNL     1      -0.270  10.829  -1.853  1.00  0.00    -0.354 N 
ATOM     41  C   UNL     1      -3.302  10.002  -4.829  1.00  0.00     0.074 A 
ATOM     42  C   UNL     1      -3.031   8.746  -5.500  1.00  0.00     0.031 C 
ATOM     43  C   UNL     1       1.555  10.397  -0.639  1.00  0.00     0.029 A 
ATOM     44  C   UNL     1       0.456  11.345  -0.803  1.00  0.00     0.049 A 
ATOM     45  H   UNL     1      -1.110  11.229  -2.175  1.00  0.00     0.167 HD
ATOM     46  C   UNL     1      -4.395  10.774  -5.052  1.00  0.00     0.034 A 
ATOM     47  C   UNL     1       0.274  12.472  -0.084  1.00  0.00     0.034 A 
ATOM     48  C   UNL     1      -4.643  12.028  -4.384  1.00  0.00     0.049 A 
ATOM     49  C   UNL     1      -0.893  13.369  -0.425  1.00  0.00     0.074 A 
ATOM     50  C   UNL     1      -5.681  12.924  -4.582  1.00  0.00     0.029 A 
ATOM     51  N   UNL     1      -3.840  12.569  -3.388  1.00  0.00    -0.354 N 
ATOM     52  N   UNL     1      -1.844  13.187  -1.312  1.00  0.00    -0.248 NA
ATOM     53  C   UNL     1      -1.000  14.631   0.320  1.00  0.00     0.031 C 
ATOM     54  C   UNL     1      -5.473  14.029  -3.748  1.00  0.00     0.029 A 
ATOM     55  C   UNL     1      -4.343  13.796  -2.981  1.00  0.00     0.049 A 
ATOM     56  H   UNL     1      -3.031  12.143  -3.022  1.00  0.00     0.167 HD
ATOM     57  C   UNL     1      -2.664  14.309  -1.226  1.00  0.00     0.074 A 
ATOM     58  C   UNL     1      -2.113  15.147  -0.181  1.00  0.00     0.031 C 
ATOM     59  C   UNL     1      -3.768  14.626  -1.950  1.00  0.00     0.034 A 
BRANCH  46  60
ATOM     60  C   UNL     1      -5.340  10.321  -6.135  1.00  0.00     0.023 A 
ATOM     61  C   UNL     1      -6.128   9.165  -6.002  1.00  0.00     0.031 A 
ATOM     62  C   UNL     1      -5.406  11.032  -7.346  1.00  0.00     0.131 A 
ATOM     63  C   UNL     1      -6.900   8.720  -7.088  1.00  0.00     0.055 A 
ATOM     64  C   UNL     1      -6.227  10.623  -8.397  1.00  0.00     0.041 A 
ATOM     65  F   UNL     1      -4.654  12.128  -7.535  1.00  0.00    -0.206 F 
ATOM     66  C   UNL     1      -6.970   9.453  -8.276  1.00  0.00     0.022 A 
BRANCH  63  67
ATOM     67  S   UNL     1      -7.704   7.098  -6.978  1.00  0.00     0.124 S 
ATOM     68  O   UNL     1      -6.561   6.216  -6.758  1.00  0.00    -0.237 OA
ATOM     69  O   UNL     1      -8.607   7.270  -5.846  1.00  0.00    -0.237 OA
ATOM     70  O   UNL     1      -8.355   6.950  -8.278  1.00  0.00    -0.744 OA
ENDBRANCH  63  67
ENDBRANCH  46  60
BRANCH  47  71
ATOM     71  C   UNL     1       1.254  12.875   0.968  1.00  0.00     0.023 A 
ATOM     72  C   UNL     1       0.864  13.038   2.307  1.00  0.00     0.031 A 
ATOM     73  C   UNL     1       2.586  13.180   0.630  1.00  0.00     0.131 A 
ATOM     74  C   UNL     1       1.781  13.535   3.248  1.00  0.00     0.055 A 
ATOM     75  C   UNL     1       3.509  13.617   1.580  1.00  0.00     0.041 A 
ATOM     76  F   UNL     1       3.011  13.055  -0.637  1.00  0.00    -0.206 F 
ATOM     77  C   UNL     1       3.105  13.811   2.896  1.00  0.00     0.022 A 
BRANCH  74  78
ATOM     78  S   UNL     1       1.195  13.913   4.923  1.00  0.00     0.124 S 
ATOM     79  O   UNL     1       0.125  14.868   4.655  1.00  0.00    -0.237 OA
ATOM     80  O   UNL     1       0.778  12.599   5.401  1.00  0.00    -0.237 OA
ATOM     81  O   UNL     1       2.376  14.468   5.580  1.00  0.00    -0.744 OA
ENDBRANCH  74  78
ENDBRANCH  47  71
BRANCH  59  82
ATOM     82  C   UNL     1      -4.456  15.924  -1.610  1.00  0.00     0.023 A 
ATOM     83  C   UNL     1      -3.861  17.167  -1.890  1.00  0.00     0.031 A 
ATOM     84  C   UNL     1      -5.718  15.917  -0.990  1.00  0.00     0.131 A 
ATOM     85  C   UNL     1      -4.507  18.352  -1.507  1.00  0.00     0.055 A 
ATOM     86  C   UNL     1      -6.378  17.100  -0.656  1.00  0.00     0.041 A 
ATOM     87  F   UNL     1      -6.329  14.757  -0.700  1.00  0.00    -0.206 F 
ATOM     88  C   UNL     1      -5.768  18.327  -0.904  1.00  0.00     0.022 A 
BRANCH  85  89
ATOM     89  S   UNL     1      -3.644  19.931  -1.740  1.00  0.00     0.124 S 
ATOM     90  O   UNL     1      -2.440  19.742  -0.939  1.00  0.00    -0.237 OA
ATOM     91  O   UNL     1      -3.449  19.970  -3.186  1.00  0.00    -0.237 OA
ATOM     92  O   UNL     1      -4.588  20.918  -1.218  1.00  0.00    -0.744 OA
ENDBRANCH  85  89
ENDBRANCH  59  82
ENDBRANCH  33  34
ENDBRANCH  26  28
ENDBRANCH  25  26
ENDBRANCH   1  25
TORSDOF 18
