REMARK SMILES CCc1cc(N2CCC[C@H](C(=O)OCCOC(=O)c3ccc(-c4c5nc(c(-c6cc(S(=O)(=O)[O-])ccc6F)c6ccc([nH]6)c(-c6cc(S(=O)(=O)[O-])ccc6F)c6nc(c(-c7cc(S(=O)(=O)[O-])ccc7F)c7ccc4[nH]7)C=C6)C=C5)cc3)C2)nc(-c2ccc(Cl)cc2)n1
REMARK SMILES IDX 15 1 14 2 13 3 11 4 12 5 10 6 6 7 7 8 82 9 8 10 9 11 5 12
REMARK SMILES IDX 3 13 4 14 92 15 84 16 83 17 2 18 1 19 85 20 86 21 91 22
REMARK SMILES IDX 87 23 90 24 88 25 89 26 16 27 17 28 18 29 19 30 20 31 81 32
REMARK SMILES IDX 21 33 80 34 22 35 23 36 24 37 74 38 25 39 79 40 73 41 75 42
REMARK SMILES IDX 26 43 78 44 72 45 71 46 27 48 59 49 39 50 58 51 40 52 43 53
REMARK SMILES IDX 57 54 76 55 41 56 42 57 56 59 77 60 44 61 28 62 29 63 37 64
REMARK SMILES IDX 30 65 36 66 38 67 35 68 31 69 32 70 33 71 34 72 60 73 61 74
REMARK SMILES IDX 69 75 62 76 68 77 70 78 67 79 63 80 64 81 65 82 66 83 45 84
REMARK SMILES IDX 46 85 54 86 47 87 53 88 55 89 52 90 48 91 49 92 50 93 51 94
REMARK H PARENT 75 47 43 58
REMARK Flexibility Score: inf
ROOT
ATOM      1  C   UNL     1      -0.057   0.106   9.507  1.00  0.00     0.275 C 
ENDROOT
BRANCH   1   2
ATOM      2  C   UNL     1       0.267  -0.116   8.031  1.00  0.00     0.274 C 
BRANCH   2   3
ATOM      3  O   UNL     1       0.772   1.087   7.432  1.00  0.00    -0.462 OA
BRANCH   3   4
ATOM      4  C   UNL     1       0.014   1.695   6.487  1.00  0.00     0.310 C 
ATOM      5  O   UNL     1      -1.093   1.311   6.128  1.00  0.00    -0.252 OA
BRANCH   4   6
ATOM      6  C   UNL     1       0.677   2.935   5.904  1.00  0.00     0.118 C 
ATOM      7  N   UNL     1       2.110   1.808   4.279  1.00  0.00    -0.356 N 
ATOM      8  C   UNL     1       3.359   2.163   4.936  1.00  0.00     0.118 C 
ATOM      9  C   UNL     1       0.967   2.701   4.428  1.00  0.00     0.133 C 
ATOM     10  C   UNL     1       3.153   2.537   6.401  1.00  0.00     0.022 C 
ATOM     11  C   UNL     1       1.933   3.433   6.628  1.00  0.00     0.019 C 
BRANCH   7  12
ATOM     12  C   UNL     1       1.891   0.529   3.800  1.00  0.00     0.132 A 
ATOM     13  C   UNL     1       1.123  -0.892   2.060  1.00  0.00     0.046 A 
ATOM     14  C   UNL     1       1.294   0.382   2.558  1.00  0.00     0.070 A 
ATOM     15  N   UNL     1       1.468  -1.974   2.777  1.00  0.00    -0.233 NA
ATOM     16  C   UNL     1       1.988  -1.746   3.998  1.00  0.00     0.161 A 
ATOM     17  N   UNL     1       2.247  -0.537   4.533  1.00  0.00    -0.211 NA
BRANCH  13  18
ATOM     18  C   UNL     1       0.492  -1.141   0.715  1.00  0.00     0.053 C 
ATOM     19  C   UNL     1       0.979  -0.210  -0.389  1.00  0.00     0.011 C 
ENDBRANCH  13  18
BRANCH  16  20
ATOM     20  C   UNL     1       2.201  -2.936   4.826  1.00  0.00     0.019 A 
ATOM     21  C   UNL     1       3.118  -3.929   4.444  1.00  0.00     0.013 A 
ATOM     22  C   UNL     1       1.429  -3.157   5.980  1.00  0.00     0.013 A 
ATOM     23  C   UNL     1       3.268  -5.098   5.197  1.00  0.00     0.021 A 
ATOM     24  C   UNL     1       1.574  -4.325   6.736  1.00  0.00     0.021 A 
ATOM     25  C   UNL     1       2.494  -5.291   6.339  1.00  0.00     0.041 A 
ATOM     26  Cl  UNL     1       2.663  -6.740   7.252  1.00  0.00    -0.084 Cl
ENDBRANCH  16  20
ENDBRANCH   7  12
ENDBRANCH   4   6
ENDBRANCH   3   4
ENDBRANCH   2   3
ENDBRANCH   1   2
BRANCH   1  27
ATOM     27  O   UNL     1      -1.144   1.030   9.658  1.00  0.00    -0.458 OA
BRANCH  27  28
ATOM     28  C   UNL     1      -0.768   2.327   9.759  1.00  0.00     0.338 C 
ATOM     29  O   UNL     1       0.365   2.770   9.828  1.00  0.00    -0.246 OA
BRANCH  28  30
ATOM     30  C   UNL     1      -1.956   3.175   9.621  1.00  0.00     0.060 A 
ATOM     31  C   UNL     1      -2.052   3.986   8.488  1.00  0.00     0.016 A 
ATOM     32  C   UNL     1      -2.924   3.225  10.622  1.00  0.00     0.016 A 
ATOM     33  C   UNL     1      -3.116   4.867   8.350  1.00  0.00     0.010 A 
ATOM     34  C   UNL     1      -3.994   4.109  10.483  1.00  0.00     0.010 A 
ATOM     35  C   UNL     1      -4.086   4.945   9.355  1.00  0.00    -0.014 A 
BRANCH  35  36
ATOM     36  C   UNL     1      -5.151   5.967   9.266  1.00  0.00     0.031 A 
ATOM     37  C   UNL     1      -5.082   7.175  10.153  1.00  0.00     0.074 A 
ATOM     38  C   UNL     1      -6.162   5.808   8.394  1.00  0.00     0.049 A 
ATOM     39  N   UNL     1      -5.960   8.125  10.332  1.00  0.00    -0.248 NA
ATOM     40  C   UNL     1      -3.859   7.319  10.955  1.00  0.00     0.031 C 
ATOM     41  C   UNL     1      -6.296   4.694   7.455  1.00  0.00     0.029 A 
ATOM     42  N   UNL     1      -7.274   6.576   8.168  1.00  0.00    -0.354 N 
ATOM     43  C   UNL     1      -5.412   8.968  11.293  1.00  0.00     0.074 A 
ATOM     44  C   UNL     1      -4.135   8.399  11.670  1.00  0.00     0.031 C 
ATOM     45  C   UNL     1      -7.439   4.841   6.766  1.00  0.00     0.029 A 
ATOM     46  C   UNL     1      -8.138   6.027   7.251  1.00  0.00     0.049 A 
ATOM     47  H   UNL     1      -7.438   7.436   8.619  1.00  0.00     0.167 HD
ATOM     48  C   UNL     1      -5.934  10.108  11.809  1.00  0.00     0.034 A 
ATOM     49  C   UNL     1      -9.374   6.414   6.881  1.00  0.00     0.034 A 
ATOM     50  C   UNL     1      -7.212  10.650  11.409  1.00  0.00     0.049 A 
ATOM     51  C   UNL     1      -9.961   7.652   7.504  1.00  0.00     0.074 A 
ATOM     52  C   UNL     1      -7.833  11.809  11.839  1.00  0.00     0.029 A 
ATOM     53  N   UNL     1      -8.073  10.057  10.491  1.00  0.00    -0.354 N 
ATOM     54  N   UNL     1      -9.443   8.441   8.418  1.00  0.00    -0.248 NA
ATOM     55  C   UNL     1     -11.296   8.053   7.046  1.00  0.00     0.031 C 
ATOM     56  C   UNL     1      -9.094  11.882  11.233  1.00  0.00     0.029 A 
ATOM     57  C   UNL     1      -9.232  10.807  10.367  1.00  0.00     0.049 A 
ATOM     58  H   UNL     1      -7.886   9.225   9.999  1.00  0.00     0.167 HD
ATOM     59  C   UNL     1     -10.386   9.441   8.636  1.00  0.00     0.074 A 
ATOM     60  C   UNL     1     -11.495   9.162   7.744  1.00  0.00     0.031 C 
ATOM     61  C   UNL     1     -10.339  10.496   9.490  1.00  0.00     0.034 A 
BRANCH  48  62
ATOM     62  C   UNL     1      -5.150  10.787  12.907  1.00  0.00     0.023 A 
ATOM     63  C   UNL     1      -3.861  11.308  12.692  1.00  0.00     0.031 A 
ATOM     64  C   UNL     1      -5.673  10.850  14.211  1.00  0.00     0.131 A 
ATOM     65  C   UNL     1      -3.106  11.781  13.777  1.00  0.00     0.055 A 
ATOM     66  C   UNL     1      -4.949  11.400  15.271  1.00  0.00     0.041 A 
ATOM     67  F   UNL     1      -6.888  10.349  14.485  1.00  0.00    -0.206 F 
ATOM     68  C   UNL     1      -3.650  11.852  15.061  1.00  0.00     0.022 A 
BRANCH  65  69
ATOM     69  S   UNL     1      -1.346  12.138  13.518  1.00  0.00     0.124 S 
ATOM     70  O   UNL     1      -0.861  10.867  12.982  1.00  0.00    -0.237 OA
ATOM     71  O   UNL     1      -1.386  13.253  12.579  1.00  0.00    -0.237 OA
ATOM     72  O   UNL     1      -0.861  12.465  14.857  1.00  0.00    -0.744 OA
ENDBRANCH  65  69
ENDBRANCH  48  62
BRANCH  49  73
ATOM     73  C   UNL     1     -10.152   5.584   5.921  1.00  0.00     0.023 A 
ATOM     74  C   UNL     1     -10.458   6.048   4.634  1.00  0.00     0.031 A 
ATOM     75  C   UNL     1     -10.598   4.301   6.287  1.00  0.00     0.131 A 
ATOM     76  C   UNL     1     -11.207   5.241   3.762  1.00  0.00     0.055 A 
ATOM     77  C   UNL     1     -11.306   3.486   5.403  1.00  0.00     0.041 A 
ATOM     78  F   UNL     1     -10.325   3.810   7.507  1.00  0.00    -0.206 F 
ATOM     79  C   UNL     1     -11.620   3.958   4.133  1.00  0.00     0.022 A 
BRANCH  76  80
ATOM     80  S   UNL     1     -11.667   5.906   2.139  1.00  0.00     0.124 S 
ATOM     81  O   UNL     1     -12.479   7.060   2.509  1.00  0.00    -0.237 OA
ATOM     82  O   UNL     1     -10.365   6.199   1.550  1.00  0.00    -0.237 OA
ATOM     83  O   UNL     1     -12.395   4.804   1.513  1.00  0.00    -0.744 OA
ENDBRANCH  76  80
ENDBRANCH  49  73
BRANCH  61  84
ATOM     84  C   UNL     1     -11.517  11.438   9.469  1.00  0.00     0.023 A 
ATOM     85  C   UNL     1     -12.784  11.047   9.935  1.00  0.00     0.031 A 
ATOM     86  C   UNL     1     -11.369  12.741   8.961  1.00  0.00     0.131 A 
ATOM     87  C   UNL     1     -13.867  11.932   9.836  1.00  0.00     0.055 A 
ATOM     88  C   UNL     1     -12.438  13.637   8.917  1.00  0.00     0.041 A 
ATOM     89  F   UNL     1     -10.181  13.165   8.500  1.00  0.00    -0.206 F 
ATOM     90  C   UNL     1     -13.699  13.230   9.345  1.00  0.00     0.022 A 
BRANCH  87  91
ATOM     91  S   UNL     1     -15.523  11.338  10.277  1.00  0.00     0.124 S 
ATOM     92  O   UNL     1     -15.696  10.216   9.359  1.00  0.00    -0.237 OA
ATOM     93  O   UNL     1     -15.366  10.991  11.685  1.00  0.00    -0.237 OA
ATOM     94  O   UNL     1     -16.383  12.491  10.015  1.00  0.00    -0.744 OA
ENDBRANCH  87  91
ENDBRANCH  61  84
ENDBRANCH  35  36
ENDBRANCH  28  30
ENDBRANCH  27  28
ENDBRANCH   1  27
TORSDOF 17
