REMARK SMILES O=C(C[C@H](NC(=O)[C@]12C[C@H]3C[C@H](C[C@H](C3)C1)C2)c1cccc([N+](=O)[O-])c1)OCCOC(=O)c1ccc(-c2c3nc(c(-c4cc(S(=O)(=O)[O-])ccc4F)c4ccc([nH]4)c(-c4cc(S(=O)(=O)[O-])ccc4F)c4nc(c(-c5cc(S(=O)(=O)[O-])ccc5F)c5ccc2[nH]5)C=C4)C=C3)cc1
REMARK SMILES IDX 28 1 27 2 2 3 1 4 3 5 4 6 18 7 19 8 26 9 20 10 22 11 21 12
REMARK SMILES IDX 23 13 24 14 25 15 5 16 6 17 7 19 8 20 9 21 16 22 17 23 10 24
REMARK SMILES IDX 14 25 12 26 11 27 15 28 13 29 29 30 30 31 31 32 32 33 33 34
REMARK SMILES IDX 34 35 95 36 35 37 94 38 36 39 37 40 38 41 88 42 39 43 93 44
REMARK SMILES IDX 87 45 89 46 40 47 92 48 86 49 85 50 41 52 73 53 53 54 72 55
REMARK SMILES IDX 54 56 57 57 71 58 90 59 55 60 56 61 70 63 91 64 58 65 42 66
REMARK SMILES IDX 43 67 51 68 44 69 50 70 52 71 49 72 45 73 46 74 47 75 48 76
REMARK SMILES IDX 74 77 75 78 83 79 76 80 82 81 84 82 81 83 77 84 78 85 79 86
REMARK SMILES IDX 80 87 59 88 60 89 68 90 61 91 67 92 69 93 66 94 62 95 63 96
REMARK SMILES IDX 64 97 65 98
REMARK H PARENT 5 18 89 51 57 62
REMARK Flexibility Score: inf
ROOT
ATOM      1  C   UNL     1       5.191  -4.084  -3.295  1.00  0.00     0.274 C 
ENDROOT
BRANCH   1   2
ATOM      2  O   UNL     1       4.302  -3.476  -2.352  1.00  0.00    -0.462 OA
BRANCH   2   3
ATOM      3  C   UNL     1       4.065  -2.161  -2.559  1.00  0.00     0.308 C 
ATOM      4  O   UNL     1       3.864  -1.662  -3.654  1.00  0.00    -0.252 OA
BRANCH   3   5
ATOM      5  C   UNL     1       4.326  -1.375  -1.302  1.00  0.00     0.152 C 
BRANCH   5   6
ATOM      6  C   UNL     1       3.366  -1.622  -0.149  1.00  0.00     0.123 C 
BRANCH   6   7
ATOM      7  C   UNL     1       3.911  -2.817   0.669  1.00  0.00    -0.018 A 
ATOM      8  C   UNL     1       3.593  -4.136   0.286  1.00  0.00     0.006 A 
ATOM      9  C   UNL     1       4.850  -2.644   1.705  1.00  0.00     0.091 A 
ATOM     10  C   UNL     1       4.263  -5.241   0.825  1.00  0.00     0.007 A 
ATOM     11  C   UNL     1       5.474  -3.766   2.280  1.00  0.00     0.269 A 
ATOM     12  C   UNL     1       5.215  -5.060   1.821  1.00  0.00     0.085 A 
BRANCH  11  13
ATOM     13  N   UNL     1       6.420  -3.598   3.382  1.00  0.00     0.062 N 
ATOM     14  O   UNL     1       7.311  -4.452   3.506  1.00  0.00    -0.258 OA
ATOM     15  O   UNL     1       6.255  -2.626   4.125  1.00  0.00    -0.258 OA
ENDBRANCH  11  13
ENDBRANCH   6   7
BRANCH   6  16
ATOM     16  N   UNL     1       3.062  -0.493   0.764  1.00  0.00    -0.348 N 
ATOM     17  C   UNL     1       2.933   0.863   0.736  1.00  0.00     0.226 C 
ATOM     18  H   UNL     1       2.905  -0.829   1.676  1.00  0.00     0.164 HD
ATOM     19  O   UNL     1       2.192   1.320   1.616  1.00  0.00    -0.274 OA
BRANCH  17  20
ATOM     20  C   UNL     1       3.647   1.824  -0.238  1.00  0.00     0.050 C 
ATOM     21  C   UNL     1       5.172   1.591  -0.178  1.00  0.00     0.020 C 
ATOM     22  C   UNL     1       3.485   3.321   0.206  1.00  0.00     0.020 C 
ATOM     23  C   UNL     1       3.028   1.780  -1.655  1.00  0.00     0.020 C 
ATOM     24  C   UNL     1       5.914   2.467  -1.194  1.00  0.00    -0.010 C 
ATOM     25  C   UNL     1       4.245   4.275  -0.756  1.00  0.00    -0.010 C 
ATOM     26  C   UNL     1       3.845   2.644  -2.630  1.00  0.00    -0.010 C 
ATOM     27  C   UNL     1       5.329   2.239  -2.596  1.00  0.00     0.007 C 
ATOM     28  C   UNL     1       5.740   3.927  -0.769  1.00  0.00     0.007 C 
ATOM     29  C   UNL     1       3.713   4.112  -2.190  1.00  0.00     0.007 C 
ENDBRANCH  17  20
ENDBRANCH   6  16
ENDBRANCH   5   6
ENDBRANCH   3   5
ENDBRANCH   2   3
ENDBRANCH   1   2
BRANCH   1  30
ATOM     30  C   UNL     1       6.579  -3.432  -3.241  1.00  0.00     0.275 C 
BRANCH  30  31
ATOM     31  O   UNL     1       7.016  -3.235  -1.872  1.00  0.00    -0.458 OA
BRANCH  31  32
ATOM     32  C   UNL     1       8.046  -2.345  -1.784  1.00  0.00     0.338 C 
ATOM     33  O   UNL     1       8.667  -1.899  -2.730  1.00  0.00    -0.246 OA
BRANCH  32  34
ATOM     34  C   UNL     1       8.174  -1.770  -0.420  1.00  0.00     0.060 A 
ATOM     35  C   UNL     1       7.963  -0.394  -0.309  1.00  0.00     0.016 A 
ATOM     36  C   UNL     1       8.613  -2.481   0.696  1.00  0.00     0.016 A 
ATOM     37  C   UNL     1       8.163   0.278   0.902  1.00  0.00     0.010 A 
ATOM     38  C   UNL     1       8.871  -1.792   1.906  1.00  0.00     0.010 A 
ATOM     39  C   UNL     1       8.656  -0.404   2.018  1.00  0.00    -0.014 A 
BRANCH  39  40
ATOM     40  C   UNL     1       9.186   0.406   3.160  1.00  0.00     0.031 A 
ATOM     41  C   UNL     1      10.585   0.960   3.037  1.00  0.00     0.074 A 
ATOM     42  C   UNL     1       8.435   0.785   4.215  1.00  0.00     0.049 A 
ATOM     43  N   UNL     1      11.277   1.688   3.876  1.00  0.00    -0.248 NA
ATOM     44  C   UNL     1      11.276   0.685   1.768  1.00  0.00     0.031 C 
ATOM     45  C   UNL     1       7.015   0.500   4.389  1.00  0.00     0.029 A 
ATOM     46  N   UNL     1       8.763   1.518   5.336  1.00  0.00    -0.354 N 
ATOM     47  C   UNL     1      12.477   1.971   3.232  1.00  0.00     0.074 A 
ATOM     48  C   UNL     1      12.417   1.332   1.935  1.00  0.00     0.031 C 
ATOM     49  C   UNL     1       6.598   1.027   5.555  1.00  0.00     0.029 A 
ATOM     50  C   UNL     1       7.727   1.660   6.236  1.00  0.00     0.049 A 
ATOM     51  H   UNL     1       9.656   1.905   5.482  1.00  0.00     0.167 HD
ATOM     52  C   UNL     1      13.543   2.681   3.680  1.00  0.00     0.034 A 
ATOM     53  C   UNL     1       7.700   2.206   7.474  1.00  0.00     0.034 A 
ATOM     54  C   UNL     1      13.633   3.258   4.998  1.00  0.00     0.049 A 
ATOM     55  C   UNL     1       8.968   2.814   8.038  1.00  0.00     0.074 A 
ATOM     56  C   UNL     1      14.713   3.889   5.592  1.00  0.00     0.029 A 
ATOM     57  N   UNL     1      12.610   3.260   5.936  1.00  0.00    -0.354 N 
ATOM     58  N   UNL     1      10.134   2.989   7.458  1.00  0.00    -0.248 NA
ATOM     59  C   UNL     1       8.916   3.296   9.427  1.00  0.00     0.031 C 
ATOM     60  C   UNL     1      14.367   4.204   6.912  1.00  0.00     0.029 A 
ATOM     61  C   UNL     1      13.043   3.849   7.115  1.00  0.00     0.049 A 
ATOM     62  H   UNL     1      11.707   2.895   5.787  1.00  0.00     0.167 HD
ATOM     63  C   UNL     1      10.935   3.638   8.398  1.00  0.00     0.074 A 
ATOM     64  C   UNL     1      10.118   3.831   9.577  1.00  0.00     0.031 C 
ATOM     65  C   UNL     1      12.227   4.042   8.292  1.00  0.00     0.034 A 
BRANCH  52  66
ATOM     66  C   UNL     1      14.739   2.742   2.762  1.00  0.00     0.023 A 
ATOM     67  C   UNL     1      14.701   3.423   1.532  1.00  0.00     0.031 A 
ATOM     68  C   UNL     1      15.901   2.018   3.084  1.00  0.00     0.131 A 
ATOM     69  C   UNL     1      15.774   3.298   0.635  1.00  0.00     0.055 A 
ATOM     70  C   UNL     1      16.995   1.964   2.221  1.00  0.00     0.041 A 
ATOM     71  F   UNL     1      15.977   1.323   4.229  1.00  0.00    -0.206 F 
ATOM     72  C   UNL     1      16.929   2.591   0.981  1.00  0.00     0.022 A 
BRANCH  69  73
ATOM     73  S   UNL     1      15.572   3.921  -1.058  1.00  0.00     0.124 S 
ATOM     74  O   UNL     1      14.388   3.190  -1.503  1.00  0.00    -0.237 OA
ATOM     75  O   UNL     1      15.398   5.354  -0.848  1.00  0.00    -0.237 OA
ATOM     76  O   UNL     1      16.818   3.533  -1.717  1.00  0.00    -0.744 OA
ENDBRANCH  69  73
ENDBRANCH  52  66
BRANCH  53  77
ATOM     77  C   UNL     1       6.466   2.145   8.325  1.00  0.00     0.023 A 
ATOM     78  C   UNL     1       5.857   3.308   8.832  1.00  0.00     0.031 A 
ATOM     79  C   UNL     1       5.947   0.905   8.742  1.00  0.00     0.131 A 
ATOM     80  C   UNL     1       4.805   3.205   9.761  1.00  0.00     0.055 A 
ATOM     81  C   UNL     1       4.863   0.809   9.617  1.00  0.00     0.041 A 
ATOM     82  F   UNL     1       6.502  -0.241   8.318  1.00  0.00    -0.206 F 
ATOM     83  C   UNL     1       4.295   1.963  10.144  1.00  0.00     0.022 A 
BRANCH  80  84
ATOM     84  S   UNL     1       4.180   4.715  10.555  1.00  0.00     0.124 S 
ATOM     85  O   UNL     1       5.382   5.231  11.200  1.00  0.00    -0.237 OA
ATOM     86  O   UNL     1       3.686   5.478   9.414  1.00  0.00    -0.237 OA
ATOM     87  O   UNL     1       3.148   4.221  11.464  1.00  0.00    -0.744 OA
ENDBRANCH  80  84
ENDBRANCH  53  77
BRANCH  65  88
ATOM     88  C   UNL     1      12.820   4.797   9.460  1.00  0.00     0.023 A 
ATOM     89  C   UNL     1      13.026   4.196  10.715  1.00  0.00     0.031 A 
ATOM     90  C   UNL     1      13.177   6.151   9.313  1.00  0.00     0.131 A 
ATOM     91  C   UNL     1      13.517   4.961  11.787  1.00  0.00     0.055 A 
ATOM     92  C   UNL     1      13.720   6.890  10.366  1.00  0.00     0.041 A 
ATOM     93  F   UNL     1      13.003   6.780   8.139  1.00  0.00    -0.206 F 
ATOM     94  C   UNL     1      13.879   6.299  11.615  1.00  0.00     0.022 A 
BRANCH  91  95
ATOM     95  S   UNL     1      13.583   4.213  13.439  1.00  0.00     0.124 S 
ATOM     96  O   UNL     1      12.204   3.778  13.634  1.00  0.00    -0.237 OA
ATOM     97  O   UNL     1      14.568   3.150  13.261  1.00  0.00    -0.237 OA
ATOM     98  O   UNL     1      14.012   5.315  14.299  1.00  0.00    -0.744 OA
ENDBRANCH  91  95
ENDBRANCH  65  88
ENDBRANCH  39  40
ENDBRANCH  32  34
ENDBRANCH  31  32
ENDBRANCH  30  31
ENDBRANCH   1  30
TORSDOF 19
