REMARK SMILES O=C(OCCOC(=O)c1c(S(=O)(=O)N2CCCCC2)sc2c1CC[NH2+]C2)c1ccc(-c2c3nc(c(-c4cc(S(=O)(=O)[O-])ccc4F)c4ccc([nH]4)c(-c4cc(S(=O)(=O)[O-])ccc4F)c4nc(c(-c5cc(S(=O)(=O)[O-])ccc5F)c5ccc2[nH]5)C=C4)C=C3)cc1
REMARK SMILES IDX 4 1 3 2 2 3 1 4 27 5 28 6 89 7 29 8 88 9 30 10 31 11 32 12
REMARK SMILES IDX 82 13 33 14 87 15 81 16 83 17 34 18 86 19 80 20 79 21 35 23
REMARK SMILES IDX 67 24 47 25 66 26 48 27 51 28 65 29 84 30 49 31 50 32 64 34
REMARK SMILES IDX 85 35 52 36 36 37 37 38 45 39 38 40 44 41 46 42 43 43 39 44
REMARK SMILES IDX 40 45 41 46 42 47 68 48 69 49 77 50 70 51 76 52 78 53 75 54
REMARK SMILES IDX 71 55 72 56 73 57 74 58 53 59 54 60 62 61 55 62 61 63 63 64
REMARK SMILES IDX 60 65 56 66 57 67 58 68 59 69 5 70 6 71 7 72 8 73 9 74 10 75
REMARK SMILES IDX 22 76 20 77 21 78 23 79 26 80 24 81 25 82 11 85 12 86 13 87
REMARK SMILES IDX 14 88 15 89 19 90 16 91 18 92 17 93
REMARK H PARENT 83 22 51 33 25 83 25 84
REMARK Flexibility Score: inf
ROOT
ATOM      1  C   UNL     1       4.805  -0.183  -1.034  1.00  0.00     0.275 C 
ENDROOT
BRANCH   1   2
ATOM      2  O   UNL     1       3.717  -1.117  -1.096  1.00  0.00    -0.458 OA
BRANCH   2   3
ATOM      3  C   UNL     1       2.566  -0.781  -0.490  1.00  0.00     0.338 C 
ATOM      4  O   UNL     1       1.608  -0.297  -1.074  1.00  0.00    -0.246 OA
BRANCH   3   5
ATOM      5  C   UNL     1       2.487  -1.234   0.913  1.00  0.00     0.060 A 
ATOM      6  C   UNL     1       3.564  -1.276   1.809  1.00  0.00     0.016 A 
ATOM      7  C   UNL     1       1.202  -1.537   1.352  1.00  0.00     0.016 A 
ATOM      8  C   UNL     1       3.351  -1.681   3.123  1.00  0.00     0.010 A 
ATOM      9  C   UNL     1       0.976  -1.802   2.681  1.00  0.00     0.010 A 
ATOM     10  C   UNL     1       2.051  -1.971   3.547  1.00  0.00    -0.014 A 
BRANCH  10  11
ATOM     11  C   UNL     1       1.781  -2.396   4.917  1.00  0.00     0.031 A 
ATOM     12  C   UNL     1       2.374  -1.531   5.975  1.00  0.00     0.074 A 
ATOM     13  C   UNL     1       0.916  -3.402   5.184  1.00  0.00     0.049 A 
ATOM     14  N   UNL     1       3.339  -1.824   6.780  1.00  0.00    -0.248 NA
ATOM     15  C   UNL     1       1.972  -0.118   6.045  1.00  0.00     0.031 C 
ATOM     16  C   UNL     1       0.108  -4.193   4.245  1.00  0.00     0.029 A 
ATOM     17  N   UNL     1       0.488  -3.870   6.385  1.00  0.00    -0.354 N 
ATOM     18  C   UNL     1       3.475  -0.738   7.641  1.00  0.00     0.074 A 
ATOM     19  C   UNL     1       2.768   0.344   7.012  1.00  0.00     0.031 C 
ATOM     20  C   UNL     1      -0.881  -4.831   4.908  1.00  0.00     0.029 A 
ATOM     21  C   UNL     1      -0.659  -4.662   6.331  1.00  0.00     0.049 A 
ATOM     22  H   UNL     1       0.953  -3.667   7.229  1.00  0.00     0.167 HD
ATOM     23  C   UNL     1       3.938  -0.910   8.912  1.00  0.00     0.034 A 
ATOM     24  C   UNL     1      -1.373  -5.167   7.375  1.00  0.00     0.034 A 
ATOM     25  C   UNL     1       4.589  -2.198   9.043  1.00  0.00     0.049 A 
ATOM     26  C   UNL     1      -0.433  -5.206   8.524  1.00  0.00     0.074 A 
ATOM     27  C   UNL     1       5.661  -2.805   8.417  1.00  0.00     0.029 A 
ATOM     28  N   UNL     1       3.879  -3.226   9.627  1.00  0.00    -0.354 N 
ATOM     29  N   UNL     1       0.633  -5.962   8.531  1.00  0.00    -0.248 NA
ATOM     30  C   UNL     1      -0.366  -4.037   9.389  1.00  0.00     0.031 C 
ATOM     31  C   UNL     1       5.236  -4.151   8.199  1.00  0.00     0.029 A 
ATOM     32  C   UNL     1       3.986  -4.319   8.802  1.00  0.00     0.049 A 
ATOM     33  H   UNL     1       3.387  -3.184  10.479  1.00  0.00     0.167 HD
ATOM     34  C   UNL     1       1.645  -5.152   9.024  1.00  0.00     0.074 A 
ATOM     35  C   UNL     1       0.951  -4.007   9.621  1.00  0.00     0.031 C 
ATOM     36  C   UNL     1       2.948  -5.324   8.643  1.00  0.00     0.034 A 
BRANCH  23  37
ATOM     37  C   UNL     1       3.464  -0.136  10.127  1.00  0.00     0.023 A 
ATOM     38  C   UNL     1       3.998  -0.526  11.372  1.00  0.00     0.031 A 
ATOM     39  C   UNL     1       2.332   0.706  10.186  1.00  0.00     0.131 A 
ATOM     40  C   UNL     1       3.336  -0.220  12.572  1.00  0.00     0.055 A 
ATOM     41  C   UNL     1       1.713   1.063  11.389  1.00  0.00     0.041 A 
ATOM     42  F   UNL     1       1.707   1.163   9.096  1.00  0.00    -0.206 F 
ATOM     43  C   UNL     1       2.189   0.566  12.590  1.00  0.00     0.022 A 
BRANCH  40  44
ATOM     44  S   UNL     1       3.892  -1.045  14.085  1.00  0.00     0.124 S 
ATOM     45  O   UNL     1       3.855  -2.446  13.682  1.00  0.00    -0.237 OA
ATOM     46  O   UNL     1       5.217  -0.462  14.273  1.00  0.00    -0.237 OA
ATOM     47  O   UNL     1       2.891  -0.650  15.073  1.00  0.00    -0.744 OA
ENDBRANCH  40  44
ENDBRANCH  23  37
BRANCH  24  48
ATOM     48  C   UNL     1      -2.862  -5.221   7.496  1.00  0.00     0.023 A 
ATOM     49  C   UNL     1      -3.547  -6.053   8.411  1.00  0.00     0.031 A 
ATOM     50  C   UNL     1      -3.640  -4.239   6.839  1.00  0.00     0.131 A 
ATOM     51  C   UNL     1      -4.939  -5.882   8.633  1.00  0.00     0.055 A 
ATOM     52  C   UNL     1      -5.008  -4.071   7.067  1.00  0.00     0.041 A 
ATOM     53  F   UNL     1      -3.075  -3.349   6.007  1.00  0.00    -0.206 F 
ATOM     54  C   UNL     1      -5.663  -4.887   7.973  1.00  0.00     0.022 A 
BRANCH  51  55
ATOM     55  S   UNL     1      -5.833  -6.914   9.847  1.00  0.00     0.124 S 
ATOM     56  O   UNL     1      -5.774  -8.237   9.236  1.00  0.00    -0.237 OA
ATOM     57  O   UNL     1      -5.048  -6.724  11.061  1.00  0.00    -0.237 OA
ATOM     58  O   UNL     1      -7.170  -6.319   9.886  1.00  0.00    -0.744 OA
ENDBRANCH  51  55
ENDBRANCH  24  48
BRANCH  36  59
ATOM     59  C   UNL     1       3.309  -6.562   7.838  1.00  0.00     0.023 A 
ATOM     60  C   UNL     1       2.772  -6.900   6.571  1.00  0.00     0.031 A 
ATOM     61  C   UNL     1       4.349  -7.367   8.333  1.00  0.00     0.131 A 
ATOM     62  C   UNL     1       3.271  -8.014   5.863  1.00  0.00     0.055 A 
ATOM     63  C   UNL     1       4.855  -8.454   7.622  1.00  0.00     0.041 A 
ATOM     64  F   UNL     1       4.925  -7.082   9.513  1.00  0.00    -0.206 F 
ATOM     65  C   UNL     1       4.313  -8.786   6.386  1.00  0.00     0.022 A 
BRANCH  62  66
ATOM     66  S   UNL     1       2.565  -8.498   4.250  1.00  0.00     0.124 S 
ATOM     67  O   UNL     1       1.128  -8.507   4.495  1.00  0.00    -0.237 OA
ATOM     68  O   UNL     1       3.055  -7.448   3.361  1.00  0.00    -0.237 OA
ATOM     69  O   UNL     1       3.149  -9.819   4.005  1.00  0.00    -0.744 OA
ENDBRANCH  62  66
ENDBRANCH  36  59
ENDBRANCH  10  11
ENDBRANCH   3   5
ENDBRANCH   2   3
ENDBRANCH   1   2
BRANCH   1  70
ATOM     70  C   UNL     1       4.452   1.313  -0.982  1.00  0.00     0.275 C 
BRANCH  70  71
ATOM     71  O   UNL     1       3.858   1.704   0.278  1.00  0.00    -0.458 OA
BRANCH  71  72
ATOM     72  C   UNL     1       2.682   2.411   0.223  1.00  0.00     0.340 C 
ATOM     73  O   UNL     1       2.078   2.696  -0.797  1.00  0.00    -0.246 OA
BRANCH  72  74
ATOM     74  C   UNL     1       2.205   2.795   1.553  1.00  0.00     0.095 A 
ATOM     75  C   UNL     1       2.918   3.680   2.356  1.00  0.00     0.150 A 
ATOM     76  C   UNL     1       0.936   2.463   2.174  1.00  0.00    -0.007 A 
ATOM     77  S   UNL     1       2.217   3.817   3.906  1.00  0.00    -0.120 S 
ATOM     78  C   UNL     1       0.827   3.006   3.437  1.00  0.00     0.064 A 
ATOM     79  C   UNL     1      -0.176   1.605   1.653  1.00  0.00     0.099 C 
ATOM     80  C   UNL     1      -0.367   2.899   4.328  1.00  0.00     0.308 C 
ATOM     81  C   UNL     1      -1.401   1.547   2.603  1.00  0.00     0.265 C 
ATOM     82  N   UNL     1      -1.105   1.666   4.043  1.00  0.00    -0.342 N 
ATOM     83  H   UNL     1      -0.543   0.867   4.335  1.00  0.00     0.346 HD
ATOM     84  H   UNL     1      -1.987   1.690   4.555  1.00  0.00     0.346 HD
BRANCH  75  85
ATOM     85  S   UNL     1       4.362   4.686   2.028  1.00  0.00     0.253 S 
ATOM     86  O   UNL     1       5.491   3.851   2.362  1.00  0.00    -0.206 OA
ATOM     87  O   UNL     1       4.149   5.148   0.668  1.00  0.00    -0.206 OA
BRANCH  85  88
ATOM     88  N   UNL     1       4.383   6.089   3.040  1.00  0.00    -0.197 NA
ATOM     89  C   UNL     1       3.224   7.000   2.835  1.00  0.00     0.102 C 
ATOM     90  C   UNL     1       4.828   5.838   4.440  1.00  0.00     0.102 C 
ATOM     91  C   UNL     1       3.271   8.223   3.739  1.00  0.00     0.017 C 
ATOM     92  C   UNL     1       4.774   7.074   5.326  1.00  0.00     0.017 C 
ATOM     93  C   UNL     1       3.454   7.816   5.191  1.00  0.00     0.003 C 
ENDBRANCH  85  88
ENDBRANCH  75  85
ENDBRANCH  72  74
ENDBRANCH  71  72
ENDBRANCH  70  71
ENDBRANCH   1  70
TORSDOF 16
