REMARK SMILES Cc1ccc(S(=O)(=O)N2CCN(C(=O)[C@H]3CCCC[C@@H]3C(=O)OCCOC(=O)c3ccc(-c4c5nc(c(-c6cc(S(=O)(=O)[O-])ccc6F)c6ccc([nH]6)c(-c6cc(S(=O)(=O)[O-])ccc6F)c6nc(c(-c7cc(S(=O)(=O)[O-])ccc7F)c7ccc4[nH]7)C=C6)C=C5)cc3)CC2)cc1C
REMARK SMILES IDX 24 1 23 2 21 3 22 4 20 5 15 6 16 7 17 8 19 9 18 10 13 11
REMARK SMILES IDX 9 12 10 13 93 14 11 15 92 16 12 17 14 18 6 19 7 20 8 21 5 22
REMARK SMILES IDX 1 23 2 24 3 25 95 26 4 27 94 28 96 29 25 30 26 31 27 32
REMARK SMILES IDX 28 33 29 34 30 35 91 36 31 37 90 38 32 39 33 40 34 41 84 42
REMARK SMILES IDX 35 43 89 44 83 45 85 46 36 47 88 48 82 49 81 50 37 52 69 53
REMARK SMILES IDX 49 54 68 55 50 56 53 57 67 58 86 59 51 60 52 61 66 63 87 64
REMARK SMILES IDX 54 65 38 66 39 67 47 68 40 69 46 70 48 71 45 72 41 73 42 74
REMARK SMILES IDX 43 75 44 76 70 77 71 78 79 79 72 80 78 81 80 82 77 83 73 84
REMARK SMILES IDX 74 85 75 86 76 87 55 88 56 89 64 90 57 91 63 92 65 93 62 94
REMARK SMILES IDX 58 95 59 96 60 97 61 98
REMARK H PARENT 85 51 53 62
REMARK Flexibility Score: inf
ROOT
ATOM      1  C   UNL     1      -3.087   3.281  -3.069  1.00  0.00     0.274 C 
ENDROOT
BRANCH   1   2
ATOM      2  O   UNL     1      -3.620   4.333  -2.239  1.00  0.00    -0.462 OA
BRANCH   2   3
ATOM      3  C   UNL     1      -4.817   4.064  -1.641  1.00  0.00     0.309 C 
ATOM      4  O   UNL     1      -5.408   2.996  -1.724  1.00  0.00    -0.252 OA
BRANCH   3   5
ATOM      5  C   UNL     1      -5.338   5.279  -0.881  1.00  0.00     0.111 C 
ATOM      6  C   UNL     1      -6.426   4.890   0.163  1.00  0.00     0.093 C 
ATOM      7  C   UNL     1      -7.769   4.540  -0.500  1.00  0.00     0.014 C 
ATOM      8  C   UNL     1      -8.226   5.581  -1.511  1.00  0.00     0.001 C 
ATOM      9  C   UNL     1      -5.841   6.314  -1.895  1.00  0.00     0.016 C 
ATOM     10  C   UNL     1      -7.155   5.891  -2.546  1.00  0.00     0.001 C 
BRANCH   6  11
ATOM     11  C   UNL     1      -6.600   5.989   1.221  1.00  0.00     0.226 C 
ATOM     12  N   UNL     1      -9.357   5.499   4.407  1.00  0.00    -0.194 NA
ATOM     13  C   UNL     1      -8.989   6.816   3.865  1.00  0.00     0.124 C 
ATOM     14  C   UNL     1      -9.133   4.341   3.517  1.00  0.00     0.124 C 
ATOM     15  C   UNL     1      -7.558   6.796   3.327  1.00  0.00     0.136 C 
ATOM     16  C   UNL     1      -7.753   4.380   2.827  1.00  0.00     0.136 C 
ATOM     17  N   UNL     1      -7.355   5.715   2.352  1.00  0.00    -0.340 N 
ATOM     18  O   UNL     1      -6.093   7.101   1.052  1.00  0.00    -0.275 OA
BRANCH  12  19
ATOM     19  S   UNL     1      -9.854   5.317   6.002  1.00  0.00     0.243 S 
ATOM     20  O   UNL     1     -10.472   4.026   6.147  1.00  0.00    -0.207 OA
ATOM     21  O   UNL     1     -10.560   6.540   6.352  1.00  0.00    -0.207 OA
BRANCH  19  22
ATOM     22  C   UNL     1      -8.357   5.303   6.962  1.00  0.00     0.082 A 
ATOM     23  C   UNL     1      -4.681   5.434   9.218  1.00  0.00     0.044 C 
ATOM     24  C   UNL     1      -5.986   5.398   8.466  1.00  0.00    -0.048 A 
ATOM     25  C   UNL     1      -6.002   4.827   7.186  1.00  0.00     0.005 A 
ATOM     26  C   UNL     1      -7.189   5.880   9.019  1.00  0.00    -0.047 A 
ATOM     27  C   UNL     1      -7.184   4.756   6.454  1.00  0.00     0.022 A 
ATOM     28  C   UNL     1      -8.364   5.856   8.244  1.00  0.00     0.025 A 
ATOM     29  C   UNL     1      -7.289   6.375  10.436  1.00  0.00     0.044 C 
ENDBRANCH  19  22
ENDBRANCH  12  19
ENDBRANCH   6  11
ENDBRANCH   3   5
ENDBRANCH   2   3
ENDBRANCH   1   2
BRANCH   1  30
ATOM     30  C   UNL     1      -1.987   2.504  -2.350  1.00  0.00     0.275 C 
BRANCH  30  31
ATOM     31  O   UNL     1      -2.514   1.911  -1.152  1.00  0.00    -0.458 OA
BRANCH  31  32
ATOM     32  C   UNL     1      -1.893   2.250   0.003  1.00  0.00     0.338 C 
ATOM     33  O   UNL     1      -0.883   2.919   0.135  1.00  0.00    -0.246 OA
BRANCH  32  34
ATOM     34  C   UNL     1      -2.665   1.708   1.133  1.00  0.00     0.060 A 
ATOM     35  C   UNL     1      -3.977   2.137   1.311  1.00  0.00     0.016 A 
ATOM     36  C   UNL     1      -2.082   0.854   2.063  1.00  0.00     0.016 A 
ATOM     37  C   UNL     1      -4.703   1.752   2.433  1.00  0.00     0.010 A 
ATOM     38  C   UNL     1      -2.843   0.398   3.149  1.00  0.00     0.010 A 
ATOM     39  C   UNL     1      -4.161   0.852   3.355  1.00  0.00    -0.014 A 
BRANCH  39  40
ATOM     40  C   UNL     1      -4.961   0.406   4.532  1.00  0.00     0.031 A 
ATOM     41  C   UNL     1      -4.432   0.614   5.925  1.00  0.00     0.074 A 
ATOM     42  C   UNL     1      -6.163  -0.185   4.365  1.00  0.00     0.049 A 
ATOM     43  N   UNL     1      -4.839   0.095   7.054  1.00  0.00    -0.248 NA
ATOM     44  C   UNL     1      -3.280   1.516   6.056  1.00  0.00     0.031 C 
ATOM     45  C   UNL     1      -6.831  -0.399   3.079  1.00  0.00     0.029 A 
ATOM     46  N   UNL     1      -7.033  -0.728   5.280  1.00  0.00    -0.354 N 
ATOM     47  C   UNL     1      -3.956   0.555   8.026  1.00  0.00     0.074 A 
ATOM     48  C   UNL     1      -2.990   1.394   7.343  1.00  0.00     0.031 C 
ATOM     49  C   UNL     1      -8.004  -1.014   3.287  1.00  0.00     0.029 A 
ATOM     50  C   UNL     1      -8.119  -1.346   4.702  1.00  0.00     0.049 A 
ATOM     51  H   UNL     1      -6.893  -0.680   6.254  1.00  0.00     0.167 HD
ATOM     52  C   UNL     1      -3.950   0.293   9.358  1.00  0.00     0.034 A 
ATOM     53  C   UNL     1      -9.056  -2.164   5.223  1.00  0.00     0.034 A 
ATOM     54  C   UNL     1      -4.946  -0.515  10.021  1.00  0.00     0.049 A 
ATOM     55  C   UNL     1      -8.986  -2.515   6.684  1.00  0.00     0.074 A 
ATOM     56  C   UNL     1      -5.065  -0.803  11.370  1.00  0.00     0.029 A 
ATOM     57  N   UNL     1      -5.996  -1.167   9.386  1.00  0.00    -0.354 N 
ATOM     58  N   UNL     1      -8.114  -2.124   7.584  1.00  0.00    -0.248 NA
ATOM     59  C   UNL     1     -10.009  -3.438   7.193  1.00  0.00     0.031 C 
ATOM     60  C   UNL     1      -6.137  -1.688  11.539  1.00  0.00     0.029 A 
ATOM     61  C   UNL     1      -6.734  -1.896  10.306  1.00  0.00     0.049 A 
ATOM     62  H   UNL     1      -6.188  -1.118   8.421  1.00  0.00     0.167 HD
ATOM     63  C   UNL     1      -8.482  -2.757   8.768  1.00  0.00     0.074 A 
ATOM     64  C   UNL     1      -9.669  -3.536   8.470  1.00  0.00     0.031 C 
ATOM     65  C   UNL     1      -7.891  -2.702   9.989  1.00  0.00     0.034 A 
BRANCH  52  66
ATOM     66  C   UNL     1      -2.792   0.832  10.165  1.00  0.00     0.023 A 
ATOM     67  C   UNL     1      -2.559   2.210  10.297  1.00  0.00     0.031 A 
ATOM     68  C   UNL     1      -1.875  -0.047  10.767  1.00  0.00     0.131 A 
ATOM     69  C   UNL     1      -1.392   2.669  10.926  1.00  0.00     0.055 A 
ATOM     70  C   UNL     1      -0.759   0.417  11.468  1.00  0.00     0.041 A 
ATOM     71  F   UNL     1      -2.033  -1.376  10.663  1.00  0.00    -0.206 F 
ATOM     72  C   UNL     1      -0.501   1.783  11.533  1.00  0.00     0.022 A 
BRANCH  69  73
ATOM     73  S   UNL     1      -0.974   4.428  10.777  1.00  0.00     0.124 S 
ATOM     74  O   UNL     1      -0.997   4.615   9.327  1.00  0.00    -0.237 OA
ATOM     75  O   UNL     1      -2.053   5.072  11.515  1.00  0.00    -0.237 OA
ATOM     76  O   UNL     1       0.349   4.519  11.390  1.00  0.00    -0.744 OA
ENDBRANCH  69  73
ENDBRANCH  52  66
BRANCH  53  77
ATOM     77  C   UNL     1     -10.051  -2.814   4.322  1.00  0.00     0.023 A 
ATOM     78  C   UNL     1     -11.422  -2.530   4.408  1.00  0.00     0.031 A 
ATOM     79  C   UNL     1      -9.627  -3.736   3.344  1.00  0.00     0.131 A 
ATOM     80  C   UNL     1     -12.321  -3.170   3.539  1.00  0.00     0.055 A 
ATOM     81  C   UNL     1     -10.518  -4.329   2.450  1.00  0.00     0.041 A 
ATOM     82  F   UNL     1      -8.326  -4.045   3.222  1.00  0.00    -0.206 F 
ATOM     83  C   UNL     1     -11.876  -4.051   2.549  1.00  0.00     0.022 A 
BRANCH  80  84
ATOM     84  S   UNL     1     -14.099  -2.871   3.742  1.00  0.00     0.124 S 
ATOM     85  O   UNL     1     -14.329  -3.359   5.097  1.00  0.00    -0.237 OA
ATOM     86  O   UNL     1     -14.187  -1.427   3.553  1.00  0.00    -0.237 OA
ATOM     87  O   UNL     1     -14.702  -3.672   2.679  1.00  0.00    -0.744 OA
ENDBRANCH  80  84
ENDBRANCH  53  77
BRANCH  65  88
ATOM     88  C   UNL     1      -8.531  -3.507  11.092  1.00  0.00     0.023 A 
ATOM     89  C   UNL     1      -8.495  -4.912  11.089  1.00  0.00     0.031 A 
ATOM     90  C   UNL     1      -9.191  -2.862  12.152  1.00  0.00     0.131 A 
ATOM     91  C   UNL     1      -9.147  -5.630  12.103  1.00  0.00     0.055 A 
ATOM     92  C   UNL     1      -9.792  -3.580  13.187  1.00  0.00     0.041 A 
ATOM     93  F   UNL     1      -9.258  -1.522  12.202  1.00  0.00    -0.206 F 
ATOM     94  C   UNL     1      -9.781  -4.972  13.161  1.00  0.00     0.022 A 
BRANCH  91  95
ATOM     95  S   UNL     1      -9.218  -7.438  11.987  1.00  0.00     0.124 S 
ATOM     96  O   UNL     1      -9.950  -7.632  10.739  1.00  0.00    -0.237 OA
ATOM     97  O   UNL     1      -7.806  -7.807  11.963  1.00  0.00    -0.237 OA
ATOM     98  O   UNL     1      -9.939  -7.832  13.196  1.00  0.00    -0.744 OA
ENDBRANCH  91  95
ENDBRANCH  65  88
ENDBRANCH  39  40
ENDBRANCH  32  34
ENDBRANCH  31  32
ENDBRANCH  30  31
ENDBRANCH   1  30
TORSDOF 17
