REMARK SMILES Cc1ccccc1C(=O)Nc1cc(NC(=O)c2ccccc2C)cc(C(=O)OCCOC(=O)c2ccc(-c3c4nc(c(-c5cc(S(=O)(=O)[O-])ccc5F)c5ccc([nH]5)c(-c5cc(S(=O)(=O)[O-])ccc5F)c5nc(c(-c6cc(S(=O)(=O)[O-])ccc6F)c6ccc3[nH]6)C=C5)C=C4)cc2)c1
REMARK SMILES IDX 30 1 29 2 28 3 26 4 27 5 25 6 11 7 12 8 97 9 13 10 24 11
REMARK SMILES IDX 10 12 8 13 9 14 7 16 1 17 2 18 3 19 4 20 6 21 5 22 14 23
REMARK SMILES IDX 15 24 16 26 17 27 18 28 22 29 19 30 21 31 23 32 20 33 31 34
REMARK SMILES IDX 32 35 33 36 34 37 35 38 96 39 36 40 95 41 37 42 38 43 39 44
REMARK SMILES IDX 89 45 40 46 94 47 88 48 90 49 41 50 93 51 87 52 86 53 42 55
REMARK SMILES IDX 74 56 54 57 73 58 55 59 58 60 72 61 91 62 56 63 57 64 71 66
REMARK SMILES IDX 92 67 59 68 43 69 44 70 52 71 45 72 51 73 53 74 50 75 46 76
REMARK SMILES IDX 47 77 48 78 49 79 75 80 76 81 84 82 77 83 83 84 85 85 82 86
REMARK SMILES IDX 78 87 79 88 80 89 81 90 60 91 61 92 69 93 62 94 68 95 70 96
REMARK SMILES IDX 67 97 63 98 64 99 65 100 66 101
REMARK H PARENT 10 15 14 25 90 54 58 65
REMARK Flexibility Score: inf
ROOT
ATOM      1  C   UNL     1       9.891  -0.405   0.830  1.00  0.00     0.275 C 
ENDROOT
BRANCH   1   2
ATOM      2  C   UNL     1       8.755  -1.326   0.365  1.00  0.00     0.275 C 
BRANCH   2   3
ATOM      3  O   UNL     1       7.598  -0.640  -0.155  1.00  0.00    -0.458 OA
BRANCH   3   4
ATOM      4  C   UNL     1       6.471  -1.375   0.025  1.00  0.00     0.338 C 
ATOM      5  O   UNL     1       6.447  -2.508   0.472  1.00  0.00    -0.246 OA
BRANCH   4   6
ATOM      6  C   UNL     1       5.227  -0.800  -0.534  1.00  0.00     0.064 A 
ATOM      7  C   UNL     1       3.357   0.736  -0.646  1.00  0.00     0.044 A 
ATOM      8  C   UNL     1       2.683  -0.165  -1.469  1.00  0.00     0.052 A 
ATOM      9  C   UNL     1       4.698   0.479  -0.305  1.00  0.00     0.042 A 
ATOM     10  C   UNL     1       3.264  -1.385  -1.797  1.00  0.00     0.044 A 
ATOM     11  C   UNL     1       4.478  -1.740  -1.238  1.00  0.00     0.042 A 
BRANCH   7  12
ATOM     12  N   UNL     1       2.708   1.868  -0.110  1.00  0.00    -0.322 N 
ATOM     13  C   UNL     1       1.361   2.094   0.160  1.00  0.00     0.255 C 
ATOM     14  O   UNL     1       0.988   3.248   0.380  1.00  0.00    -0.269 OA
ATOM     15  H   UNL     1       3.304   2.620   0.110  1.00  0.00     0.170 HD
BRANCH  13  16
ATOM     16  C   UNL     1       0.337   0.996   0.215  1.00  0.00     0.043 A 
ATOM     17  C   UNL     1       1.706  -0.635   1.668  1.00  0.00     0.045 C 
ATOM     18  C   UNL     1       0.530  -0.270   0.804  1.00  0.00    -0.038 A 
ATOM     19  C   UNL     1      -0.455  -1.263   0.627  1.00  0.00     0.004 A 
ATOM     20  C   UNL     1      -1.671  -0.971   0.013  1.00  0.00     0.000 A 
ATOM     21  C   UNL     1      -0.926   1.296  -0.336  1.00  0.00     0.014 A 
ATOM     22  C   UNL     1      -1.927   0.323  -0.422  1.00  0.00     0.001 A 
ENDBRANCH  13  16
ENDBRANCH   7  12
BRANCH  10  23
ATOM     23  N   UNL     1       2.730  -2.287  -2.717  1.00  0.00    -0.322 N 
ATOM     24  C   UNL     1       2.078  -2.032  -3.898  1.00  0.00     0.255 C 
ATOM     25  H   UNL     1       2.835  -3.238  -2.487  1.00  0.00     0.170 HD
ATOM     26  O   UNL     1       1.616  -2.968  -4.550  1.00  0.00    -0.269 OA
BRANCH  24  27
ATOM     27  C   UNL     1       1.946  -0.651  -4.431  1.00  0.00     0.043 A 
ATOM     28  C   UNL     1       0.637  -0.291  -4.787  1.00  0.00     0.014 A 
ATOM     29  C   UNL     1       3.003   0.272  -4.598  1.00  0.00    -0.038 A 
ATOM     30  C   UNL     1       0.355   0.993  -5.244  1.00  0.00     0.001 A 
ATOM     31  C   UNL     1       2.686   1.576  -5.017  1.00  0.00     0.004 A 
ATOM     32  C   UNL     1       4.457  -0.016  -4.337  1.00  0.00     0.045 C 
ATOM     33  C   UNL     1       1.376   1.932  -5.337  1.00  0.00     0.000 A 
ENDBRANCH  24  27
ENDBRANCH  10  23
ENDBRANCH   4   6
ENDBRANCH   3   4
ENDBRANCH   2   3
ENDBRANCH   1   2
BRANCH   1  34
ATOM     34  O   UNL     1       9.589   0.979   1.141  1.00  0.00    -0.458 OA
BRANCH  34  35
ATOM     35  C   UNL     1       8.384   1.447   1.564  1.00  0.00     0.338 C 
ATOM     36  O   UNL     1       7.841   2.400   1.012  1.00  0.00    -0.246 OA
BRANCH  35  37
ATOM     37  C   UNL     1       7.656   0.623   2.557  1.00  0.00     0.060 A 
ATOM     38  C   UNL     1       6.256   0.729   2.614  1.00  0.00     0.016 A 
ATOM     39  C   UNL     1       8.311  -0.376   3.261  1.00  0.00     0.016 A 
ATOM     40  C   UNL     1       5.500  -0.249   3.238  1.00  0.00     0.010 A 
ATOM     41  C   UNL     1       7.579  -1.437   3.727  1.00  0.00     0.010 A 
ATOM     42  C   UNL     1       6.180  -1.341   3.762  1.00  0.00    -0.014 A 
BRANCH  42  43
ATOM     43  C   UNL     1       5.577  -2.237   4.730  1.00  0.00     0.031 A 
ATOM     44  C   UNL     1       4.714  -3.342   4.302  1.00  0.00     0.074 A 
ATOM     45  C   UNL     1       5.997  -1.929   5.979  1.00  0.00     0.049 A 
ATOM     46  N   UNL     1       3.784  -3.864   5.017  1.00  0.00    -0.248 NA
ATOM     47  C   UNL     1       4.764  -3.926   2.962  1.00  0.00     0.031 C 
ATOM     48  C   UNL     1       5.901  -2.607   7.252  1.00  0.00     0.029 A 
ATOM     49  N   UNL     1       6.511  -0.674   6.323  1.00  0.00    -0.354 N 
ATOM     50  C   UNL     1       3.448  -5.068   4.424  1.00  0.00     0.074 A 
ATOM     51  C   UNL     1       3.917  -4.956   3.071  1.00  0.00     0.031 C 
ATOM     52  C   UNL     1       6.029  -1.685   8.232  1.00  0.00     0.029 A 
ATOM     53  C   UNL     1       6.085  -0.365   7.602  1.00  0.00     0.049 A 
ATOM     54  H   UNL     1       7.079  -0.108   5.752  1.00  0.00     0.167 HD
ATOM     55  C   UNL     1       3.042  -6.092   5.231  1.00  0.00     0.034 A 
ATOM     56  C   UNL     1       5.143   0.622   7.695  1.00  0.00     0.034 A 
ATOM     57  C   UNL     1       2.985  -5.607   6.610  1.00  0.00     0.049 A 
ATOM     58  C   UNL     1       3.822   0.009   8.102  1.00  0.00     0.074 A 
ATOM     59  C   UNL     1       3.903  -5.676   7.645  1.00  0.00     0.029 A 
ATOM     60  N   UNL     1       2.093  -4.595   6.933  1.00  0.00    -0.354 N 
ATOM     61  N   UNL     1       3.423  -1.190   7.760  1.00  0.00    -0.248 NA
ATOM     62  C   UNL     1       2.935   0.658   9.056  1.00  0.00     0.031 C 
ATOM     63  C   UNL     1       3.624  -4.600   8.533  1.00  0.00     0.029 A 
ATOM     64  C   UNL     1       2.541  -3.893   8.036  1.00  0.00     0.049 A 
ATOM     65  H   UNL     1       1.260  -4.403   6.446  1.00  0.00     0.167 HD
ATOM     66  C   UNL     1       2.337  -1.531   8.524  1.00  0.00     0.074 A 
ATOM     67  C   UNL     1       2.056  -0.327   9.296  1.00  0.00     0.031 C 
ATOM     68  C   UNL     1       1.763  -2.775   8.536  1.00  0.00     0.034 A 
BRANCH  55  69
ATOM     69  C   UNL     1       3.033  -7.572   4.900  1.00  0.00     0.023 A 
ATOM     70  C   UNL     1       3.058  -8.491   5.975  1.00  0.00     0.031 A 
ATOM     71  C   UNL     1       3.045  -8.156   3.619  1.00  0.00     0.131 A 
ATOM     72  C   UNL     1       3.164  -9.879   5.772  1.00  0.00     0.055 A 
ATOM     73  C   UNL     1       3.165  -9.542   3.413  1.00  0.00     0.041 A 
ATOM     74  F   UNL     1       2.906  -7.431   2.504  1.00  0.00    -0.206 F 
ATOM     75  C   UNL     1       3.234 -10.412   4.491  1.00  0.00     0.022 A 
BRANCH  72  76
ATOM     76  S   UNL     1       3.224 -10.973   7.217  1.00  0.00     0.124 S 
ATOM     77  O   UNL     1       4.447 -10.537   7.882  1.00  0.00    -0.237 OA
ATOM     78  O   UNL     1       1.971 -10.659   7.896  1.00  0.00    -0.237 OA
ATOM     79  O   UNL     1       3.285 -12.310   6.628  1.00  0.00    -0.744 OA
ENDBRANCH  72  76
ENDBRANCH  55  69
BRANCH  56  80
ATOM     80  C   UNL     1       5.347   1.777   6.739  1.00  0.00     0.023 A 
ATOM     81  C   UNL     1       6.660   2.303   6.620  1.00  0.00     0.031 A 
ATOM     82  C   UNL     1       4.419   2.196   5.777  1.00  0.00     0.131 A 
ATOM     83  C   UNL     1       7.050   3.062   5.505  1.00  0.00     0.055 A 
ATOM     84  C   UNL     1       4.790   3.034   4.705  1.00  0.00     0.041 A 
ATOM     85  F   UNL     1       3.159   1.739   5.795  1.00  0.00    -0.206 F 
ATOM     86  C   UNL     1       6.119   3.441   4.543  1.00  0.00     0.022 A 
BRANCH  83  87
ATOM     87  S   UNL     1       8.835   3.283   5.209  1.00  0.00     0.124 S 
ATOM     88  O   UNL     1       9.169   4.363   6.130  1.00  0.00    -0.237 OA
ATOM     89  O   UNL     1       9.373   1.965   5.545  1.00  0.00    -0.237 OA
ATOM     90  O   UNL     1       8.913   3.619   3.792  1.00  0.00    -0.744 OA
ENDBRANCH  83  87
ENDBRANCH  56  80
BRANCH  68  91
ATOM     91  C   UNL     1       0.401  -3.079   9.104  1.00  0.00     0.023 A 
ATOM     92  C   UNL     1      -0.543  -2.077   9.333  1.00  0.00     0.031 A 
ATOM     93  C   UNL     1      -0.040  -4.408   9.320  1.00  0.00     0.131 A 
ATOM     94  C   UNL     1      -1.796  -2.381   9.874  1.00  0.00     0.055 A 
ATOM     95  C   UNL     1      -1.338  -4.718   9.723  1.00  0.00     0.041 A 
ATOM     96  F   UNL     1       0.764  -5.466   9.137  1.00  0.00    -0.206 F 
ATOM     97  C   UNL     1      -2.221  -3.697  10.032  1.00  0.00     0.022 A 
BRANCH  94  98
ATOM     98  S   UNL     1      -2.785  -1.002  10.488  1.00  0.00     0.124 S 
ATOM     99  O   UNL     1      -1.912  -0.454  11.525  1.00  0.00    -0.237 OA
ATOM    100  O   UNL     1      -2.946  -0.174   9.298  1.00  0.00    -0.237 OA
ATOM    101  O   UNL     1      -4.002  -1.644  10.976  1.00  0.00    -0.744 OA
ENDBRANCH  94  98
ENDBRANCH  68  91
ENDBRANCH  42  43
ENDBRANCH  35  37
ENDBRANCH  34  35
ENDBRANCH   1  34
TORSDOF 18
