REMARK SMILES CC(C)C[C@H](NC(=O)[C@H](Cc1ccccc1)NC(=O)CNC(=O)C[NH3+])C(=O)OCCOC(=O)c1ccc(-c2c3nc(c(-c4cc(S(=O)(=O)[O-])ccc4F)c4ccc([nH]4)c(-c4cc(S(=O)(=O)[O-])ccc4F)c4nc(c(-c5cc(S(=O)(=O)[O-])ccc5F)c5ccc2[nH]5)C=C4)C=C3)cc1
REMARK SMILES IDX 26 1 27 2 5 3 4 4 2 5 1 6 3 7 6 8 7 9 8 11 9 12 17 13 18 14
REMARK SMILES IDX 19 16 20 17 21 18 22 19 23 21 24 22 25 23 10 27 11 28 12 29
REMARK SMILES IDX 16 30 13 31 15 32 14 33 28 34 29 35 30 36 31 37 32 38 33 39
REMARK SMILES IDX 34 40 35 41 96 42 36 43 95 44 37 45 38 46 39 47 89 48 40 49
REMARK SMILES IDX 94 50 88 51 90 52 41 53 93 54 87 55 86 56 42 58 74 59 54 60
REMARK SMILES IDX 73 61 55 62 58 63 72 64 91 65 56 66 57 67 71 69 92 70 59 71
REMARK SMILES IDX 43 72 44 73 52 74 45 75 51 76 53 77 50 78 46 79 47 80 48 81
REMARK SMILES IDX 49 82 75 83 76 84 84 85 77 86 83 87 85 88 82 89 78 90 79 91
REMARK SMILES IDX 80 92 81 93 60 94 61 95 69 96 62 97 68 98 70 99 67 100
REMARK SMILES IDX 63 101 64 102 65 103 66 104
REMARK H PARENT 6 10 17 15 21 20 25 24 25 25 25 26 90 57 58 68
REMARK Flexibility Score: inf
ROOT
ATOM      1  C   UNL     1      -0.962  -7.073  -1.862  1.00  0.00     0.328 C 
ATOM      2  O   UNL     1      -0.296  -7.828  -2.571  1.00  0.00    -0.250 OA
ENDROOT
BRANCH   1   3
ATOM      3  C   UNL     1      -0.899  -5.524  -2.055  1.00  0.00     0.192 C 
BRANCH   3   4
ATOM      4  C   UNL     1       0.531  -5.226  -1.662  1.00  0.00     0.040 C 
BRANCH   4   5
ATOM      5  C   UNL     1       0.781  -5.669  -0.189  1.00  0.00    -0.015 C 
ATOM      6  C   UNL     1       1.745  -6.866  -0.274  1.00  0.00     0.007 C 
ATOM      7  C   UNL     1       0.787  -4.685   1.012  1.00  0.00     0.007 C 
ENDBRANCH   4   5
ENDBRANCH   3   4
BRANCH   3   8
ATOM      8  N   UNL     1      -1.833  -4.551  -1.466  1.00  0.00    -0.341 N 
ATOM      9  C   UNL     1      -1.605  -3.163  -1.466  1.00  0.00     0.243 C 
ATOM     10  H   UNL     1      -2.659  -4.889  -1.051  1.00  0.00     0.164 HD
ATOM     11  O   UNL     1      -2.390  -2.417  -2.047  1.00  0.00    -0.273 OA
BRANCH   9  12
ATOM     12  C   UNL     1      -0.434  -2.617  -0.542  1.00  0.00     0.175 C 
BRANCH  12  13
ATOM     13  N   UNL     1       1.062  -2.405  -0.994  1.00  0.00    -0.342 N 
ATOM     14  C   UNL     1       2.381  -2.821  -0.883  1.00  0.00     0.240 C 
ATOM     15  H   UNL     1       1.058  -1.652  -1.628  1.00  0.00     0.164 HD
ATOM     16  O   UNL     1       3.099  -2.163  -1.671  1.00  0.00    -0.273 OA
BRANCH  14  17
ATOM     17  C   UNL     1       3.229  -4.101  -0.119  1.00  0.00     0.216 C 
BRANCH  17  18
ATOM     18  N   UNL     1       3.556  -4.600   1.345  1.00  0.00    -0.342 N 
ATOM     19  C   UNL     1       3.379  -5.506   2.376  1.00  0.00     0.275 C 
ATOM     20  H   UNL     1       4.202  -3.945   1.694  1.00  0.00     0.164 HD
ATOM     21  O   UNL     1       4.105  -5.221   3.352  1.00  0.00    -0.268 OA
BRANCH  19  22
ATOM     22  C   UNL     1       2.474  -6.823   2.601  1.00  0.00     0.360 C 
BRANCH  22  23
ATOM     23  N   UNL     1       1.033  -6.716   2.966  1.00  0.00    -0.350 N 
ATOM     24  H   UNL     1       0.948  -6.314   3.899  1.00  0.00     0.344 HD
ATOM     25  H   UNL     1       0.610  -7.644   2.955  1.00  0.00     0.344 HD
ATOM     26  H   UNL     1       0.556  -6.117   2.292  1.00  0.00     0.344 HD
ENDBRANCH  22  23
ENDBRANCH  19  22
ENDBRANCH  17  18
ENDBRANCH  14  17
ENDBRANCH  12  13
BRANCH  12  27
ATOM     27  C   UNL     1      -0.851  -1.388   0.295  1.00  0.00     0.070 C 
BRANCH  27  28
ATOM     28  C   UNL     1      -2.135  -1.472   1.104  1.00  0.00    -0.045 A 
ATOM     29  C   UNL     1      -3.003  -0.371   1.094  1.00  0.00     0.004 A 
ATOM     30  C   UNL     1      -2.469  -2.564   1.922  1.00  0.00     0.004 A 
ATOM     31  C   UNL     1      -4.178  -0.372   1.848  1.00  0.00     0.000 A 
ATOM     32  C   UNL     1      -3.650  -2.568   2.673  1.00  0.00     0.000 A 
ATOM     33  C   UNL     1      -4.506  -1.473   2.634  1.00  0.00     0.000 A 
ENDBRANCH  27  28
ENDBRANCH  12  27
ENDBRANCH   9  12
ENDBRANCH   3   8
ENDBRANCH   1   3
BRANCH   1  34
ATOM     34  O   UNL     1      -1.567  -7.482  -0.709  1.00  0.00    -0.461 OA
BRANCH  34  35
ATOM     35  C   UNL     1      -1.327  -8.865  -0.353  1.00  0.00     0.274 C 
BRANCH  35  36
ATOM     36  C   UNL     1      -2.474  -9.762  -0.811  1.00  0.00     0.275 C 
BRANCH  36  37
ATOM     37  O   UNL     1      -2.590  -9.787  -2.243  1.00  0.00    -0.458 OA
BRANCH  37  38
ATOM     38  C   UNL     1      -3.229  -8.715  -2.778  1.00  0.00     0.338 C 
ATOM     39  O   UNL     1      -3.764  -7.798  -2.188  1.00  0.00    -0.246 OA
BRANCH  38  40
ATOM     40  C   UNL     1      -3.020  -8.706  -4.229  1.00  0.00     0.060 A 
ATOM     41  C   UNL     1      -2.338  -7.630  -4.810  1.00  0.00     0.016 A 
ATOM     42  C   UNL     1      -3.595  -9.695  -5.013  1.00  0.00     0.016 A 
ATOM     43  C   UNL     1      -2.239  -7.511  -6.182  1.00  0.00     0.010 A 
ATOM     44  C   UNL     1      -3.514  -9.573  -6.394  1.00  0.00     0.010 A 
ATOM     45  C   UNL     1      -2.861  -8.467  -6.975  1.00  0.00    -0.014 A 
BRANCH  45  46
ATOM     46  C   UNL     1      -2.995  -8.235  -8.419  1.00  0.00     0.031 A 
ATOM     47  C   UNL     1      -4.351  -7.884  -8.940  1.00  0.00     0.074 A 
ATOM     48  C   UNL     1      -1.933  -8.373  -9.226  1.00  0.00     0.049 A 
ATOM     49  N   UNL     1      -4.811  -7.943 -10.157  1.00  0.00    -0.248 NA
ATOM     50  C   UNL     1      -5.330  -7.440  -7.935  1.00  0.00     0.031 C 
ATOM     51  C   UNL     1      -0.557  -8.601  -8.783  1.00  0.00     0.029 A 
ATOM     52  N   UNL     1      -1.859  -8.379 -10.591  1.00  0.00    -0.354 N 
ATOM     53  C   UNL     1      -6.154  -7.600 -10.060  1.00  0.00     0.074 A 
ATOM     54  C   UNL     1      -6.432  -7.350  -8.662  1.00  0.00     0.031 C 
ATOM     55  C   UNL     1       0.222  -8.768  -9.863  1.00  0.00     0.029 A 
ATOM     56  C   UNL     1      -0.618  -8.739 -11.056  1.00  0.00     0.049 A 
ATOM     57  H   UNL     1      -2.615  -8.150 -11.178  1.00  0.00     0.167 HD
ATOM     58  C   UNL     1      -7.062  -7.521 -11.062  1.00  0.00     0.034 A 
ATOM     59  C   UNL     1      -0.233  -9.082 -12.299  1.00  0.00     0.034 A 
ATOM     60  C   UNL     1      -6.720  -7.785 -12.438  1.00  0.00     0.049 A 
ATOM     61  C   UNL     1      -1.272  -9.075 -13.390  1.00  0.00     0.074 A 
ATOM     62  C   UNL     1      -7.531  -7.744 -13.556  1.00  0.00     0.029 A 
ATOM     63  N   UNL     1      -5.450  -8.149 -12.881  1.00  0.00    -0.354 N 
ATOM     64  N   UNL     1      -2.557  -8.810 -13.305  1.00  0.00    -0.248 NA
ATOM     65  C   UNL     1      -0.812  -9.411 -14.741  1.00  0.00     0.031 C 
ATOM     66  C   UNL     1      -6.773  -8.156 -14.658  1.00  0.00     0.029 A 
ATOM     67  C   UNL     1      -5.464  -8.362 -14.248  1.00  0.00     0.049 A 
ATOM     68  H   UNL     1      -4.658  -8.241 -12.304  1.00  0.00     0.167 HD
ATOM     69  C   UNL     1      -3.053  -8.909 -14.601  1.00  0.00     0.074 A 
ATOM     70  C   UNL     1      -1.926  -9.263 -15.444  1.00  0.00     0.031 C 
ATOM     71  C   UNL     1      -4.317  -8.714 -15.058  1.00  0.00     0.034 A 
BRANCH  58  72
ATOM     72  C   UNL     1      -8.492  -7.230 -10.678  1.00  0.00     0.023 A 
ATOM     73  C   UNL     1      -8.862  -6.047 -10.014  1.00  0.00     0.031 A 
ATOM     74  C   UNL     1      -9.493  -8.193 -10.905  1.00  0.00     0.131 A 
ATOM     75  C   UNL     1     -10.166  -5.901  -9.515  1.00  0.00     0.055 A 
ATOM     76  C   UNL     1     -10.813  -7.998 -10.493  1.00  0.00     0.041 A 
ATOM     77  F   UNL     1      -9.199  -9.357 -11.505  1.00  0.00    -0.206 F 
ATOM     78  C   UNL     1     -11.152  -6.856  -9.774  1.00  0.00     0.022 A 
BRANCH  75  79
ATOM     79  S   UNL     1     -10.503  -4.542  -8.362  1.00  0.00     0.124 S 
ATOM     80  O   UNL     1      -9.526  -4.803  -7.306  1.00  0.00    -0.237 OA
ATOM     81  O   UNL     1     -10.256  -3.363  -9.184  1.00  0.00    -0.237 OA
ATOM     82  O   UNL     1     -11.896  -4.756  -7.976  1.00  0.00    -0.744 OA
ENDBRANCH  75  79
ENDBRANCH  58  72
BRANCH  59  83
ATOM     83  C   UNL     1       1.169  -9.511 -12.549  1.00  0.00     0.023 A 
ATOM     84  C   UNL     1       2.022  -8.745 -13.355  1.00  0.00     0.031 A 
ATOM     85  C   UNL     1       1.682 -10.690 -11.975  1.00  0.00     0.131 A 
ATOM     86  C   UNL     1       3.336  -9.178 -13.589  1.00  0.00     0.055 A 
ATOM     87  C   UNL     1       3.005 -11.089 -12.169  1.00  0.00     0.041 A 
ATOM     88  F   UNL     1       0.909 -11.456 -11.189  1.00  0.00    -0.206 F 
ATOM     89  C   UNL     1       3.838 -10.336 -12.989  1.00  0.00     0.022 A 
BRANCH  86  90
ATOM     90  S   UNL     1       4.365  -8.232 -14.742  1.00  0.00     0.124 S 
ATOM     91  O   UNL     1       3.580  -8.307 -15.970  1.00  0.00    -0.237 OA
ATOM     92  O   UNL     1       4.422  -6.925 -14.096  1.00  0.00    -0.237 OA
ATOM     93  O   UNL     1       5.625  -8.972 -14.759  1.00  0.00    -0.744 OA
ENDBRANCH  86  90
ENDBRANCH  59  83
BRANCH  71  94
ATOM     94  C   UNL     1      -4.526  -8.800 -16.549  1.00  0.00     0.023 A 
ATOM     95  C   UNL     1      -4.416 -10.012 -17.251  1.00  0.00     0.031 A 
ATOM     96  C   UNL     1      -4.865  -7.641 -17.270  1.00  0.00     0.131 A 
ATOM     97  C   UNL     1      -4.601 -10.027 -18.641  1.00  0.00     0.055 A 
ATOM     98  C   UNL     1      -5.110  -7.675 -18.642  1.00  0.00     0.041 A 
ATOM     99  F   UNL     1      -4.978  -6.457 -16.647  1.00  0.00    -0.206 F 
ATOM    100  C   UNL     1      -4.968  -8.872 -19.337  1.00  0.00     0.022 A 
BRANCH  97 101
ATOM    101  S   UNL     1      -4.275 -11.564 -19.546  1.00  0.00     0.124 S 
ATOM    102  O   UNL     1      -2.875 -11.816 -19.220  1.00  0.00    -0.237 OA
ATOM    103  O   UNL     1      -5.243 -12.485 -18.959  1.00  0.00    -0.237 OA
ATOM    104  O   UNL     1      -4.531 -11.203 -20.939  1.00  0.00    -0.744 OA
ENDBRANCH  97 101
ENDBRANCH  71  94
ENDBRANCH  45  46
ENDBRANCH  38  40
ENDBRANCH  37  38
ENDBRANCH  36  37
ENDBRANCH  35  36
ENDBRANCH  34  35
ENDBRANCH   1  34
TORSDOF 25
