REMARK SMILES O=C(OCCOC(=O)c1ccc(-c2c3nc(c(-c4cc(S(=O)(=O)[O-])ccc4F)c4ccc([nH]4)c(-c4cc(S(=O)(=O)[O-])ccc4F)c4nc(c(-c5cc(S(=O)(=O)[O-])ccc5F)c5ccc2[nH]5)C=C4)C=C3)cc1)C1=Cc2ccc(Cl)c(Cl)c2O[C@@H]1C(F)(F)F
REMARK SMILES IDX 5 1 4 2 3 3 2 4 1 5 72 6 73 7 83 8 74 9 82 10 75 11 81 12
REMARK SMILES IDX 76 13 79 14 77 15 80 16 78 17 84 18 85 19 86 20 87 21 6 22
REMARK SMILES IDX 7 23 8 24 9 25 10 26 71 27 11 28 70 29 12 30 13 31 14 32
REMARK SMILES IDX 64 33 15 34 69 35 63 36 65 37 16 38 68 39 62 40 61 41 17 43
REMARK SMILES IDX 49 44 29 45 48 46 30 47 33 48 47 49 66 50 31 51 32 52 46 54
REMARK SMILES IDX 67 55 34 56 18 57 19 58 27 59 20 60 26 61 28 62 25 63 21 64
REMARK SMILES IDX 22 65 23 66 24 67 50 68 51 69 59 70 52 71 58 72 60 73 57 74
REMARK SMILES IDX 53 75 54 76 55 77 56 78 35 79 36 80 44 81 37 82 43 83 45 84
REMARK SMILES IDX 42 85 38 86 39 87 40 88 41 89
REMARK H PARENT 65 42 33 53
REMARK Flexibility Score: inf
ROOT
ATOM      1  C   UNL     1       4.751   0.226  -0.930  1.00  0.00     0.275 C 
ENDROOT
BRANCH   1   2
ATOM      2  C   UNL     1       3.903   0.331   1.064  1.00  0.00     0.275 C 
BRANCH   2   3
ATOM      3  O   UNL     1       3.001   1.450   1.636  1.00  0.00    -0.459 OA
BRANCH   3   4
ATOM      4  C   UNL     1       3.268   2.649   1.106  1.00  0.00     0.338 C 
ATOM      5  O   UNL     1       2.703   3.701   1.252  1.00  0.00    -0.246 OA
BRANCH   4   6
ATOM      6  C   UNL     1       4.144   2.144   0.075  1.00  0.00     0.087 C 
ATOM      7  C   UNL     1       5.488   1.876   0.528  1.00  0.00     0.027 C 
ATOM      8  C   UNL     1       2.902   0.855  -0.611  1.00  0.00     0.316 C 
ATOM      9  C   UNL     1       6.128   0.232   0.758  1.00  0.00     0.019 A 
ATOM     10  O   UNL     1       3.526  -0.956  -0.262  1.00  0.00    -0.474 OA
ATOM     11  C   UNL     1       7.360   0.134   1.334  1.00  0.00     0.013 A 
ATOM     12  C   UNL     1       5.171  -1.198   0.530  1.00  0.00     0.148 A 
ATOM     13  C   UNL     1       7.715  -1.162   1.726  1.00  0.00     0.023 A 
ATOM     14  C   UNL     1       5.598  -2.431   0.954  1.00  0.00     0.102 A 
ATOM     15  C   UNL     1       6.886  -2.364   1.569  1.00  0.00     0.063 A 
ATOM     16  Cl  UNL     1       4.663  -3.848   0.845  1.00  0.00    -0.079 Cl
ATOM     17  Cl  UNL     1       7.613  -3.789   2.268  1.00  0.00    -0.083 Cl
BRANCH   8  18
ATOM     18  C   UNL     1       2.805   1.854  -1.888  1.00  0.00     0.430 C 
ATOM     19  F   UNL     1       2.117   1.459  -2.921  1.00  0.00    -0.167 F 
ATOM     20  F   UNL     1       2.154   2.982  -1.480  1.00  0.00    -0.167 F 
ATOM     21  F   UNL     1       3.991   2.297  -2.382  1.00  0.00    -0.167 F 
ENDBRANCH   8  18
ENDBRANCH   4   6
ENDBRANCH   3   4
ENDBRANCH   2   3
ENDBRANCH   1   2
BRANCH   1  22
ATOM     22  O   UNL     1       3.834  -0.299  -2.346  1.00  0.00    -0.458 OA
BRANCH  22  23
ATOM     23  C   UNL     1       2.897  -1.273  -2.709  1.00  0.00     0.338 C 
ATOM     24  O   UNL     1       2.527  -2.250  -2.083  1.00  0.00    -0.246 OA
BRANCH  23  25
ATOM     25  C   UNL     1       2.125  -0.766  -3.900  1.00  0.00     0.060 A 
ATOM     26  C   UNL     1       0.812  -0.257  -3.714  1.00  0.00     0.016 A 
ATOM     27  C   UNL     1       2.857  -0.384  -5.021  1.00  0.00     0.016 A 
ATOM     28  C   UNL     1       0.384   0.858  -4.485  1.00  0.00     0.010 A 
ATOM     29  C   UNL     1       2.416   0.700  -5.788  1.00  0.00     0.010 A 
ATOM     30  C   UNL     1       1.238   1.407  -5.461  1.00  0.00    -0.014 A 
BRANCH  30  31
ATOM     31  C   UNL     1       0.883   2.594  -6.304  1.00  0.00     0.031 A 
ATOM     32  C   UNL     1       0.240   2.258  -7.615  1.00  0.00     0.074 A 
ATOM     33  C   UNL     1       1.226   3.879  -6.035  1.00  0.00     0.049 A 
ATOM     34  N   UNL     1       0.035   3.004  -8.663  1.00  0.00    -0.248 NA
ATOM     35  C   UNL     1      -0.176   0.854  -7.769  1.00  0.00     0.031 C 
ATOM     36  C   UNL     1       1.846   4.369  -4.804  1.00  0.00     0.029 A 
ATOM     37  N   UNL     1       1.125   5.024  -6.810  1.00  0.00    -0.354 N 
ATOM     38  C   UNL     1      -0.499   2.149  -9.616  1.00  0.00     0.074 A 
ATOM     39  C   UNL     1      -0.544   0.827  -9.035  1.00  0.00     0.031 C 
ATOM     40  C   UNL     1       2.078   5.695  -4.910  1.00  0.00     0.029 A 
ATOM     41  C   UNL     1       1.669   6.162  -6.235  1.00  0.00     0.049 A 
ATOM     42  H   UNL     1       0.700   5.029  -7.698  1.00  0.00     0.167 HD
ATOM     43  C   UNL     1      -0.922   2.436 -10.867  1.00  0.00     0.034 A 
ATOM     44  C   UNL     1       1.839   7.415  -6.730  1.00  0.00     0.034 A 
ATOM     45  C   UNL     1      -0.876   3.748 -11.442  1.00  0.00     0.049 A 
ATOM     46  C   UNL     1       1.403   7.696  -8.164  1.00  0.00     0.074 A 
ATOM     47  C   UNL     1      -1.325   4.151 -12.684  1.00  0.00     0.029 A 
ATOM     48  N   UNL     1      -0.336   4.866 -10.822  1.00  0.00    -0.354 N 
ATOM     49  N   UNL     1       0.831   6.887  -9.028  1.00  0.00    -0.248 NA
ATOM     50  C   UNL     1       1.641   9.050  -8.694  1.00  0.00     0.031 C 
ATOM     51  C   UNL     1      -0.985   5.495 -12.850  1.00  0.00     0.029 A 
ATOM     52  C   UNL     1      -0.402   5.951 -11.677  1.00  0.00     0.049 A 
ATOM     53  H   UNL     1       0.037   4.883  -9.912  1.00  0.00     0.167 HD
ATOM     54  C   UNL     1       0.611   7.647 -10.178  1.00  0.00     0.074 A 
ATOM     55  C   UNL     1       1.091   8.981  -9.897  1.00  0.00     0.031 C 
ATOM     56  C   UNL     1       0.065   7.279 -11.365  1.00  0.00     0.034 A 
BRANCH  43  57
ATOM     57  C   UNL     1      -1.413   1.282 -11.693  1.00  0.00     0.023 A 
ATOM     58  C   UNL     1      -2.558   0.554 -11.328  1.00  0.00     0.031 A 
ATOM     59  C   UNL     1      -0.683   0.861 -12.816  1.00  0.00     0.131 A 
ATOM     60  C   UNL     1      -2.891  -0.610 -12.031  1.00  0.00     0.055 A 
ATOM     61  C   UNL     1      -1.074  -0.247 -13.566  1.00  0.00     0.041 A 
ATOM     62  F   UNL     1       0.439   1.501 -13.182  1.00  0.00    -0.206 F 
ATOM     63  C   UNL     1      -2.175  -0.999 -13.166  1.00  0.00     0.022 A 
BRANCH  60  64
ATOM     64  S   UNL     1      -4.179  -1.688 -11.350  1.00  0.00     0.124 S 
ATOM     65  O   UNL     1      -3.582  -2.093 -10.080  1.00  0.00    -0.237 OA
ATOM     66  O   UNL     1      -5.327  -0.792 -11.257  1.00  0.00    -0.237 OA
ATOM     67  O   UNL     1      -4.296  -2.751 -12.345  1.00  0.00    -0.744 OA
ENDBRANCH  60  64
ENDBRANCH  43  57
BRANCH  44  68
ATOM     68  C   UNL     1       2.507   8.522  -5.950  1.00  0.00     0.023 A 
ATOM     69  C   UNL     1       1.864   9.759  -5.727  1.00  0.00     0.031 A 
ATOM     70  C   UNL     1       3.857   8.428  -5.565  1.00  0.00     0.131 A 
ATOM     71  C   UNL     1       2.585  10.859  -5.221  1.00  0.00     0.055 A 
ATOM     72  C   UNL     1       4.551   9.505  -4.997  1.00  0.00     0.041 A 
ATOM     73  F   UNL     1       4.544   7.292  -5.766  1.00  0.00    -0.206 F 
ATOM     74  C   UNL     1       3.921  10.735  -4.842  1.00  0.00     0.022 A 
BRANCH  71  75
ATOM     75  S   UNL     1       1.802  12.503  -5.214  1.00  0.00     0.124 S 
ATOM     76  O   UNL     1       1.436  12.661  -6.617  1.00  0.00    -0.237 OA
ATOM     77  O   UNL     1       0.699  12.310  -4.279  1.00  0.00    -0.237 OA
ATOM     78  O   UNL     1       2.866  13.388  -4.744  1.00  0.00    -0.744 OA
ENDBRANCH  71  75
ENDBRANCH  44  68
BRANCH  56  79
ATOM     79  C   UNL     1      -0.100   8.337 -12.429  1.00  0.00     0.023 A 
ATOM     80  C   UNL     1       1.003   8.912 -13.082  1.00  0.00     0.031 A 
ATOM     81  C   UNL     1      -1.389   8.722 -12.841  1.00  0.00     0.131 A 
ATOM     82  C   UNL     1       0.796   9.863 -14.094  1.00  0.00     0.055 A 
ATOM     83  C   UNL     1      -1.589   9.621 -13.888  1.00  0.00     0.041 A 
ATOM     84  F   UNL     1      -2.478   8.202 -12.251  1.00  0.00    -0.206 F 
ATOM     85  C   UNL     1      -0.492  10.202 -14.516  1.00  0.00     0.022 A 
BRANCH  82  86
ATOM     86  S   UNL     1       2.235  10.693 -14.820  1.00  0.00     0.124 S 
ATOM     87  O   UNL     1       2.824  11.352 -13.659  1.00  0.00    -0.237 OA
ATOM     88  O   UNL     1       2.996   9.577 -15.373  1.00  0.00    -0.237 OA
ATOM     89  O   UNL     1       1.648  11.593 -15.812  1.00  0.00    -0.744 OA
ENDBRANCH  82  86
ENDBRANCH  56  79
ENDBRANCH  30  31
ENDBRANCH  23  25
ENDBRANCH  22  23
ENDBRANCH   1  22
TORSDOF 15
