REMARK SMILES C[NH2+][C@@]1(C(=O)OCCOC(=O)c2ccc(-c3c4nc(c(-c5cc(S(=O)(=O)[O-])ccc5F)c5ccc([nH]5)c(-c5cc(S(=O)(=O)[O-])ccc5F)c5nc(c(-c6cc(S(=O)(=O)[O-])ccc6F)c6ccc3[nH]6)C=C5)C=C4)cc2)CC[C@H](SC2CCOCC2)C1
REMARK SMILES IDX 8 1 7 2 6 3 4 4 5 5 3 6 75 7 85 8 76 9 77 10 2 11 1 12 78 15
REMARK SMILES IDX 79 16 80 17 84 18 81 19 83 20 82 21 9 22 10 23 11 24 12 25
REMARK SMILES IDX 13 26 74 27 14 28 73 29 15 30 16 31 17 32 67 33 18 34 72 35
REMARK SMILES IDX 66 36 68 37 19 38 71 39 65 40 64 41 20 43 52 44 32 45 51 46
REMARK SMILES IDX 33 47 36 48 50 49 69 50 34 51 35 52 49 54 70 55 37 56 21 57
REMARK SMILES IDX 22 58 30 59 23 60 29 61 31 62 28 63 24 64 25 65 26 66 27 67
REMARK SMILES IDX 53 68 54 69 62 70 55 71 61 72 63 73 60 74 56 75 57 76 58 77
REMARK SMILES IDX 59 78 38 79 39 80 47 81 40 82 46 83 48 84 45 85 41 86 42 87
REMARK SMILES IDX 43 88 44 89
REMARK H PARENT 2 13 2 14 68 42 36 53
REMARK Flexibility Score: inf
ROOT
ATOM      1  C   UNL     1      -2.214   0.159   2.905  1.00  0.00     0.275 C 
ENDROOT
BRANCH   1   2
ATOM      2  C   UNL     1      -2.733   1.115   1.839  1.00  0.00     0.274 C 
BRANCH   2   3
ATOM      3  O   UNL     1      -2.349   0.645   0.531  1.00  0.00    -0.457 OA
BRANCH   3   4
ATOM      4  C   UNL     1      -1.429   1.368  -0.155  1.00  0.00     0.368 C 
ATOM      5  O   UNL     1      -0.849   2.353   0.295  1.00  0.00    -0.245 OA
BRANCH   4   6
ATOM      6  C   UNL     1      -1.221   0.862  -1.616  1.00  0.00     0.195 C 
ATOM      7  C   UNL     1      -1.797   1.934  -2.551  1.00  0.00     0.082 C 
ATOM      8  C   UNL     1      -2.053  -0.373  -2.006  1.00  0.00     0.095 C 
ATOM      9  C   UNL     1      -3.297   1.678  -2.495  1.00  0.00     0.022 C 
ATOM     10  C   UNL     1      -3.442   0.155  -2.426  1.00  0.00     0.054 C 
BRANCH   6  11
ATOM     11  N   UNL     1       0.230   0.757  -1.895  1.00  0.00    -0.335 N 
ATOM     12  C   UNL     1       0.820  -0.543  -1.617  1.00  0.00     0.331 C 
ATOM     13  H   UNL     1       0.377   0.966  -2.883  1.00  0.00     0.347 HD
ATOM     14  H   UNL     1       0.688   1.418  -1.268  1.00  0.00     0.347 HD
ENDBRANCH   6  11
BRANCH  10  15
ATOM     15  S   UNL     1      -4.734  -0.430  -1.264  1.00  0.00    -0.155 SA
BRANCH  15  16
ATOM     16  C   UNL     1      -6.301   0.120  -2.030  1.00  0.00     0.051 C 
ATOM     17  C   UNL     1      -6.465  -0.298  -3.488  1.00  0.00     0.043 C 
ATOM     18  C   UNL     1      -6.577   1.612  -1.853  1.00  0.00     0.043 C 
ATOM     19  C   UNL     1      -7.837   0.144  -3.983  1.00  0.00     0.161 C 
ATOM     20  C   UNL     1      -7.939   1.952  -2.444  1.00  0.00     0.161 C 
ATOM     21  O   UNL     1      -8.009   1.552  -3.813  1.00  0.00    -0.381 OA
ENDBRANCH  15  16
ENDBRANCH  10  15
ENDBRANCH   4   6
ENDBRANCH   3   4
ENDBRANCH   2   3
ENDBRANCH   1   2
BRANCH   1  22
ATOM     22  O   UNL     1      -0.780   0.201   2.873  1.00  0.00    -0.458 OA
BRANCH  22  23
ATOM     23  C   UNL     1      -0.147  -0.987   2.768  1.00  0.00     0.338 C 
ATOM     24  O   UNL     1      -0.644  -2.098   2.879  1.00  0.00    -0.246 OA
BRANCH  23  25
ATOM     25  C   UNL     1       1.278  -0.750   2.463  1.00  0.00     0.060 A 
ATOM     26  C   UNL     1       1.651   0.256   1.570  1.00  0.00     0.016 A 
ATOM     27  C   UNL     1       2.246  -1.602   2.990  1.00  0.00     0.016 A 
ATOM     28  C   UNL     1       2.968   0.351   1.129  1.00  0.00     0.010 A 
ATOM     29  C   UNL     1       3.587  -1.430   2.631  1.00  0.00     0.010 A 
ATOM     30  C   UNL     1       3.963  -0.473   1.669  1.00  0.00    -0.014 A 
BRANCH  30  31
ATOM     31  C   UNL     1       5.378  -0.374   1.208  1.00  0.00     0.031 A 
ATOM     32  C   UNL     1       6.090  -1.603   0.702  1.00  0.00     0.074 A 
ATOM     33  C   UNL     1       6.038   0.802   1.243  1.00  0.00     0.049 A 
ATOM     34  N   UNL     1       7.370  -1.812   0.533  1.00  0.00    -0.248 NA
ATOM     35  C   UNL     1       5.244  -2.760   0.370  1.00  0.00     0.031 C 
ATOM     36  C   UNL     1       5.467   2.090   1.644  1.00  0.00     0.029 A 
ATOM     37  N   UNL     1       7.342   1.106   0.933  1.00  0.00    -0.354 N 
ATOM     38  C   UNL     1       7.492  -3.146   0.154  1.00  0.00     0.074 A 
ATOM     39  C   UNL     1       6.151  -3.692   0.112  1.00  0.00     0.031 C 
ATOM     40  C   UNL     1       6.398   3.046   1.517  1.00  0.00     0.029 A 
ATOM     41  C   UNL     1       7.663   2.429   1.141  1.00  0.00     0.049 A 
ATOM     42  H   UNL     1       7.985   0.442   0.596  1.00  0.00     0.167 HD
ATOM     43  C   UNL     1       8.621  -3.847  -0.116  1.00  0.00     0.034 A 
ATOM     44  C   UNL     1       8.849   3.066   1.102  1.00  0.00     0.034 A 
ATOM     45  C   UNL     1       9.942  -3.263  -0.133  1.00  0.00     0.049 A 
ATOM     46  C   UNL     1      10.092   2.269   0.815  1.00  0.00     0.074 A 
ATOM     47  C   UNL     1      11.155  -3.875  -0.404  1.00  0.00     0.029 A 
ATOM     48  N   UNL     1      10.222  -1.924   0.111  1.00  0.00    -0.354 N 
ATOM     49  N   UNL     1      10.211   0.983   0.580  1.00  0.00    -0.248 NA
ATOM     50  C   UNL     1      11.362   3.005   0.816  1.00  0.00     0.031 C 
ATOM     51  C   UNL     1      12.169  -2.918  -0.278  1.00  0.00     0.029 A 
ATOM     52  C   UNL     1      11.586  -1.695   0.010  1.00  0.00     0.049 A 
ATOM     53  H   UNL     1       9.549  -1.238   0.325  1.00  0.00     0.167 HD
ATOM     54  C   UNL     1      11.572   0.756   0.407  1.00  0.00     0.074 A 
ATOM     55  C   UNL     1      12.228   2.042   0.536  1.00  0.00     0.031 C 
ATOM     56  C   UNL     1      12.223  -0.410   0.170  1.00  0.00     0.034 A 
BRANCH  43  57
ATOM     57  C   UNL     1       8.482  -5.334  -0.341  1.00  0.00     0.023 A 
ATOM     58  C   UNL     1       7.805  -5.870  -1.448  1.00  0.00     0.031 A 
ATOM     59  C   UNL     1       9.023  -6.233   0.598  1.00  0.00     0.131 A 
ATOM     60  C   UNL     1       7.629  -7.260  -1.555  1.00  0.00     0.055 A 
ATOM     61  C   UNL     1       8.910  -7.616   0.447  1.00  0.00     0.041 A 
ATOM     62  F   UNL     1       9.662  -5.780   1.688  1.00  0.00    -0.206 F 
ATOM     63  C   UNL     1       8.197  -8.137  -0.628  1.00  0.00     0.022 A 
BRANCH  60  64
ATOM     64  S   UNL     1       6.534  -7.901  -2.852  1.00  0.00     0.124 S 
ATOM     65  O   UNL     1       5.274  -7.235  -2.530  1.00  0.00    -0.237 OA
ATOM     66  O   UNL     1       7.197  -7.458  -4.072  1.00  0.00    -0.237 OA
ATOM     67  O   UNL     1       6.543  -9.345  -2.626  1.00  0.00    -0.744 OA
ENDBRANCH  60  64
ENDBRANCH  43  57
BRANCH  44  68
ATOM     68  C   UNL     1       8.931   4.517   1.435  1.00  0.00     0.023 A 
ATOM     69  C   UNL     1       9.312   5.463   0.472  1.00  0.00     0.031 A 
ATOM     70  C   UNL     1       8.639   4.974   2.734  1.00  0.00     0.131 A 
ATOM     71  C   UNL     1       9.414   6.817   0.828  1.00  0.00     0.055 A 
ATOM     72  C   UNL     1       8.691   6.327   3.068  1.00  0.00     0.041 A 
ATOM     73  F   UNL     1       8.271   4.109   3.692  1.00  0.00    -0.206 F 
ATOM     74  C   UNL     1       9.090   7.257   2.114  1.00  0.00     0.022 A 
BRANCH  71  75
ATOM     75  S   UNL     1      10.036   7.996  -0.402  1.00  0.00     0.124 S 
ATOM     76  O   UNL     1      11.360   7.456  -0.689  1.00  0.00    -0.237 OA
ATOM     77  O   UNL     1       9.048   7.873  -1.468  1.00  0.00    -0.237 OA
ATOM     78  O   UNL     1      10.024   9.271   0.312  1.00  0.00    -0.744 OA
ENDBRANCH  71  75
ENDBRANCH  44  68
BRANCH  56  79
ATOM     79  C   UNL     1      13.719  -0.324   0.011  1.00  0.00     0.023 A 
ATOM     80  C   UNL     1      14.557  -0.037   1.102  1.00  0.00     0.031 A 
ATOM     81  C   UNL     1      14.306  -0.495  -1.255  1.00  0.00     0.131 A 
ATOM     82  C   UNL     1      15.935   0.125   0.897  1.00  0.00     0.055 A 
ATOM     83  C   UNL     1      15.684  -0.381  -1.443  1.00  0.00     0.041 A 
ATOM     84  F   UNL     1      13.548  -0.768  -2.328  1.00  0.00    -0.206 F 
ATOM     85  C   UNL     1      16.505  -0.057  -0.367  1.00  0.00     0.022 A 
BRANCH  82  86
ATOM     86  S   UNL     1      16.966   0.665   2.289  1.00  0.00     0.124 S 
ATOM     87  O   UNL     1      16.350   1.939   2.647  1.00  0.00    -0.237 OA
ATOM     88  O   UNL     1      16.789  -0.420   3.248  1.00  0.00    -0.237 OA
ATOM     89  O   UNL     1      18.303   0.765   1.707  1.00  0.00    -0.744 OA
ENDBRANCH  82  86
ENDBRANCH  56  79
ENDBRANCH  30  31
ENDBRANCH  23  25
ENDBRANCH  22  23
ENDBRANCH   1  22
TORSDOF 17
