REMARK SMILES COCC[C@H]([NH3+])C(=O)N1CC(n2cc(C(=O)OCCOC(=O)c3ccc(-c4c5nc(c(-c6cc(S(=O)(=O)[O-])ccc6F)c6ccc([nH]6)c(-c6cc(S(=O)(=O)[O-])ccc6F)c6nc(c(-c7cc(S(=O)(=O)[O-])ccc7F)c7ccc4[nH]7)C=C6)C=C5)cc3)nn2)C1
REMARK SMILES IDX 18 1 17 2 15 3 16 4 14 5 12 6 13 7 87 8 86 9 11 10 7 11 8 12
REMARK SMILES IDX 9 13 10 14 88 15 5 16 4 17 3 18 2 19 1 20 6 21 19 25 20 26
REMARK SMILES IDX 21 27 22 28 23 29 24 30 85 31 25 32 84 33 26 34 27 35 28 36
REMARK SMILES IDX 78 37 29 38 83 39 77 40 79 41 30 42 82 43 76 44 75 45 31 47
REMARK SMILES IDX 63 48 43 49 62 50 44 51 47 52 61 53 80 54 45 55 46 56 60 58
REMARK SMILES IDX 81 59 48 60 32 61 33 62 41 63 34 64 40 65 42 66 39 67 35 68
REMARK SMILES IDX 36 69 37 70 38 71 64 72 65 73 73 74 66 75 72 76 74 77 71 78
REMARK SMILES IDX 67 79 68 80 69 81 70 82 49 83 50 84 58 85 51 86 57 87 59 88
REMARK SMILES IDX 56 89 52 90 53 91 54 92 55 93
REMARK H PARENT 6 22 6 23 6 24 79 46 47 57
REMARK Flexibility Score: inf
ROOT
ATOM      1  C   UNL     1       1.195 -12.387  -2.529  1.00  0.00     0.275 C 
ENDROOT
BRANCH   1   2
ATOM      2  O   UNL     1       1.175 -10.962  -2.712  1.00  0.00    -0.457 OA
BRANCH   2   3
ATOM      3  C   UNL     1       2.299 -10.425  -3.284  1.00  0.00     0.360 C 
ATOM      4  O   UNL     1       3.347 -11.050  -3.449  1.00  0.00    -0.244 OA
BRANCH   3   5
ATOM      5  C   UNL     1       2.127  -9.035  -3.669  1.00  0.00     0.190 A 
ATOM      6  N   UNL     1       1.425  -7.012  -3.997  1.00  0.00    -0.245 N 
ATOM      7  C   UNL     1       1.030  -8.213  -3.484  1.00  0.00     0.147 A 
ATOM      8  N   UNL     1       2.679  -7.072  -4.471  1.00  0.00    -0.066 NA
ATOM      9  N   UNL     1       3.113  -8.313  -4.301  1.00  0.00    -0.123 NA
BRANCH   6  10
ATOM     10  C   UNL     1       0.649  -5.812  -3.910  1.00  0.00     0.148 C 
ATOM     11  C   UNL     1       0.672  -2.546  -3.306  1.00  0.00     0.280 C 
ATOM     12  O   UNL     1       0.085  -1.937  -4.204  1.00  0.00    -0.268 OA
ATOM     13  N   UNL     1       1.059  -3.847  -3.474  1.00  0.00    -0.333 N 
ATOM     14  C   UNL     1       1.182  -4.614  -4.706  1.00  0.00     0.149 C 
ATOM     15  C   UNL     1       1.005  -5.021  -2.627  1.00  0.00     0.149 C 
BRANCH  11  16
ATOM     16  C   UNL     1       1.038  -1.837  -1.972  1.00  0.00     0.273 C 
BRANCH  16  17
ATOM     17  C   UNL     1       2.497  -2.130  -1.543  1.00  0.00     0.104 C 
BRANCH  17  18
ATOM     18  C   UNL     1       2.848  -2.109  -0.057  1.00  0.00     0.166 C 
BRANCH  18  19
ATOM     19  O   UNL     1       2.883  -3.413   0.523  1.00  0.00    -0.384 OA
ATOM     20  C   UNL     1       1.627  -3.904   0.953  1.00  0.00     0.194 C 
ENDBRANCH  18  19
ENDBRANCH  17  18
ENDBRANCH  16  17
BRANCH  16  21
ATOM     21  N   UNL     1      -0.049  -1.980  -0.995  1.00  0.00    -0.347 N 
ATOM     22  H   UNL     1      -0.195  -2.968  -0.792  1.00  0.00     0.345 HD
ATOM     23  H   UNL     1      -0.905  -1.581  -1.379  1.00  0.00     0.345 HD
ATOM     24  H   UNL     1       0.200  -1.489  -0.136  1.00  0.00     0.345 HD
ENDBRANCH  16  21
ENDBRANCH  11  16
ENDBRANCH   6  10
ENDBRANCH   3   5
ENDBRANCH   2   3
ENDBRANCH   1   2
BRANCH   1  25
ATOM     25  C   UNL     1       0.649 -13.106  -3.754  1.00  0.00     0.275 C 
BRANCH  25  26
ATOM     26  O   UNL     1       1.549 -13.024  -4.858  1.00  0.00    -0.458 OA
BRANCH  26  27
ATOM     27  C   UNL     1       1.271 -12.047  -5.755  1.00  0.00     0.338 C 
ATOM     28  O   UNL     1       0.674 -11.007  -5.531  1.00  0.00    -0.246 OA
BRANCH  27  29
ATOM     29  C   UNL     1       1.577 -12.543  -7.104  1.00  0.00     0.060 A 
ATOM     30  C   UNL     1       1.394 -11.671  -8.180  1.00  0.00     0.016 A 
ATOM     31  C   UNL     1       1.777 -13.918  -7.302  1.00  0.00     0.016 A 
ATOM     32  C   UNL     1       1.258 -12.206  -9.449  1.00  0.00     0.010 A 
ATOM     33  C   UNL     1       1.620 -14.449  -8.561  1.00  0.00     0.010 A 
ATOM     34  C   UNL     1       1.295 -13.598  -9.612  1.00  0.00    -0.014 A 
BRANCH  34  35
ATOM     35  C   UNL     1       1.173 -14.155 -10.946  1.00  0.00     0.031 A 
ATOM     36  C   UNL     1       2.376 -13.885 -11.767  1.00  0.00     0.074 A 
ATOM     37  C   UNL     1       0.151 -14.939 -11.347  1.00  0.00     0.049 A 
ATOM     38  N   UNL     1       2.474 -13.047 -12.743  1.00  0.00    -0.248 NA
ATOM     39  C   UNL     1       3.669 -14.434 -11.321  1.00  0.00     0.031 C 
ATOM     40  C   UNL     1      -0.958 -15.471 -10.553  1.00  0.00     0.029 A 
ATOM     41  N   UNL     1      -0.064 -15.499 -12.569  1.00  0.00    -0.354 N 
ATOM     42  C   UNL     1       3.781 -13.156 -13.200  1.00  0.00     0.074 A 
ATOM     43  C   UNL     1       4.511 -13.829 -12.161  1.00  0.00     0.031 C 
ATOM     44  C   UNL     1      -1.589 -16.444 -11.256  1.00  0.00     0.029 A 
ATOM     45  C   UNL     1      -1.016 -16.517 -12.592  1.00  0.00     0.049 A 
ATOM     46  H   UNL     1       0.417 -15.207 -13.377  1.00  0.00     0.167 HD
ATOM     47  C   UNL     1       4.080 -12.923 -14.505  1.00  0.00     0.034 A 
ATOM     48  C   UNL     1      -1.277 -17.377 -13.621  1.00  0.00     0.034 A 
ATOM     49  C   UNL     1       3.001 -12.220 -15.163  1.00  0.00     0.049 A 
ATOM     50  C   UNL     1      -0.778 -16.716 -14.856  1.00  0.00     0.074 A 
ATOM     51  C   UNL     1       2.380 -11.001 -14.967  1.00  0.00     0.029 A 
ATOM     52  N   UNL     1       2.131 -12.962 -15.932  1.00  0.00    -0.354 N 
ATOM     53  N   UNL     1      -1.304 -15.621 -15.334  1.00  0.00    -0.248 NA
ATOM     54  C   UNL     1       0.603 -16.959 -15.249  1.00  0.00     0.031 C 
ATOM     55  C   UNL     1       0.995 -11.256 -15.189  1.00  0.00     0.029 A 
ATOM     56  C   UNL     1       0.852 -12.583 -15.602  1.00  0.00     0.049 A 
ATOM     57  H   UNL     1       2.381 -13.641 -16.599  1.00  0.00     0.167 HD
ATOM     58  C   UNL     1      -0.222 -14.830 -15.692  1.00  0.00     0.074 A 
ATOM     59  C   UNL     1       0.925 -15.741 -15.696  1.00  0.00     0.031 C 
ATOM     60  C   UNL     1      -0.300 -13.466 -15.662  1.00  0.00     0.034 A 
BRANCH  47  61
ATOM     61  C   UNL     1       5.147 -13.657 -15.281  1.00  0.00     0.023 A 
ATOM     62  C   UNL     1       5.347 -13.268 -16.618  1.00  0.00     0.031 A 
ATOM     63  C   UNL     1       5.749 -14.877 -14.898  1.00  0.00     0.131 A 
ATOM     64  C   UNL     1       6.016 -14.110 -17.521  1.00  0.00     0.055 A 
ATOM     65  C   UNL     1       6.474 -15.678 -15.783  1.00  0.00     0.041 A 
ATOM     66  F   UNL     1       5.591 -15.418 -13.684  1.00  0.00    -0.206 F 
ATOM     67  C   UNL     1       6.583 -15.313 -17.112  1.00  0.00     0.022 A 
BRANCH  64  68
ATOM     68  S   UNL     1       5.971 -13.687 -19.280  1.00  0.00     0.124 S 
ATOM     69  O   UNL     1       4.536 -13.605 -19.526  1.00  0.00    -0.237 OA
ATOM     70  O   UNL     1       6.703 -12.425 -19.305  1.00  0.00    -0.237 OA
ATOM     71  O   UNL     1       6.651 -14.813 -19.916  1.00  0.00    -0.744 OA
ENDBRANCH  64  68
ENDBRANCH  47  61
BRANCH  48  72
ATOM     72  C   UNL     1      -1.565 -18.845 -13.541  1.00  0.00     0.023 A 
ATOM     73  C   UNL     1      -2.115 -19.598 -14.609  1.00  0.00     0.031 A 
ATOM     74  C   UNL     1      -1.044 -19.587 -12.458  1.00  0.00     0.131 A 
ATOM     75  C   UNL     1      -2.123 -21.018 -14.558  1.00  0.00     0.055 A 
ATOM     76  C   UNL     1      -1.049 -20.984 -12.417  1.00  0.00     0.041 A 
ATOM     77  F   UNL     1      -0.426 -18.980 -11.433  1.00  0.00    -0.206 F 
ATOM     78  C   UNL     1      -1.580 -21.707 -13.472  1.00  0.00     0.022 A 
BRANCH  75  79
ATOM     79  S   UNL     1      -2.775 -22.015 -15.946  1.00  0.00     0.124 S 
ATOM     80  O   UNL     1      -4.200 -21.708 -15.909  1.00  0.00    -0.237 OA
ATOM     81  O   UNL     1      -2.027 -21.497 -17.086  1.00  0.00    -0.237 OA
ATOM     82  O   UNL     1      -2.437 -23.389 -15.570  1.00  0.00    -0.744 OA
ENDBRANCH  75  79
ENDBRANCH  48  72
BRANCH  60  83
ATOM     83  C   UNL     1      -1.667 -12.824 -15.504  1.00  0.00     0.023 A 
ATOM     84  C   UNL     1      -2.554 -13.037 -14.421  1.00  0.00     0.031 A 
ATOM     85  C   UNL     1      -2.027 -11.856 -16.457  1.00  0.00     0.131 A 
ATOM     86  C   UNL     1      -3.753 -12.298 -14.336  1.00  0.00     0.055 A 
ATOM     87  C   UNL     1      -3.199 -11.109 -16.355  1.00  0.00     0.041 A 
ATOM     88  F   UNL     1      -1.219 -11.592 -17.497  1.00  0.00    -0.206 F 
ATOM     89  C   UNL     1      -4.070 -11.332 -15.296  1.00  0.00     0.022 A 
BRANCH  86  90
ATOM     90  S   UNL     1      -4.944 -12.593 -12.986  1.00  0.00     0.124 S 
ATOM     91  O   UNL     1      -5.082 -14.044 -12.963  1.00  0.00    -0.237 OA
ATOM     92  O   UNL     1      -4.274 -11.996 -11.833  1.00  0.00    -0.237 OA
ATOM     93  O   UNL     1      -6.143 -11.876 -13.426  1.00  0.00    -0.744 OA
ENDBRANCH  86  90
ENDBRANCH  60  83
ENDBRANCH  34  35
ENDBRANCH  27  29
ENDBRANCH  26  27
ENDBRANCH  25  26
ENDBRANCH   1  25
TORSDOF 20
