REMARK SMILES Cc1cc(C)cc(-c2ccc([C@@H](C)C(=O)OCCOC(=O)c3ccc(-c4c5nc(c(-c6cc(S(=O)(=O)[O-])ccc6F)c6ccc([nH]6)c(-c6cc(S(=O)(=O)[O-])ccc6F)c6nc(c(-c7cc(S(=O)(=O)[O-])ccc7F)c7ccc4[nH]7)C=C6)C=C5)cc3)cc2F)c1
REMARK SMILES IDX 18 1 17 2 16 3 14 4 15 5 12 6 13 7 11 8 8 9 9 10 86 11 10 12
REMARK SMILES IDX 85 13 87 14 7 15 1 16 2 17 3 18 88 19 4 20 5 21 6 22 19 23
REMARK SMILES IDX 20 24 21 25 22 26 23 27 84 28 24 29 83 30 25 31 26 32 27 33
REMARK SMILES IDX 77 34 28 35 82 36 76 37 78 38 29 39 81 40 75 41 74 42 30 44
REMARK SMILES IDX 62 45 42 46 61 47 43 48 46 49 60 50 79 51 44 52 45 53 59 55
REMARK SMILES IDX 80 56 47 57 31 58 32 59 40 60 33 61 39 62 41 63 38 64 34 65
REMARK SMILES IDX 35 66 36 67 37 68 63 69 64 70 72 71 65 72 71 73 73 74 70 75
REMARK SMILES IDX 66 76 67 77 68 78 69 79 48 80 49 81 57 82 50 83 56 84 58 85
REMARK SMILES IDX 55 86 51 87 52 88 53 89 54 90
REMARK H PARENT 78 43 46 54
REMARK Flexibility Score: inf
ROOT
ATOM      1  C   UNL     1       2.507  -7.786  -3.447  1.00  0.00     0.275 C 
ENDROOT
BRANCH   1   2
ATOM      2  C   UNL     1       1.052  -8.260  -3.426  1.00  0.00     0.274 C 
BRANCH   2   3
ATOM      3  O   UNL     1       0.297  -7.599  -2.393  1.00  0.00    -0.462 OA
BRANCH   3   4
ATOM      4  C   UNL     1       0.052  -8.313  -1.263  1.00  0.00     0.313 C 
ATOM      5  O   UNL     1       0.364  -9.491  -1.115  1.00  0.00    -0.252 OA
BRANCH   4   6
ATOM      6  C   UNL     1      -0.717  -7.539  -0.198  1.00  0.00     0.126 C 
ATOM      7  C   UNL     1      -2.190  -7.946  -0.233  1.00  0.00     0.025 C 
BRANCH   6   8
ATOM      8  C   UNL     1      -0.536  -6.028  -0.205  1.00  0.00    -0.031 A 
ATOM      9  C   UNL     1      -0.225  -3.197  -0.135  1.00  0.00     0.017 A 
ATOM     10  C   UNL     1      -0.936  -3.827  -1.169  1.00  0.00     0.012 A 
ATOM     11  C   UNL     1       0.344  -4.016   0.846  1.00  0.00     0.131 A 
ATOM     12  C   UNL     1      -1.091  -5.218  -1.204  1.00  0.00     0.005 A 
ATOM     13  C   UNL     1       0.189  -5.403   0.822  1.00  0.00     0.044 A 
ATOM     14  F   UNL     1       1.028  -3.476   1.867  1.00  0.00    -0.206 F 
BRANCH   9  15
ATOM     15  C   UNL     1      -0.129  -1.731  -0.079  1.00  0.00    -0.015 A 
ATOM     16  C   UNL     1       2.518   1.022   0.067  1.00  0.00     0.044 C 
ATOM     17  C   UNL     1       1.189   0.326   0.012  1.00  0.00    -0.050 A 
ATOM     18  C   UNL     1       0.008   1.078   0.013  1.00  0.00     0.006 A 
ATOM     19  C   UNL     1       1.111  -1.074  -0.030  1.00  0.00     0.012 A 
ATOM     20  C   UNL     1      -1.241   0.449  -0.021  1.00  0.00    -0.050 A 
ATOM     21  C   UNL     1      -2.498   1.266  -0.001  1.00  0.00     0.044 C 
ATOM     22  C   UNL     1      -1.297  -0.948  -0.071  1.00  0.00     0.012 A 
ENDBRANCH   9  15
ENDBRANCH   6   8
ENDBRANCH   4   6
ENDBRANCH   3   4
ENDBRANCH   2   3
ENDBRANCH   1   2
BRANCH   1  23
ATOM     23  O   UNL     1       3.216  -8.217  -2.272  1.00  0.00    -0.458 OA
BRANCH  23  24
ATOM     24  C   UNL     1       3.274  -7.300  -1.277  1.00  0.00     0.338 C 
ATOM     25  O   UNL     1       2.840  -6.161  -1.300  1.00  0.00    -0.246 OA
BRANCH  24  26
ATOM     26  C   UNL     1       3.838  -7.917  -0.068  1.00  0.00     0.060 A 
ATOM     27  C   UNL     1       2.998  -8.072   1.036  1.00  0.00     0.016 A 
ATOM     28  C   UNL     1       5.191  -8.249   0.018  1.00  0.00     0.016 A 
ATOM     29  C   UNL     1       3.508  -8.537   2.243  1.00  0.00     0.010 A 
ATOM     30  C   UNL     1       5.701  -8.728   1.230  1.00  0.00     0.010 A 
ATOM     31  C   UNL     1       4.866  -8.858   2.354  1.00  0.00    -0.014 A 
BRANCH  31  32
ATOM     32  C   UNL     1       5.405  -9.271   3.673  1.00  0.00     0.031 A 
ATOM     33  C   UNL     1       6.225  -8.304   4.480  1.00  0.00     0.074 A 
ATOM     34  C   UNL     1       5.101 -10.484   4.170  1.00  0.00     0.049 A 
ATOM     35  N   UNL     1       6.819  -8.485   5.630  1.00  0.00    -0.248 NA
ATOM     36  C   UNL     1       6.394  -6.954   3.919  1.00  0.00     0.031 C 
ATOM     37  C   UNL     1       4.256 -11.479   3.507  1.00  0.00     0.029 A 
ATOM     38  N   UNL     1       5.452 -11.080   5.356  1.00  0.00    -0.354 N 
ATOM     39  C   UNL     1       7.444  -7.280   5.928  1.00  0.00     0.074 A 
ATOM     40  C   UNL     1       7.171  -6.380   4.828  1.00  0.00     0.031 C 
ATOM     41  C   UNL     1       4.135 -12.552   4.306  1.00  0.00     0.029 A 
ATOM     42  C   UNL     1       4.933 -12.344   5.512  1.00  0.00     0.049 A 
ATOM     43  H   UNL     1       6.021 -10.644   6.030  1.00  0.00     0.167 HD
ATOM     44  C   UNL     1       8.175  -6.956   7.022  1.00  0.00     0.034 A 
ATOM     45  C   UNL     1       5.099 -13.241   6.504  1.00  0.00     0.034 A 
ATOM     46  C   UNL     1       8.429  -7.857   8.117  1.00  0.00     0.049 A 
ATOM     47  C   UNL     1       5.983 -12.888   7.670  1.00  0.00     0.074 A 
ATOM     48  C   UNL     1       9.162  -7.628   9.269  1.00  0.00     0.029 A 
ATOM     49  N   UNL     1       7.956  -9.160   8.200  1.00  0.00    -0.354 N 
ATOM     50  N   UNL     1       6.626 -11.768   7.904  1.00  0.00    -0.248 NA
ATOM     51  C   UNL     1       6.177 -13.921   8.697  1.00  0.00     0.031 C 
ATOM     52  C   UNL     1       9.175  -8.807  10.023  1.00  0.00     0.029 A 
ATOM     53  C   UNL     1       8.402  -9.753   9.369  1.00  0.00     0.049 A 
ATOM     54  H   UNL     1       7.388  -9.597   7.525  1.00  0.00     0.167 HD
ATOM     55  C   UNL     1       7.291 -11.958   9.110  1.00  0.00     0.074 A 
ATOM     56  C   UNL     1       6.971 -13.298   9.558  1.00  0.00     0.031 C 
ATOM     57  C   UNL     1       8.090 -11.097   9.788  1.00  0.00     0.034 A 
BRANCH  44  58
ATOM     58  C   UNL     1       8.796  -5.586   7.063  1.00  0.00     0.023 A 
ATOM     59  C   UNL     1       8.024  -4.427   7.245  1.00  0.00     0.031 A 
ATOM     60  C   UNL     1      10.189  -5.443   6.925  1.00  0.00     0.131 A 
ATOM     61  C   UNL     1       8.647  -3.170   7.247  1.00  0.00     0.055 A 
ATOM     62  C   UNL     1      10.808  -4.195   6.984  1.00  0.00     0.041 A 
ATOM     63  F   UNL     1      10.968  -6.519   6.729  1.00  0.00    -0.206 F 
ATOM     64  C   UNL     1      10.036  -3.048   7.139  1.00  0.00     0.022 A 
BRANCH  61  65
ATOM     65  S   UNL     1       7.614  -1.681   7.322  1.00  0.00     0.124 S 
ATOM     66  O   UNL     1       6.923  -1.740   6.037  1.00  0.00    -0.237 OA
ATOM     67  O   UNL     1       6.792  -1.922   8.502  1.00  0.00    -0.237 OA
ATOM     68  O   UNL     1       8.585  -0.597   7.452  1.00  0.00    -0.744 OA
ENDBRANCH  61  65
ENDBRANCH  44  58
BRANCH  45  69
ATOM     69  C   UNL     1       4.455 -14.579   6.409  1.00  0.00     0.023 A 
ATOM     70  C   UNL     1       3.397 -14.937   7.256  1.00  0.00     0.031 A 
ATOM     71  C   UNL     1       4.893 -15.517   5.457  1.00  0.00     0.131 A 
ATOM     72  C   UNL     1       2.818 -16.212   7.144  1.00  0.00     0.055 A 
ATOM     73  C   UNL     1       4.291 -16.769   5.326  1.00  0.00     0.041 A 
ATOM     74  F   UNL     1       5.900 -15.216   4.621  1.00  0.00    -0.206 F 
ATOM     75  C   UNL     1       3.249 -17.123   6.177  1.00  0.00     0.022 A 
BRANCH  72  76
ATOM     76  S   UNL     1       1.494 -16.675   8.295  1.00  0.00     0.124 S 
ATOM     77  O   UNL     1       2.205 -16.706   9.568  1.00  0.00    -0.237 OA
ATOM     78  O   UNL     1       0.539 -15.586   8.119  1.00  0.00    -0.237 OA
ATOM     79  O   UNL     1       1.049 -17.974   7.796  1.00  0.00    -0.744 OA
ENDBRANCH  72  76
ENDBRANCH  45  69
BRANCH  57  80
ATOM     80  C   UNL     1       8.656 -11.567  11.099  1.00  0.00     0.023 A 
ATOM     81  C   UNL     1       9.733 -12.467  11.151  1.00  0.00     0.031 A 
ATOM     82  C   UNL     1       8.143 -11.065  12.308  1.00  0.00     0.131 A 
ATOM     83  C   UNL     1      10.254 -12.854  12.394  1.00  0.00     0.055 A 
ATOM     84  C   UNL     1       8.688 -11.425  13.539  1.00  0.00     0.041 A 
ATOM     85  F   UNL     1       7.117 -10.199  12.305  1.00  0.00    -0.206 F 
ATOM     86  C   UNL     1       9.749 -12.327  13.587  1.00  0.00     0.022 A 
BRANCH  83  87
ATOM     87  S   UNL     1      11.605 -14.064  12.441  1.00  0.00     0.124 S 
ATOM     88  O   UNL     1      10.931 -15.284  12.007  1.00  0.00    -0.237 OA
ATOM     89  O   UNL     1      12.571 -13.501  11.504  1.00  0.00    -0.237 OA
ATOM     90  O   UNL     1      12.026 -14.052  13.841  1.00  0.00    -0.744 OA
ENDBRANCH  83  87
ENDBRANCH  57  80
ENDBRANCH  31  32
ENDBRANCH  24  26
ENDBRANCH  23  24
ENDBRANCH   1  23
TORSDOF 16
