REMARK SMILES CC[C@H]1CC[C@](Cc2cccc(OC)n2)(C(=O)OCCOC(=O)c2ccc(-c3c4nc(c(-c5cc(S(=O)(=O)[O-])ccc5F)c5ccc([nH]5)c(-c5cc(S(=O)(=O)[O-])ccc5F)c5nc(c(-c6cc(S(=O)(=O)[O-])ccc6F)c6ccc3[nH]6)C=C5)C=C4)cc2)C1
REMARK SMILES IDX 19 1 18 2 16 3 17 4 6 5 3 6 4 7 87 8 5 9 2 10 1 11 7 12 8 13
REMARK SMILES IDX 9 14 15 15 10 16 12 17 11 18 13 19 14 20 20 21 21 22 22 23
REMARK SMILES IDX 23 24 24 25 25 26 86 27 26 28 85 29 27 30 28 31 29 32 79 33
REMARK SMILES IDX 30 34 84 35 78 36 80 37 31 38 83 39 77 40 76 41 32 43 64 44
REMARK SMILES IDX 44 45 63 46 45 47 48 48 62 49 81 50 46 51 47 52 61 54 82 55
REMARK SMILES IDX 49 56 33 57 34 58 42 59 35 60 41 61 43 62 40 63 36 64 37 65
REMARK SMILES IDX 38 66 39 67 65 68 66 69 74 70 67 71 73 72 75 73 72 74 68 75
REMARK SMILES IDX 69 76 70 77 71 78 50 79 51 80 59 81 52 82 58 83 60 84 57 85
REMARK SMILES IDX 53 86 54 87 55 88 56 89
REMARK H PARENT 80 42 48 53
REMARK Flexibility Score: inf
ROOT
ATOM      1  C   UNL     1       6.290   2.015   3.295  1.00  0.00     0.274 C 
ENDROOT
BRANCH   1   2
ATOM      2  O   UNL     1       4.977   1.420   3.354  1.00  0.00    -0.462 OA
BRANCH   2   3
ATOM      3  C   UNL     1       3.947   2.271   3.636  1.00  0.00     0.312 C 
ATOM      4  O   UNL     1       4.087   3.480   3.774  1.00  0.00    -0.252 OA
BRANCH   3   5
ATOM      5  C   UNL     1       2.642   1.511   3.933  1.00  0.00     0.074 C 
ATOM      6  C   UNL     1       0.950   0.627   2.320  1.00  0.00    -0.010 C 
ATOM      7  C   UNL     1       0.801   2.136   2.437  1.00  0.00     0.005 C 
ATOM      8  C   UNL     1       2.371   0.399   2.881  1.00  0.00     0.022 C 
ATOM      9  C   UNL     1       1.432   2.472   3.784  1.00  0.00     0.019 C 
BRANCH   6  10
ATOM     10  C   UNL     1      -0.127  -0.166   3.076  1.00  0.00     0.000 C 
ATOM     11  C   UNL     1      -1.553   0.115   2.625  1.00  0.00     0.004 C 
ENDBRANCH   6  10
BRANCH   5  12
ATOM     12  C   UNL     1       2.860   1.020   5.391  1.00  0.00     0.075 C 
BRANCH  12  13
ATOM     13  C   UNL     1       1.783   0.170   6.011  1.00  0.00     0.046 A 
ATOM     14  C   UNL     1       1.796  -1.213   5.875  1.00  0.00     0.024 A 
ATOM     15  N   UNL     1       0.797   0.819   6.673  1.00  0.00    -0.219 NA
ATOM     16  C   UNL     1       0.726  -1.942   6.378  1.00  0.00     0.007 A 
ATOM     17  C   UNL     1      -0.239   0.103   7.158  1.00  0.00     0.213 A 
ATOM     18  C   UNL     1      -0.314  -1.275   7.021  1.00  0.00     0.068 A 
BRANCH  17  19
ATOM     19  O   UNL     1      -1.164   0.883   7.789  1.00  0.00    -0.481 OA
ATOM     20  C   UNL     1      -2.421   0.290   8.070  1.00  0.00     0.280 C 
ENDBRANCH  17  19
ENDBRANCH  12  13
ENDBRANCH   5  12
ENDBRANCH   3   5
ENDBRANCH   2   3
ENDBRANCH   1   2
BRANCH   1  21
ATOM     21  C   UNL     1       6.749   2.276   1.862  1.00  0.00     0.275 C 
BRANCH  21  22
ATOM     22  O   UNL     1       5.998   3.340   1.257  1.00  0.00    -0.458 OA
BRANCH  22  23
ATOM     23  C   UNL     1       4.969   2.941   0.479  1.00  0.00     0.338 C 
ATOM     24  O   UNL     1       4.639   1.794   0.215  1.00  0.00    -0.246 OA
BRANCH  23  25
ATOM     25  C   UNL     1       4.232   4.117   0.008  1.00  0.00     0.060 A 
ATOM     26  C   UNL     1       3.122   4.546   0.734  1.00  0.00     0.016 A 
ATOM     27  C   UNL     1       4.567   4.721  -1.202  1.00  0.00     0.016 A 
ATOM     28  C   UNL     1       2.290   5.536   0.221  1.00  0.00     0.010 A 
ATOM     29  C   UNL     1       3.767   5.758  -1.687  1.00  0.00     0.010 A 
ATOM     30  C   UNL     1       2.606   6.154  -0.994  1.00  0.00    -0.014 A 
BRANCH  30  31
ATOM     31  C   UNL     1       1.711   7.183  -1.579  1.00  0.00     0.031 A 
ATOM     32  C   UNL     1       1.009   6.896  -2.875  1.00  0.00     0.074 A 
ATOM     33  C   UNL     1       1.552   8.372  -0.968  1.00  0.00     0.049 A 
ATOM     34  N   UNL     1       0.393   7.715  -3.686  1.00  0.00    -0.248 NA
ATOM     35  C   UNL     1       1.018   5.495  -3.322  1.00  0.00     0.031 C 
ATOM     36  C   UNL     1       2.119   8.740   0.330  1.00  0.00     0.029 A 
ATOM     37  N   UNL     1       0.881   9.500  -1.370  1.00  0.00    -0.354 N 
ATOM     38  C   UNL     1      -0.022   6.939  -4.764  1.00  0.00     0.074 A 
ATOM     39  C   UNL     1       0.423   5.586  -4.503  1.00  0.00     0.031 C 
ATOM     40  C   UNL     1       1.781  10.008   0.613  1.00  0.00     0.029 A 
ATOM     41  C   UNL     1       1.045  10.566  -0.516  1.00  0.00     0.049 A 
ATOM     42  H   UNL     1       0.336   9.542  -2.189  1.00  0.00     0.167 HD
ATOM     43  C   UNL     1      -0.702   7.331  -5.871  1.00  0.00     0.034 A 
ATOM     44  C   UNL     1       0.695  11.860  -0.656  1.00  0.00     0.034 A 
ATOM     45  C   UNL     1      -1.146   8.686  -6.095  1.00  0.00     0.049 A 
ATOM     46  C   UNL     1       0.001  12.290  -1.922  1.00  0.00     0.074 A 
ATOM     47  C   UNL     1      -1.833   9.204  -7.179  1.00  0.00     0.029 A 
ATOM     48  N   UNL     1      -0.950   9.741  -5.211  1.00  0.00    -0.354 N 
ATOM     49  N   UNL     1      -0.323  11.568  -2.971  1.00  0.00    -0.248 NA
ATOM     50  C   UNL     1      -0.367  13.707  -2.029  1.00  0.00     0.031 C 
ATOM     51  C   UNL     1      -2.004  10.578  -6.976  1.00  0.00     0.029 A 
ATOM     52  C   UNL     1      -1.486  10.907  -5.733  1.00  0.00     0.049 A 
ATOM     53  H   UNL     1      -0.496   9.669  -4.341  1.00  0.00     0.167 HD
ATOM     54  C   UNL     1      -0.960  12.440  -3.849  1.00  0.00     0.074 A 
ATOM     55  C   UNL     1      -0.976  13.739  -3.205  1.00  0.00     0.031 C 
ATOM     56  C   UNL     1      -1.491  12.190  -5.072  1.00  0.00     0.034 A 
BRANCH  43  57
ATOM     57  C   UNL     1      -0.936   6.295  -6.944  1.00  0.00     0.023 A 
ATOM     58  C   UNL     1      -1.748   5.168  -6.730  1.00  0.00     0.031 A 
ATOM     59  C   UNL     1      -0.300   6.420  -8.192  1.00  0.00     0.131 A 
ATOM     60  C   UNL     1      -1.847   4.178  -7.721  1.00  0.00     0.055 A 
ATOM     61  C   UNL     1      -0.463   5.471  -9.202  1.00  0.00     0.041 A 
ATOM     62  F   UNL     1       0.507   7.463  -8.446  1.00  0.00    -0.206 F 
ATOM     63  C   UNL     1      -1.228   4.334  -8.965  1.00  0.00     0.022 A 
BRANCH  60  64
ATOM     64  S   UNL     1      -2.680   2.619  -7.315  1.00  0.00     0.124 S 
ATOM     65  O   UNL     1      -1.884   2.144  -6.186  1.00  0.00    -0.237 OA
ATOM     66  O   UNL     1      -4.035   3.057  -7.003  1.00  0.00    -0.237 OA
ATOM     67  O   UNL     1      -2.546   1.829  -8.537  1.00  0.00    -0.744 OA
ENDBRANCH  60  64
ENDBRANCH  43  57
BRANCH  44  68
ATOM     68  C   UNL     1       1.058  12.852   0.394  1.00  0.00     0.023 A 
ATOM     69  C   UNL     1       0.071  13.518   1.136  1.00  0.00     0.031 A 
ATOM     70  C   UNL     1       2.405  13.169   0.652  1.00  0.00     0.131 A 
ATOM     71  C   UNL     1       0.443  14.492   2.076  1.00  0.00     0.055 A 
ATOM     72  C   UNL     1       2.771  14.101   1.624  1.00  0.00     0.041 A 
ATOM     73  F   UNL     1       3.389  12.562  -0.031  1.00  0.00    -0.206 F 
ATOM     74  C   UNL     1       1.786  14.777   2.335  1.00  0.00     0.022 A 
BRANCH  71  75
ATOM     75  S   UNL     1      -0.861  15.440   2.907  1.00  0.00     0.124 S 
ATOM     76  O   UNL     1      -1.558  16.042   1.776  1.00  0.00    -0.237 OA
ATOM     77  O   UNL     1      -1.585  14.396   3.625  1.00  0.00    -0.237 OA
ATOM     78  O   UNL     1      -0.119  16.373   3.752  1.00  0.00    -0.744 OA
ENDBRANCH  71  75
ENDBRANCH  44  68
BRANCH  56  79
ATOM     79  C   UNL     1      -2.193  13.334  -5.756  1.00  0.00     0.023 A 
ATOM     80  C   UNL     1      -1.489  14.426  -6.290  1.00  0.00     0.031 A 
ATOM     81  C   UNL     1      -3.595  13.321  -5.874  1.00  0.00     0.131 A 
ATOM     82  C   UNL     1      -2.195  15.485  -6.882  1.00  0.00     0.055 A 
ATOM     83  C   UNL     1      -4.286  14.354  -6.506  1.00  0.00     0.041 A 
ATOM     84  F   UNL     1      -4.311  12.299  -5.380  1.00  0.00    -0.206 F 
ATOM     85  C   UNL     1      -3.587  15.449  -7.006  1.00  0.00     0.022 A 
BRANCH  82  86
ATOM     86  S   UNL     1      -1.274  16.945  -7.441  1.00  0.00     0.124 S 
ATOM     87  O   UNL     1      -0.681  17.424  -6.196  1.00  0.00    -0.237 OA
ATOM     88  O   UNL     1      -0.344  16.377  -8.412  1.00  0.00    -0.237 OA
ATOM     89  O   UNL     1      -2.309  17.807  -8.008  1.00  0.00    -0.744 OA
ENDBRANCH  82  86
ENDBRANCH  56  79
ENDBRANCH  30  31
ENDBRANCH  23  25
ENDBRANCH  22  23
ENDBRANCH  21  22
ENDBRANCH   1  21
TORSDOF 18
