REMARK SMILES [NH3+][C@H]1CCC[C@H]1C(=O)NCc1ccc(C(=O)OCCOC(=O)c2ccc(-c3c4nc(c(-c5cc(S(=O)(=O)[O-])ccc5F)c5ccc([nH]5)c(-c5cc(S(=O)(=O)[O-])ccc5F)c5nc(c(-c6cc(S(=O)(=O)[O-])ccc6F)c6ccc3[nH]6)C=C5)C=C4)cc2)o1
REMARK SMILES IDX 18 1 17 2 15 3 16 4 14 5 11 6 12 7 86 8 13 9 10 10 9 11 7 12
REMARK SMILES IDX 8 13 6 15 2 16 3 17 4 18 5 19 1 20 19 24 20 25 21 26 22 27
REMARK SMILES IDX 23 28 24 29 85 30 25 31 84 32 26 33 27 34 28 35 78 36 29 37
REMARK SMILES IDX 83 38 77 39 79 40 30 41 82 42 76 43 75 44 31 46 63 47 43 48
REMARK SMILES IDX 62 49 44 50 47 51 61 52 80 53 45 54 46 55 60 57 81 58 48 59
REMARK SMILES IDX 32 60 33 61 41 62 34 63 40 64 42 65 39 66 35 67 36 68 37 69
REMARK SMILES IDX 38 70 64 71 65 72 73 73 66 74 72 75 74 76 71 77 67 78 68 79
REMARK SMILES IDX 69 80 70 81 49 82 50 83 58 84 51 85 57 86 59 87 56 88 52 89
REMARK SMILES IDX 53 90 54 91 55 92
REMARK H PARENT 9 14 1 21 1 22 1 23 79 45 47 56
REMARK Flexibility Score: inf
ROOT
ATOM      1  C   UNL     1       8.953  -0.848  -3.891  1.00  0.00     0.275 C 
ENDROOT
BRANCH   1   2
ATOM      2  O   UNL     1       7.648  -0.252  -4.006  1.00  0.00    -0.456 OA
BRANCH   2   3
ATOM      3  C   UNL     1       6.697  -1.009  -4.638  1.00  0.00     0.374 C 
ATOM      4  O   UNL     1       6.919  -2.078  -5.183  1.00  0.00    -0.242 OA
BRANCH   3   5
ATOM      5  C   UNL     1       5.403  -0.377  -4.501  1.00  0.00     0.211 A 
ATOM      6  C   UNL     1       3.198  -0.379  -4.367  1.00  0.00     0.124 A 
ATOM      7  C   UNL     1       3.608   0.906  -4.080  1.00  0.00     0.048 A 
ATOM      8  O   UNL     1       4.279  -1.144  -4.695  1.00  0.00    -0.452 OA
ATOM      9  C   UNL     1       5.019   0.902  -4.140  1.00  0.00     0.058 A 
BRANCH   6  10
ATOM     10  C   UNL     1       1.862  -1.034  -4.353  1.00  0.00     0.191 C 
BRANCH  10  11
ATOM     11  N   UNL     1       1.836  -2.059  -3.329  1.00  0.00    -0.348 N 
ATOM     12  C   UNL     1       1.066  -2.243  -2.229  1.00  0.00     0.229 C 
ATOM     13  O   UNL     1       1.355  -3.207  -1.512  1.00  0.00    -0.275 OA
ATOM     14  H   UNL     1       2.513  -2.762  -3.458  1.00  0.00     0.163 HD
BRANCH  12  15
ATOM     15  C   UNL     1      -0.068  -1.311  -1.818  1.00  0.00     0.136 C 
ATOM     16  C   UNL     1       0.349   0.028  -1.191  1.00  0.00     0.193 C 
ATOM     17  C   UNL     1      -0.732   1.035  -1.591  1.00  0.00     0.066 C 
ATOM     18  C   UNL     1      -1.652   0.369  -2.606  1.00  0.00     0.007 C 
ATOM     19  C   UNL     1      -1.119  -1.027  -2.883  1.00  0.00     0.020 C 
BRANCH  16  20
ATOM     20  N   UNL     1       1.658   0.571  -1.547  1.00  0.00    -0.354 N 
ATOM     21  H   UNL     1       1.802   1.456  -1.061  1.00  0.00     0.344 HD
ATOM     22  H   UNL     1       1.700   0.724  -2.554  1.00  0.00     0.344 HD
ATOM     23  H   UNL     1       2.385  -0.090  -1.273  1.00  0.00     0.344 HD
ENDBRANCH  16  20
ENDBRANCH  12  15
ENDBRANCH  10  11
ENDBRANCH   6  10
ENDBRANCH   3   5
ENDBRANCH   2   3
ENDBRANCH   1   2
BRANCH   1  24
ATOM     24  C   UNL     1       9.150  -1.545  -2.539  1.00  0.00     0.275 C 
BRANCH  24  25
ATOM     25  O   UNL     1       8.391  -2.764  -2.441  1.00  0.00    -0.458 OA
BRANCH  25  26
ATOM     26  C   UNL     1       7.165  -2.634  -1.874  1.00  0.00     0.338 C 
ATOM     27  O   UNL     1       6.683  -1.609  -1.421  1.00  0.00    -0.246 OA
BRANCH  26  28
ATOM     28  C   UNL     1       6.408  -3.890  -2.029  1.00  0.00     0.060 A 
ATOM     29  C   UNL     1       5.174  -3.816  -2.677  1.00  0.00     0.016 A 
ATOM     30  C   UNL     1       6.858  -5.107  -1.512  1.00  0.00     0.016 A 
ATOM     31  C   UNL     1       4.384  -4.952  -2.820  1.00  0.00     0.010 A 
ATOM     32  C   UNL     1       6.058  -6.250  -1.650  1.00  0.00     0.010 A 
ATOM     33  C   UNL     1       4.814  -6.177  -2.300  1.00  0.00    -0.014 A 
BRANCH  33  34
ATOM     34  C   UNL     1       3.910  -7.351  -2.393  1.00  0.00     0.031 A 
ATOM     35  C   UNL     1       3.147  -7.800  -1.180  1.00  0.00     0.074 A 
ATOM     36  C   UNL     1       3.725  -7.965  -3.577  1.00  0.00     0.049 A 
ATOM     37  N   UNL     1       2.353  -8.829  -1.032  1.00  0.00    -0.248 NA
ATOM     38  C   UNL     1       3.310  -6.982   0.030  1.00  0.00     0.031 C 
ATOM     39  C   UNL     1       4.358  -7.572  -4.837  1.00  0.00     0.029 A 
ATOM     40  N   UNL     1       2.943  -9.040  -3.918  1.00  0.00    -0.354 N 
ATOM     41  C   UNL     1       1.931  -8.794   0.293  1.00  0.00     0.074 A 
ATOM     42  C   UNL     1       2.585  -7.658   0.910  1.00  0.00     0.031 C 
ATOM     43  C   UNL     1       3.932  -8.390  -5.814  1.00  0.00     0.029 A 
ATOM     44  C   UNL     1       3.037  -9.393  -5.243  1.00  0.00     0.049 A 
ATOM     45  H   UNL     1       2.368  -9.513  -3.274  1.00  0.00     0.167 HD
ATOM     46  C   UNL     1       1.074  -9.631   0.931  1.00  0.00     0.034 A 
ATOM     47  C   UNL     1       2.487 -10.424  -5.915  1.00  0.00     0.034 A 
ATOM     48  C   UNL     1       0.422 -10.751   0.293  1.00  0.00     0.049 A 
ATOM     49  C   UNL     1       1.595 -11.384  -5.169  1.00  0.00     0.074 A 
ATOM     50  C   UNL     1      -0.465 -11.662   0.840  1.00  0.00     0.029 A 
ATOM     51  N   UNL     1       0.588 -11.115  -1.039  1.00  0.00    -0.354 N 
ATOM     52  N   UNL     1       1.236 -11.367  -3.906  1.00  0.00    -0.248 NA
ATOM     53  C   UNL     1       1.037 -12.503  -5.939  1.00  0.00     0.031 C 
ATOM     54  C   UNL     1      -0.785 -12.610  -0.140  1.00  0.00     0.029 A 
ATOM     55  C   UNL     1      -0.154 -12.253  -1.321  1.00  0.00     0.049 A 
ATOM     56  H   UNL     1       1.151 -10.635  -1.688  1.00  0.00     0.167 HD
ATOM     57  C   UNL     1       0.397 -12.464  -3.735  1.00  0.00     0.074 A 
ATOM     58  C   UNL     1       0.289 -13.109  -5.028  1.00  0.00     0.031 C 
ATOM     59  C   UNL     1      -0.231 -12.898  -2.612  1.00  0.00     0.034 A 
BRANCH  46  60
ATOM     60  C   UNL     1       0.857  -9.402   2.408  1.00  0.00     0.023 A 
ATOM     61  C   UNL     1       0.240  -8.238   2.905  1.00  0.00     0.031 A 
ATOM     62  C   UNL     1       1.317 -10.350   3.339  1.00  0.00     0.131 A 
ATOM     63  C   UNL     1       0.165  -8.023   4.290  1.00  0.00     0.055 A 
ATOM     64  C   UNL     1       1.172 -10.165   4.715  1.00  0.00     0.041 A 
ATOM     65  F   UNL     1       1.933 -11.470   2.927  1.00  0.00    -0.206 F 
ATOM     66  C   UNL     1       0.606  -8.989   5.198  1.00  0.00     0.022 A 
BRANCH  63  67
ATOM     67  S   UNL     1      -0.395  -6.406   4.897  1.00  0.00     0.124 S 
ATOM     68  O   UNL     1       0.594  -5.508   4.307  1.00  0.00    -0.237 OA
ATOM     69  O   UNL     1      -1.746  -6.315   4.357  1.00  0.00    -0.237 OA
ATOM     70  O   UNL     1      -0.314  -6.538   6.351  1.00  0.00    -0.744 OA
ENDBRANCH  63  67
ENDBRANCH  46  60
BRANCH  47  71
ATOM     71  C   UNL     1       2.805 -10.641  -7.355  1.00  0.00     0.023 A 
ATOM     72  C   UNL     1       1.815 -10.549  -8.345  1.00  0.00     0.031 A 
ATOM     73  C   UNL     1       4.109 -10.986  -7.755  1.00  0.00     0.131 A 
ATOM     74  C   UNL     1       2.136 -10.830  -9.682  1.00  0.00     0.055 A 
ATOM     75  C   UNL     1       4.434 -11.218  -9.092  1.00  0.00     0.041 A 
ATOM     76  F   UNL     1       5.093 -11.092  -6.848  1.00  0.00    -0.206 F 
ATOM     77  C   UNL     1       3.441 -11.151 -10.064  1.00  0.00     0.022 A 
BRANCH  74  78
ATOM     78  S   UNL     1       0.805 -10.839 -10.916  1.00  0.00     0.124 S 
ATOM     79  O   UNL     1      -0.088 -11.863 -10.385  1.00  0.00    -0.237 OA
ATOM     80  O   UNL     1       0.318  -9.465 -10.849  1.00  0.00    -0.237 OA
ATOM     81  O   UNL     1       1.492 -11.193 -12.156  1.00  0.00    -0.744 OA
ENDBRANCH  74  78
ENDBRANCH  47  71
BRANCH  59  82
ATOM     82  C   UNL     1      -1.113 -14.114  -2.754  1.00  0.00     0.023 A 
ATOM     83  C   UNL     1      -0.576 -15.389  -3.009  1.00  0.00     0.031 A 
ATOM     84  C   UNL     1      -2.510 -13.990  -2.655  1.00  0.00     0.131 A 
ATOM     85  C   UNL     1      -1.435 -16.480  -3.208  1.00  0.00     0.055 A 
ATOM     86  C   UNL     1      -3.356 -15.089  -2.802  1.00  0.00     0.041 A 
ATOM     87  F   UNL     1      -3.074 -12.796  -2.416  1.00  0.00    -0.206 F 
ATOM     88  C   UNL     1      -2.821 -16.341  -3.092  1.00  0.00     0.022 A 
BRANCH  85  89
ATOM     89  S   UNL     1      -0.723 -18.073  -3.705  1.00  0.00     0.124 S 
ATOM     90  O   UNL     1      -0.049 -17.730  -4.953  1.00  0.00    -0.237 OA
ATOM     91  O   UNL     1       0.147 -18.393  -2.578  1.00  0.00    -0.237 OA
ATOM     92  O   UNL     1      -1.890 -18.942  -3.850  1.00  0.00    -0.744 OA
ENDBRANCH  85  89
ENDBRANCH  59  82
ENDBRANCH  33  34
ENDBRANCH  26  28
ENDBRANCH  25  26
ENDBRANCH  24  25
ENDBRANCH   1  24
TORSDOF 18
