REMARK SMILES Cc1cc(Cl)cc2c1O[C@H](C(F)(F)F)C(C(=O)OCCOC(=O)c1ccc(-c3c4nc(c(-c5cc(S(=O)(=O)[O-])ccc5F)c5ccc([nH]5)c(-c5cc(S(=O)(=O)[O-])ccc5F)c5nc(c(-c6cc(S(=O)(=O)[O-])ccc6F)c6ccc3[nH]6)C=C5)C=C4)cc1)=C2
REMARK SMILES IDX 20 1 19 2 18 3 16 4 17 5 15 6 1 7 2 8 3 9 8 10 4 11 7 12
REMARK SMILES IDX 9 13 5 14 6 15 87 16 10 17 11 18 12 19 13 20 14 21 21 22
REMARK SMILES IDX 22 23 23 24 24 25 25 26 86 27 26 28 85 29 27 30 28 31 29 32
REMARK SMILES IDX 79 33 30 34 84 35 78 36 80 37 31 38 83 39 77 40 76 41 32 43
REMARK SMILES IDX 64 44 44 45 63 46 45 47 48 48 62 49 81 50 46 51 47 52 61 54
REMARK SMILES IDX 82 55 49 56 33 57 34 58 42 59 35 60 41 61 43 62 40 63 36 64
REMARK SMILES IDX 37 65 38 66 39 67 65 68 66 69 74 70 67 71 73 72 75 73 72 74
REMARK SMILES IDX 68 75 69 76 70 77 71 78 50 79 51 80 59 81 52 82 58 83 60 84
REMARK SMILES IDX 57 85 53 86 54 87 55 88 56 89
REMARK H PARENT 80 42 48 53
REMARK Flexibility Score: inf
ROOT
ATOM      1  C   UNL     1       4.341  -8.392  -1.250  1.00  0.00     0.275 C 
ENDROOT
BRANCH   1   2
ATOM      2  C   UNL     1       3.528  -7.576  -2.255  1.00  0.00     0.275 C 
BRANCH   2   3
ATOM      3  O   UNL     1       3.189  -6.274  -1.730  1.00  0.00    -0.459 OA
BRANCH   3   4
ATOM      4  C   UNL     1       1.911  -6.133  -1.304  1.00  0.00     0.338 C 
ATOM      5  O   UNL     1       1.032  -6.980  -1.358  1.00  0.00    -0.246 OA
BRANCH   4   6
ATOM      6  C   UNL     1       1.695  -4.788  -0.738  1.00  0.00     0.087 C 
ATOM      7  C   UNL     1       1.071   0.264  -0.084  1.00  0.00     0.048 C 
ATOM      8  C   UNL     1       0.710  -0.974   0.683  1.00  0.00    -0.007 A 
ATOM      9  C   UNL     1      -0.025  -0.867   1.876  1.00  0.00     0.027 A 
ATOM     10  C   UNL     1       1.088  -2.244   0.221  1.00  0.00     0.131 A 
ATOM     11  C   UNL     1      -0.364  -2.008   2.600  1.00  0.00     0.042 A 
ATOM     12  C   UNL     1       0.732  -3.382   0.948  1.00  0.00     0.019 A 
ATOM     13  O   UNL     1       1.818  -2.302  -0.937  1.00  0.00    -0.475 OA
ATOM     14  Cl  UNL     1      -1.276  -1.862   4.050  1.00  0.00    -0.084 Cl
ATOM     15  C   UNL     1       0.015  -3.265   2.145  1.00  0.00     0.032 A 
ATOM     16  C   UNL     1       1.077  -4.694   0.443  1.00  0.00     0.027 C 
ATOM     17  C   UNL     1       2.039  -3.592  -1.573  1.00  0.00     0.316 C 
BRANCH  17  18
ATOM     18  C   UNL     1       1.286  -3.621  -2.913  1.00  0.00     0.430 C 
ATOM     19  F   UNL     1       1.570  -2.529  -3.664  1.00  0.00    -0.167 F 
ATOM     20  F   UNL     1       1.638  -4.697  -3.659  1.00  0.00    -0.167 F 
ATOM     21  F   UNL     1      -0.056  -3.663  -2.751  1.00  0.00    -0.167 F 
ENDBRANCH  17  18
ENDBRANCH   4   6
ENDBRANCH   3   4
ENDBRANCH   2   3
ENDBRANCH   1   2
BRANCH   1  22
ATOM     22  O   UNL     1       3.539  -8.728  -0.104  1.00  0.00    -0.458 OA
BRANCH  22  23
ATOM     23  C   UNL     1       3.785  -7.985   0.999  1.00  0.00     0.338 C 
ATOM     24  O   UNL     1       4.626  -7.111   1.125  1.00  0.00    -0.246 OA
BRANCH  23  25
ATOM     25  C   UNL     1       2.816  -8.303   2.058  1.00  0.00     0.060 A 
ATOM     26  C   UNL     1       1.505  -7.879   1.895  1.00  0.00     0.016 A 
ATOM     27  C   UNL     1       3.237  -8.808   3.285  1.00  0.00     0.016 A 
ATOM     28  C   UNL     1       0.664  -7.779   2.997  1.00  0.00     0.010 A 
ATOM     29  C   UNL     1       2.330  -8.866   4.352  1.00  0.00     0.010 A 
ATOM     30  C   UNL     1       1.046  -8.299   4.241  1.00  0.00    -0.014 A 
BRANCH  30  31
ATOM     31  C   UNL     1       0.119  -8.218   5.412  1.00  0.00     0.031 A 
ATOM     32  C   UNL     1       0.584  -7.609   6.714  1.00  0.00     0.074 A 
ATOM     33  C   UNL     1      -1.156  -8.652   5.306  1.00  0.00     0.049 A 
ATOM     34  N   UNL     1       0.007  -7.630   7.889  1.00  0.00    -0.248 NA
ATOM     35  C   UNL     1       1.873  -6.895   6.699  1.00  0.00     0.031 C 
ATOM     36  C   UNL     1      -1.773  -9.195   4.091  1.00  0.00     0.029 A 
ATOM     37  N   UNL     1      -2.177  -8.686   6.225  1.00  0.00    -0.354 N 
ATOM     38  C   UNL     1       0.878  -6.977   8.758  1.00  0.00     0.074 A 
ATOM     39  C   UNL     1       2.034  -6.590   7.979  1.00  0.00     0.031 C 
ATOM     40  C   UNL     1      -3.072  -9.431   4.317  1.00  0.00     0.029 A 
ATOM     41  C   UNL     1      -3.357  -9.190   5.724  1.00  0.00     0.049 A 
ATOM     42  H   UNL     1      -2.075  -8.379   7.155  1.00  0.00     0.167 HD
ATOM     43  C   UNL     1       0.721  -6.720  10.079  1.00  0.00     0.034 A 
ATOM     44  C   UNL     1      -4.525  -9.484   6.330  1.00  0.00     0.034 A 
ATOM     45  C   UNL     1      -0.461  -7.064  10.830  1.00  0.00     0.049 A 
ATOM     46  C   UNL     1      -4.638  -9.280   7.815  1.00  0.00     0.074 A 
ATOM     47  C   UNL     1      -0.714  -6.864  12.177  1.00  0.00     0.029 A 
ATOM     48  N   UNL     1      -1.597  -7.658  10.297  1.00  0.00    -0.354 N 
ATOM     49  N   UNL     1      -3.756  -8.774   8.644  1.00  0.00    -0.248 NA
ATOM     50  C   UNL     1      -5.888  -9.715   8.451  1.00  0.00     0.031 C 
ATOM     51  C   UNL     1      -1.977  -7.385  12.469  1.00  0.00     0.029 A 
ATOM     52  C   UNL     1      -2.542  -7.849  11.292  1.00  0.00     0.049 A 
ATOM     53  H   UNL     1      -1.713  -7.906   9.352  1.00  0.00     0.167 HD
ATOM     54  C   UNL     1      -4.353  -8.816   9.899  1.00  0.00     0.074 A 
ATOM     55  C   UNL     1      -5.673  -9.384   9.716  1.00  0.00     0.031 C 
ATOM     56  C   UNL     1      -3.850  -8.422  11.095  1.00  0.00     0.034 A 
BRANCH  43  57
ATOM     57  C   UNL     1       1.863  -6.065  10.816  1.00  0.00     0.023 A 
ATOM     58  C   UNL     1       2.224  -4.727  10.588  1.00  0.00     0.031 A 
ATOM     59  C   UNL     1       2.573  -6.784  11.796  1.00  0.00     0.131 A 
ATOM     60  C   UNL     1       3.288  -4.159  11.306  1.00  0.00     0.055 A 
ATOM     61  C   UNL     1       3.588  -6.195  12.551  1.00  0.00     0.041 A 
ATOM     62  F   UNL     1       2.280  -8.071  12.044  1.00  0.00    -0.206 F 
ATOM     63  C   UNL     1       3.956  -4.876  12.303  1.00  0.00     0.022 A 
BRANCH  60  64
ATOM     64  S   UNL     1       3.840  -2.487  10.872  1.00  0.00     0.124 S 
ATOM     65  O   UNL     1       4.320  -2.682   9.506  1.00  0.00    -0.237 OA
ATOM     66  O   UNL     1       2.620  -1.702  11.015  1.00  0.00    -0.237 OA
ATOM     67  O   UNL     1       4.882  -2.203  11.857  1.00  0.00    -0.744 OA
ENDBRANCH  60  64
ENDBRANCH  43  57
BRANCH  44  68
ATOM     68  C   UNL     1      -5.654 -10.064   5.546  1.00  0.00     0.023 A 
ATOM     69  C   UNL     1      -6.862  -9.365   5.400  1.00  0.00     0.031 A 
ATOM     70  C   UNL     1      -5.546 -11.329   4.938  1.00  0.00     0.131 A 
ATOM     71  C   UNL     1      -7.919  -9.942   4.678  1.00  0.00     0.055 A 
ATOM     72  C   UNL     1      -6.580 -11.874   4.177  1.00  0.00     0.041 A 
ATOM     73  F   UNL     1      -4.413 -12.042   5.049  1.00  0.00    -0.206 F 
ATOM     74  C   UNL     1      -7.780 -11.182   4.051  1.00  0.00     0.022 A 
BRANCH  71  75
ATOM     75  S   UNL     1      -9.506  -9.066   4.613  1.00  0.00     0.124 S 
ATOM     76  O   UNL     1      -9.884  -9.034   6.021  1.00  0.00    -0.237 OA
ATOM     77  O   UNL     1      -9.125  -7.789   4.020  1.00  0.00    -0.237 OA
ATOM     78  O   UNL     1     -10.331  -9.922   3.764  1.00  0.00    -0.744 OA
ENDBRANCH  71  75
ENDBRANCH  44  68
BRANCH  56  79
ATOM     79  C   UNL     1      -4.743  -8.562  12.297  1.00  0.00     0.023 A 
ATOM     80  C   UNL     1      -5.049  -9.820  12.838  1.00  0.00     0.031 A 
ATOM     81  C   UNL     1      -5.260  -7.418  12.931  1.00  0.00     0.131 A 
ATOM     82  C   UNL     1      -5.876  -9.910  13.967  1.00  0.00     0.055 A 
ATOM     83  C   UNL     1      -6.041  -7.510  14.082  1.00  0.00     0.041 A 
ATOM     84  F   UNL     1      -4.994  -6.192  12.451  1.00  0.00    -0.206 F 
ATOM     85  C   UNL     1      -6.358  -8.762  14.603  1.00  0.00     0.022 A 
BRANCH  82  86
ATOM     86  S   UNL     1      -6.346 -11.552  14.573  1.00  0.00     0.124 S 
ATOM     87  O   UNL     1      -7.122 -12.076  13.454  1.00  0.00    -0.237 OA
ATOM     88  O   UNL     1      -5.052 -12.186  14.804  1.00  0.00    -0.237 OA
ATOM     89  O   UNL     1      -7.116 -11.264  15.782  1.00  0.00    -0.744 OA
ENDBRANCH  82  86
ENDBRANCH  56  79
ENDBRANCH  30  31
ENDBRANCH  23  25
ENDBRANCH  22  23
ENDBRANCH   1  22
TORSDOF 15
