REMARK SMILES CCC[C@@H](C(=O)N1CC[C@@](C)(C(=O)OCCOC(=O)c2ccc(-c3c4nc(c(-c5cc(S(=O)(=O)[O-])ccc5F)c5ccc([nH]5)c(-c5cc(S(=O)(=O)[O-])ccc5F)c5nc(c(-c6cc(S(=O)(=O)[O-])ccc6F)c6ccc3[nH]6)C=C5)C=C4)cc2)C1)c1ccccc1
REMARK SMILES IDX 15 1 14 2 12 3 13 4 10 5 7 6 8 7 83 8 9 9 11 10 5 11 6 12
REMARK SMILES IDX 4 13 3 14 2 15 1 16 84 17 85 18 89 19 86 20 88 21 87 22
REMARK SMILES IDX 16 23 17 24 18 25 19 26 20 27 21 28 82 29 22 30 81 31 23 32
REMARK SMILES IDX 24 33 25 34 75 35 26 36 80 37 74 38 76 39 27 40 79 41 73 42
REMARK SMILES IDX 72 43 28 45 60 46 40 47 59 48 41 49 44 50 58 51 77 52 42 53
REMARK SMILES IDX 43 54 57 56 78 57 45 58 29 59 30 60 38 61 31 62 37 63 39 64
REMARK SMILES IDX 36 65 32 66 33 67 34 68 35 69 61 70 62 71 70 72 63 73 69 74
REMARK SMILES IDX 71 75 68 76 64 77 65 78 66 79 67 80 46 81 47 82 55 83 48 84
REMARK SMILES IDX 54 85 56 86 53 87 49 88 50 89 51 90 52 91
REMARK H PARENT 76 44 44 55
REMARK Flexibility Score: inf
ROOT
ATOM      1  C   UNL     1      -0.818   2.592  -2.030  1.00  0.00     0.274 C 
ENDROOT
BRANCH   1   2
ATOM      2  O   UNL     1      -1.774   1.516  -2.128  1.00  0.00    -0.462 OA
BRANCH   2   3
ATOM      3  C   UNL     1      -2.189   0.959  -0.954  1.00  0.00     0.313 C 
ATOM      4  O   UNL     1      -1.937   1.434   0.147  1.00  0.00    -0.252 OA
BRANCH   3   5
ATOM      5  C   UNL     1      -2.778  -0.444  -1.154  1.00  0.00     0.084 C 
ATOM      6  N   UNL     1      -1.794  -1.824   0.539  1.00  0.00    -0.341 N 
ATOM      7  C   UNL     1      -3.028  -1.287   1.096  1.00  0.00     0.120 C 
ATOM      8  C   UNL     1      -1.615  -1.393  -0.832  1.00  0.00     0.138 C 
ATOM      9  C   UNL     1      -3.831  -0.831  -0.106  1.00  0.00     0.042 C 
ATOM     10  C   UNL     1      -3.353  -0.664  -2.555  1.00  0.00     0.026 C 
BRANCH   6  11
ATOM     11  C   UNL     1      -1.015  -2.648   1.314  1.00  0.00     0.230 C 
ATOM     12  O   UNL     1      -1.545  -3.186   2.296  1.00  0.00    -0.274 OA
BRANCH  11  13
ATOM     13  C   UNL     1       0.531  -2.784   1.116  1.00  0.00     0.108 C 
BRANCH  13  14
ATOM     14  C   UNL     1       1.216  -2.740  -0.271  1.00  0.00     0.018 C 
BRANCH  14  15
ATOM     15  C   UNL     1       1.674  -1.401  -0.890  1.00  0.00    -0.002 C 
ATOM     16  C   UNL     1       1.761  -0.189   0.024  1.00  0.00     0.004 C 
ENDBRANCH  14  15
ENDBRANCH  13  14
BRANCH  13  17
ATOM     17  C   UNL     1       0.978  -4.095   1.801  1.00  0.00    -0.036 A 
ATOM     18  C   UNL     1       0.704  -5.345   1.218  1.00  0.00     0.004 A 
ATOM     19  C   UNL     1       1.602  -4.058   3.057  1.00  0.00     0.004 A 
ATOM     20  C   UNL     1       1.061  -6.526   1.869  1.00  0.00     0.000 A 
ATOM     21  C   UNL     1       1.952  -5.242   3.709  1.00  0.00     0.000 A 
ATOM     22  C   UNL     1       1.684  -6.474   3.114  1.00  0.00     0.000 A 
ENDBRANCH  13  17
ENDBRANCH  11  13
ENDBRANCH   6  11
ENDBRANCH   3   5
ENDBRANCH   2   3
ENDBRANCH   1   2
BRANCH   1  23
ATOM     23  C   UNL     1      -1.441   3.992  -2.027  1.00  0.00     0.275 C 
BRANCH  23  24
ATOM     24  O   UNL     1      -2.077   4.296  -0.776  1.00  0.00    -0.458 OA
BRANCH  24  25
ATOM     25  C   UNL     1      -3.378   3.918  -0.705  1.00  0.00     0.338 C 
ATOM     26  O   UNL     1      -4.044   3.455  -1.616  1.00  0.00    -0.246 OA
BRANCH  25  27
ATOM     27  C   UNL     1      -3.841   3.960   0.697  1.00  0.00     0.060 A 
ATOM     28  C   UNL     1      -4.572   2.857   1.147  1.00  0.00     0.016 A 
ATOM     29  C   UNL     1      -3.600   5.038   1.549  1.00  0.00     0.016 A 
ATOM     30  C   UNL     1      -5.063   2.814   2.446  1.00  0.00     0.010 A 
ATOM     31  C   UNL     1      -4.115   5.009   2.851  1.00  0.00     0.010 A 
ATOM     32  C   UNL     1      -4.861   3.902   3.300  1.00  0.00    -0.014 A 
BRANCH  32  33
ATOM     33  C   UNL     1      -5.557   3.923   4.609  1.00  0.00     0.031 A 
ATOM     34  C   UNL     1      -6.805   4.747   4.751  1.00  0.00     0.074 A 
ATOM     35  C   UNL     1      -5.123   3.161   5.629  1.00  0.00     0.049 A 
ATOM     36  N   UNL     1      -7.557   4.944   5.801  1.00  0.00    -0.248 NA
ATOM     37  C   UNL     1      -7.263   5.444   3.540  1.00  0.00     0.031 C 
ATOM     38  C   UNL     1      -3.971   2.260   5.577  1.00  0.00     0.029 A 
ATOM     39  N   UNL     1      -5.606   3.016   6.904  1.00  0.00    -0.354 N 
ATOM     40  C   UNL     1      -8.577   5.791   5.382  1.00  0.00     0.074 A 
ATOM     41  C   UNL     1      -8.319   6.103   3.992  1.00  0.00     0.031 C 
ATOM     42  C   UNL     1      -3.839   1.654   6.769  1.00  0.00     0.029 A 
ATOM     43  C   UNL     1      -4.863   2.159   7.682  1.00  0.00     0.049 A 
ATOM     44  H   UNL     1      -6.409   3.482   7.232  1.00  0.00     0.167 HD
ATOM     45  C   UNL     1      -9.636   6.256   6.091  1.00  0.00     0.034 A 
ATOM     46  C   UNL     1      -4.981   1.842   8.987  1.00  0.00     0.034 A 
ATOM     47  C   UNL     1      -9.866   5.944   7.481  1.00  0.00     0.049 A 
ATOM     48  C   UNL     1      -6.101   2.466   9.787  1.00  0.00     0.074 A 
ATOM     49  C   UNL     1     -10.893   6.372   8.304  1.00  0.00     0.029 A 
ATOM     50  N   UNL     1      -9.050   5.131   8.260  1.00  0.00    -0.354 N 
ATOM     51  N   UNL     1      -7.046   3.288   9.391  1.00  0.00    -0.248 NA
ATOM     52  C   UNL     1      -6.172   2.112  11.211  1.00  0.00     0.031 C 
ATOM     53  C   UNL     1     -10.657   5.883   9.593  1.00  0.00     0.029 A 
ATOM     54  C   UNL     1      -9.533   5.073   9.559  1.00  0.00     0.049 A 
ATOM     55  H   UNL     1      -8.246   4.664   7.936  1.00  0.00     0.167 HD
ATOM     56  C   UNL     1      -7.845   3.518  10.509  1.00  0.00     0.074 A 
ATOM     57  C   UNL     1      -7.277   2.738  11.589  1.00  0.00     0.031 C 
ATOM     58  C   UNL     1      -8.951   4.297  10.631  1.00  0.00     0.034 A 
BRANCH  45  59
ATOM     59  C   UNL     1     -10.578   7.201   5.381  1.00  0.00     0.023 A 
ATOM     60  C   UNL     1     -11.324   6.801   4.258  1.00  0.00     0.031 A 
ATOM     61  C   UNL     1     -10.691   8.538   5.803  1.00  0.00     0.131 A 
ATOM     62  C   UNL     1     -12.082   7.746   3.549  1.00  0.00     0.055 A 
ATOM     63  C   UNL     1     -11.518   9.451   5.146  1.00  0.00     0.041 A 
ATOM     64  F   UNL     1      -9.984   8.986   6.852  1.00  0.00    -0.206 F 
ATOM     65  C   UNL     1     -12.206   9.061   4.001  1.00  0.00     0.022 A 
BRANCH  62  66
ATOM     66  S   UNL     1     -12.769   7.272   1.938  1.00  0.00     0.124 S 
ATOM     67  O   UNL     1     -11.566   6.879   1.208  1.00  0.00    -0.237 OA
ATOM     68  O   UNL     1     -13.685   6.194   2.289  1.00  0.00    -0.237 OA
ATOM     69  O   UNL     1     -13.403   8.500   1.461  1.00  0.00    -0.744 OA
ENDBRANCH  62  66
ENDBRANCH  45  59
BRANCH  46  70
ATOM     70  C   UNL     1      -3.999   0.928   9.640  1.00  0.00     0.023 A 
ATOM     71  C   UNL     1      -4.405  -0.286  10.216  1.00  0.00     0.031 A 
ATOM     72  C   UNL     1      -2.644   1.291   9.757  1.00  0.00     0.131 A 
ATOM     73  C   UNL     1      -3.480  -1.069  10.925  1.00  0.00     0.055 A 
ATOM     74  C   UNL     1      -1.715   0.479  10.410  1.00  0.00     0.041 A 
ATOM     75  F   UNL     1      -2.201   2.446   9.235  1.00  0.00    -0.206 F 
ATOM     76  C   UNL     1      -2.135  -0.703  11.012  1.00  0.00     0.022 A 
BRANCH  73  77
ATOM     77  S   UNL     1      -4.082  -2.523  11.827  1.00  0.00     0.124 S 
ATOM     78  O   UNL     1      -5.064  -1.928  12.726  1.00  0.00    -0.237 OA
ATOM     79  O   UNL     1      -4.616  -3.350  10.750  1.00  0.00    -0.237 OA
ATOM     80  O   UNL     1      -2.880  -3.045  12.474  1.00  0.00    -0.744 OA
ENDBRANCH  73  77
ENDBRANCH  46  70
BRANCH  58  81
ATOM     81  C   UNL     1      -9.651   4.293  11.971  1.00  0.00     0.023 A 
ATOM     82  C   UNL     1      -9.043   4.803  13.132  1.00  0.00     0.031 A 
ATOM     83  C   UNL     1     -10.944   3.750  12.088  1.00  0.00     0.131 A 
ATOM     84  C   UNL     1      -9.701   4.702  14.368  1.00  0.00     0.055 A 
ATOM     85  C   UNL     1     -11.621   3.716  13.308  1.00  0.00     0.041 A 
ATOM     86  F   UNL     1     -11.574   3.245  11.015  1.00  0.00    -0.206 F 
ATOM     87  C   UNL     1     -10.993   4.179  14.460  1.00  0.00     0.022 A 
BRANCH  84  88
ATOM     88  S   UNL     1      -8.803   5.166  15.874  1.00  0.00     0.124 S 
ATOM     89  O   UNL     1      -7.633   4.297  15.810  1.00  0.00    -0.237 OA
ATOM     90  O   UNL     1      -8.552   6.588  15.663  1.00  0.00    -0.237 OA
ATOM     91  O   UNL     1      -9.747   4.857  16.946  1.00  0.00    -0.744 OA
ENDBRANCH  84  88
ENDBRANCH  58  81
ENDBRANCH  32  33
ENDBRANCH  25  27
ENDBRANCH  24  25
ENDBRANCH  23  24
ENDBRANCH   1  23
TORSDOF 19
