REMARK SMILES C[C@H]1[C@@H]([NH2+]C[C@H]2CC[C@@H](C(=O)OCCOC(=O)c3ccc(-c4c5nc(c(-c6cc(S(=O)(=O)[O-])ccc6F)c6ccc([nH]6)c(-c6cc(S(=O)(=O)[O-])ccc6F)c6nc(c(-c7cc(S(=O)(=O)[O-])ccc7F)c7ccc4[nH]7)C=C6)C=C5)cc3)CC2)CCC[C@@H]1C
REMARK SMILES IDX 13 1 12 2 10 3 11 4 9 5 6 6 7 7 82 8 8 9 81 10 5 11 4 12
REMARK SMILES IDX 3 15 1 16 2 17 86 18 83 19 85 20 87 21 84 22 14 23 15 24
REMARK SMILES IDX 16 25 17 26 18 27 19 28 80 29 20 30 79 31 21 32 22 33 23 34
REMARK SMILES IDX 73 35 24 36 78 37 72 38 74 39 25 40 77 41 71 42 70 43 26 45
REMARK SMILES IDX 58 46 38 47 57 48 39 49 42 50 56 51 75 52 40 53 41 54 55 56
REMARK SMILES IDX 76 57 43 58 27 59 28 60 36 61 29 62 35 63 37 64 34 65 30 66
REMARK SMILES IDX 31 67 32 68 33 69 59 70 60 71 68 72 61 73 67 74 69 75 66 76
REMARK SMILES IDX 62 77 63 78 64 79 65 80 44 81 45 82 53 83 46 84 52 85 54 86
REMARK SMILES IDX 51 87 47 88 48 89 49 90 50 91
REMARK H PARENT 4 13 4 14 74 44 42 55
REMARK Flexibility Score: inf
ROOT
ATOM      1  C   UNL     1      -6.104  -3.672   0.471  1.00  0.00     0.274 C 
ENDROOT
BRANCH   1   2
ATOM      2  O   UNL     1      -4.934  -4.110   1.187  1.00  0.00    -0.462 OA
BRANCH   2   3
ATOM      3  C   UNL     1      -4.911  -3.844   2.519  1.00  0.00     0.309 C 
ATOM      4  O   UNL     1      -5.764  -3.192   3.111  1.00  0.00    -0.252 OA
BRANCH   3   5
ATOM      5  C   UNL     1      -3.683  -4.406   3.223  1.00  0.00     0.099 C 
ATOM      6  C   UNL     1      -0.721  -4.705   3.422  1.00  0.00     0.044 C 
ATOM      7  C   UNL     1      -1.519  -3.752   4.328  1.00  0.00     0.010 C 
ATOM      8  C   UNL     1      -1.619  -5.917   3.099  1.00  0.00     0.010 C 
ATOM      9  C   UNL     1      -2.789  -3.247   3.654  1.00  0.00     0.016 C 
ATOM     10  C   UNL     1      -2.947  -5.508   2.445  1.00  0.00     0.016 C 
BRANCH   6  11
ATOM     11  C   UNL     1      -0.186  -4.077   2.106  1.00  0.00     0.264 C 
BRANCH  11  12
ATOM     12  N   UNL     1       0.261  -2.699   2.264  1.00  0.00    -0.343 N 
ATOM     13  H   UNL     1      -0.496  -2.177   2.705  1.00  0.00     0.346 HD
ATOM     14  H   UNL     1       1.117  -2.757   2.815  1.00  0.00     0.346 HD
BRANCH  12  15
ATOM     15  C   UNL     1       0.642  -1.979   1.038  1.00  0.00     0.185 C 
ATOM     16  C   UNL     1       1.446  -0.047   2.517  1.00  0.00     0.014 C 
ATOM     17  C   UNL     1       0.591  -0.440   1.304  1.00  0.00     0.047 C 
ATOM     18  C   UNL     1      -0.875   0.079   1.418  1.00  0.00    -0.006 C 
ATOM     19  C   UNL     1      -0.182  -2.279  -0.233  1.00  0.00     0.065 C 
ATOM     20  C   UNL     1      -1.688  -0.298   0.169  1.00  0.00     0.004 C 
ATOM     21  C   UNL     1      -0.948   1.594   1.633  1.00  0.00     0.008 C 
ATOM     22  C   UNL     1      -1.624  -1.787  -0.149  1.00  0.00     0.006 C 
ENDBRANCH  12  15
ENDBRANCH  11  12
ENDBRANCH   6  11
ENDBRANCH   3   5
ENDBRANCH   2   3
ENDBRANCH   1   2
BRANCH   1  23
ATOM     23  C   UNL     1      -7.052  -4.840   0.196  1.00  0.00     0.275 C 
BRANCH  23  24
ATOM     24  O   UNL     1      -7.524  -5.425   1.423  1.00  0.00    -0.458 OA
BRANCH  24  25
ATOM     25  C   UNL     1      -6.904  -6.573   1.785  1.00  0.00     0.338 C 
ATOM     26  O   UNL     1      -6.039  -7.173   1.172  1.00  0.00    -0.246 OA
BRANCH  25  27
ATOM     27  C   UNL     1      -7.353  -6.965   3.128  1.00  0.00     0.060 A 
ATOM     28  C   UNL     1      -6.578  -6.578   4.219  1.00  0.00     0.016 A 
ATOM     29  C   UNL     1      -8.456  -7.797   3.306  1.00  0.00     0.016 A 
ATOM     30  C   UNL     1      -6.873  -7.035   5.497  1.00  0.00     0.010 A 
ATOM     31  C   UNL     1      -8.775  -8.233   4.597  1.00  0.00     0.010 A 
ATOM     32  C   UNL     1      -7.974  -7.869   5.697  1.00  0.00    -0.014 A 
BRANCH  32  33
ATOM     33  C   UNL     1      -8.245  -8.417   7.048  1.00  0.00     0.031 A 
ATOM     34  C   UNL     1      -8.059  -9.885   7.300  1.00  0.00     0.074 A 
ATOM     35  C   UNL     1      -8.648  -7.601   8.040  1.00  0.00     0.049 A 
ATOM     36  N   UNL     1      -8.398 -10.599   8.341  1.00  0.00    -0.248 NA
ATOM     37  C   UNL     1      -7.417 -10.650   6.222  1.00  0.00     0.031 C 
ATOM     38  C   UNL     1      -8.805  -6.150   7.928  1.00  0.00     0.029 A 
ATOM     39  N   UNL     1      -9.015  -7.879   9.332  1.00  0.00    -0.354 N 
ATOM     40  C   UNL     1      -8.049 -11.909   8.030  1.00  0.00     0.074 A 
ATOM     41  C   UNL     1      -7.488 -11.886   6.694  1.00  0.00     0.031 C 
ATOM     42  C   UNL     1      -9.254  -5.668   9.097  1.00  0.00     0.029 A 
ATOM     43  C   UNL     1      -9.479  -6.780  10.015  1.00  0.00     0.049 A 
ATOM     44  H   UNL     1      -8.952  -8.777   9.731  1.00  0.00     0.167 HD
ATOM     45  C   UNL     1      -8.191 -13.023   8.791  1.00  0.00     0.034 A 
ATOM     46  C   UNL     1     -10.072  -6.686  11.221  1.00  0.00     0.034 A 
ATOM     47  C   UNL     1      -8.740 -13.012  10.126  1.00  0.00     0.049 A 
ATOM     48  C   UNL     1     -10.275  -7.939  12.029  1.00  0.00     0.074 A 
ATOM     49  C   UNL     1      -8.908 -14.070  11.001  1.00  0.00     0.029 A 
ATOM     50  N   UNL     1      -9.219 -11.881  10.778  1.00  0.00    -0.354 N 
ATOM     51  N   UNL     1      -9.972  -9.179  11.718  1.00  0.00    -0.248 NA
ATOM     52  C   UNL     1     -10.902  -7.783  13.347  1.00  0.00     0.031 C 
ATOM     53  C   UNL     1      -9.544 -13.591  12.153  1.00  0.00     0.029 A 
ATOM     54  C   UNL     1      -9.712 -12.221  12.029  1.00  0.00     0.049 A 
ATOM     55  H   UNL     1      -9.210 -10.970  10.405  1.00  0.00     0.167 HD
ATOM     56  C   UNL     1     -10.364  -9.950  12.807  1.00  0.00     0.074 A 
ATOM     57  C   UNL     1     -10.910  -9.033  13.788  1.00  0.00     0.031 C 
ATOM     58  C   UNL     1     -10.276 -11.294  12.983  1.00  0.00     0.034 A 
BRANCH  45  59
ATOM     59  C   UNL     1      -7.814 -14.341   8.156  1.00  0.00     0.023 A 
ATOM     60  C   UNL     1      -6.498 -14.626   7.751  1.00  0.00     0.031 A 
ATOM     61  C   UNL     1      -8.807 -15.300   7.886  1.00  0.00     0.131 A 
ATOM     62  C   UNL     1      -6.229 -15.794   7.019  1.00  0.00     0.055 A 
ATOM     63  C   UNL     1      -8.516 -16.499   7.232  1.00  0.00     0.041 A 
ATOM     64  F   UNL     1     -10.085 -15.076   8.229  1.00  0.00    -0.206 F 
ATOM     65  C   UNL     1      -7.225 -16.742   6.776  1.00  0.00     0.022 A 
BRANCH  62  66
ATOM     66  S   UNL     1      -4.601 -15.970   6.237  1.00  0.00     0.124 S 
ATOM     67  O   UNL     1      -4.518 -14.744   5.445  1.00  0.00    -0.237 OA
ATOM     68  O   UNL     1      -3.707 -16.050   7.386  1.00  0.00    -0.237 OA
ATOM     69  O   UNL     1      -4.727 -17.198   5.455  1.00  0.00    -0.744 OA
ENDBRANCH  62  66
ENDBRANCH  45  59
BRANCH  46  70
ATOM     70  C   UNL     1     -10.590  -5.371  11.688  1.00  0.00     0.023 A 
ATOM     71  C   UNL     1     -10.016  -4.701  12.777  1.00  0.00     0.031 A 
ATOM     72  C   UNL     1     -11.677  -4.762  11.032  1.00  0.00     0.131 A 
ATOM     73  C   UNL     1     -10.543  -3.467  13.192  1.00  0.00     0.055 A 
ATOM     74  C   UNL     1     -12.169  -3.517  11.421  1.00  0.00     0.041 A 
ATOM     75  F   UNL     1     -12.257  -5.363   9.980  1.00  0.00    -0.206 F 
ATOM     76  C   UNL     1     -11.606  -2.865  12.512  1.00  0.00     0.022 A 
BRANCH  73  77
ATOM     77  S   UNL     1      -9.843  -2.670  14.662  1.00  0.00     0.124 S 
ATOM     78  O   UNL     1     -10.121  -3.658  15.698  1.00  0.00    -0.237 OA
ATOM     79  O   UNL     1      -8.442  -2.513  14.285  1.00  0.00    -0.237 OA
ATOM     80  O   UNL     1     -10.599  -1.424  14.768  1.00  0.00    -0.744 OA
ENDBRANCH  73  77
ENDBRANCH  46  70
BRANCH  58  81
ATOM     81  C   UNL     1     -10.758 -11.838  14.303  1.00  0.00     0.023 A 
ATOM     82  C   UNL     1     -12.123 -11.858  14.639  1.00  0.00     0.031 A 
ATOM     83  C   UNL     1      -9.835 -12.335  15.240  1.00  0.00     0.131 A 
ATOM     84  C   UNL     1     -12.523 -12.327  15.900  1.00  0.00     0.055 A 
ATOM     85  C   UNL     1     -10.243 -12.846  16.472  1.00  0.00     0.041 A 
ATOM     86  F   UNL     1      -8.520 -12.335  14.968  1.00  0.00    -0.206 F 
ATOM     87  C   UNL     1     -11.593 -12.834  16.812  1.00  0.00     0.022 A 
BRANCH  84  88
ATOM     88  S   UNL     1     -14.272 -12.200  16.364  1.00  0.00     0.124 S 
ATOM     89  O   UNL     1     -14.499 -10.761  16.298  1.00  0.00    -0.237 OA
ATOM     90  O   UNL     1     -14.928 -12.999  15.334  1.00  0.00    -0.237 OA
ATOM     91  O   UNL     1     -14.312 -12.773  17.709  1.00  0.00    -0.744 OA
ENDBRANCH  84  88
ENDBRANCH  58  81
ENDBRANCH  32  33
ENDBRANCH  25  27
ENDBRANCH  24  25
ENDBRANCH  23  24
ENDBRANCH   1  23
TORSDOF 17
