REMARK SMILES O=C(OCCOC(=O)[C@@H]1CC[C@]2(CC[NH2+]C2)C1)c1ccc(-c2c3nc(c(-c4cc(S(=O)(=O)[O-])ccc4F)c4ccc([nH]4)c(-c4cc(S(=O)(=O)[O-])ccc4F)c4nc(c(-c5cc(S(=O)(=O)[O-])ccc5F)c5ccc2[nH]5)C=C4)C=C3)cc1
REMARK SMILES IDX 3 1 2 2 1 3 18 4 19 5 80 6 20 7 79 8 21 9 22 10 23 11 73 12
REMARK SMILES IDX 24 13 78 14 72 15 74 16 25 17 77 18 71 19 70 20 26 22 58 23
REMARK SMILES IDX 38 24 57 25 39 26 42 27 56 28 75 29 40 30 41 31 55 33 76 34
REMARK SMILES IDX 43 35 27 36 28 37 36 38 29 39 35 40 37 41 34 42 30 43 31 44
REMARK SMILES IDX 32 45 33 46 59 47 60 48 68 49 61 50 67 51 69 52 66 53 62 54
REMARK SMILES IDX 63 55 64 56 65 57 44 58 45 59 53 60 46 61 52 62 54 63 51 64
REMARK SMILES IDX 47 65 48 66 49 67 50 68 4 69 5 70 6 71 7 72 8 73 9 74 10 75
REMARK SMILES IDX 17 76 11 77 12 78 13 79 16 80 14 81 15 82
REMARK H PARENT 74 21 42 32 15 83 15 84
REMARK Flexibility Score: inf
ROOT
ATOM      1  O   UNL     1       2.956   0.851   1.072  1.00  0.00    -0.458 OA
ENDROOT
BRANCH   1   2
ATOM      2  C   UNL     1       2.620   1.076  -0.221  1.00  0.00     0.338 C 
ATOM      3  O   UNL     1       1.436   1.307  -0.468  1.00  0.00    -0.246 OA
BRANCH   2   4
ATOM      4  C   UNL     1       3.571   0.945  -1.387  1.00  0.00     0.060 A 
ATOM      5  C   UNL     1       4.913   0.529  -1.332  1.00  0.00     0.016 A 
ATOM      6  C   UNL     1       2.968   1.000  -2.656  1.00  0.00     0.016 A 
ATOM      7  C   UNL     1       5.540  -0.076  -2.416  1.00  0.00     0.010 A 
ATOM      8  C   UNL     1       3.560   0.315  -3.720  1.00  0.00     0.010 A 
ATOM      9  C   UNL     1       4.773  -0.394  -3.514  1.00  0.00    -0.014 A 
BRANCH   9  10
ATOM     10  C   UNL     1       5.264  -1.360  -4.519  1.00  0.00     0.031 A 
ATOM     11  C   UNL     1       5.874  -0.500  -5.707  1.00  0.00     0.074 A 
ATOM     12  C   UNL     1       5.174  -2.770  -4.509  1.00  0.00     0.049 A 
ATOM     13  N   UNL     1       6.473  -0.810  -6.833  1.00  0.00    -0.248 NA
ATOM     14  C   UNL     1       5.842   0.979  -5.489  1.00  0.00     0.031 C 
ATOM     15  C   UNL     1       4.870  -4.685  -3.606  1.00  0.00     0.029 A 
ATOM     16  N   UNL     1       5.085  -3.334  -6.286  1.00  0.00    -0.354 N 
ATOM     17  C   UNL     1       6.888   0.414  -7.404  1.00  0.00     0.074 A 
ATOM     18  C   UNL     1       6.425   1.473  -6.557  1.00  0.00     0.031 C 
ATOM     19  C   UNL     1       4.700  -5.810  -4.720  1.00  0.00     0.029 A 
ATOM     20  C   UNL     1       4.874  -5.076  -6.405  1.00  0.00     0.049 A 
ATOM     21  H   UNL     1       5.149  -2.731  -7.062  1.00  0.00     0.167 HD
ATOM     22  C   UNL     1       7.618   0.688  -8.513  1.00  0.00     0.034 A 
ATOM     23  C   UNL     1       5.246  -5.966  -7.353  1.00  0.00     0.034 A 
ATOM     24  C   UNL     1       8.039  -0.313  -9.443  1.00  0.00     0.049 A 
ATOM     25  C   UNL     1       6.106  -5.559  -8.503  1.00  0.00     0.074 A 
ATOM     26  C   UNL     1       8.785  -0.143 -10.593  1.00  0.00     0.029 A 
ATOM     27  N   UNL     1       7.699  -1.652  -9.362  1.00  0.00    -0.354 N 
ATOM     28  N   UNL     1       6.599  -4.382  -8.812  1.00  0.00    -0.248 NA
ATOM     29  C   UNL     1       6.532  -6.651  -9.389  1.00  0.00     0.031 C 
ATOM     30  C   UNL     1       8.792  -1.357 -11.275  1.00  0.00     0.029 A 
ATOM     31  C   UNL     1       8.166  -2.307 -10.484  1.00  0.00     0.049 A 
ATOM     32  H   UNL     1       7.203  -2.071  -8.623  1.00  0.00     0.167 HD
ATOM     33  C   UNL     1       7.379  -4.599  -9.945  1.00  0.00     0.074 A 
ATOM     34  C   UNL     1       7.355  -6.022 -10.209  1.00  0.00     0.031 C 
ATOM     35  C   UNL     1       8.044  -3.715 -10.728  1.00  0.00     0.034 A 
BRANCH  22  36
ATOM     36  C   UNL     1       7.944   2.142  -8.829  1.00  0.00     0.023 A 
ATOM     37  C   UNL     1       8.744   2.934  -7.982  1.00  0.00     0.031 A 
ATOM     38  C   UNL     1       7.421   2.750  -9.985  1.00  0.00     0.131 A 
ATOM     39  C   UNL     1       8.930   4.298  -8.264  1.00  0.00     0.055 A 
ATOM     40  C   UNL     1       7.695   4.080 -10.312  1.00  0.00     0.041 A 
ATOM     41  F   UNL     1       6.619   2.063 -10.813  1.00  0.00    -0.206 F 
ATOM     42  C   UNL     1       8.442   4.867  -9.443  1.00  0.00     0.022 A 
BRANCH  39  43
ATOM     43  S   UNL     1       9.652   5.363  -6.983  1.00  0.00     0.124 S 
ATOM     44  O   UNL     1       8.726   5.155  -5.872  1.00  0.00    -0.237 OA
ATOM     45  O   UNL     1      10.986   4.799  -6.813  1.00  0.00    -0.237 OA
ATOM     46  O   UNL     1       9.608   6.697  -7.578  1.00  0.00    -0.744 OA
ENDBRANCH  39  43
ENDBRANCH  22  36
BRANCH  23  47
ATOM     47  C   UNL     1       4.939  -7.402  -7.055  1.00  0.00     0.023 A 
ATOM     48  C   UNL     1       5.936  -8.380  -6.888  1.00  0.00     0.031 A 
ATOM     49  C   UNL     1       3.600  -7.788  -6.837  1.00  0.00     0.131 A 
ATOM     50  C   UNL     1       5.574  -9.703  -6.586  1.00  0.00     0.055 A 
ATOM     51  C   UNL     1       3.258  -9.077  -6.431  1.00  0.00     0.041 A 
ATOM     52  F   UNL     1       2.610  -6.886  -6.941  1.00  0.00    -0.206 F 
ATOM     53  C   UNL     1       4.246 -10.049  -6.323  1.00  0.00     0.022 A 
BRANCH  50  54
ATOM     54  S   UNL     1       6.828 -11.011  -6.710  1.00  0.00     0.124 S 
ATOM     55  O   UNL     1       7.423 -10.732  -8.012  1.00  0.00    -0.237 OA
ATOM     56  O   UNL     1       7.669 -10.748  -5.547  1.00  0.00    -0.237 OA
ATOM     57  O   UNL     1       6.038 -12.240  -6.640  1.00  0.00    -0.744 OA
ENDBRANCH  50  54
ENDBRANCH  23  47
BRANCH  35  58
ATOM     58  C   UNL     1       8.698  -4.259 -11.966  1.00  0.00     0.023 A 
ATOM     59  C   UNL     1       7.924  -4.842 -12.982  1.00  0.00     0.031 A 
ATOM     60  C   UNL     1      10.087  -4.170 -12.147  1.00  0.00     0.131 A 
ATOM     61  C   UNL     1       8.554  -5.383 -14.105  1.00  0.00     0.055 A 
ATOM     62  C   UNL     1      10.697  -4.621 -13.315  1.00  0.00     0.041 A 
ATOM     63  F   UNL     1      10.869  -3.625 -11.200  1.00  0.00    -0.206 F 
ATOM     64  C   UNL     1       9.931  -5.247 -14.295  1.00  0.00     0.022 A 
BRANCH  61  65
ATOM     65  S   UNL     1       7.563  -6.389 -15.237  1.00  0.00     0.124 S 
ATOM     66  O   UNL     1       7.063  -7.434 -14.350  1.00  0.00    -0.237 OA
ATOM     67  O   UNL     1       6.571  -5.435 -15.721  1.00  0.00    -0.237 OA
ATOM     68  O   UNL     1       8.535  -6.834 -16.234  1.00  0.00    -0.744 OA
ENDBRANCH  61  65
ENDBRANCH  35  58
ENDBRANCH   9  10
ENDBRANCH   2   4
ENDBRANCH   1   2
BRANCH   1  69
ATOM     69  C   UNL     1       4.165   0.271   1.578  1.00  0.00     0.275 C 
BRANCH  69  70
ATOM     70  C   UNL     1       4.259  -1.254   1.367  1.00  0.00     0.274 C 
BRANCH  70  71
ATOM     71  O   UNL     1       3.700  -1.704   0.106  1.00  0.00    -0.462 OA
BRANCH  71  72
ATOM     72  C   UNL     1       2.431  -2.204   0.099  1.00  0.00     0.309 C 
ATOM     73  O   UNL     1       1.786  -2.404   1.123  1.00  0.00    -0.252 OA
BRANCH  72  74
ATOM     74  C   UNL     1       1.825  -2.405  -1.315  1.00  0.00     0.100 C 
ATOM     75  C   UNL     1       1.383  -3.811  -1.607  1.00  0.00     0.016 C 
ATOM     76  C   UNL     1       2.682  -2.151  -2.548  1.00  0.00     0.028 C 
ATOM     77  C   UNL     1       2.643  -4.476  -2.174  1.00  0.00     0.014 C 
ATOM     78  C   UNL     1       3.517  -3.354  -2.926  1.00  0.00     0.026 C 
ATOM     79  C   UNL     1       5.250  -3.187  -2.116  1.00  0.00     0.074 C 
ATOM     80  C   UNL     1       3.862  -3.902  -4.825  1.00  0.00     0.267 C 
ATOM     81  C   UNL     1       6.681  -3.693  -3.243  1.00  0.00     0.261 C 
ATOM     82  N   UNL     1       6.027  -4.288  -4.877  1.00  0.00    -0.346 N 
ATOM     83  H   UNL     1       6.209  -5.285  -4.990  1.00  0.00     0.346 HD
ATOM     84  H   UNL     1       6.477  -3.812  -5.659  1.00  0.00     0.346 HD
ENDBRANCH  72  74
ENDBRANCH  71  72
ENDBRANCH  70  71
ENDBRANCH  69  70
ENDBRANCH   1  69
TORSDOF 14
