REMARK SMILES CC[C@@H]1SC[C@H](C(=O)OCCOC(=O)c2ccc(-c3c4nc(c(-c5cc(S(=O)(=O)[O-])ccc5F)c5ccc([nH]5)c(-c5cc(S(=O)(=O)[O-])ccc5F)c5nc(c(-c6cc(S(=O)(=O)[O-])ccc6F)c6ccc3[nH]6)C=C5)C=C4)cc2)N1C(=O)[C@](C)([NH3+])C(F)(F)F
REMARK SMILES IDX 10 1 9 2 7 3 8 4 6 5 3 6 4 7 78 8 5 9 2 10 1 11 79 12 80 13
REMARK SMILES IDX 81 14 82 15 83 16 84 20 85 21 86 22 87 23 11 24 12 25 13 26
REMARK SMILES IDX 14 27 15 28 16 29 77 30 17 31 76 32 18 33 19 34 20 35 70 36
REMARK SMILES IDX 21 37 75 38 69 39 71 40 22 41 74 42 68 43 67 44 23 46 55 47
REMARK SMILES IDX 35 48 54 49 36 50 39 51 53 52 72 53 37 54 38 55 52 57 73 58
REMARK SMILES IDX 40 59 24 60 25 61 33 62 26 63 32 64 34 65 31 66 27 67 28 68
REMARK SMILES IDX 29 69 30 70 56 71 57 72 65 73 58 74 64 75 66 76 63 77 59 78
REMARK SMILES IDX 60 79 61 80 62 81 41 82 42 83 50 84 43 85 49 86 51 87 48 88
REMARK SMILES IDX 44 89 45 90 46 91 47 92
REMARK H PARENT 83 17 83 18 83 19 71 45 39 56
REMARK Flexibility Score: inf
ROOT
ATOM      1  C   UNL     1      -4.489  -4.871   1.976  1.00  0.00     0.274 C 
ENDROOT
BRANCH   1   2
ATOM      2  O   UNL     1      -3.802  -3.612   1.813  1.00  0.00    -0.461 OA
BRANCH   2   3
ATOM      3  C   UNL     1      -2.482  -3.720   1.495  1.00  0.00     0.329 C 
ATOM      4  O   UNL     1      -1.907  -4.789   1.317  1.00  0.00    -0.250 OA
BRANCH   3   5
ATOM      5  C   UNL     1      -1.785  -2.357   1.312  1.00  0.00     0.206 C 
ATOM      6  C   UNL     1      -1.776  -0.079   2.265  1.00  0.00     0.144 C 
ATOM      7  S   UNL     1      -2.130   0.145   0.499  1.00  0.00    -0.134 SA
ATOM      8  N   UNL     1      -1.618  -1.512   2.528  1.00  0.00    -0.310 N 
ATOM      9  C   UNL     1      -2.487  -1.588   0.198  1.00  0.00     0.109 C 
BRANCH   6  10
ATOM     10  C   UNL     1      -2.823   0.673   3.097  1.00  0.00     0.033 C 
ATOM     11  C   UNL     1      -4.228   0.093   3.106  1.00  0.00     0.007 C 
ENDBRANCH   6  10
BRANCH   8  12
ATOM     12  C   UNL     1      -0.896  -2.115   3.552  1.00  0.00     0.294 C 
ATOM     13  O   UNL     1      -0.671  -3.334   3.466  1.00  0.00    -0.267 OA
BRANCH  12  14
ATOM     14  C   UNL     1      -0.345  -1.429   4.835  1.00  0.00     0.267 C 
ATOM     15  C   UNL     1       0.215  -0.017   4.701  1.00  0.00     0.100 C 
BRANCH  14  16
ATOM     16  N   UNL     1       0.881  -2.243   5.245  1.00  0.00    -0.337 N 
ATOM     17  H   UNL     1       1.290  -1.839   6.088  1.00  0.00     0.345 HD
ATOM     18  H   UNL     1       1.568  -2.225   4.492  1.00  0.00     0.345 HD
ATOM     19  H   UNL     1       0.603  -3.207   5.430  1.00  0.00     0.345 HD
ENDBRANCH  14  16
BRANCH  14  20
ATOM     20  C   UNL     1      -1.480  -1.534   5.881  1.00  0.00     0.453 C 
ATOM     21  F   UNL     1      -1.130  -0.949   7.053  1.00  0.00    -0.164 F 
ATOM     22  F   UNL     1      -2.619  -0.932   5.478  1.00  0.00    -0.164 F 
ATOM     23  F   UNL     1      -1.798  -2.820   6.162  1.00  0.00    -0.164 F 
ENDBRANCH  14  20
ENDBRANCH  12  14
ENDBRANCH   8  12
ENDBRANCH   3   5
ENDBRANCH   2   3
ENDBRANCH   1   2
BRANCH   1  24
ATOM     24  C   UNL     1      -5.075  -5.437   0.671  1.00  0.00     0.275 C 
BRANCH  24  25
ATOM     25  O   UNL     1      -4.072  -5.906  -0.251  1.00  0.00    -0.458 OA
BRANCH  25  26
ATOM     26  C   UNL     1      -3.681  -4.998  -1.178  1.00  0.00     0.338 C 
ATOM     27  O   UNL     1      -4.122  -3.868  -1.314  1.00  0.00    -0.246 OA
BRANCH  26  28
ATOM     28  C   UNL     1      -2.500  -5.476  -1.919  1.00  0.00     0.060 A 
ATOM     29  C   UNL     1      -1.323  -4.732  -1.795  1.00  0.00     0.016 A 
ATOM     30  C   UNL     1      -2.557  -6.556  -2.801  1.00  0.00     0.016 A 
ATOM     31  C   UNL     1      -0.204  -5.041  -2.555  1.00  0.00     0.010 A 
ATOM     32  C   UNL     1      -1.425  -6.872  -3.566  1.00  0.00     0.010 A 
ATOM     33  C   UNL     1      -0.250  -6.105  -3.458  1.00  0.00    -0.014 A 
BRANCH  33  34
ATOM     34  C   UNL     1       0.921  -6.351  -4.332  1.00  0.00     0.031 A 
ATOM     35  C   UNL     1       0.863  -5.953  -5.778  1.00  0.00     0.074 A 
ATOM     36  C   UNL     1       2.042  -6.888  -3.817  1.00  0.00     0.049 A 
ATOM     37  N   UNL     1       1.746  -6.134  -6.725  1.00  0.00    -0.248 NA
ATOM     38  C   UNL     1      -0.359  -5.262  -6.213  1.00  0.00     0.031 C 
ATOM     39  C   UNL     1       2.226  -7.265  -2.415  1.00  0.00     0.029 A 
ATOM     40  N   UNL     1       3.231  -7.217  -4.414  1.00  0.00    -0.354 N 
ATOM     41  C   UNL     1       1.179  -5.603  -7.878  1.00  0.00     0.074 A 
ATOM     42  C   UNL     1      -0.135  -5.115  -7.510  1.00  0.00     0.031 C 
ATOM     43  C   UNL     1       3.451  -7.794  -2.264  1.00  0.00     0.029 A 
ATOM     44  C   UNL     1       4.117  -7.834  -3.563  1.00  0.00     0.049 A 
ATOM     45  H   UNL     1       3.431  -7.030  -5.359  1.00  0.00     0.167 HD
ATOM     46  C   UNL     1       1.708  -5.533  -9.125  1.00  0.00     0.034 A 
ATOM     47  C   UNL     1       5.311  -8.405  -3.812  1.00  0.00     0.034 A 
ATOM     48  C   UNL     1       3.022  -6.026  -9.466  1.00  0.00     0.049 A 
ATOM     49  C   UNL     1       5.857  -8.372  -5.215  1.00  0.00     0.074 A 
ATOM     50  C   UNL     1       3.673  -5.977 -10.687  1.00  0.00     0.029 A 
ATOM     51  N   UNL     1       3.881  -6.676  -8.587  1.00  0.00    -0.354 N 
ATOM     52  N   UNL     1       5.316  -7.866  -6.299  1.00  0.00    -0.248 NA
ATOM     53  C   UNL     1       7.176  -8.981  -5.425  1.00  0.00     0.031 C 
ATOM     54  C   UNL     1       4.892  -6.656 -10.562  1.00  0.00     0.029 A 
ATOM     55  C   UNL     1       5.037  -7.066  -9.246  1.00  0.00     0.049 A 
ATOM     56  H   UNL     1       3.695  -6.835  -7.633  1.00  0.00     0.167 HD
ATOM     57  C   UNL     1       6.235  -8.085  -7.320  1.00  0.00     0.074 A 
ATOM     58  C   UNL     1       7.372  -8.753  -6.717  1.00  0.00     0.031 C 
ATOM     59  C   UNL     1       6.150  -7.758  -8.636  1.00  0.00     0.034 A 
BRANCH  46  60
ATOM     60  C   UNL     1       0.827  -4.966 -10.214  1.00  0.00     0.023 A 
ATOM     61  C   UNL     1       0.374  -3.635 -10.190  1.00  0.00     0.031 A 
ATOM     62  C   UNL     1       0.381  -5.794 -11.259  1.00  0.00     0.131 A 
ATOM     63  C   UNL     1      -0.566  -3.199 -11.137  1.00  0.00     0.055 A 
ATOM     64  C   UNL     1      -0.490  -5.329 -12.247  1.00  0.00     0.041 A 
ATOM     65  F   UNL     1       0.761  -7.079 -11.324  1.00  0.00    -0.206 F 
ATOM     66  C   UNL     1      -0.984  -4.030 -12.179  1.00  0.00     0.022 A 
BRANCH  63  67
ATOM     67  S   UNL     1      -1.365  -1.588 -10.888  1.00  0.00     0.124 S 
ATOM     68  O   UNL     1      -1.910  -1.733  -9.540  1.00  0.00    -0.237 OA
ATOM     69  O   UNL     1      -0.250  -0.659 -11.030  1.00  0.00    -0.237 OA
ATOM     70  O   UNL     1      -2.365  -1.533 -11.952  1.00  0.00    -0.744 OA
ENDBRANCH  63  67
ENDBRANCH  46  60
BRANCH  47  71
ATOM     71  C   UNL     1       6.032  -9.116  -2.720  1.00  0.00     0.023 A 
ATOM     72  C   UNL     1       7.243  -8.633  -2.204  1.00  0.00     0.031 A 
ATOM     73  C   UNL     1       5.507 -10.305  -2.180  1.00  0.00     0.131 A 
ATOM     74  C   UNL     1       7.903  -9.349  -1.192  1.00  0.00     0.055 A 
ATOM     75  C   UNL     1       6.145 -10.990  -1.146  1.00  0.00     0.041 A 
ATOM     76  F   UNL     1       4.348 -10.805  -2.639  1.00  0.00    -0.206 F 
ATOM     77  C   UNL     1       7.355 -10.516  -0.651  1.00  0.00     0.022 A 
BRANCH  74  78
ATOM     78  S   UNL     1       9.516  -8.755  -0.615  1.00  0.00     0.124 S 
ATOM     79  O   UNL     1      10.317  -8.837  -1.831  1.00  0.00    -0.237 OA
ATOM     80  O   UNL     1       9.196  -7.410  -0.148  1.00  0.00    -0.237 OA
ATOM     81  O   UNL     1       9.874  -9.706   0.435  1.00  0.00    -0.744 OA
ENDBRANCH  74  78
ENDBRANCH  47  71
BRANCH  59  82
ATOM     82  C   UNL     1       7.339  -8.101  -9.499  1.00  0.00     0.023 A 
ATOM     83  C   UNL     1       7.677  -9.433  -9.796  1.00  0.00     0.031 A 
ATOM     84  C   UNL     1       8.152  -7.079 -10.021  1.00  0.00     0.131 A 
ATOM     85  C   UNL     1       8.828  -9.709 -10.551  1.00  0.00     0.055 A 
ATOM     86  C   UNL     1       9.264  -7.358 -10.816  1.00  0.00     0.041 A 
ATOM     87  F   UNL     1       7.876  -5.790  -9.765  1.00  0.00    -0.206 F 
ATOM     88  C   UNL     1       9.614  -8.680 -11.075  1.00  0.00     0.022 A 
BRANCH  85  89
ATOM     89  S   UNL     1       9.334 -11.438 -10.769  1.00  0.00     0.124 S 
ATOM     90  O   UNL     1       9.514 -11.878  -9.389  1.00  0.00    -0.237 OA
ATOM     91  O   UNL     1       8.195 -12.010 -11.479  1.00  0.00    -0.237 OA
ATOM     92  O   UNL     1      10.565 -11.338 -11.552  1.00  0.00    -0.744 OA
ENDBRANCH  85  89
ENDBRANCH  59  82
ENDBRANCH  33  34
ENDBRANCH  26  28
ENDBRANCH  25  26
ENDBRANCH  24  25
ENDBRANCH   1  24
TORSDOF 19
