REMARK SMILES C[C@H](C(=O)OCCOC(=O)c1ccc(-c2c3nc(c(-c4cc(S(=O)(=O)[O-])ccc4F)c4ccc([nH]4)c(-c4cc(S(=O)(=O)[O-])ccc4F)c4nc(c(-c5cc(S(=O)(=O)[O-])ccc5F)c5ccc2[nH]5)C=C4)C=C3)cc1)c1ccc2c(c1)[nH]c1ccc(Cl)cc12
REMARK SMILES IDX 7 1 6 2 5 3 3 4 4 5 2 6 1 7 74 8 75 9 79 10 76 11 78 12
REMARK SMILES IDX 77 13 80 14 87 15 81 16 86 18 82 19 84 20 83 21 85 22 8 23
REMARK SMILES IDX 9 24 10 25 11 26 12 27 73 28 13 29 72 30 14 31 15 32 16 33
REMARK SMILES IDX 66 34 17 35 71 36 65 37 67 38 18 39 70 40 64 41 63 42 19 44
REMARK SMILES IDX 51 45 31 46 50 47 32 48 35 49 49 50 68 51 33 52 34 53 48 55
REMARK SMILES IDX 69 56 36 57 20 58 21 59 29 60 22 61 28 62 30 63 27 64 23 65
REMARK SMILES IDX 24 66 25 67 26 68 52 69 53 70 61 71 54 72 60 73 62 74 59 75
REMARK SMILES IDX 55 76 56 77 57 78 58 79 37 80 38 81 46 82 39 83 45 84 47 85
REMARK SMILES IDX 44 86 40 87 41 88 42 89 43 90
REMARK H PARENT 80 17 67 43 35 54
REMARK Flexibility Score: inf
ROOT
ATOM      1  C   UNL     1       0.678  -1.238  -2.477  1.00  0.00     0.275 C 
ENDROOT
BRANCH   1   2
ATOM      2  C   UNL     1       1.225  -1.764  -1.154  1.00  0.00     0.274 C 
BRANCH   2   3
ATOM      3  O   UNL     1       0.557  -1.123  -0.051  1.00  0.00    -0.462 OA
BRANCH   3   4
ATOM      4  C   UNL     1       1.233  -0.137   0.602  1.00  0.00     0.313 C 
ATOM      5  O   UNL     1       2.389   0.182   0.347  1.00  0.00    -0.252 OA
BRANCH   4   6
ATOM      6  C   UNL     1       0.435   0.457   1.766  1.00  0.00     0.126 C 
ATOM      7  C   UNL     1       0.840   1.910   2.043  1.00  0.00     0.025 C 
BRANCH   6   8
ATOM      8  C   UNL     1      -1.075   0.253   1.668  1.00  0.00    -0.032 A 
ATOM      9  C   UNL     1      -1.953   1.224   1.165  1.00  0.00     0.005 A 
ATOM     10  C   UNL     1      -1.593  -0.985   2.091  1.00  0.00     0.031 A 
ATOM     11  C   UNL     1      -3.340   1.004   1.125  1.00  0.00     0.011 A 
ATOM     12  C   UNL     1      -2.973  -1.190   2.031  1.00  0.00     0.047 A 
ATOM     13  C   UNL     1      -3.864  -0.222   1.578  1.00  0.00     0.007 A 
ATOM     14  N   UNL     1      -3.710  -2.294   2.377  1.00  0.00    -0.355 N 
ATOM     15  C   UNL     1      -5.184  -0.761   1.720  1.00  0.00     0.009 A 
ATOM     16  C   UNL     1      -5.054  -2.052   2.234  1.00  0.00     0.047 A 
ATOM     17  H   UNL     1      -3.326  -3.146   2.687  1.00  0.00     0.167 HD
ATOM     18  C   UNL     1      -6.481  -0.263   1.476  1.00  0.00     0.031 A 
ATOM     19  C   UNL     1      -6.147  -2.875   2.526  1.00  0.00     0.028 A 
ATOM     20  C   UNL     1      -7.583  -1.070   1.775  1.00  0.00     0.041 A 
ATOM     21  C   UNL     1      -7.422  -2.353   2.293  1.00  0.00     0.022 A 
ATOM     22  Cl  UNL     1      -9.175  -0.466   1.510  1.00  0.00    -0.084 Cl
ENDBRANCH   6   8
ENDBRANCH   4   6
ENDBRANCH   3   4
ENDBRANCH   2   3
ENDBRANCH   1   2
BRANCH   1  23
ATOM     23  O   UNL     1       1.063   0.137  -2.627  1.00  0.00    -0.458 OA
BRANCH  23  24
ATOM     24  C   UNL     1       0.051   1.031  -2.693  1.00  0.00     0.338 C 
ATOM     25  O   UNL     1      -1.144   0.804  -2.735  1.00  0.00    -0.246 OA
BRANCH  24  26
ATOM     26  C   UNL     1       0.625   2.383  -2.711  1.00  0.00     0.060 A 
ATOM     27  C   UNL     1       1.270   2.871  -1.575  1.00  0.00     0.016 A 
ATOM     28  C   UNL     1       0.450   3.196  -3.828  1.00  0.00     0.016 A 
ATOM     29  C   UNL     1       1.685   4.198  -1.522  1.00  0.00     0.010 A 
ATOM     30  C   UNL     1       0.941   4.504  -3.804  1.00  0.00     0.010 A 
ATOM     31  C   UNL     1       1.538   5.027  -2.641  1.00  0.00    -0.014 A 
BRANCH  31  32
ATOM     32  C   UNL     1       1.962   6.452  -2.590  1.00  0.00     0.031 A 
ATOM     33  C   UNL     1       0.937   7.539  -2.768  1.00  0.00     0.074 A 
ATOM     34  C   UNL     1       3.256   6.771  -2.390  1.00  0.00     0.049 A 
ATOM     35  N   UNL     1       1.111   8.822  -2.952  1.00  0.00    -0.248 NA
ATOM     36  C   UNL     1      -0.472   7.119  -2.752  1.00  0.00     0.031 C 
ATOM     37  C   UNL     1       4.337   5.813  -2.147  1.00  0.00     0.029 A 
ATOM     38  N   UNL     1       3.884   7.991  -2.363  1.00  0.00    -0.354 N 
ATOM     39  C   UNL     1      -0.162   9.357  -3.125  1.00  0.00     0.074 A 
ATOM     40  C   UNL     1      -1.095   8.253  -3.034  1.00  0.00     0.031 C 
ATOM     41  C   UNL     1       5.488   6.482  -1.979  1.00  0.00     0.029 A 
ATOM     42  C   UNL     1       5.245   7.906  -2.184  1.00  0.00     0.049 A 
ATOM     43  H   UNL     1       3.406   8.846  -2.463  1.00  0.00     0.167 HD
ATOM     44  C   UNL     1      -0.514  10.648  -3.344  1.00  0.00     0.034 A 
ATOM     45  C   UNL     1       6.197   8.859  -2.228  1.00  0.00     0.034 A 
ATOM     46  C   UNL     1       0.431  11.738  -3.399  1.00  0.00     0.049 A 
ATOM     47  C   UNL     1       5.788  10.278  -2.522  1.00  0.00     0.074 A 
ATOM     48  C   UNL     1       0.186  13.085  -3.601  1.00  0.00     0.029 A 
ATOM     49  N   UNL     1       1.805  11.605  -3.243  1.00  0.00    -0.354 N 
ATOM     50  N   UNL     1       4.588  10.763  -2.744  1.00  0.00    -0.248 NA
ATOM     51  C   UNL     1       6.863  11.277  -2.583  1.00  0.00     0.031 C 
ATOM     52  C   UNL     1       1.413  13.758  -3.623  1.00  0.00     0.029 A 
ATOM     53  C   UNL     1       2.421  12.841  -3.368  1.00  0.00     0.049 A 
ATOM     54  H   UNL     1       2.274  10.757  -3.069  1.00  0.00     0.167 HD
ATOM     55  C   UNL     1       4.764  12.127  -2.955  1.00  0.00     0.074 A 
ATOM     56  C   UNL     1       6.183  12.389  -2.815  1.00  0.00     0.031 C 
ATOM     57  C   UNL     1       3.839  13.079  -3.240  1.00  0.00     0.034 A 
BRANCH  44  58
ATOM     58  C   UNL     1      -1.973  10.934  -3.607  1.00  0.00     0.023 A 
ATOM     59  C   UNL     1      -2.961  10.745  -2.626  1.00  0.00     0.031 A 
ATOM     60  C   UNL     1      -2.383  11.373  -4.879  1.00  0.00     0.131 A 
ATOM     61  C   UNL     1      -4.314  10.926  -2.953  1.00  0.00     0.055 A 
ATOM     62  C   UNL     1      -3.724  11.624  -5.176  1.00  0.00     0.041 A 
ATOM     63  F   UNL     1      -1.486  11.551  -5.862  1.00  0.00    -0.206 F 
ATOM     64  C   UNL     1      -4.701  11.387  -4.215  1.00  0.00     0.022 A 
BRANCH  61  65
ATOM     65  S   UNL     1      -5.574  10.423  -1.749  1.00  0.00     0.124 S 
ATOM     66  O   UNL     1      -5.269   9.005  -1.577  1.00  0.00    -0.237 OA
ATOM     67  O   UNL     1      -5.282  11.282  -0.608  1.00  0.00    -0.237 OA
ATOM     68  O   UNL     1      -6.835  10.703  -2.434  1.00  0.00    -0.744 OA
ENDBRANCH  61  65
ENDBRANCH  44  58
BRANCH  45  69
ATOM     69  C   UNL     1       7.634   8.499  -2.059  1.00  0.00     0.023 A 
ATOM     70  C   UNL     1       8.380   8.981  -0.973  1.00  0.00     0.031 A 
ATOM     71  C   UNL     1       8.294   7.695  -3.007  1.00  0.00     0.131 A 
ATOM     72  C   UNL     1       9.749   8.686  -0.878  1.00  0.00     0.055 A 
ATOM     73  C   UNL     1       9.643   7.361  -2.882  1.00  0.00     0.041 A 
ATOM     74  F   UNL     1       7.628   7.209  -4.067  1.00  0.00    -0.206 F 
ATOM     75  C   UNL     1      10.382   7.867  -1.818  1.00  0.00     0.022 A 
BRANCH  72  76
ATOM     76  S   UNL     1      10.714   9.452   0.453  1.00  0.00     0.124 S 
ATOM     77  O   UNL     1      10.496  10.871   0.200  1.00  0.00    -0.237 OA
ATOM     78  O   UNL     1      10.073   8.906   1.644  1.00  0.00    -0.237 OA
ATOM     79  O   UNL     1      12.073   8.975   0.205  1.00  0.00    -0.744 OA
ENDBRANCH  72  76
ENDBRANCH  45  69
BRANCH  57  80
ATOM     80  C   UNL     1       4.343  14.493  -3.373  1.00  0.00     0.023 A 
ATOM     81  C   UNL     1       5.146  14.890  -4.457  1.00  0.00     0.031 A 
ATOM     82  C   UNL     1       4.035  15.447  -2.389  1.00  0.00     0.131 A 
ATOM     83  C   UNL     1       5.658  16.195  -4.502  1.00  0.00     0.055 A 
ATOM     84  C   UNL     1       4.505  16.758  -2.466  1.00  0.00     0.041 A 
ATOM     85  F   UNL     1       3.274  15.118  -1.333  1.00  0.00    -0.206 F 
ATOM     86  C   UNL     1       5.332  17.135  -3.521  1.00  0.00     0.022 A 
BRANCH  83  87
ATOM     87  S   UNL     1       6.829  16.626  -5.819  1.00  0.00     0.124 S 
ATOM     88  O   UNL     1       7.908  15.669  -5.592  1.00  0.00    -0.237 OA
ATOM     89  O   UNL     1       6.035  16.417  -7.025  1.00  0.00    -0.237 OA
ATOM     90  O   UNL     1       7.167  18.020  -5.535  1.00  0.00    -0.744 OA
ENDBRANCH  83  87
ENDBRANCH  57  80
ENDBRANCH  31  32
ENDBRANCH  24  26
ENDBRANCH  23  24
ENDBRANCH   1  23
TORSDOF 15
