REMARK SMILES CCOc1ccccc1-c1cc(C(=O)OCCOC(=O)c2ccc(-c3c4nc(c(-c5cc(S(=O)(=O)[O-])ccc5F)c5ccc([nH]5)c(-c5cc(S(=O)(=O)[O-])ccc5F)c5nc(c(-c6cc(S(=O)(=O)[O-])ccc6F)c6ccc3[nH]6)C=C5)C=C4)cc2)c2cc(C)cc(C)c2n1
REMARK SMILES IDX 16 1 15 2 13 3 14 4 12 5 10 6 11 7 92 8 91 9 84 10 89 11
REMARK SMILES IDX 85 12 88 13 90 14 86 15 87 16 9 17 4 18 5 19 6 20 8 21 7 22
REMARK SMILES IDX 3 23 2 24 1 25 17 26 18 27 19 28 20 29 21 30 22 31 83 32
REMARK SMILES IDX 23 33 82 34 24 35 25 36 26 37 76 38 27 39 81 40 75 41 77 42
REMARK SMILES IDX 28 43 80 44 74 45 73 46 29 48 61 49 41 50 60 51 42 52 45 53
REMARK SMILES IDX 59 54 78 55 43 56 44 57 58 59 79 60 46 61 30 62 31 63 39 64
REMARK SMILES IDX 32 65 38 66 40 67 37 68 33 69 34 70 35 71 36 72 62 73 63 74
REMARK SMILES IDX 71 75 64 76 70 77 72 78 69 79 65 80 66 81 67 82 68 83 47 84
REMARK SMILES IDX 48 85 56 86 49 87 55 88 57 89 54 90 50 91 51 92 52 93 53 94
REMARK H PARENT 77 47 45 58
REMARK Flexibility Score: inf
ROOT
ATOM      1  C   UNL     1      -2.749  -0.345  -0.017  1.00  0.00     0.275 C 
ENDROOT
BRANCH   1   2
ATOM      2  O   UNL     1      -1.434   0.247  -0.103  1.00  0.00    -0.458 OA
BRANCH   2   3
ATOM      3  C   UNL     1      -1.339   1.565   0.231  1.00  0.00     0.339 C 
ATOM      4  O   UNL     1      -2.262   2.253   0.639  1.00  0.00    -0.246 OA
BRANCH   3   5
ATOM      5  C   UNL     1       0.030   2.098  -0.038  1.00  0.00     0.071 A 
ATOM      6  C   UNL     1       2.231   1.813  -0.783  1.00  0.00     0.076 A 
ATOM      7  C   UNL     1       0.941   1.343  -0.786  1.00  0.00     0.045 A 
ATOM      8  N   UNL     1       2.354   3.148  -0.893  1.00  0.00    -0.247 NA
ATOM      9  C   UNL     1       1.688   3.833   0.039  1.00  0.00     0.075 A 
ATOM     10  C   UNL     1       0.516   3.278   0.589  1.00  0.00     0.015 A 
ATOM     11  C   UNL     1       2.274   4.970   0.598  1.00  0.00    -0.024 A 
ATOM     12  C   UNL     1       0.056   3.793   1.817  1.00  0.00     0.014 A 
ATOM     13  C   UNL     1       1.849   5.410   1.850  1.00  0.00     0.009 A 
ATOM     14  C   UNL     1       3.505   5.606   0.018  1.00  0.00     0.047 C 
ATOM     15  C   UNL     1       0.793   4.776   2.490  1.00  0.00    -0.050 A 
ATOM     16  C   UNL     1       0.601   5.010   3.953  1.00  0.00     0.044 C 
BRANCH   6  17
ATOM     17  C   UNL     1       3.237   1.321   0.245  1.00  0.00     0.042 A 
ATOM     18  C   UNL     1       2.855   0.802   1.510  1.00  0.00     0.128 A 
ATOM     19  C   UNL     1       3.690   0.946   2.626  1.00  0.00     0.047 A 
ATOM     20  C   UNL     1       4.955   1.508   2.488  1.00  0.00     0.004 A 
ATOM     21  C   UNL     1       4.569   1.777   0.118  1.00  0.00     0.014 A 
ATOM     22  C   UNL     1       5.412   1.881   1.229  1.00  0.00     0.001 A 
BRANCH  18  23
ATOM     23  O   UNL     1       1.573   0.353   1.727  1.00  0.00    -0.493 OA
BRANCH  23  24
ATOM     24  C   UNL     1       1.513  -1.029   2.095  1.00  0.00     0.226 C 
ATOM     25  C   UNL     1       1.562  -1.912   0.860  1.00  0.00     0.049 C 
ENDBRANCH  23  24
ENDBRANCH  18  23
ENDBRANCH   6  17
ENDBRANCH   3   5
ENDBRANCH   2   3
ENDBRANCH   1   2
BRANCH   1  26
ATOM     26  C   UNL     1      -2.917  -1.155   1.268  1.00  0.00     0.275 C 
BRANCH  26  27
ATOM     27  O   UNL     1      -2.748  -0.274   2.381  1.00  0.00    -0.458 OA
BRANCH  27  28
ATOM     28  C   UNL     1      -2.838  -0.833   3.610  1.00  0.00     0.338 C 
ATOM     29  O   UNL     1      -3.209  -1.962   3.875  1.00  0.00    -0.246 OA
BRANCH  28  30
ATOM     30  C   UNL     1      -2.379   0.180   4.588  1.00  0.00     0.060 A 
ATOM     31  C   UNL     1      -1.275   0.976   4.271  1.00  0.00     0.016 A 
ATOM     32  C   UNL     1      -3.001   0.317   5.833  1.00  0.00     0.016 A 
ATOM     33  C   UNL     1      -0.799   1.906   5.190  1.00  0.00     0.010 A 
ATOM     34  C   UNL     1      -2.544   1.288   6.740  1.00  0.00     0.010 A 
ATOM     35  C   UNL     1      -1.435   2.091   6.424  1.00  0.00    -0.014 A 
BRANCH  35  36
ATOM     36  C   UNL     1      -0.802   3.016   7.406  1.00  0.00     0.031 A 
ATOM     37  C   UNL     1       0.135   2.446   8.430  1.00  0.00     0.074 A 
ATOM     38  C   UNL     1      -0.919   4.354   7.291  1.00  0.00     0.049 A 
ATOM     39  N   UNL     1       0.858   3.062   9.328  1.00  0.00    -0.248 NA
ATOM     40  C   UNL     1       0.262   0.984   8.442  1.00  0.00     0.031 C 
ATOM     41  C   UNL     1      -1.742   5.041   6.301  1.00  0.00     0.029 A 
ATOM     42  N   UNL     1      -0.272   5.375   7.950  1.00  0.00    -0.354 N 
ATOM     43  C   UNL     1       1.489   2.060  10.054  1.00  0.00     0.074 A 
ATOM     44  C   UNL     1       1.070   0.799   9.473  1.00  0.00     0.031 C 
ATOM     45  C   UNL     1      -1.434   6.351   6.313  1.00  0.00     0.029 A 
ATOM     46  C   UNL     1      -0.470   6.616   7.380  1.00  0.00     0.049 A 
ATOM     47  H   UNL     1       0.280   5.234   8.752  1.00  0.00     0.167 HD
ATOM     48  C   UNL     1       2.314   2.178  11.125  1.00  0.00     0.034 A 
ATOM     49  C   UNL     1       0.072   7.818   7.679  1.00  0.00     0.034 A 
ATOM     50  C   UNL     1       2.714   3.437  11.706  1.00  0.00     0.049 A 
ATOM     51  C   UNL     1       0.958   7.928   8.902  1.00  0.00     0.074 A 
ATOM     52  C   UNL     1       3.462   3.663  12.849  1.00  0.00     0.029 A 
ATOM     53  N   UNL     1       2.403   4.688  11.188  1.00  0.00    -0.354 N 
ATOM     54  N   UNL     1       1.451   6.979   9.663  1.00  0.00    -0.248 NA
ATOM     55  C   UNL     1       1.317   9.288   9.334  1.00  0.00     0.031 C 
ATOM     56  C   UNL     1       3.548   5.045  13.057  1.00  0.00     0.029 A 
ATOM     57  C   UNL     1       2.926   5.687  11.998  1.00  0.00     0.049 A 
ATOM     58  H   UNL     1       1.885   4.844  10.365  1.00  0.00     0.167 HD
ATOM     59  C   UNL     1       2.176   7.630  10.662  1.00  0.00     0.074 A 
ATOM     60  C   UNL     1       2.096   9.047  10.377  1.00  0.00     0.031 C 
ATOM     61  C   UNL     1       2.831   7.104  11.728  1.00  0.00     0.034 A 
BRANCH  48  62
ATOM     62  C   UNL     1       2.714   0.890  11.800  1.00  0.00     0.023 A 
ATOM     63  C   UNL     1       3.490  -0.083  11.147  1.00  0.00     0.031 A 
ATOM     64  C   UNL     1       2.200   0.581  13.072  1.00  0.00     0.131 A 
ATOM     65  C   UNL     1       3.634  -1.356  11.719  1.00  0.00     0.055 A 
ATOM     66  C   UNL     1       2.433  -0.652  13.680  1.00  0.00     0.041 A 
ATOM     67  F   UNL     1       1.427   1.460  13.729  1.00  0.00    -0.206 F 
ATOM     68  C   UNL     1       3.132  -1.639  12.992  1.00  0.00     0.022 A 
BRANCH  65  69
ATOM     69  S   UNL     1       4.286  -2.697  10.685  1.00  0.00     0.124 S 
ATOM     70  O   UNL     1       3.386  -2.648   9.535  1.00  0.00    -0.237 OA
ATOM     71  O   UNL     1       5.658  -2.267  10.440  1.00  0.00    -0.237 OA
ATOM     72  O   UNL     1       4.142  -3.881  11.528  1.00  0.00    -0.744 OA
ENDBRANCH  65  69
ENDBRANCH  48  62
BRANCH  49  73
ATOM     73  C   UNL     1      -0.221   9.046   6.872  1.00  0.00     0.023 A 
ATOM     74  C   UNL     1       0.824   9.811   6.318  1.00  0.00     0.031 A 
ATOM     75  C   UNL     1      -1.530   9.542   6.735  1.00  0.00     0.131 A 
ATOM     76  C   UNL     1       0.548  11.046   5.706  1.00  0.00     0.055 A 
ATOM     77  C   UNL     1      -1.806  10.733   6.059  1.00  0.00     0.041 A 
ATOM     78  F   UNL     1      -2.568   8.880   7.269  1.00  0.00    -0.206 F 
ATOM     79  C   UNL     1      -0.762  11.501   5.555  1.00  0.00     0.022 A 
BRANCH  76  80
ATOM     80  S   UNL     1       1.933  12.113   5.212  1.00  0.00     0.124 S 
ATOM     81  O   UNL     1       2.580  12.368   6.494  1.00  0.00    -0.237 OA
ATOM     82  O   UNL     1       2.664  11.256   4.284  1.00  0.00    -0.237 OA
ATOM     83  O   UNL     1       1.275  13.267   4.604  1.00  0.00    -0.744 OA
ENDBRANCH  76  80
ENDBRANCH  49  73
BRANCH  61  84
ATOM     84  C   UNL     1       3.536   8.069  12.657  1.00  0.00     0.023 A 
ATOM     85  C   UNL     1       2.833   9.026  13.413  1.00  0.00     0.031 A 
ATOM     86  C   UNL     1       4.938   8.044  12.775  1.00  0.00     0.131 A 
ATOM     87  C   UNL     1       3.533   9.953  14.203  1.00  0.00     0.055 A 
ATOM     88  C   UNL     1       5.625   8.928  13.609  1.00  0.00     0.041 A 
ATOM     89  F   UNL     1       5.666   7.156  12.079  1.00  0.00    -0.206 F 
ATOM     90  C   UNL     1       4.924   9.900  14.317  1.00  0.00     0.022 A 
BRANCH  87  91
ATOM     91  S   UNL     1       2.612  11.299  15.002  1.00  0.00     0.124 S 
ATOM     92  O   UNL     1       1.915  11.906  13.873  1.00  0.00    -0.237 OA
ATOM     93  O   UNL     1       1.776  10.580  15.957  1.00  0.00    -0.237 OA
ATOM     94  O   UNL     1       3.661  12.126  15.598  1.00  0.00    -0.744 OA
ENDBRANCH  87  91
ENDBRANCH  61  84
ENDBRANCH  35  36
ENDBRANCH  28  30
ENDBRANCH  27  28
ENDBRANCH  26  27
ENDBRANCH   1  26
TORSDOF 17
