REMARK SMILES Cn1ccnc(N[C@H]2C=C[C@H](C(=O)OCCOC(=O)c3ccc(-c4c5nc(c(-c6cc(S(=O)(=O)[O-])ccc6F)c6ccc([nH]6)c(-c6cc(S(=O)(=O)[O-])ccc6F)c6nc(c(-c7cc(S(=O)(=O)[O-])ccc7F)c7ccc4[nH]7)C=C6)C=C5)cc3)C2)c1=O
REMARK SMILES IDX 16 1 15 2 14 3 12 4 13 5 11 6 8 7 9 8 83 9 10 10 7 11 6 13
REMARK SMILES IDX 1 14 2 15 3 16 84 17 4 18 85 19 5 20 17 21 18 22 19 23 20 24
REMARK SMILES IDX 21 25 82 26 22 27 81 28 23 29 24 30 25 31 75 32 26 33 80 34
REMARK SMILES IDX 74 35 76 36 27 37 79 38 73 39 72 40 28 42 60 43 40 44 59 45
REMARK SMILES IDX 41 46 44 47 58 48 77 49 42 50 43 51 57 53 78 54 45 55 29 56
REMARK SMILES IDX 30 57 38 58 31 59 37 60 39 61 36 62 32 63 33 64 34 65 35 66
REMARK SMILES IDX 61 67 62 68 70 69 63 70 69 71 71 72 68 73 64 74 65 75 66 76
REMARK SMILES IDX 67 77 46 78 47 79 55 80 48 81 54 82 56 83 53 84 49 85 50 86
REMARK SMILES IDX 51 87 52 88
REMARK H PARENT 7 12 76 41 44 52
REMARK Flexibility Score: inf
ROOT
ATOM      1  C   UNL     1      -5.441  -5.855  -3.112  1.00  0.00     0.275 C 
ENDROOT
BRANCH   1   2
ATOM      2  C   UNL     1      -5.348  -5.883  -1.585  1.00  0.00     0.274 C 
BRANCH   2   3
ATOM      3  O   UNL     1      -4.824  -4.649  -1.060  1.00  0.00    -0.462 OA
BRANCH   3   4
ATOM      4  C   UNL     1      -3.512  -4.655  -0.691  1.00  0.00     0.312 C 
ATOM      5  O   UNL     1      -2.774  -5.631  -0.758  1.00  0.00    -0.252 OA
BRANCH   4   6
ATOM      6  C   UNL     1      -3.093  -3.293  -0.153  1.00  0.00     0.124 C 
ATOM      7  C   UNL     1      -0.700  -3.266   0.298  1.00  0.00     0.105 C 
ATOM      8  C   UNL     1      -1.479  -3.389   1.561  1.00  0.00    -0.006 C 
ATOM      9  C   UNL     1      -1.746  -2.837  -0.735  1.00  0.00     0.048 C 
ATOM     10  C   UNL     1      -2.796  -3.410   1.317  1.00  0.00    -0.014 C 
BRANCH   7  11
ATOM     11  N   UNL     1       0.424  -2.385   0.453  1.00  0.00    -0.359 N 
ATOM     12  H   UNL     1       1.282  -2.845   0.600  1.00  0.00     0.162 HD
BRANCH  11  13
ATOM     13  C   UNL     1       0.513  -1.012   0.433  1.00  0.00     0.193 A 
ATOM     14  C   UNL     1      -1.609   2.146   0.086  1.00  0.00     0.153 C 
ATOM     15  N   UNL     1      -0.481   1.250   0.203  1.00  0.00    -0.314 N 
ATOM     16  C   UNL     1       0.794   1.667  -0.094  1.00  0.00     0.109 A 
ATOM     17  C   UNL     1      -0.708  -0.057   0.621  1.00  0.00     0.293 A 
ATOM     18  C   UNL     1       1.822   0.814  -0.033  1.00  0.00     0.131 A 
ATOM     19  O   UNL     1      -1.769  -0.447   1.090  1.00  0.00    -0.265 OA
ATOM     20  N   UNL     1       1.712  -0.531   0.201  1.00  0.00    -0.233 NA
ENDBRANCH  11  13
ENDBRANCH   7  11
ENDBRANCH   4   6
ENDBRANCH   3   4
ENDBRANCH   2   3
ENDBRANCH   1   2
BRANCH   1  21
ATOM     21  O   UNL     1      -4.146  -5.976  -3.728  1.00  0.00    -0.458 OA
BRANCH  21  22
ATOM     22  C   UNL     1      -3.546  -4.798  -4.007  1.00  0.00     0.338 C 
ATOM     23  O   UNL     1      -3.982  -3.680  -3.790  1.00  0.00    -0.246 OA
BRANCH  22  24
ATOM     24  C   UNL     1      -2.200  -5.021  -4.552  1.00  0.00     0.060 A 
ATOM     25  C   UNL     1      -1.125  -4.966  -3.670  1.00  0.00     0.016 A 
ATOM     26  C   UNL     1      -1.981  -5.063  -5.926  1.00  0.00     0.016 A 
ATOM     27  C   UNL     1       0.165  -4.792  -4.155  1.00  0.00     0.010 A 
ATOM     28  C   UNL     1      -0.666  -5.026  -6.407  1.00  0.00     0.010 A 
ATOM     29  C   UNL     1       0.421  -4.842  -5.530  1.00  0.00    -0.014 A 
BRANCH  29  30
ATOM     30  C   UNL     1       1.808  -4.669  -6.054  1.00  0.00     0.031 A 
ATOM     31  C   UNL     1       2.094  -3.607  -7.086  1.00  0.00     0.074 A 
ATOM     32  C   UNL     1       2.814  -5.455  -5.615  1.00  0.00     0.049 A 
ATOM     33  N   UNL     1       3.137  -3.461  -7.862  1.00  0.00    -0.248 NA
ATOM     34  C   UNL     1       1.053  -2.588  -7.285  1.00  0.00     0.031 C 
ATOM     35  C   UNL     1       2.704  -6.469  -4.564  1.00  0.00     0.029 A 
ATOM     36  N   UNL     1       4.130  -5.529  -6.002  1.00  0.00    -0.354 N 
ATOM     37  C   UNL     1       2.851  -2.377  -8.688  1.00  0.00     0.074 A 
ATOM     38  C   UNL     1       1.530  -1.911  -8.320  1.00  0.00     0.031 C 
ATOM     39  C   UNL     1       3.902  -7.037  -4.369  1.00  0.00     0.029 A 
ATOM     40  C   UNL     1       4.836  -6.523  -5.362  1.00  0.00     0.049 A 
ATOM     41  H   UNL     1       4.531  -4.930  -6.673  1.00  0.00     0.167 HD
ATOM     42  C   UNL     1       3.620  -1.832  -9.664  1.00  0.00     0.034 A 
ATOM     43  C   UNL     1       6.068  -7.020  -5.589  1.00  0.00     0.034 A 
ATOM     44  C   UNL     1       4.955  -2.288  -9.976  1.00  0.00     0.049 A 
ATOM     45  C   UNL     1       6.881  -6.447  -6.719  1.00  0.00     0.074 A 
ATOM     46  C   UNL     1       5.827  -1.812 -10.940  1.00  0.00     0.029 A 
ATOM     47  N   UNL     1       5.617  -3.319  -9.319  1.00  0.00    -0.354 N 
ATOM     48  N   UNL     1       6.565  -5.487  -7.556  1.00  0.00    -0.248 NA
ATOM     49  C   UNL     1       8.209  -7.031  -6.944  1.00  0.00     0.031 C 
ATOM     50  C   UNL     1       6.987  -2.594 -10.909  1.00  0.00     0.029 A 
ATOM     51  C   UNL     1       6.875  -3.505  -9.871  1.00  0.00     0.049 A 
ATOM     52  H   UNL     1       5.247  -3.841  -8.572  1.00  0.00     0.167 HD
ATOM     53  C   UNL     1       7.671  -5.329  -8.386  1.00  0.00     0.074 A 
ATOM     54  C   UNL     1       8.661  -6.291  -7.946  1.00  0.00     0.031 C 
ATOM     55  C   UNL     1       7.854  -4.463  -9.414  1.00  0.00     0.034 A 
BRANCH  42  56
ATOM     56  C   UNL     1       3.012  -0.733 -10.507  1.00  0.00     0.023 A 
ATOM     57  C   UNL     1       2.631   0.507  -9.968  1.00  0.00     0.031 A 
ATOM     58  C   UNL     1       2.786  -0.947 -11.880  1.00  0.00     0.131 A 
ATOM     59  C   UNL     1       1.980   1.453 -10.777  1.00  0.00     0.055 A 
ATOM     60  C   UNL     1       2.216   0.030 -12.698  1.00  0.00     0.041 A 
ATOM     61  F   UNL     1       3.107  -2.119 -12.452  1.00  0.00    -0.206 F 
ATOM     62  C   UNL     1       1.794   1.234 -12.144  1.00  0.00     0.022 A 
BRANCH  59  63
ATOM     63  S   UNL     1       1.246   2.913  -9.988  1.00  0.00     0.124 S 
ATOM     64  O   UNL     1       0.323   2.300  -9.035  1.00  0.00    -0.237 OA
ATOM     65  O   UNL     1       2.408   3.579  -9.412  1.00  0.00    -0.237 OA
ATOM     66  O   UNL     1       0.607   3.618 -11.097  1.00  0.00    -0.744 OA
ENDBRANCH  59  63
ENDBRANCH  42  56
BRANCH  43  67
ATOM     67  C   UNL     1       6.574  -8.171  -4.785  1.00  0.00     0.023 A 
ATOM     68  C   UNL     1       7.713  -8.046  -3.976  1.00  0.00     0.031 A 
ATOM     69  C   UNL     1       5.938  -9.427  -4.837  1.00  0.00     0.131 A 
ATOM     70  C   UNL     1       8.204  -9.164  -3.282  1.00  0.00     0.055 A 
ATOM     71  C   UNL     1       6.392 -10.518  -4.094  1.00  0.00     0.041 A 
ATOM     72  F   UNL     1       4.846  -9.606  -5.597  1.00  0.00    -0.206 F 
ATOM     73  C   UNL     1       7.540 -10.393  -3.320  1.00  0.00     0.022 A 
BRANCH  70  74
ATOM     74  S   UNL     1       9.779  -9.013  -2.397  1.00  0.00     0.124 S 
ATOM     75  O   UNL     1      10.681  -8.600  -3.466  1.00  0.00    -0.237 OA
ATOM     76  O   UNL     1       9.467  -8.001  -1.393  1.00  0.00    -0.237 OA
ATOM     77  O   UNL     1      10.006 -10.359  -1.874  1.00  0.00    -0.744 OA
ENDBRANCH  70  74
ENDBRANCH  43  67
BRANCH  55  78
ATOM     78  C   UNL     1       9.207  -4.461 -10.077  1.00  0.00     0.023 A 
ATOM     79  C   UNL     1       9.652  -5.530 -10.873  1.00  0.00     0.031 A 
ATOM     80  C   UNL     1      10.061  -3.355  -9.912  1.00  0.00     0.131 A 
ATOM     81  C   UNL     1      10.935  -5.489 -11.440  1.00  0.00     0.055 A 
ATOM     82  C   UNL     1      11.313  -3.296 -10.523  1.00  0.00     0.041 A 
ATOM     83  F   UNL     1       9.685  -2.309  -9.159  1.00  0.00    -0.206 F 
ATOM     84  C   UNL     1      11.760  -4.372 -11.284  1.00  0.00     0.022 A 
BRANCH  81  85
ATOM     85  S   UNL     1      11.543  -6.946 -12.333  1.00  0.00     0.124 S 
ATOM     86  O   UNL     1      11.514  -7.972 -11.296  1.00  0.00    -0.237 OA
ATOM     87  O   UNL     1      10.560  -7.092 -13.401  1.00  0.00    -0.237 OA
ATOM     88  O   UNL     1      12.879  -6.546 -12.773  1.00  0.00    -0.744 OA
ENDBRANCH  81  85
ENDBRANCH  55  78
ENDBRANCH  29  30
ENDBRANCH  22  24
ENDBRANCH  21  22
ENDBRANCH   1  21
TORSDOF 16
