REMARK SMILES O=C(OCCOC(=O)[C@@H]1O[C@H](OC(=O)c2cccnc2)[C@@H](O)[C@H](O)[C@H]1O)c1ccc(-c2c3nc(c(-c4cc(S(=O)(=O)[O-])ccc4F)c4ccc([nH]4)c(-c4cc(S(=O)(=O)[O-])ccc4F)c4nc(c(-c5cc(S(=O)(=O)[O-])ccc5F)c5ccc2[nH]5)C=C4)C=C3)cc1
REMARK SMILES IDX 4 1 3 2 2 3 1 4 27 5 28 6 89 7 29 8 88 9 30 10 31 11 32 12
REMARK SMILES IDX 82 13 33 14 87 15 81 16 83 17 34 18 86 19 80 20 79 21 35 23
REMARK SMILES IDX 67 24 47 25 66 26 48 27 51 28 65 29 84 30 49 31 50 32 64 34
REMARK SMILES IDX 85 35 52 36 36 37 37 38 45 39 38 40 44 41 46 42 43 43 39 44
REMARK SMILES IDX 40 45 41 46 42 47 68 48 69 49 77 50 70 51 76 52 78 53 75 54
REMARK SMILES IDX 71 55 72 56 73 57 74 58 53 59 54 60 62 61 55 62 61 63 63 64
REMARK SMILES IDX 60 65 56 66 57 67 58 68 59 69 5 70 6 71 7 72 8 73 9 74 10 75
REMARK SMILES IDX 25 76 11 77 23 78 21 79 26 80 12 82 13 83 14 84 15 85 16 86
REMARK SMILES IDX 20 87 17 88 19 89 18 90 24 91 22 93
REMARK H PARENT 83 22 51 33 26 81 24 92 22 94
REMARK Flexibility Score: inf
ROOT
ATOM      1  C   UNL     1       4.348   6.009  -3.329  1.00  0.00     0.275 C 
ENDROOT
BRANCH   1   2
ATOM      2  O   UNL     1       5.342   4.970  -3.208  1.00  0.00    -0.458 OA
BRANCH   2   3
ATOM      3  C   UNL     1       5.487   3.978  -2.293  1.00  0.00     0.338 C 
ATOM      4  O   UNL     1       6.066   2.956  -2.669  1.00  0.00    -0.246 OA
BRANCH   3   5
ATOM      5  C   UNL     1       4.980   3.997  -0.867  1.00  0.00     0.060 A 
ATOM      6  C   UNL     1       4.365   5.054  -0.191  1.00  0.00     0.016 A 
ATOM      7  C   UNL     1       5.107   2.793  -0.143  1.00  0.00     0.016 A 
ATOM      8  C   UNL     1       3.737   4.863   1.075  1.00  0.00     0.010 A 
ATOM      9  C   UNL     1       4.497   2.611   1.119  1.00  0.00     0.010 A 
ATOM     10  C   UNL     1       3.703   3.611   1.710  1.00  0.00    -0.014 A 
BRANCH  10  11
ATOM     11  C   UNL     1       3.084   3.409   3.083  1.00  0.00     0.031 A 
ATOM     12  C   UNL     1       4.037   3.620   4.218  1.00  0.00     0.074 A 
ATOM     13  C   UNL     1       1.799   3.072   3.401  1.00  0.00     0.049 A 
ATOM     14  N   UNL     1       3.799   3.595   5.499  1.00  0.00    -0.248 NA
ATOM     15  C   UNL     1       5.431   3.923   3.857  1.00  0.00     0.031 C 
ATOM     16  C   UNL     1       0.712   2.883   2.478  1.00  0.00     0.029 A 
ATOM     17  N   UNL     1       1.145   2.796   4.592  1.00  0.00    -0.354 N 
ATOM     18  C   UNL     1       4.997   3.947   6.094  1.00  0.00     0.074 A 
ATOM     19  C   UNL     1       5.980   4.089   5.045  1.00  0.00     0.031 C 
ATOM     20  C   UNL     1      -0.434   2.522   3.043  1.00  0.00     0.029 A 
ATOM     21  C   UNL     1      -0.188   2.411   4.445  1.00  0.00     0.049 A 
ATOM     22  H   UNL     1       1.585   2.867   5.470  1.00  0.00     0.167 HD
ATOM     23  C   UNL     1       5.243   4.162   7.405  1.00  0.00     0.034 A 
ATOM     24  C   UNL     1      -1.157   2.006   5.288  1.00  0.00     0.034 A 
ATOM     25  C   UNL     1       4.281   3.900   8.440  1.00  0.00     0.049 A 
ATOM     26  C   UNL     1      -0.817   2.087   6.728  1.00  0.00     0.074 A 
ATOM     27  C   UNL     1       4.447   3.985   9.807  1.00  0.00     0.029 A 
ATOM     28  N   UNL     1       2.980   3.451   8.221  1.00  0.00    -0.354 N 
ATOM     29  N   UNL     1       0.322   2.467   7.255  1.00  0.00    -0.248 NA
ATOM     30  C   UNL     1      -1.870   1.750   7.682  1.00  0.00     0.031 C 
ATOM     31  C   UNL     1       3.282   3.506  10.416  1.00  0.00     0.029 A 
ATOM     32  C   UNL     1       2.352   3.207   9.431  1.00  0.00     0.049 A 
ATOM     33  H   UNL     1       2.568   3.326   7.336  1.00  0.00     0.167 HD
ATOM     34  C   UNL     1       0.116   2.453   8.617  1.00  0.00     0.074 A 
ATOM     35  C   UNL     1      -1.266   2.046   8.823  1.00  0.00     0.031 C 
ATOM     36  C   UNL     1       0.993   2.756   9.604  1.00  0.00     0.034 A 
BRANCH  23  37
ATOM     37  C   UNL     1       6.643   4.601   7.733  1.00  0.00     0.023 A 
ATOM     38  C   UNL     1       7.155   5.824   7.253  1.00  0.00     0.031 A 
ATOM     39  C   UNL     1       7.523   3.719   8.376  1.00  0.00     0.131 A 
ATOM     40  C   UNL     1       8.530   6.079   7.333  1.00  0.00     0.055 A 
ATOM     41  C   UNL     1       8.874   4.023   8.536  1.00  0.00     0.041 A 
ATOM     42  F   UNL     1       7.096   2.520   8.803  1.00  0.00    -0.206 F 
ATOM     43  C   UNL     1       9.389   5.199   7.996  1.00  0.00     0.022 A 
BRANCH  40  44
ATOM     44  S   UNL     1       9.212   7.470   6.386  1.00  0.00     0.124 S 
ATOM     45  O   UNL     1       8.903   7.070   5.015  1.00  0.00    -0.237 OA
ATOM     46  O   UNL     1       8.459   8.607   6.903  1.00  0.00    -0.237 OA
ATOM     47  O   UNL     1      10.632   7.454   6.729  1.00  0.00    -0.744 OA
ENDBRANCH  40  44
ENDBRANCH  23  37
BRANCH  24  48
ATOM     48  C   UNL     1      -2.502   1.546   4.790  1.00  0.00     0.023 A 
ATOM     49  C   UNL     1      -3.687   2.243   5.085  1.00  0.00     0.031 A 
ATOM     50  C   UNL     1      -2.615   0.401   3.971  1.00  0.00     0.131 A 
ATOM     51  C   UNL     1      -4.924   1.779   4.596  1.00  0.00     0.055 A 
ATOM     52  C   UNL     1      -3.840  -0.029   3.450  1.00  0.00     0.041 A 
ATOM     53  F   UNL     1      -1.521  -0.300   3.632  1.00  0.00    -0.206 F 
ATOM     54  C   UNL     1      -5.006   0.656   3.771  1.00  0.00     0.022 A 
BRANCH  51  55
ATOM     55  S   UNL     1      -6.449   2.625   5.110  1.00  0.00     0.124 S 
ATOM     56  O   UNL     1      -6.309   2.642   6.561  1.00  0.00    -0.237 OA
ATOM     57  O   UNL     1      -6.318   3.913   4.436  1.00  0.00    -0.237 OA
ATOM     58  O   UNL     1      -7.509   1.760   4.597  1.00  0.00    -0.744 OA
ENDBRANCH  51  55
ENDBRANCH  24  48
BRANCH  36  59
ATOM     59  C   UNL     1       0.449   2.640  10.993  1.00  0.00     0.023 A 
ATOM     60  C   UNL     1       0.052   1.395  11.505  1.00  0.00     0.031 A 
ATOM     61  C   UNL     1       0.260   3.788  11.776  1.00  0.00     0.131 A 
ATOM     62  C   UNL     1      -0.603   1.338  12.737  1.00  0.00     0.055 A 
ATOM     63  C   UNL     1      -0.313   3.712  13.042  1.00  0.00     0.041 A 
ATOM     64  F   UNL     1       0.611   4.998  11.313  1.00  0.00    -0.206 F 
ATOM     65  C   UNL     1      -0.766   2.484  13.521  1.00  0.00     0.022 A 
BRANCH  62  66
ATOM     66  S   UNL     1      -1.363  -0.230  13.224  1.00  0.00     0.124 S 
ATOM     67  O   UNL     1      -2.340  -0.431  12.159  1.00  0.00    -0.237 OA
ATOM     68  O   UNL     1      -0.225  -1.144  13.224  1.00  0.00    -0.237 OA
ATOM     69  O   UNL     1      -1.927   0.060  14.541  1.00  0.00    -0.744 OA
ENDBRANCH  62  66
ENDBRANCH  36  59
ENDBRANCH  10  11
ENDBRANCH   3   5
ENDBRANCH   2   3
ENDBRANCH   1   2
BRANCH   1  70
ATOM     70  C   UNL     1       2.974   5.524  -3.806  1.00  0.00     0.274 C 
BRANCH  70  71
ATOM     71  O   UNL     1       2.702   4.229  -3.271  1.00  0.00    -0.460 OA
BRANCH  71  72
ATOM     72  C   UNL     1       1.975   3.289  -3.987  1.00  0.00     0.338 C 
ATOM     73  O   UNL     1       1.667   3.356  -5.168  1.00  0.00    -0.249 OA
BRANCH  72  74
ATOM     74  C   UNL     1       1.641   2.178  -2.952  1.00  0.00     0.263 C 
ATOM     75  O   UNL     1       1.224   0.834  -2.798  1.00  0.00    -0.322 OA
ATOM     76  C   UNL     1       0.739   2.922  -1.957  1.00  0.00     0.186 C 
ATOM     77  C   UNL     1       1.621   0.344  -1.466  1.00  0.00     0.343 C 
ATOM     78  C   UNL     1       1.587   2.813  -0.721  1.00  0.00     0.181 C 
ATOM     79  C   UNL     1       1.426   1.336  -0.237  1.00  0.00     0.214 C 
BRANCH  76  80
ATOM     80  O   UNL     1       0.394   4.293  -2.202  1.00  0.00    -0.387 OA
ATOM     81  H   UNL     1       1.201   4.830  -2.228  1.00  0.00     0.211 HD
ENDBRANCH  76  80
BRANCH  77  82
ATOM     82  O   UNL     1       1.089  -0.961  -1.136  1.00  0.00    -0.429 OA
BRANCH  82  83
ATOM     83  C   UNL     1      -0.225  -0.992  -0.826  1.00  0.00     0.342 C 
ATOM     84  O   UNL     1      -1.024  -0.081  -0.940  1.00  0.00    -0.246 OA
BRANCH  83  85
ATOM     85  C   UNL     1      -0.609  -2.329  -0.354  1.00  0.00     0.078 A 
ATOM     86  C   UNL     1       0.089  -3.053   0.613  1.00  0.00     0.019 A 
ATOM     87  C   UNL     1      -1.776  -2.867  -0.873  1.00  0.00     0.126 A 
ATOM     88  C   UNL     1      -0.407  -4.299   1.004  1.00  0.00     0.021 A 
ATOM     89  N   UNL     1      -2.262  -4.084  -0.532  1.00  0.00    -0.264 NA
ATOM     90  C   UNL     1      -1.568  -4.768   0.404  1.00  0.00     0.111 A 
ENDBRANCH  83  85
ENDBRANCH  82  83
ENDBRANCH  77  82
BRANCH  78  91
ATOM     91  O   UNL     1       1.287   4.003   0.011  1.00  0.00    -0.387 OA
ATOM     92  H   UNL     1       0.325   4.098   0.094  1.00  0.00     0.211 HD
ENDBRANCH  78  91
BRANCH  79  93
ATOM     93  O   UNL     1       2.380   0.903   0.744  1.00  0.00    -0.384 OA
ATOM     94  H   UNL     1       3.270   0.919   0.359  1.00  0.00     0.211 HD
ENDBRANCH  79  93
ENDBRANCH  72  74
ENDBRANCH  71  72
ENDBRANCH  70  71
ENDBRANCH   1  70
TORSDOF 20
