REMARK SMILES NC(=O)C[C@H](C(=O)OCCOC(=O)c1ccc(-c2c3nc(c(-c4cc(S(=O)(=O)[O-])ccc4F)c4ccc([nH]4)c(-c4cc(S(=O)(=O)[O-])ccc4F)c4nc(c(-c5cc(S(=O)(=O)[O-])ccc5F)c5ccc2[nH]5)C=C4)C=C3)cc1)N1C(=O)/C(=C/c2ccccc2)SC1=S
REMARK SMILES IDX 10 1 9 2 8 3 6 4 7 5 5 6 4 7 2 8 1 9 3 12 77 13 78 14 89 15
REMARK SMILES IDX 79 16 80 17 88 18 90 19 81 20 82 21 83 22 87 23 84 24 86 25
REMARK SMILES IDX 85 26 11 27 12 28 13 29 14 30 15 31 76 32 16 33 75 34 17 35
REMARK SMILES IDX 18 36 19 37 69 38 20 39 74 40 68 41 70 42 21 43 73 44 67 45
REMARK SMILES IDX 66 46 22 48 54 49 34 50 53 51 35 52 38 53 52 54 71 55 36 56
REMARK SMILES IDX 37 57 51 59 72 60 39 61 23 62 24 63 32 64 25 65 31 66 33 67
REMARK SMILES IDX 30 68 26 69 27 70 28 71 29 72 55 73 56 74 64 75 57 76 63 77
REMARK SMILES IDX 65 78 62 79 58 80 59 81 60 82 61 83 40 84 41 85 49 86 42 87
REMARK SMILES IDX 48 88 50 89 47 90 43 91 44 92 45 93 46 94
REMARK H PARENT 1 10 1 11 70 47 38 58
REMARK Flexibility Score: inf
ROOT
ATOM      1  C   UNL     1       0.280   1.399  -3.741  1.00  0.00     0.275 C 
ENDROOT
BRANCH   1   2
ATOM      2  C   UNL     1      -0.288   2.379  -2.722  1.00  0.00     0.274 C 
BRANCH   2   3
ATOM      3  O   UNL     1       0.772   2.978  -1.944  1.00  0.00    -0.461 OA
BRANCH   3   4
ATOM      4  C   UNL     1       0.904   2.510  -0.668  1.00  0.00     0.329 C 
ATOM      5  O   UNL     1       0.194   1.637  -0.186  1.00  0.00    -0.250 OA
BRANCH   4   6
ATOM      6  C   UNL     1       1.957   3.281   0.148  1.00  0.00     0.211 C 
BRANCH   6   7
ATOM      7  C   UNL     1       2.830   2.384   1.030  1.00  0.00     0.137 C 
BRANCH   7   8
ATOM      8  C   UNL     1       2.038   1.680   2.105  1.00  0.00     0.220 C 
ATOM      9  N   UNL     1       1.584   2.457   3.125  1.00  0.00    -0.370 N 
ATOM     10  H   UNL     1       1.061   2.054   3.855  1.00  0.00     0.159 HD
ATOM     11  H   UNL     1       1.777   3.422   3.132  1.00  0.00     0.159 HD
ATOM     12  O   UNL     1       1.827   0.474   2.091  1.00  0.00    -0.275 OA
ENDBRANCH   7   8
ENDBRANCH   6   7
BRANCH   6  13
ATOM     13  N   UNL     1       2.705   4.271  -0.673  1.00  0.00    -0.278 N 
ATOM     14  C   UNL     1       2.172   5.551  -0.737  1.00  0.00     0.267 C 
ATOM     15  C   UNL     1       3.800   4.040  -1.486  1.00  0.00     0.149 C 
ATOM     16  O   UNL     1       1.161   5.937  -0.164  1.00  0.00    -0.268 OA
ATOM     17  C   UNL     1       2.985   6.421  -1.619  1.00  0.00     0.081 C 
ATOM     18  S   UNL     1       4.264   5.524  -2.313  1.00  0.00    -0.054 SA
ATOM     19  S   UNL     1       4.658   2.641  -1.750  1.00  0.00    -0.052 S 
ATOM     20  C   UNL     1       2.708   7.720  -1.782  1.00  0.00     0.029 C 
BRANCH  20  21
ATOM     21  C   UNL     1       3.481   8.637  -2.622  1.00  0.00    -0.024 A 
ATOM     22  C   UNL     1       4.337   9.568  -2.024  1.00  0.00     0.008 A 
ATOM     23  C   UNL     1       3.387   8.580  -4.017  1.00  0.00     0.008 A 
ATOM     24  C   UNL     1       5.098  10.429  -2.817  1.00  0.00     0.001 A 
ATOM     25  C   UNL     1       4.150   9.441  -4.807  1.00  0.00     0.001 A 
ATOM     26  C   UNL     1       5.005  10.364  -4.206  1.00  0.00     0.000 A 
ENDBRANCH  20  21
ENDBRANCH   6  13
ENDBRANCH   4   6
ENDBRANCH   3   4
ENDBRANCH   2   3
ENDBRANCH   1   2
BRANCH   1  27
ATOM     27  O   UNL     1       1.036   0.399  -3.044  1.00  0.00    -0.458 OA
BRANCH  27  28
ATOM     28  C   UNL     1       2.279   0.160  -3.525  1.00  0.00     0.338 C 
ATOM     29  O   UNL     1       2.760   0.616  -4.548  1.00  0.00    -0.246 OA
BRANCH  28  30
ATOM     30  C   UNL     1       2.995  -0.759  -2.614  1.00  0.00     0.060 A 
ATOM     31  C   UNL     1       2.832  -0.684  -1.228  1.00  0.00     0.016 A 
ATOM     32  C   UNL     1       3.917  -1.655  -3.153  1.00  0.00     0.016 A 
ATOM     33  C   UNL     1       3.646  -1.437  -0.381  1.00  0.00     0.010 A 
ATOM     34  C   UNL     1       4.656  -2.483  -2.304  1.00  0.00     0.010 A 
ATOM     35  C   UNL     1       4.555  -2.365  -0.904  1.00  0.00    -0.014 A 
BRANCH  35  36
ATOM     36  C   UNL     1       5.428  -3.200  -0.028  1.00  0.00     0.031 A 
ATOM     37  C   UNL     1       6.921  -3.177  -0.234  1.00  0.00     0.074 A 
ATOM     38  C   UNL     1       4.902  -4.012   0.912  1.00  0.00     0.049 A 
ATOM     39  N   UNL     1       7.829  -4.033   0.159  1.00  0.00    -0.248 NA
ATOM     40  C   UNL     1       7.459  -2.046  -1.008  1.00  0.00     0.031 C 
ATOM     41  C   UNL     1       3.488  -4.087   1.284  1.00  0.00     0.029 A 
ATOM     42  N   UNL     1       5.502  -4.953   1.718  1.00  0.00    -0.354 N 
ATOM     43  C   UNL     1       9.032  -3.587  -0.382  1.00  0.00     0.074 A 
ATOM     44  C   UNL     1       8.738  -2.378  -1.121  1.00  0.00     0.031 C 
ATOM     45  C   UNL     1       3.332  -5.010   2.245  1.00  0.00     0.029 A 
ATOM     46  C   UNL     1       4.609  -5.670   2.484  1.00  0.00     0.049 A 
ATOM     47  H   UNL     1       6.475  -5.099   1.745  1.00  0.00     0.167 HD
ATOM     48  C   UNL     1      10.261  -4.149  -0.279  1.00  0.00     0.034 A 
ATOM     49  C   UNL     1       4.779  -6.775   3.237  1.00  0.00     0.034 A 
ATOM     50  C   UNL     1      10.544  -5.322   0.513  1.00  0.00     0.049 A 
ATOM     51  C   UNL     1       6.147  -7.407   3.306  1.00  0.00     0.074 A 
ATOM     52  C   UNL     1      11.756  -5.968   0.697  1.00  0.00     0.029 A 
ATOM     53  N   UNL     1       9.607  -6.016   1.266  1.00  0.00    -0.354 N 
ATOM     54  N   UNL     1       7.260  -7.031   2.719  1.00  0.00    -0.248 NA
ATOM     55  C   UNL     1       6.279  -8.620   4.124  1.00  0.00     0.031 C 
ATOM     56  C   UNL     1      11.542  -7.077   1.522  1.00  0.00     0.029 A 
ATOM     57  C   UNL     1      10.211  -7.088   1.904  1.00  0.00     0.049 A 
ATOM     58  H   UNL     1       8.654  -5.781   1.337  1.00  0.00     0.167 HD
ATOM     59  C   UNL     1       8.227  -7.947   3.122  1.00  0.00     0.074 A 
ATOM     60  C   UNL     1       7.571  -8.886   4.007  1.00  0.00     0.031 C 
ATOM     61  C   UNL     1       9.542  -8.007   2.792  1.00  0.00     0.034 A 
BRANCH  48  62
ATOM     62  C   UNL     1      11.379  -3.550  -1.095  1.00  0.00     0.023 A 
ATOM     63  C   UNL     1      11.913  -2.279  -0.824  1.00  0.00     0.031 A 
ATOM     64  C   UNL     1      11.923  -4.279  -2.169  1.00  0.00     0.131 A 
ATOM     65  C   UNL     1      12.926  -1.758  -1.645  1.00  0.00     0.055 A 
ATOM     66  C   UNL     1      12.975  -3.784  -2.941  1.00  0.00     0.041 A 
ATOM     67  F   UNL     1      11.439  -5.491  -2.485  1.00  0.00    -0.206 F 
ATOM     68  C   UNL     1      13.476  -2.511  -2.687  1.00  0.00     0.022 A 
BRANCH  65  69
ATOM     69  S   UNL     1      13.458  -0.042  -1.396  1.00  0.00     0.124 S 
ATOM     70  O   UNL     1      12.226   0.693  -1.673  1.00  0.00    -0.237 OA
ATOM     71  O   UNL     1      13.899  -0.045  -0.006  1.00  0.00    -0.237 OA
ATOM     72  O   UNL     1      14.518   0.137  -2.385  1.00  0.00    -0.744 OA
ENDBRANCH  65  69
ENDBRANCH  48  62
BRANCH  49  73
ATOM     73  C   UNL     1       3.615  -7.417   3.916  1.00  0.00     0.023 A 
ATOM     74  C   UNL     1       3.566  -7.539   5.314  1.00  0.00     0.031 A 
ATOM     75  C   UNL     1       2.559  -7.975   3.171  1.00  0.00     0.131 A 
ATOM     76  C   UNL     1       2.512  -8.242   5.919  1.00  0.00     0.055 A 
ATOM     77  C   UNL     1       1.481  -8.617   3.780  1.00  0.00     0.041 A 
ATOM     78  F   UNL     1       2.558  -7.897   1.830  1.00  0.00    -0.206 F 
ATOM     79  C   UNL     1       1.462  -8.768   5.163  1.00  0.00     0.022 A 
BRANCH  76  80
ATOM     80  S   UNL     1       2.591  -8.561   7.703  1.00  0.00     0.124 S 
ATOM     81  O   UNL     1       3.886  -9.219   7.831  1.00  0.00    -0.237 OA
ATOM     82  O   UNL     1       2.498  -7.215   8.256  1.00  0.00    -0.237 OA
ATOM     83  O   UNL     1       1.431  -9.416   7.947  1.00  0.00    -0.744 OA
ENDBRANCH  76  80
ENDBRANCH  49  73
BRANCH  61  84
ATOM     84  C   UNL     1      10.365  -9.080   3.454  1.00  0.00     0.023 A 
ATOM     85  C   UNL     1      10.222 -10.438   3.120  1.00  0.00     0.031 A 
ATOM     86  C   UNL     1      11.306  -8.731   4.439  1.00  0.00     0.131 A 
ATOM     87  C   UNL     1      10.981 -11.404   3.798  1.00  0.00     0.055 A 
ATOM     88  C   UNL     1      12.091  -9.691   5.075  1.00  0.00     0.041 A 
ATOM     89  F   UNL     1      11.479  -7.447   4.792  1.00  0.00    -0.206 F 
ATOM     90  C   UNL     1      11.924 -11.037   4.763  1.00  0.00     0.022 A 
BRANCH  87  91
ATOM     91  S   UNL     1      10.680 -13.157   3.446  1.00  0.00     0.124 S 
ATOM     92  O   UNL     1       9.284 -13.312   3.842  1.00  0.00    -0.237 OA
ATOM     93  O   UNL     1      10.949 -13.240   2.014  1.00  0.00    -0.237 OA
ATOM     94  O   UNL     1      11.647 -13.849   4.296  1.00  0.00    -0.744 OA
ENDBRANCH  87  91
ENDBRANCH  61  84
ENDBRANCH  35  36
ENDBRANCH  28  30
ENDBRANCH  27  28
ENDBRANCH   1  27
TORSDOF 18
