REMARK SMILES CC(=O)N[C@@H](Cc1c(OCC(C)C)ccc2ccccc12)C(=O)OCCOC(=O)c1ccc(-c2c3nc(c(-c4cc(S(=O)(=O)[O-])ccc4F)c4ccc([nH]4)c(-c4cc(S(=O)(=O)[O-])ccc4F)c4nc(c(-c5cc(S(=O)(=O)[O-])ccc5F)c5ccc2[nH]5)C=C4)C=C3)cc1
REMARK SMILES IDX 25 1 24 2 22 3 23 4 5 5 4 6 1 7 2 8 3 9 6 11 7 12 8 13 21 14
REMARK SMILES IDX 14 15 16 16 20 17 15 18 17 19 19 20 18 21 9 22 10 23 11 24
REMARK SMILES IDX 12 25 13 26 26 27 27 28 28 29 29 30 30 31 31 32 92 33 32 34
REMARK SMILES IDX 91 35 33 36 34 37 35 38 85 39 36 40 90 41 84 42 86 43 37 44
REMARK SMILES IDX 89 45 83 46 82 47 38 49 70 50 50 51 69 52 51 53 54 54 68 55
REMARK SMILES IDX 87 56 52 57 53 58 67 60 88 61 55 62 39 63 40 64 48 65 41 66
REMARK SMILES IDX 47 67 49 68 46 69 42 70 43 71 44 72 45 73 71 74 72 75 80 76
REMARK SMILES IDX 73 77 79 78 81 79 78 80 74 81 75 82 76 83 77 84 56 85 57 86
REMARK SMILES IDX 65 87 58 88 64 89 66 90 63 91 59 92 60 93 61 94 62 95
REMARK H PARENT 4 10 86 48 54 59
REMARK Flexibility Score: inf
ROOT
ATOM      1  C   UNL     1      -0.244   5.954  -0.001  1.00  0.00     0.274 C 
ENDROOT
BRANCH   1   2
ATOM      2  O   UNL     1       0.278   4.750  -0.590  1.00  0.00    -0.461 OA
BRANCH   2   3
ATOM      3  C   UNL     1       1.461   4.288  -0.090  1.00  0.00     0.329 C 
ATOM      4  O   UNL     1       2.100   4.830   0.805  1.00  0.00    -0.250 OA
BRANCH   3   5
ATOM      5  C   UNL     1       1.949   3.031  -0.834  1.00  0.00     0.196 C 
BRANCH   5   6
ATOM      6  N   UNL     1       0.858   2.361  -1.556  1.00  0.00    -0.343 N 
ATOM      7  C   UNL     1       1.152   0.071  -0.671  1.00  0.00     0.114 C 
ATOM      8  C   UNL     1       0.473   1.057  -1.578  1.00  0.00     0.217 C 
ATOM      9  O   UNL     1      -0.431   0.715  -2.339  1.00  0.00    -0.275 OA
ATOM     10  H   UNL     1       0.313   2.958  -2.120  1.00  0.00     0.164 HD
ENDBRANCH   5   6
BRANCH   5  11
ATOM     11  C   UNL     1       3.128   3.389  -1.769  1.00  0.00     0.077 C 
BRANCH  11  12
ATOM     12  C   UNL     1       2.735   4.357  -2.888  1.00  0.00     0.005 A 
ATOM     13  C   UNL     1       2.851   5.749  -2.655  1.00  0.00     0.123 A 
ATOM     14  C   UNL     1       2.147   3.882  -4.103  1.00  0.00    -0.011 A 
ATOM     15  C   UNL     1       2.276   6.647  -3.548  1.00  0.00     0.047 A 
ATOM     16  C   UNL     1       1.595   4.824  -5.003  1.00  0.00    -0.018 A 
ATOM     17  C   UNL     1       2.063   2.518  -4.472  1.00  0.00     0.009 A 
ATOM     18  C   UNL     1       1.647   6.188  -4.703  1.00  0.00     0.012 A 
ATOM     19  C   UNL     1       0.977   4.397  -6.190  1.00  0.00     0.009 A 
ATOM     20  C   UNL     1       1.445   2.105  -5.654  1.00  0.00     0.001 A 
ATOM     21  C   UNL     1       0.900   3.045  -6.513  1.00  0.00     0.001 A 
BRANCH  13  22
ATOM     22  O   UNL     1       3.553   6.106  -1.539  1.00  0.00    -0.493 OA
BRANCH  22  23
ATOM     23  C   UNL     1       3.812   7.473  -1.225  1.00  0.00     0.232 C 
BRANCH  23  24
ATOM     24  C   UNL     1       5.181   7.950  -1.747  1.00  0.00     0.020 C 
ATOM     25  C   UNL     1       5.291   7.948  -3.272  1.00  0.00     0.011 C 
ATOM     26  C   UNL     1       5.480   9.354  -1.218  1.00  0.00     0.011 C 
ENDBRANCH  23  24
ENDBRANCH  22  23
ENDBRANCH  13  22
ENDBRANCH  11  12
ENDBRANCH   5  11
ENDBRANCH   3   5
ENDBRANCH   2   3
ENDBRANCH   1   2
BRANCH   1  27
ATOM     27  C   UNL     1      -1.495   5.657   0.823  1.00  0.00     0.275 C 
BRANCH  27  28
ATOM     28  O   UNL     1      -1.182   4.764   1.907  1.00  0.00    -0.458 OA
BRANCH  28  29
ATOM     29  C   UNL     1      -1.543   3.477   1.695  1.00  0.00     0.338 C 
ATOM     30  O   UNL     1      -2.162   3.027   0.747  1.00  0.00    -0.246 OA
BRANCH  29  31
ATOM     31  C   UNL     1      -0.958   2.626   2.738  1.00  0.00     0.060 A 
ATOM     32  C   UNL     1       0.247   1.990   2.452  1.00  0.00     0.016 A 
ATOM     33  C   UNL     1      -1.651   2.336   3.912  1.00  0.00     0.016 A 
ATOM     34  C   UNL     1       0.745   1.013   3.305  1.00  0.00     0.010 A 
ATOM     35  C   UNL     1      -1.129   1.380   4.793  1.00  0.00     0.010 A 
ATOM     36  C   UNL     1       0.054   0.686   4.478  1.00  0.00    -0.014 A 
BRANCH  36  37
ATOM     37  C   UNL     1       0.539  -0.449   5.306  1.00  0.00     0.031 A 
ATOM     38  C   UNL     1      -0.264  -1.721   5.373  1.00  0.00     0.074 A 
ATOM     39  C   UNL     1       1.728  -0.366   5.932  1.00  0.00     0.049 A 
ATOM     40  N   UNL     1      -0.050  -2.801   6.081  1.00  0.00    -0.248 NA
ATOM     41  C   UNL     1      -1.473  -1.780   4.538  1.00  0.00     0.031 C 
ATOM     42  C   UNL     1       2.620   0.795   5.898  1.00  0.00     0.029 A 
ATOM     43  N   UNL     1       2.401  -1.280   6.703  1.00  0.00    -0.354 N 
ATOM     44  C   UNL     1      -1.117  -3.652   5.809  1.00  0.00     0.074 A 
ATOM     45  C   UNL     1      -1.982  -2.954   4.881  1.00  0.00     0.031 C 
ATOM     46  C   UNL     1       3.734   0.513   6.592  1.00  0.00     0.029 A 
ATOM     47  C   UNL     1       3.611  -0.822   7.170  1.00  0.00     0.049 A 
ATOM     48  H   UNL     1       2.051  -2.178   6.904  1.00  0.00     0.167 HD
ATOM     49  C   UNL     1      -1.351  -4.899   6.291  1.00  0.00     0.034 A 
ATOM     50  C   UNL     1       4.509  -1.403   7.989  1.00  0.00     0.034 A 
ATOM     51  C   UNL     1      -0.463  -5.591   7.194  1.00  0.00     0.049 A 
ATOM     52  C   UNL     1       4.224  -2.784   8.516  1.00  0.00     0.074 A 
ATOM     53  C   UNL     1      -0.606  -6.850   7.754  1.00  0.00     0.029 A 
ATOM     54  N   UNL     1       0.744  -5.087   7.663  1.00  0.00    -0.354 N 
ATOM     55  N   UNL     1       3.181  -3.553   8.298  1.00  0.00    -0.248 NA
ATOM     56  C   UNL     1       5.237  -3.376   9.398  1.00  0.00     0.031 C 
ATOM     57  C   UNL     1       0.488  -7.086   8.596  1.00  0.00     0.029 A 
ATOM     58  C   UNL     1       1.347  -6.002   8.515  1.00  0.00     0.049 A 
ATOM     59  H   UNL     1       1.118  -4.208   7.426  1.00  0.00     0.167 HD
ATOM     60  C   UNL     1       3.417  -4.721   9.015  1.00  0.00     0.074 A 
ATOM     61  C   UNL     1       4.715  -4.569   9.641  1.00  0.00     0.031 C 
ATOM     62  C   UNL     1       2.630  -5.820   9.151  1.00  0.00     0.034 A 
BRANCH  49  63
ATOM     63  C   UNL     1      -2.655  -5.554   5.902  1.00  0.00     0.023 A 
ATOM     64  C   UNL     1      -2.938  -5.930   4.577  1.00  0.00     0.031 A 
ATOM     65  C   UNL     1      -3.650  -5.766   6.873  1.00  0.00     0.131 A 
ATOM     66  C   UNL     1      -4.208  -6.432   4.249  1.00  0.00     0.055 A 
ATOM     67  C   UNL     1      -4.885  -6.333   6.553  1.00  0.00     0.041 A 
ATOM     68  F   UNL     1      -3.445  -5.407   8.151  1.00  0.00    -0.206 F 
ATOM     69  C   UNL     1      -5.175  -6.656   5.231  1.00  0.00     0.022 A 
BRANCH  66  70
ATOM     70  S   UNL     1      -4.628  -6.660   2.499  1.00  0.00     0.124 S 
ATOM     71  O   UNL     1      -4.466  -5.305   1.978  1.00  0.00    -0.237 OA
ATOM     72  O   UNL     1      -3.637  -7.637   2.062  1.00  0.00    -0.237 OA
ATOM     73  O   UNL     1      -6.006  -7.145   2.538  1.00  0.00    -0.744 OA
ENDBRANCH  66  70
ENDBRANCH  49  63
BRANCH  50  74
ATOM     74  C   UNL     1       5.736  -0.666   8.405  1.00  0.00     0.023 A 
ATOM     75  C   UNL     1       7.014  -1.108   8.031  1.00  0.00     0.031 A 
ATOM     76  C   UNL     1       5.643   0.478   9.218  1.00  0.00     0.131 A 
ATOM     77  C   UNL     1       8.152  -0.431   8.499  1.00  0.00     0.055 A 
ATOM     78  C   UNL     1       6.775   1.176   9.641  1.00  0.00     0.041 A 
ATOM     79  F   UNL     1       4.443   0.943   9.601  1.00  0.00    -0.206 F 
ATOM     80  C   UNL     1       8.040   0.715   9.291  1.00  0.00     0.022 A 
BRANCH  77  81
ATOM     81  S   UNL     1       9.789  -1.109   8.113  1.00  0.00     0.124 S 
ATOM     82  O   UNL     1       9.705  -2.444   8.695  1.00  0.00    -0.237 OA
ATOM     83  O   UNL     1       9.806  -1.045   6.655  1.00  0.00    -0.237 OA
ATOM     84  O   UNL     1      10.705  -0.191   8.785  1.00  0.00    -0.744 OA
ENDBRANCH  77  81
ENDBRANCH  50  74
BRANCH  62  85
ATOM     85  C   UNL     1       3.182  -6.939   9.999  1.00  0.00     0.023 A 
ATOM     86  C   UNL     1       3.361  -6.789  11.385  1.00  0.00     0.031 A 
ATOM     87  C   UNL     1       3.580  -8.149   9.405  1.00  0.00     0.131 A 
ATOM     88  C   UNL     1       3.989  -7.804  12.122  1.00  0.00     0.055 A 
ATOM     89  C   UNL     1       4.153  -9.178  10.153  1.00  0.00     0.041 A 
ATOM     90  F   UNL     1       3.433  -8.343   8.085  1.00  0.00    -0.206 F 
ATOM     91  C   UNL     1       4.375  -9.003  11.516  1.00  0.00     0.022 A 
BRANCH  88  92
ATOM     92  S   UNL     1       4.401  -7.490  13.861  1.00  0.00     0.124 S 
ATOM     93  O   UNL     1       5.177  -6.256  13.773  1.00  0.00    -0.237 OA
ATOM     94  O   UNL     1       3.083  -7.371  14.476  1.00  0.00    -0.237 OA
ATOM     95  O   UNL     1       5.164  -8.674  14.252  1.00  0.00    -0.744 OA
ENDBRANCH  88  92
ENDBRANCH  62  85
ENDBRANCH  36  37
ENDBRANCH  29  31
ENDBRANCH  28  29
ENDBRANCH  27  28
ENDBRANCH   1  27
TORSDOF 20
