REMARK SMILES C[C@H](C(=O)OCCOC(=O)c1ccc(-c2c3nc(c(-c4cc(S(=O)(=O)[O-])ccc4F)c4ccc([nH]4)c(-c4cc(S(=O)(=O)[O-])ccc4F)c4nc(c(-c5cc(S(=O)(=O)[O-])ccc5F)c5ccc2[nH]5)C=C4)C=C3)cc1)c1ccc2ncccc2c1
REMARK SMILES IDX 7 1 6 2 5 3 3 4 4 5 2 6 1 7 74 8 75 9 83 10 76 11 82 12
REMARK SMILES IDX 77 13 81 14 78 15 80 16 79 17 8 18 9 19 10 20 11 21 12 22
REMARK SMILES IDX 73 23 13 24 72 25 14 26 15 27 16 28 66 29 17 30 71 31 65 32
REMARK SMILES IDX 67 33 18 34 70 35 64 36 63 37 19 39 51 40 31 41 50 42 32 43
REMARK SMILES IDX 35 44 49 45 68 46 33 47 34 48 48 50 69 51 36 52 20 53 21 54
REMARK SMILES IDX 29 55 22 56 28 57 30 58 27 59 23 60 24 61 25 62 26 63 52 64
REMARK SMILES IDX 53 65 61 66 54 67 60 68 62 69 59 70 55 71 56 72 57 73 58 74
REMARK SMILES IDX 37 75 38 76 46 77 39 78 45 79 47 80 44 81 40 82 41 83 42 84
REMARK SMILES IDX 43 85
REMARK H PARENT 67 38 35 49
REMARK Flexibility Score: inf
ROOT
ATOM      1  C   UNL     1       0.643  -1.289  -2.400  1.00  0.00     0.275 C 
ENDROOT
BRANCH   1   2
ATOM      2  C   UNL     1       1.175  -1.826  -1.075  1.00  0.00     0.274 C 
BRANCH   2   3
ATOM      3  O   UNL     1       0.562  -1.143   0.035  1.00  0.00    -0.462 OA
BRANCH   3   4
ATOM      4  C   UNL     1       1.299  -0.187   0.668  1.00  0.00     0.313 C 
ATOM      5  O   UNL     1       2.457   0.084   0.373  1.00  0.00    -0.252 OA
BRANCH   4   6
ATOM      6  C   UNL     1       0.560   0.423   1.867  1.00  0.00     0.126 C 
ATOM      7  C   UNL     1       1.251   1.722   2.311  1.00  0.00     0.025 C 
BRANCH   6   8
ATOM      8  C   UNL     1      -0.949   0.559   1.681  1.00  0.00    -0.033 A 
ATOM      9  C   UNL     1      -1.596   1.779   1.454  1.00  0.00     0.007 A 
ATOM     10  C   UNL     1      -1.747  -0.597   1.736  1.00  0.00     0.015 A 
ATOM     11  C   UNL     1      -2.990   1.833   1.303  1.00  0.00     0.029 A 
ATOM     12  C   UNL     1      -3.139  -0.542   1.550  1.00  0.00     0.000 A 
ATOM     13  C   UNL     1      -3.780   0.693   1.343  1.00  0.00     0.070 A 
ATOM     14  C   UNL     1      -3.923  -1.703   1.554  1.00  0.00     0.012 A 
ATOM     15  N   UNL     1      -5.114   0.788   1.182  1.00  0.00    -0.256 NA
ATOM     16  C   UNL     1      -5.295  -1.609   1.364  1.00  0.00     0.021 A 
ATOM     17  C   UNL     1      -5.838  -0.351   1.190  1.00  0.00     0.112 A 
ENDBRANCH   6   8
ENDBRANCH   4   6
ENDBRANCH   3   4
ENDBRANCH   2   3
ENDBRANCH   1   2
BRANCH   1  18
ATOM     18  O   UNL     1       1.120   0.050  -2.599  1.00  0.00    -0.458 OA
BRANCH  18  19
ATOM     19  C   UNL     1       0.176   1.019  -2.578  1.00  0.00     0.338 C 
ATOM     20  O   UNL     1      -1.029   0.884  -2.490  1.00  0.00    -0.246 OA
BRANCH  19  21
ATOM     21  C   UNL     1       0.849   2.322  -2.660  1.00  0.00     0.060 A 
ATOM     22  C   UNL     1       1.444   2.850  -1.514  1.00  0.00     0.016 A 
ATOM     23  C   UNL     1       0.821   3.052  -3.846  1.00  0.00     0.016 A 
ATOM     24  C   UNL     1       1.976   4.136  -1.535  1.00  0.00     0.010 A 
ATOM     25  C   UNL     1       1.407   4.321  -3.881  1.00  0.00     0.010 A 
ATOM     26  C   UNL     1       1.968   4.885  -2.719  1.00  0.00    -0.014 A 
BRANCH  26  27
ATOM     27  C   UNL     1       2.490   6.277  -2.732  1.00  0.00     0.031 A 
ATOM     28  C   UNL     1       1.548   7.422  -2.994  1.00  0.00     0.074 A 
ATOM     29  C   UNL     1       3.796   6.518  -2.506  1.00  0.00     0.049 A 
ATOM     30  N   UNL     1       1.816   8.684  -3.208  1.00  0.00    -0.248 NA
ATOM     31  C   UNL     1       0.115   7.095  -3.031  1.00  0.00     0.031 C 
ATOM     32  C   UNL     1       4.801   5.501  -2.189  1.00  0.00     0.029 A 
ATOM     33  N   UNL     1       4.503   7.694  -2.506  1.00  0.00    -0.354 N 
ATOM     34  C   UNL     1       0.590   9.296  -3.452  1.00  0.00     0.074 A 
ATOM     35  C   UNL     1      -0.419   8.260  -3.368  1.00  0.00     0.031 C 
ATOM     36  C   UNL     1       5.989   6.100  -2.009  1.00  0.00     0.029 A 
ATOM     37  C   UNL     1       5.848   7.529  -2.267  1.00  0.00     0.049 A 
ATOM     38  H   UNL     1       4.087   8.573  -2.663  1.00  0.00     0.167 HD
ATOM     39  C   UNL     1       0.334  10.600  -3.725  1.00  0.00     0.034 A 
ATOM     40  C   UNL     1       6.859   8.421  -2.294  1.00  0.00     0.034 A 
ATOM     41  C   UNL     1       1.348  11.626  -3.772  1.00  0.00     0.049 A 
ATOM     42  C   UNL     1       6.556   9.856  -2.638  1.00  0.00     0.074 A 
ATOM     43  C   UNL     1       1.198  12.978  -4.026  1.00  0.00     0.029 A 
ATOM     44  N   UNL     1       2.703  11.413  -3.556  1.00  0.00    -0.354 N 
ATOM     45  N   UNL     1       5.400  10.410  -2.924  1.00  0.00    -0.248 NA
ATOM     46  C   UNL     1       7.695  10.781  -2.676  1.00  0.00     0.031 C 
ATOM     47  C   UNL     1       2.466  13.572  -4.013  1.00  0.00     0.029 A 
ATOM     48  C   UNL     1       3.402  12.603  -3.691  1.00  0.00     0.049 A 
ATOM     49  H   UNL     1       3.109  10.543  -3.338  1.00  0.00     0.167 HD
ATOM     50  C   UNL     1       5.674  11.753  -3.163  1.00  0.00     0.074 A 
ATOM     51  C   UNL     1       7.099  11.928  -2.969  1.00  0.00     0.031 C 
ATOM     52  C   UNL     1       4.825  12.753  -3.511  1.00  0.00     0.034 A 
BRANCH  39  53
ATOM     53  C   UNL     1      -1.091  10.970  -4.056  1.00  0.00     0.023 A 
ATOM     54  C   UNL     1      -2.124  10.891  -3.106  1.00  0.00     0.031 A 
ATOM     55  C   UNL     1      -1.424  11.376  -5.361  1.00  0.00     0.131 A 
ATOM     56  C   UNL     1      -3.449  11.149  -3.492  1.00  0.00     0.055 A 
ATOM     57  C   UNL     1      -2.733  11.700  -5.720  1.00  0.00     0.041 A 
ATOM     58  F   UNL     1      -0.482  11.449  -6.315  1.00  0.00    -0.206 F 
ATOM     59  C   UNL     1      -3.758  11.574  -4.787  1.00  0.00     0.022 A 
BRANCH  56  60
ATOM     60  S   UNL     1      -4.782  10.796  -2.314  1.00  0.00     0.124 S 
ATOM     61  O   UNL     1      -4.585   9.370  -2.065  1.00  0.00    -0.237 OA
ATOM     62  O   UNL     1      -4.468  11.688  -1.205  1.00  0.00    -0.237 OA
ATOM     63  O   UNL     1      -5.995  11.129  -3.059  1.00  0.00    -0.744 OA
ENDBRANCH  56  60
ENDBRANCH  39  53
BRANCH  40  64
ATOM     64  C   UNL     1       8.261   7.977  -2.051  1.00  0.00     0.023 A 
ATOM     65  C   UNL     1       8.983   8.430  -0.936  1.00  0.00     0.031 A 
ATOM     66  C   UNL     1       8.913   7.122  -2.958  1.00  0.00     0.131 A 
ATOM     67  C   UNL     1      10.325   8.052  -0.773  1.00  0.00     0.055 A 
ATOM     68  C   UNL     1      10.232   6.710  -2.766  1.00  0.00     0.041 A 
ATOM     69  F   UNL     1       8.267   6.662  -4.042  1.00  0.00    -0.206 F 
ATOM     70  C   UNL     1      10.950   7.185  -1.673  1.00  0.00     0.022 A 
BRANCH  67  71
ATOM     71  S   UNL     1      11.271   8.769   0.599  1.00  0.00     0.124 S 
ATOM     72  O   UNL     1      11.162  10.197   0.322  1.00  0.00    -0.237 OA
ATOM     73  O   UNL     1      10.535   8.282   1.761  1.00  0.00    -0.237 OA
ATOM     74  O   UNL     1      12.606   8.199   0.426  1.00  0.00    -0.744 OA
ENDBRANCH  67  71
ENDBRANCH  40  64
BRANCH  52  75
ATOM     75  C   UNL     1       5.426  14.126  -3.667  1.00  0.00     0.023 A 
ATOM     76  C   UNL     1       6.281  14.438  -4.738  1.00  0.00     0.031 A 
ATOM     77  C   UNL     1       5.158  15.126  -2.716  1.00  0.00     0.131 A 
ATOM     78  C   UNL     1       6.880  15.705  -4.805  1.00  0.00     0.055 A 
ATOM     79  C   UNL     1       5.718  16.400  -2.814  1.00  0.00     0.041 A 
ATOM     80  F   UNL     1       4.349  14.877  -1.673  1.00  0.00    -0.206 F 
ATOM     81  C   UNL     1       6.594  16.692  -3.857  1.00  0.00     0.022 A 
BRANCH  78  82
ATOM     82  S   UNL     1       8.103  16.025  -6.106  1.00  0.00     0.124 S 
ATOM     83  O   UNL     1       9.113  15.008  -5.830  1.00  0.00    -0.237 OA
ATOM     84  O   UNL     1       7.322  15.833  -7.324  1.00  0.00    -0.237 OA
ATOM     85  O   UNL     1       8.523  17.402  -5.852  1.00  0.00    -0.744 OA
ENDBRANCH  78  82
ENDBRANCH  52  75
ENDBRANCH  26  27
ENDBRANCH  19  21
ENDBRANCH  18  19
ENDBRANCH   1  18
TORSDOF 15
