REMARK SMILES CS(=O)(=O)c1ccc(C2=NN(c3ccc(C(=O)OCCOC(=O)c4ccc(-c5c6nc(c(-c7cc(S(=O)(=O)[O-])ccc7F)c7ccc([nH]7)c(-c7cc(S(=O)(=O)[O-])ccc7F)c7nc(c(-c8cc(S(=O)(=O)[O-])ccc8F)c8ccc5[nH]8)C=C7)C=C6)cc4)cc3)[C@H](c3ccc(Cl)cc3)C2)cc1
REMARK SMILES IDX 19 1 18 2 16 3 17 4 15 5 12 6 13 7 88 8 14 9 87 10 11 11
REMARK SMILES IDX 9 12 10 13 97 14 89 15 8 16 5 17 6 18 99 19 7 20 98 21 2 22
REMARK SMILES IDX 1 23 3 24 4 25 90 26 91 27 96 28 92 29 95 30 93 31 94 32
REMARK SMILES IDX 20 33 21 34 22 35 23 36 24 37 25 38 86 39 26 40 85 41 27 42
REMARK SMILES IDX 28 43 29 44 79 45 30 46 84 47 78 48 80 49 31 50 83 51 77 52
REMARK SMILES IDX 76 53 32 55 64 56 44 57 63 58 45 59 48 60 62 61 81 62 46 63
REMARK SMILES IDX 47 64 61 66 82 67 49 68 33 69 34 70 42 71 35 72 41 73 43 74
REMARK SMILES IDX 40 75 36 76 37 77 38 78 39 79 65 80 66 81 74 82 67 83 73 84
REMARK SMILES IDX 75 85 72 86 68 87 69 88 70 89 71 90 50 91 51 92 59 93 52 94
REMARK SMILES IDX 58 95 60 96 57 97 53 98 54 99 55 100 56 101
REMARK H PARENT 80 54 48 65
REMARK Flexibility Score: inf
ROOT
ATOM      1  C   UNL     1       9.048   2.510  12.724  1.00  0.00     0.275 C 
ENDROOT
BRANCH   1   2
ATOM      2  O   UNL     1       7.842   2.376  11.948  1.00  0.00    -0.458 OA
BRANCH   2   3
ATOM      3  C   UNL     1       7.482   3.466  11.227  1.00  0.00     0.338 C 
ATOM      4  O   UNL     1       8.044   4.551  11.231  1.00  0.00    -0.246 OA
BRANCH   3   5
ATOM      5  C   UNL     1       6.316   3.171  10.358  1.00  0.00     0.060 A 
ATOM      6  C   UNL     1       4.066   2.792   8.717  1.00  0.00     0.060 A 
ATOM      7  C   UNL     1       5.010   3.773   8.403  1.00  0.00     0.029 A 
ATOM      8  C   UNL     1       4.292   1.964   9.826  1.00  0.00     0.029 A 
ATOM      9  C   UNL     1       6.107   3.985   9.236  1.00  0.00     0.018 A 
ATOM     10  C   UNL     1       5.413   2.144  10.642  1.00  0.00     0.018 A 
BRANCH   6  11
ATOM     11  N   UNL     1       2.847   2.721   8.031  1.00  0.00    -0.257 N 
ATOM     12  C   UNL     1       1.909   2.918   6.120  1.00  0.00     0.071 C 
ATOM     13  N   UNL     1       2.862   2.295   6.740  1.00  0.00    -0.176 NA
ATOM     14  C   UNL     1       1.138   3.917   6.938  1.00  0.00     0.091 C 
ATOM     15  C   UNL     1       1.882   3.807   8.273  1.00  0.00     0.144 C 
BRANCH  12  16
ATOM     16  C   UNL     1       1.557   2.635   4.716  1.00  0.00    -0.002 A 
ATOM     17  C   UNL     1       0.798   1.980   2.115  1.00  0.00     0.067 A 
ATOM     18  C   UNL     1       1.238   0.974   2.978  1.00  0.00     0.021 A 
ATOM     19  C   UNL     1       0.765   3.316   2.536  1.00  0.00     0.021 A 
ATOM     20  C   UNL     1       1.630   1.308   4.275  1.00  0.00     0.011 A 
ATOM     21  C   UNL     1       1.135   3.644   3.845  1.00  0.00     0.011 A 
BRANCH  17  22
ATOM     22  S   UNL     1       0.243   1.595   0.469  1.00  0.00     0.175 S 
ATOM     23  C   UNL     1       1.132   0.151  -0.048  1.00  0.00     0.163 C 
ATOM     24  O   UNL     1       0.653   2.694  -0.384  1.00  0.00    -0.224 OA
ATOM     25  O   UNL     1      -1.159   1.240   0.596  1.00  0.00    -0.224 OA
ENDBRANCH  17  22
ENDBRANCH  12  16
BRANCH  15  26
ATOM     26  C   UNL     1       1.088   3.497   9.536  1.00  0.00    -0.023 A 
ATOM     27  C   UNL     1      -0.095   2.745   9.542  1.00  0.00     0.007 A 
ATOM     28  C   UNL     1       1.642   3.873  10.778  1.00  0.00     0.007 A 
ATOM     29  C   UNL     1      -0.702   2.381  10.749  1.00  0.00     0.021 A 
ATOM     30  C   UNL     1       1.053   3.486  11.983  1.00  0.00     0.021 A 
ATOM     31  C   UNL     1      -0.119   2.740  11.963  1.00  0.00     0.041 A 
ATOM     32  Cl  UNL     1      -0.836   2.234  13.443  1.00  0.00    -0.084 Cl
ENDBRANCH  15  26
ENDBRANCH   6  11
ENDBRANCH   3   5
ENDBRANCH   2   3
ENDBRANCH   1   2
BRANCH   1  33
ATOM     33  C   UNL     1      10.223   1.830  12.024  1.00  0.00     0.275 C 
BRANCH  33  34
ATOM     34  O   UNL     1      10.572   2.534  10.819  1.00  0.00    -0.458 OA
BRANCH  34  35
ATOM     35  C   UNL     1      10.194   1.935   9.666  1.00  0.00     0.338 C 
ATOM     36  O   UNL     1       9.637   0.860   9.537  1.00  0.00    -0.246 OA
BRANCH  35  37
ATOM     37  C   UNL     1      10.538   2.807   8.534  1.00  0.00     0.060 A 
ATOM     38  C   UNL     1       9.683   3.857   8.206  1.00  0.00     0.016 A 
ATOM     39  C   UNL     1      11.641   2.522   7.734  1.00  0.00     0.016 A 
ATOM     40  C   UNL     1       9.887   4.595   7.042  1.00  0.00     0.010 A 
ATOM     41  C   UNL     1      11.888   3.311   6.605  1.00  0.00     0.010 A 
ATOM     42  C   UNL     1      11.001   4.340   6.232  1.00  0.00    -0.014 A 
BRANCH  42  43
ATOM     43  C   UNL     1      11.232   5.108   4.976  1.00  0.00     0.031 A 
ATOM     44  C   UNL     1      11.282   4.377   3.660  1.00  0.00     0.074 A 
ATOM     45  C   UNL     1      11.423   6.442   5.007  1.00  0.00     0.049 A 
ATOM     46  N   UNL     1      11.725   4.783   2.499  1.00  0.00    -0.248 NA
ATOM     47  C   UNL     1      10.778   2.994   3.662  1.00  0.00     0.031 C 
ATOM     48  C   UNL     1      11.320   7.287   6.199  1.00  0.00     0.029 A 
ATOM     49  N   UNL     1      11.757   7.324   4.007  1.00  0.00    -0.354 N 
ATOM     50  C   UNL     1      11.616   3.689   1.646  1.00  0.00     0.074 A 
ATOM     51  C   UNL     1      11.059   2.603   2.427  1.00  0.00     0.031 C 
ATOM     52  C   UNL     1      11.573   8.561   5.859  1.00  0.00     0.029 A 
ATOM     53  C   UNL     1      11.956   8.611   4.453  1.00  0.00     0.049 A 
ATOM     54  H   UNL     1      11.846   7.060   3.063  1.00  0.00     0.167 HD
ATOM     55  C   UNL     1      11.962   3.602   0.338  1.00  0.00     0.034 A 
ATOM     56  C   UNL     1      12.452   9.695   3.821  1.00  0.00     0.034 A 
ATOM     57  C   UNL     1      12.473   4.713  -0.429  1.00  0.00     0.049 A 
ATOM     58  C   UNL     1      12.899   9.558   2.388  1.00  0.00     0.074 A 
ATOM     59  C   UNL     1      12.831   4.747  -1.766  1.00  0.00     0.029 A 
ATOM     60  N   UNL     1      12.695   5.990   0.072  1.00  0.00    -0.354 N 
ATOM     61  N   UNL     1      12.857   8.502   1.608  1.00  0.00    -0.248 NA
ATOM     62  C   UNL     1      13.479  10.750   1.754  1.00  0.00     0.031 C 
ATOM     63  C   UNL     1      13.327   6.022  -2.056  1.00  0.00     0.029 A 
ATOM     64  C   UNL     1      13.211   6.808  -0.921  1.00  0.00     0.049 A 
ATOM     65  H   UNL     1      12.512   6.272   0.997  1.00  0.00     0.167 HD
ATOM     66  C   UNL     1      13.375   8.914   0.384  1.00  0.00     0.074 A 
ATOM     67  C   UNL     1      13.720  10.314   0.527  1.00  0.00     0.031 C 
ATOM     68  C   UNL     1      13.544   8.203  -0.759  1.00  0.00     0.034 A 
BRANCH  55  69
ATOM     69  C   UNL     1      11.872   2.248  -0.325  1.00  0.00     0.023 A 
ATOM     70  C   UNL     1      10.649   1.591  -0.538  1.00  0.00     0.031 A 
ATOM     71  C   UNL     1      13.050   1.599  -0.740  1.00  0.00     0.131 A 
ATOM     72  C   UNL     1      10.636   0.301  -1.094  1.00  0.00     0.055 A 
ATOM     73  C   UNL     1      13.025   0.348  -1.359  1.00  0.00     0.041 A 
ATOM     74  F   UNL     1      14.250   2.168  -0.543  1.00  0.00    -0.206 F 
ATOM     75  C   UNL     1      11.813  -0.314  -1.528  1.00  0.00     0.022 A 
BRANCH  72  76
ATOM     76  S   UNL     1       9.071  -0.616  -1.132  1.00  0.00     0.124 S 
ATOM     77  O   UNL     1       8.721  -0.668   0.285  1.00  0.00    -0.237 OA
ATOM     78  O   UNL     1       8.225   0.231  -1.966  1.00  0.00    -0.237 OA
ATOM     79  O   UNL     1       9.439  -1.901  -1.723  1.00  0.00    -0.744 OA
ENDBRANCH  72  76
ENDBRANCH  55  69
BRANCH  56  80
ATOM     80  C   UNL     1      12.631  10.984   4.552  1.00  0.00     0.023 A 
ATOM     81  C   UNL     1      11.942  12.141   4.157  1.00  0.00     0.031 A 
ATOM     82  C   UNL     1      13.529  11.089   5.631  1.00  0.00     0.131 A 
ATOM     83  C   UNL     1      12.190  13.360   4.808  1.00  0.00     0.055 A 
ATOM     84  C   UNL     1      13.728  12.290   6.313  1.00  0.00     0.041 A 
ATOM     85  F   UNL     1      14.221  10.017   6.047  1.00  0.00    -0.206 F 
ATOM     86  C   UNL     1      13.066  13.439   5.894  1.00  0.00     0.022 A 
BRANCH  83  87
ATOM     87  S   UNL     1      11.418  14.866   4.156  1.00  0.00     0.124 S 
ATOM     88  O   UNL     1      11.904  14.877   2.780  1.00  0.00    -0.237 OA
ATOM     89  O   UNL     1       9.998  14.579   4.333  1.00  0.00    -0.237 OA
ATOM     90  O   UNL     1      11.951  15.921   5.015  1.00  0.00    -0.744 OA
ENDBRANCH  83  87
ENDBRANCH  56  80
BRANCH  68  91
ATOM     91  C   UNL     1      14.060   8.949  -1.962  1.00  0.00     0.023 A 
ATOM     92  C   UNL     1      15.390   9.394  -2.047  1.00  0.00     0.031 A 
ATOM     93  C   UNL     1      13.200   9.206  -3.045  1.00  0.00     0.131 A 
ATOM     94  C   UNL     1      15.813  10.107  -3.179  1.00  0.00     0.055 A 
ATOM     95  C   UNL     1      13.640   9.873  -4.189  1.00  0.00     0.041 A 
ATOM     96  F   UNL     1      11.920   8.803  -3.011  1.00  0.00    -0.206 F 
ATOM     97  C   UNL     1      14.951  10.335  -4.257  1.00  0.00     0.022 A 
BRANCH  94  98
ATOM     98  S   UNL     1      17.495  10.784  -3.208  1.00  0.00     0.124 S 
ATOM     99  O   UNL     1      17.465  11.720  -2.088  1.00  0.00    -0.237 OA
ATOM    100  O   UNL     1      18.317   9.593  -3.021  1.00  0.00    -0.237 OA
ATOM    101  O   UNL     1      17.595  11.402  -4.529  1.00  0.00    -0.744 OA
ENDBRANCH  94  98
ENDBRANCH  68  91
ENDBRANCH  42  43
ENDBRANCH  35  37
ENDBRANCH  34  35
ENDBRANCH  33  34
ENDBRANCH   1  33
TORSDOF 18
