REMARK SMILES Cc1ccc([C@H]2CC(c3cccs3)=NN2C(=O)CCC(=O)OCCOC(=O)c2ccc(-c3c4nc(c(-c5cc(S(=O)(=O)[O-])ccc5F)c5ccc([nH]5)c(-c5cc(S(=O)(=O)[O-])ccc5F)c5nc(c(-c6cc(S(=O)(=O)[O-])ccc6F)c6ccc3[nH]6)C=C5)C=C4)cc2)o1
REMARK SMILES IDX 23 1 22 2 20 3 21 4 19 5 18 6 16 7 17 8 15 9 6 10 7 11 8 12
REMARK SMILES IDX 14 13 5 14 1 15 2 16 3 17 91 18 4 19 9 20 10 21 13 22 11 23
REMARK SMILES IDX 12 24 24 25 25 26 26 27 27 28 28 29 29 30 90 31 30 32 89 33
REMARK SMILES IDX 31 34 32 35 33 36 83 37 34 38 88 39 82 40 84 41 35 42 87 43
REMARK SMILES IDX 81 44 80 45 36 47 68 48 48 49 67 50 49 51 52 52 66 53 85 54
REMARK SMILES IDX 50 55 51 56 65 58 86 59 53 60 37 61 38 62 46 63 39 64 45 65
REMARK SMILES IDX 47 66 44 67 40 68 41 69 42 70 43 71 69 72 70 73 78 74 71 75
REMARK SMILES IDX 77 76 79 77 76 78 72 79 73 80 74 81 75 82 54 83 55 84 63 85
REMARK SMILES IDX 56 86 62 87 64 88 61 89 57 90 58 91 59 92 60 93
REMARK H PARENT 84 46 52 57
REMARK Flexibility Score: inf
ROOT
ATOM      1  C   UNL     1      -2.495  -0.463  -1.370  1.00  0.00     0.274 C 
ENDROOT
BRANCH   1   2
ATOM      2  O   UNL     1      -3.163  -0.147   0.044  1.00  0.00    -0.462 OA
BRANCH   2   3
ATOM      3  C   UNL     1      -3.617  -0.868   1.174  1.00  0.00     0.306 C 
ATOM      4  O   UNL     1      -4.264  -1.906   1.032  1.00  0.00    -0.252 OA
BRANCH   3   5
ATOM      5  C   UNL     1      -2.924  -0.535   2.714  1.00  0.00     0.132 C 
BRANCH   5   6
ATOM      6  C   UNL     1      -2.418   0.799   3.349  1.00  0.00     0.114 C 
BRANCH   6   7
ATOM      7  C   UNL     1      -3.368   1.833   2.944  1.00  0.00     0.243 C 
ATOM      8  O   UNL     1      -4.236   2.285   3.693  1.00  0.00    -0.273 OA
BRANCH   7   9
ATOM      9  N   UNL     1      -3.305   1.962   1.593  1.00  0.00    -0.222 N 
ATOM     10  C   UNL     1      -2.085   1.860   0.687  1.00  0.00     0.183 C 
ATOM     11  C   UNL     1      -2.865   2.386  -0.607  1.00  0.00     0.095 C 
ATOM     12  C   UNL     1      -4.329   2.134  -0.307  1.00  0.00     0.081 C 
ATOM     13  N   UNL     1      -4.547   2.052   0.960  1.00  0.00    -0.173 NA
BRANCH  10  14
ATOM     14  C   UNL     1      -0.972   0.406   0.788  1.00  0.00     0.129 A 
ATOM     15  C   UNL     1       2.406  -0.408  -0.312  1.00  0.00     0.087 C 
ATOM     16  C   UNL     1       1.089  -0.499   0.347  1.00  0.00     0.101 A 
ATOM     17  C   UNL     1       0.305  -1.582   0.514  1.00  0.00     0.045 A 
ATOM     18  O   UNL     1       0.398   0.634   0.720  1.00  0.00    -0.464 OA
ATOM     19  C   UNL     1      -0.955  -1.029   0.800  1.00  0.00     0.048 A 
ENDBRANCH  10  14
BRANCH  12  20
ATOM     20  C   UNL     1      -5.406   1.931  -1.275  1.00  0.00     0.050 A 
ATOM     21  C   UNL     1      -5.864   0.746  -1.842  1.00  0.00     0.022 A 
ATOM     22  S   UNL     1      -6.445   3.226  -1.706  1.00  0.00    -0.142 S 
ATOM     23  C   UNL     1      -7.027   0.911  -2.659  1.00  0.00     0.012 A 
ATOM     24  C   UNL     1      -7.468   2.214  -2.647  1.00  0.00     0.065 A 
ENDBRANCH  12  20
ENDBRANCH   7   9
ENDBRANCH   6   7
ENDBRANCH   5   6
ENDBRANCH   3   5
ENDBRANCH   2   3
ENDBRANCH   1   2
BRANCH   1  25
ATOM     25  C   UNL     1      -1.214   0.528  -2.126  1.00  0.00     0.275 C 
BRANCH  25  26
ATOM     26  O   UNL     1      -0.007   1.245  -1.489  1.00  0.00    -0.458 OA
BRANCH  26  27
ATOM     27  C   UNL     1       0.304   2.562  -1.125  1.00  0.00     0.338 C 
ATOM     28  O   UNL     1      -0.427   3.515  -1.347  1.00  0.00    -0.246 OA
BRANCH  27  29
ATOM     29  C   UNL     1       1.620   2.736  -0.266  1.00  0.00     0.060 A 
ATOM     30  C   UNL     1       1.646   2.687   1.157  1.00  0.00     0.016 A 
ATOM     31  C   UNL     1       2.871   2.820  -0.875  1.00  0.00     0.016 A 
ATOM     32  C   UNL     1       2.835   2.393   1.896  1.00  0.00     0.010 A 
ATOM     33  C   UNL     1       4.072   2.630  -0.123  1.00  0.00     0.010 A 
ATOM     34  C   UNL     1       4.074   2.317   1.256  1.00  0.00    -0.014 A 
BRANCH  34  35
ATOM     35  C   UNL     1       5.379   2.103   2.000  1.00  0.00     0.031 A 
ATOM     36  C   UNL     1       6.129   3.341   2.430  1.00  0.00     0.074 A 
ATOM     37  C   UNL     1       5.958   0.903   2.264  1.00  0.00     0.049 A 
ATOM     38  N   UNL     1       7.349   3.475   2.884  1.00  0.00    -0.248 NA
ATOM     39  C   UNL     1       5.383   4.600   2.316  1.00  0.00     0.031 C 
ATOM     40  C   UNL     1       5.359  -0.413   2.055  1.00  0.00     0.029 A 
ATOM     41  N   UNL     1       7.218   0.591   2.756  1.00  0.00    -0.354 N 
ATOM     42  C   UNL     1       7.525   4.840   3.094  1.00  0.00     0.074 A 
ATOM     43  C   UNL     1       6.295   5.485   2.683  1.00  0.00     0.031 C 
ATOM     44  C   UNL     1       6.259  -1.375   2.338  1.00  0.00     0.029 A 
ATOM     45  C   UNL     1       7.518  -0.761   2.750  1.00  0.00     0.049 A 
ATOM     46  H   UNL     1       7.847   1.275   3.082  1.00  0.00     0.167 HD
ATOM     47  C   UNL     1       8.601   5.503   3.585  1.00  0.00     0.034 A 
ATOM     48  C   UNL     1       8.663  -1.436   3.021  1.00  0.00     0.034 A 
ATOM     49  C   UNL     1       9.838   4.875   3.978  1.00  0.00     0.049 A 
ATOM     50  C   UNL     1       9.901  -0.668   3.443  1.00  0.00     0.074 A 
ATOM     51  C   UNL     1      10.983   5.472   4.478  1.00  0.00     0.029 A 
ATOM     52  N   UNL     1      10.103   3.515   3.904  1.00  0.00    -0.354 N 
ATOM     53  N   UNL     1      10.051   0.624   3.617  1.00  0.00    -0.248 NA
ATOM     54  C   UNL     1      11.120  -1.449   3.714  1.00  0.00     0.031 C 
ATOM     55  C   UNL     1      11.964   4.487   4.629  1.00  0.00     0.029 A 
ATOM     56  C   UNL     1      11.405   3.261   4.314  1.00  0.00     0.049 A 
ATOM     57  H   UNL     1       9.462   2.831   3.605  1.00  0.00     0.167 HD
ATOM     58  C   UNL     1      11.363   0.801   4.060  1.00  0.00     0.074 A 
ATOM     59  C   UNL     1      11.960  -0.514   4.133  1.00  0.00     0.031 C 
ATOM     60  C   UNL     1      12.007   1.950   4.387  1.00  0.00     0.034 A 
BRANCH  47  61
ATOM     61  C   UNL     1       8.498   7.008   3.657  1.00  0.00     0.023 A 
ATOM     62  C   UNL     1       7.551   7.643   4.480  1.00  0.00     0.031 A 
ATOM     63  C   UNL     1       9.318   7.816   2.850  1.00  0.00     0.131 A 
ATOM     64  C   UNL     1       7.388   9.034   4.410  1.00  0.00     0.055 A 
ATOM     65  C   UNL     1       9.213   9.207   2.855  1.00  0.00     0.041 A 
ATOM     66  F   UNL     1      10.222   7.264   2.025  1.00  0.00    -0.206 F 
ATOM     67  C   UNL     1       8.230   9.823   3.624  1.00  0.00     0.022 A 
BRANCH  64  68
ATOM     68  S   UNL     1       5.947   9.774   5.226  1.00  0.00     0.124 S 
ATOM     69  O   UNL     1       4.846   9.072   4.571  1.00  0.00    -0.237 OA
ATOM     70  O   UNL     1       6.174   9.442   6.628  1.00  0.00    -0.237 OA
ATOM     71  O   UNL     1       6.058  11.193   4.894  1.00  0.00    -0.744 OA
ENDBRANCH  64  68
ENDBRANCH  47  61
BRANCH  48  72
ATOM     72  C   UNL     1       8.751  -2.930   2.858  1.00  0.00     0.023 A 
ATOM     73  C   UNL     1       9.060  -3.776   3.940  1.00  0.00     0.031 A 
ATOM     74  C   UNL     1       8.632  -3.524   1.587  1.00  0.00     0.131 A 
ATOM     75  C   UNL     1       9.283  -5.150   3.725  1.00  0.00     0.055 A 
ATOM     76  C   UNL     1       8.800  -4.898   1.387  1.00  0.00     0.041 A 
ATOM     77  F   UNL     1       8.359  -2.771   0.509  1.00  0.00    -0.206 F 
ATOM     78  C   UNL     1       9.140  -5.718   2.458  1.00  0.00     0.022 A 
BRANCH  75  79
ATOM     79  S   UNL     1       9.863  -6.177   5.109  1.00  0.00     0.124 S 
ATOM     80  O   UNL     1      11.110  -5.513   5.468  1.00  0.00    -0.237 OA
ATOM     81  O   UNL     1       8.766  -6.046   6.061  1.00  0.00    -0.237 OA
ATOM     82  O   UNL     1      10.011  -7.503   4.511  1.00  0.00    -0.744 OA
ENDBRANCH  75  79
ENDBRANCH  48  72
BRANCH  60  83
ATOM     83  C   UNL     1      13.419   1.841   4.918  1.00  0.00     0.023 A 
ATOM     84  C   UNL     1      14.485   1.379   4.126  1.00  0.00     0.031 A 
ATOM     85  C   UNL     1      13.703   2.216   6.246  1.00  0.00     0.131 A 
ATOM     86  C   UNL     1      15.770   1.256   4.681  1.00  0.00     0.055 A 
ATOM     87  C   UNL     1      14.994   2.153   6.772  1.00  0.00     0.041 A 
ATOM     88  F   UNL     1      12.726   2.660   7.053  1.00  0.00    -0.206 F 
ATOM     89  C   UNL     1      16.035   1.660   5.992  1.00  0.00     0.022 A 
BRANCH  86  90
ATOM     90  S   UNL     1      17.077   0.474   3.695  1.00  0.00     0.124 S 
ATOM     91  O   UNL     1      16.498  -0.834   3.406  1.00  0.00    -0.237 OA
ATOM     92  O   UNL     1      17.198   1.383   2.559  1.00  0.00    -0.237 OA
ATOM     93  O   UNL     1      18.226   0.458   4.598  1.00  0.00    -0.744 OA
ENDBRANCH  86  90
ENDBRANCH  60  83
ENDBRANCH  34  35
ENDBRANCH  27  29
ENDBRANCH  26  27
ENDBRANCH  25  26
ENDBRANCH   1  25
TORSDOF 19
