REMARK SMILES C[C@H](CNc1cccc(F)c1C(=O)OCCOC(=O)c1ccc(-c2c3nc(c(-c4cc(S(=O)(=O)[O-])ccc4F)c4ccc([nH]4)c(-c4cc(S(=O)(=O)[O-])ccc4F)c4nc(c(-c5cc(S(=O)(=O)[O-])ccc5F)c5ccc2[nH]5)C=C4)C=C3)cc1)C[NH+]1CCCC1
REMARK SMILES IDX 15 1 14 2 12 3 13 4 11 5 5 6 6 7 7 8 9 9 8 10 10 11 4 12
REMARK SMILES IDX 3 14 2 15 1 16 83 17 84 18 85 19 88 20 86 22 87 23 16 24
REMARK SMILES IDX 17 25 18 26 19 27 20 28 21 29 82 30 22 31 81 32 23 33 24 34
REMARK SMILES IDX 25 35 75 36 26 37 80 38 74 39 76 40 27 41 79 42 73 43 72 44
REMARK SMILES IDX 28 46 60 47 40 48 59 49 41 50 44 51 58 52 77 53 42 54 43 55
REMARK SMILES IDX 57 57 78 58 45 59 29 60 30 61 38 62 31 63 37 64 39 65 36 66
REMARK SMILES IDX 32 67 33 68 34 69 35 70 61 71 62 72 70 73 63 74 69 75 71 76
REMARK SMILES IDX 68 77 64 78 65 79 66 80 67 81 46 82 47 83 55 84 48 85 54 86
REMARK SMILES IDX 56 87 53 88 49 89 50 90 51 91 52 92
REMARK H PARENT 4 13 84 21 76 45 44 56
REMARK Flexibility Score: inf
ROOT
ATOM      1  C   UNL     1       0.924   4.873   3.445  1.00  0.00     0.275 C 
ENDROOT
BRANCH   1   2
ATOM      2  O   UNL     1       1.841   4.547   2.388  1.00  0.00    -0.458 OA
BRANCH   2   3
ATOM      3  C   UNL     1       2.141   3.221   2.307  1.00  0.00     0.343 C 
ATOM      4  O   UNL     1       1.688   2.372   3.043  1.00  0.00    -0.246 OA
BRANCH   3   5
ATOM      5  C   UNL     1       3.082   2.948   1.193  1.00  0.00     0.118 A 
ATOM      6  C   UNL     1       2.994   1.732   0.473  1.00  0.00     0.052 A 
ATOM      7  C   UNL     1       3.886   1.545  -0.599  1.00  0.00     0.027 A 
ATOM      8  C   UNL     1       4.854   2.506  -0.926  1.00  0.00     0.005 A 
ATOM      9  C   UNL     1       4.078   3.884   0.881  1.00  0.00     0.139 A 
ATOM     10  C   UNL     1       4.955   3.674  -0.178  1.00  0.00     0.040 A 
ATOM     11  F   UNL     1       4.231   5.010   1.597  1.00  0.00    -0.206 F 
BRANCH   6  12
ATOM     12  N   UNL     1       1.908   0.875   0.628  1.00  0.00    -0.384 N 
ATOM     13  H   UNL     1       1.015   1.253   0.459  1.00  0.00     0.160 HD
BRANCH  12  14
ATOM     14  C   UNL     1       1.967  -0.526   1.016  1.00  0.00     0.122 C 
BRANCH  14  15
ATOM     15  C   UNL     1       1.026  -0.893   2.214  1.00  0.00     0.060 C 
ATOM     16  C   UNL     1       1.715  -0.498   3.531  1.00  0.00     0.015 C 
BRANCH  15  17
ATOM     17  C   UNL     1      -0.469  -0.395   2.233  1.00  0.00     0.267 C 
BRANCH  17  18
ATOM     18  N   UNL     1      -1.514  -1.358   1.855  1.00  0.00    -0.335 N 
ATOM     19  C   UNL     1      -2.881  -0.815   1.793  1.00  0.00     0.262 C 
ATOM     20  C   UNL     1      -1.587  -2.605   2.613  1.00  0.00     0.262 C 
ATOM     21  H   UNL     1      -1.172  -1.575   0.919  1.00  0.00     0.348 HD
ATOM     22  C   UNL     1      -3.816  -1.838   2.417  1.00  0.00     0.067 C 
ATOM     23  C   UNL     1      -2.999  -3.101   2.336  1.00  0.00     0.067 C 
ENDBRANCH  17  18
ENDBRANCH  15  17
ENDBRANCH  14  15
ENDBRANCH  12  14
ENDBRANCH   6  12
ENDBRANCH   3   5
ENDBRANCH   2   3
ENDBRANCH   1   2
BRANCH   1  24
ATOM     24  C   UNL     1      -0.471   5.158   2.888  1.00  0.00     0.275 C 
BRANCH  24  25
ATOM     25  O   UNL     1      -0.993   4.045   2.124  1.00  0.00    -0.458 OA
BRANCH  25  26
ATOM     26  C   UNL     1      -1.143   4.264   0.791  1.00  0.00     0.338 C 
ATOM     27  O   UNL     1      -0.928   5.308   0.195  1.00  0.00    -0.246 OA
BRANCH  26  28
ATOM     28  C   UNL     1      -1.506   3.014   0.087  1.00  0.00     0.060 A 
ATOM     29  C   UNL     1      -0.531   2.390  -0.693  1.00  0.00     0.016 A 
ATOM     30  C   UNL     1      -2.797   2.497   0.090  1.00  0.00     0.016 A 
ATOM     31  C   UNL     1      -0.787   1.171  -1.354  1.00  0.00     0.010 A 
ATOM     32  C   UNL     1      -3.064   1.308  -0.620  1.00  0.00     0.010 A 
ATOM     33  C   UNL     1      -2.047   0.581  -1.293  1.00  0.00    -0.014 A 
BRANCH  33  34
ATOM     34  C   UNL     1      -2.384  -0.688  -2.037  1.00  0.00     0.031 A 
ATOM     35  C   UNL     1      -3.251  -0.553  -3.245  1.00  0.00     0.074 A 
ATOM     36  C   UNL     1      -1.940  -1.937  -1.748  1.00  0.00     0.049 A 
ATOM     37  N   UNL     1      -3.859  -1.479  -3.933  1.00  0.00    -0.248 NA
ATOM     38  C   UNL     1      -3.393   0.809  -3.782  1.00  0.00     0.031 C 
ATOM     39  C   UNL     1      -0.871  -2.265  -0.825  1.00  0.00     0.029 A 
ATOM     40  N   UNL     1      -2.372  -3.188  -2.160  1.00  0.00    -0.354 N 
ATOM     41  C   UNL     1      -4.381  -0.826  -5.035  1.00  0.00     0.074 A 
ATOM     42  C   UNL     1      -4.131   0.589  -4.857  1.00  0.00     0.031 C 
ATOM     43  C   UNL     1      -0.831  -3.591  -0.601  1.00  0.00     0.029 A 
ATOM     44  C   UNL     1      -1.883  -4.224  -1.375  1.00  0.00     0.049 A 
ATOM     45  H   UNL     1      -2.966  -3.328  -2.933  1.00  0.00     0.167 HD
ATOM     46  C   UNL     1      -4.943  -1.370  -6.136  1.00  0.00     0.034 A 
ATOM     47  C   UNL     1      -2.279  -5.511  -1.245  1.00  0.00     0.034 A 
ATOM     48  C   UNL     1      -5.192  -2.774  -6.310  1.00  0.00     0.049 A 
ATOM     49  C   UNL     1      -3.269  -6.045  -2.234  1.00  0.00     0.074 A 
ATOM     50  C   UNL     1      -5.782  -3.413  -7.385  1.00  0.00     0.029 A 
ATOM     51  N   UNL     1      -4.878  -3.759  -5.383  1.00  0.00    -0.354 N 
ATOM     52  N   UNL     1      -3.846  -5.410  -3.222  1.00  0.00    -0.248 NA
ATOM     53  C   UNL     1      -3.598  -7.475  -2.151  1.00  0.00     0.031 C 
ATOM     54  C   UNL     1      -5.888  -4.773  -7.080  1.00  0.00     0.029 A 
ATOM     55  C   UNL     1      -5.304  -4.995  -5.844  1.00  0.00     0.049 A 
ATOM     56  H   UNL     1      -4.420  -3.603  -4.526  1.00  0.00     0.167 HD
ATOM     57  C   UNL     1      -4.517  -6.382  -3.947  1.00  0.00     0.074 A 
ATOM     58  C   UNL     1      -4.344  -7.634  -3.236  1.00  0.00     0.031 C 
ATOM     59  C   UNL     1      -5.151  -6.243  -5.136  1.00  0.00     0.034 A 
BRANCH  46  60
ATOM     60  C   UNL     1      -5.324  -0.413  -7.224  1.00  0.00     0.023 A 
ATOM     61  C   UNL     1      -4.341   0.264  -7.967  1.00  0.00     0.031 A 
ATOM     62  C   UNL     1      -6.673  -0.134  -7.481  1.00  0.00     0.131 A 
ATOM     63  C   UNL     1      -4.725   1.236  -8.898  1.00  0.00     0.055 A 
ATOM     64  C   UNL     1      -7.051   0.786  -8.457  1.00  0.00     0.041 A 
ATOM     65  F   UNL     1      -7.642  -0.734  -6.772  1.00  0.00    -0.206 F 
ATOM     66  C   UNL     1      -6.074   1.485  -9.165  1.00  0.00     0.022 A 
BRANCH  63  67
ATOM     67  S   UNL     1      -3.439   2.244  -9.682  1.00  0.00     0.124 S 
ATOM     68  O   UNL     1      -2.929   3.006  -8.545  1.00  0.00    -0.237 OA
ATOM     69  O   UNL     1      -2.537   1.240 -10.234  1.00  0.00    -0.237 OA
ATOM     70  O   UNL     1      -4.178   3.028 -10.671  1.00  0.00    -0.744 OA
ENDBRANCH  63  67
ENDBRANCH  46  60
BRANCH  47  71
ATOM     71  C   UNL     1      -1.814  -6.386  -0.124  1.00  0.00     0.023 A 
ATOM     72  C   UNL     1      -0.758  -7.298  -0.257  1.00  0.00     0.031 A 
ATOM     73  C   UNL     1      -2.527  -6.390   1.091  1.00  0.00     0.131 A 
ATOM     74  C   UNL     1      -0.432  -8.153   0.817  1.00  0.00     0.055 A 
ATOM     75  C   UNL     1      -2.156  -7.188   2.177  1.00  0.00     0.041 A 
ATOM     76  F   UNL     1      -3.646  -5.663   1.218  1.00  0.00    -0.206 F 
ATOM     77  C   UNL     1      -1.098  -8.076   2.044  1.00  0.00     0.022 A 
BRANCH  74  78
ATOM     78  S   UNL     1       0.826  -9.440   0.573  1.00  0.00     0.124 S 
ATOM     79  O   UNL     1       0.166 -10.319  -0.385  1.00  0.00    -0.237 OA
ATOM     80  O   UNL     1       1.959  -8.672   0.069  1.00  0.00    -0.237 OA
ATOM     81  O   UNL     1       1.005 -10.000   1.912  1.00  0.00    -0.744 OA
ENDBRANCH  74  78
ENDBRANCH  47  71
BRANCH  59  82
ATOM     82  C   UNL     1      -5.643  -7.494  -5.801  1.00  0.00     0.023 A 
ATOM     83  C   UNL     1      -6.748  -8.204  -5.311  1.00  0.00     0.031 A 
ATOM     84  C   UNL     1      -5.009  -7.959  -6.967  1.00  0.00     0.131 A 
ATOM     85  C   UNL     1      -7.175  -9.361  -5.975  1.00  0.00     0.055 A 
ATOM     86  C   UNL     1      -5.472  -9.079  -7.655  1.00  0.00     0.041 A 
ATOM     87  F   UNL     1      -3.941  -7.316  -7.467  1.00  0.00    -0.206 F 
ATOM     88  C   UNL     1      -6.560  -9.790  -7.156  1.00  0.00     0.022 A 
BRANCH  85  89
ATOM     89  S   UNL     1      -8.531 -10.323  -5.255  1.00  0.00     0.124 S 
ATOM     90  O   UNL     1      -7.922 -10.827  -4.028  1.00  0.00    -0.237 OA
ATOM     91  O   UNL     1      -9.575  -9.318  -5.081  1.00  0.00    -0.237 OA
ATOM     92  O   UNL     1      -8.811 -11.335  -6.272  1.00  0.00    -0.744 OA
ENDBRANCH  85  89
ENDBRANCH  59  82
ENDBRANCH  33  34
ENDBRANCH  26  28
ENDBRANCH  25  26
ENDBRANCH  24  25
ENDBRANCH   1  24
TORSDOF 19
