REMARK SMILES CCCCCCNC(=O)Oc1cccc(-c2ccc(CC(=O)OCCOC(=O)c3ccc(-c4c5nc(c(-c6cc(S(=O)(=O)[O-])ccc6F)c6ccc([nH]6)c(-c6cc(S(=O)(=O)[O-])ccc6F)c6nc(c(-c7cc(S(=O)(=O)[O-])ccc7F)c7ccc4[nH]7)C=C6)C=C5)cc3)cc2F)c1
REMARK SMILES IDX 20 1 19 2 16 3 17 4 93 5 18 6 92 7 94 8 15 9 11 10 12 11
REMARK SMILES IDX 95 12 13 13 14 14 10 15 8 16 7 17 9 19 6 20 5 21 4 22 3 23
REMARK SMILES IDX 2 24 1 25 21 26 22 27 23 28 24 29 25 30 26 31 27 32 28 33
REMARK SMILES IDX 29 34 30 35 91 36 31 37 90 38 32 39 33 40 34 41 84 42 35 43
REMARK SMILES IDX 89 44 83 45 85 46 36 47 88 48 82 49 81 50 37 52 69 53 49 54
REMARK SMILES IDX 68 55 50 56 53 57 67 58 86 59 51 60 52 61 66 63 87 64 54 65
REMARK SMILES IDX 38 66 39 67 47 68 40 69 46 70 48 71 45 72 41 73 42 74 43 75
REMARK SMILES IDX 44 76 70 77 71 78 79 79 72 80 78 81 80 82 77 83 73 84 74 85
REMARK SMILES IDX 75 86 76 87 55 88 56 89 64 90 57 91 63 92 65 93 62 94 58 95
REMARK SMILES IDX 59 96 60 97 61 98
REMARK H PARENT 7 18 85 51 53 62
REMARK Flexibility Score: inf
ROOT
ATOM      1  C   UNL     1      -4.352  -6.328  11.591  1.00  0.00     0.158 C 
ENDROOT
BRANCH   1   2
ATOM      2  C   UNL     1      -4.616  -6.393  10.107  1.00  0.00    -0.034 A 
ATOM      3  C   UNL     1      -4.996  -6.470   7.298  1.00  0.00     0.018 A 
ATOM      4  C   UNL     1      -4.822  -7.652   8.030  1.00  0.00     0.012 A 
ATOM      5  C   UNL     1      -4.988  -5.259   8.002  1.00  0.00     0.131 A 
ATOM      6  C   UNL     1      -4.629  -7.613   9.416  1.00  0.00     0.005 A 
ATOM      7  C   UNL     1      -4.806  -5.213   9.382  1.00  0.00     0.044 A 
ATOM      8  F   UNL     1      -5.153  -4.096   7.351  1.00  0.00    -0.206 F 
BRANCH   3   9
ATOM      9  C   UNL     1      -5.148  -6.493   5.840  1.00  0.00    -0.012 A 
ATOM     10  C   UNL     1      -4.350  -5.862   3.638  1.00  0.00     0.133 A 
ATOM     11  C   UNL     1      -5.464  -6.444   3.039  1.00  0.00     0.047 A 
ATOM     12  C   UNL     1      -4.193  -5.870   5.023  1.00  0.00     0.056 A 
ATOM     13  C   UNL     1      -6.413  -7.078   3.839  1.00  0.00     0.004 A 
ATOM     14  C   UNL     1      -6.253  -7.107   5.228  1.00  0.00     0.009 A 
BRANCH  10  15
ATOM     15  O   UNL     1      -3.460  -5.156   2.815  1.00  0.00    -0.410 OA
BRANCH  15  16
ATOM     16  C   UNL     1      -2.117  -5.489   2.913  1.00  0.00     0.412 C 
ATOM     17  N   UNL     1      -1.301  -4.650   2.206  1.00  0.00    -0.321 N 
ATOM     18  H   UNL     1      -0.340  -4.865   2.209  1.00  0.00     0.167 HD
ATOM     19  O   UNL     1      -1.647  -6.424   3.549  1.00  0.00    -0.224 OA
BRANCH  17  20
ATOM     20  C   UNL     1      -1.698  -3.480   1.454  1.00  0.00     0.119 C 
BRANCH  20  21
ATOM     21  C   UNL     1      -1.092  -2.198   2.026  1.00  0.00     0.021 C 
BRANCH  21  22
ATOM     22  C   UNL     1       0.439  -2.125   1.967  1.00  0.00     0.002 C 
BRANCH  22  23
ATOM     23  C   UNL     1       1.056  -2.272   0.572  1.00  0.00    -0.000 C 
BRANCH  23  24
ATOM     24  C   UNL     1       0.580  -1.254  -0.468  1.00  0.00    -0.003 C 
ATOM     25  C   UNL     1       0.941   0.180  -0.116  1.00  0.00     0.004 C 
ENDBRANCH  23  24
ENDBRANCH  22  23
ENDBRANCH  21  22
ENDBRANCH  20  21
ENDBRANCH  17  20
ENDBRANCH  15  16
ENDBRANCH  10  15
ENDBRANCH   3   9
ENDBRANCH   1   2
BRANCH   1  26
ATOM     26  C   UNL     1      -5.440  -6.835  12.508  1.00  0.00     0.310 C 
ATOM     27  O   UNL     1      -5.214  -7.132  13.676  1.00  0.00    -0.252 OA
BRANCH  26  28
ATOM     28  O   UNL     1      -6.670  -6.869  11.929  1.00  0.00    -0.462 OA
BRANCH  28  29
ATOM     29  C   UNL     1      -7.736  -7.372  12.755  1.00  0.00     0.274 C 
BRANCH  29  30
ATOM     30  C   UNL     1      -8.004  -8.846  12.460  1.00  0.00     0.275 C 
BRANCH  30  31
ATOM     31  O   UNL     1      -6.826  -9.626  12.725  1.00  0.00    -0.458 OA
BRANCH  31  32
ATOM     32  C   UNL     1      -6.323 -10.303  11.667  1.00  0.00     0.338 C 
ATOM     33  O   UNL     1      -6.781 -10.367  10.540  1.00  0.00    -0.246 OA
BRANCH  32  34
ATOM     34  C   UNL     1      -5.087 -10.989  12.069  1.00  0.00     0.060 A 
ATOM     35  C   UNL     1      -3.913 -10.256  12.258  1.00  0.00     0.016 A 
ATOM     36  C   UNL     1      -5.072 -12.381  12.143  1.00  0.00     0.016 A 
ATOM     37  C   UNL     1      -2.707 -10.918  12.477  1.00  0.00     0.010 A 
ATOM     38  C   UNL     1      -3.873 -13.040  12.424  1.00  0.00     0.010 A 
ATOM     39  C   UNL     1      -2.675 -12.317  12.570  1.00  0.00    -0.014 A 
BRANCH  39  40
ATOM     40  C   UNL     1      -1.393 -13.034  12.794  1.00  0.00     0.031 A 
ATOM     41  C   UNL     1      -0.838 -13.931  11.721  1.00  0.00     0.074 A 
ATOM     42  C   UNL     1      -0.742 -12.895  13.965  1.00  0.00     0.049 A 
ATOM     43  N   UNL     1       0.174 -14.759  11.775  1.00  0.00    -0.248 NA
ATOM     44  C   UNL     1      -1.521 -13.900  10.419  1.00  0.00     0.031 C 
ATOM     45  C   UNL     1      -1.157 -12.022  15.065  1.00  0.00     0.029 A 
ATOM     46  N   UNL     1       0.402 -13.494  14.431  1.00  0.00    -0.354 N 
ATOM     47  C   UNL     1       0.231 -15.373  10.528  1.00  0.00     0.074 A 
ATOM     48  C   UNL     1      -0.861 -14.832   9.745  1.00  0.00     0.031 C 
ATOM     49  C   UNL     1      -0.279 -12.139  16.074  1.00  0.00     0.029 A 
ATOM     50  C   UNL     1       0.720 -13.143  15.723  1.00  0.00     0.049 A 
ATOM     51  H   UNL     1       0.943 -14.116  13.892  1.00  0.00     0.167 HD
ATOM     52  C   UNL     1       1.112 -16.303  10.082  1.00  0.00     0.034 A 
ATOM     53  C   UNL     1       1.680 -13.608  16.547  1.00  0.00     0.034 A 
ATOM     54  C   UNL     1       2.208 -16.815  10.869  1.00  0.00     0.049 A 
ATOM     55  C   UNL     1       2.607 -14.687  16.047  1.00  0.00     0.074 A 
ATOM     56  C   UNL     1       3.179 -17.732  10.503  1.00  0.00     0.029 A 
ATOM     57  N   UNL     1       2.478 -16.459  12.184  1.00  0.00    -0.354 N 
ATOM     58  N   UNL     1       2.638 -15.272  14.872  1.00  0.00    -0.248 NA
ATOM     59  C   UNL     1       3.624 -15.172  16.989  1.00  0.00     0.031 C 
ATOM     60  C   UNL     1       3.995 -17.977  11.613  1.00  0.00     0.029 A 
ATOM     61  C   UNL     1       3.579 -17.161  12.653  1.00  0.00     0.049 A 
ATOM     62  H   UNL     1       1.963 -15.803  12.708  1.00  0.00     0.167 HD
ATOM     63  C   UNL     1       3.697 -16.173  14.926  1.00  0.00     0.074 A 
ATOM     64  C   UNL     1       4.286 -16.044  16.244  1.00  0.00     0.031 C 
ATOM     65  C   UNL     1       4.146 -17.029  13.973  1.00  0.00     0.034 A 
BRANCH  52  66
ATOM     66  C   UNL     1       0.890 -16.869   8.700  1.00  0.00     0.023 A 
ATOM     67  C   UNL     1       1.024 -16.087   7.540  1.00  0.00     0.031 A 
ATOM     68  C   UNL     1       0.529 -18.220   8.546  1.00  0.00     0.131 A 
ATOM     69  C   UNL     1       0.742 -16.646   6.284  1.00  0.00     0.055 A 
ATOM     70  C   UNL     1       0.318 -18.788   7.288  1.00  0.00     0.041 A 
ATOM     71  F   UNL     1       0.366 -19.010   9.619  1.00  0.00    -0.206 F 
ATOM     72  C   UNL     1       0.412 -17.997   6.148  1.00  0.00     0.022 A 
BRANCH  69  73
ATOM     73  S   UNL     1       0.697 -15.555   4.835  1.00  0.00     0.124 S 
ATOM     74  O   UNL     1      -0.353 -14.611   5.211  1.00  0.00    -0.237 OA
ATOM     75  O   UNL     1       2.054 -15.023   4.798  1.00  0.00    -0.237 OA
ATOM     76  O   UNL     1       0.350 -16.457   3.738  1.00  0.00    -0.744 OA
ENDBRANCH  69  73
ENDBRANCH  52  66
BRANCH  53  77
ATOM     77  C   UNL     1       1.786 -13.106  17.946  1.00  0.00     0.023 A 
ATOM     78  C   UNL     1       2.930 -12.421  18.383  1.00  0.00     0.031 A 
ATOM     79  C   UNL     1       0.767 -13.354  18.884  1.00  0.00     0.131 A 
ATOM     80  C   UNL     1       3.049 -12.049  19.731  1.00  0.00     0.055 A 
ATOM     81  C   UNL     1       0.866 -12.933  20.210  1.00  0.00     0.041 A 
ATOM     82  F   UNL     1      -0.348 -14.007  18.518  1.00  0.00    -0.206 F 
ATOM     83  C   UNL     1       2.019 -12.288  20.644  1.00  0.00     0.022 A 
BRANCH  80  84
ATOM     84  S   UNL     1       4.615 -11.330  20.297  1.00  0.00     0.124 S 
ATOM     85  O   UNL     1       5.571 -12.367  19.924  1.00  0.00    -0.237 OA
ATOM     86  O   UNL     1       4.676 -10.093  19.526  1.00  0.00    -0.237 OA
ATOM     87  O   UNL     1       4.411 -11.157  21.734  1.00  0.00    -0.744 OA
ENDBRANCH  80  84
ENDBRANCH  53  77
BRANCH  65  88
ATOM     88  C   UNL     1       5.364 -17.850  14.316  1.00  0.00     0.023 A 
ATOM     89  C   UNL     1       5.321 -18.866  15.288  1.00  0.00     0.031 A 
ATOM     90  C   UNL     1       6.590 -17.593  13.679  1.00  0.00     0.131 A 
ATOM     91  C   UNL     1       6.496 -19.550  15.634  1.00  0.00     0.055 A 
ATOM     92  C   UNL     1       7.744 -18.315  13.987  1.00  0.00     0.041 A 
ATOM     93  F   UNL     1       6.687 -16.633  12.745  1.00  0.00    -0.206 F 
ATOM     94  C   UNL     1       7.704 -19.291  14.979  1.00  0.00     0.022 A 
BRANCH  91  95
ATOM     95  S   UNL     1       6.447 -20.723  17.016  1.00  0.00     0.124 S 
ATOM     96  O   UNL     1       6.008 -19.875  18.120  1.00  0.00    -0.237 OA
ATOM     97  O   UNL     1       5.482 -21.714  16.551  1.00  0.00    -0.237 OA
ATOM     98  O   UNL     1       7.826 -21.200  17.111  1.00  0.00    -0.744 OA
ENDBRANCH  91  95
ENDBRANCH  65  88
ENDBRANCH  39  40
ENDBRANCH  32  34
ENDBRANCH  31  32
ENDBRANCH  30  31
ENDBRANCH  29  30
ENDBRANCH  28  29
ENDBRANCH  26  28
ENDBRANCH   1  26
TORSDOF 23
