REMARK SMILES Cn1c(=O)c2c(-c3ccc(Cl)cc3)n(CC(=O)OCCOC(=O)c3ccc(-c4c5nc(c(-c6cc(S(=O)(=O)[O-])ccc6F)c6ccc([nH]6)c(-c6cc(S(=O)(=O)[O-])ccc6F)c6nc(c(-c7cc(S(=O)(=O)[O-])ccc7F)c7ccc4[nH]7)C=C6)C=C5)cc3)cc2n(C)c1=O
REMARK SMILES IDX 20 1 19 2 18 3 16 4 17 5 15 6 14 7 1 8 2 9 3 10 91 11 4 12
REMARK SMILES IDX 5 13 89 14 92 15 6 16 88 17 90 18 87 19 7 20 8 21 13 22 9 23
REMARK SMILES IDX 12 24 10 25 11 26 21 27 22 28 23 29 24 30 25 31 86 32 26 33
REMARK SMILES IDX 85 34 27 35 28 36 29 37 79 38 30 39 84 40 78 41 80 42 31 43
REMARK SMILES IDX 83 44 77 45 76 46 32 48 64 49 44 50 63 51 45 52 48 53 62 54
REMARK SMILES IDX 81 55 46 56 47 57 61 59 82 60 49 61 33 62 34 63 42 64 35 65
REMARK SMILES IDX 41 66 43 67 40 68 36 69 37 70 38 71 39 72 65 73 66 74 74 75
REMARK SMILES IDX 67 76 73 77 75 78 72 79 68 80 69 81 70 82 71 83 50 84 51 85
REMARK SMILES IDX 59 86 52 87 58 88 60 89 57 90 53 91 54 92 55 93 56 94
REMARK H PARENT 80 47 48 58
REMARK Flexibility Score: inf
ROOT
ATOM      1  C   UNL     1       3.267  -4.854   7.298  1.00  0.00     0.275 C 
ENDROOT
BRANCH   1   2
ATOM      2  C   UNL     1       3.404  -5.798   6.096  1.00  0.00     0.274 C 
BRANCH   2   3
ATOM      3  O   UNL     1       2.427  -5.559   5.054  1.00  0.00    -0.461 OA
BRANCH   3   4
ATOM      4  C   UNL     1       1.271  -6.265   5.152  1.00  0.00     0.326 C 
ATOM      5  O   UNL     1       1.100  -7.174   5.966  1.00  0.00    -0.250 OA
BRANCH   4   6
ATOM      6  C   UNL     1       0.175  -5.893   4.184  1.00  0.00     0.244 C 
BRANCH   6   7
ATOM      7  N   UNL     1       0.280  -4.632   3.453  1.00  0.00    -0.333 N 
ATOM      8  C   UNL     1       1.109  -0.085  -0.230  1.00  0.00     0.158 C 
ATOM      9  N   UNL     1       0.755  -0.927   0.892  1.00  0.00    -0.263 N 
ATOM     10  C   UNL     1       1.083  -2.289   0.767  1.00  0.00     0.265 A 
ATOM     11  C   UNL     1       0.183  -0.294   2.014  1.00  0.00     0.330 A 
ATOM     12  O   UNL     1       1.655  -2.761  -0.201  1.00  0.00    -0.268 OA
ATOM     13  C   UNL     1       0.680  -3.077   1.911  1.00  0.00     0.090 A 
ATOM     14  N   UNL     1      -0.239  -1.118   3.060  1.00  0.00    -0.295 N 
ATOM     15  O   UNL     1       0.086   0.934   2.054  1.00  0.00    -0.248 OA
ATOM     16  C   UNL     1       0.814  -4.438   2.184  1.00  0.00     0.064 A 
ATOM     17  C   UNL     1       0.013  -2.477   2.983  1.00  0.00     0.076 A 
ATOM     18  C   UNL     1      -0.883  -0.516   4.230  1.00  0.00     0.155 C 
ATOM     19  C   UNL     1      -0.311  -3.463   3.868  1.00  0.00     0.114 A 
BRANCH  16  20
ATOM     20  C   UNL     1       1.422  -5.507   1.395  1.00  0.00    -0.001 A 
ATOM     21  C   UNL     1       0.654  -6.593   0.954  1.00  0.00     0.012 A 
ATOM     22  C   UNL     1       2.787  -5.468   1.094  1.00  0.00     0.012 A 
ATOM     23  C   UNL     1       1.252  -7.652   0.268  1.00  0.00     0.021 A 
ATOM     24  C   UNL     1       3.383  -6.514   0.387  1.00  0.00     0.021 A 
ATOM     25  C   UNL     1       2.616  -7.607  -0.011  1.00  0.00     0.041 A 
ATOM     26  Cl  UNL     1       3.357  -8.913  -0.851  1.00  0.00    -0.084 Cl
ENDBRANCH  16  20
ENDBRANCH   6   7
ENDBRANCH   4   6
ENDBRANCH   3   4
ENDBRANCH   2   3
ENDBRANCH   1   2
BRANCH   1  27
ATOM     27  O   UNL     1       2.009  -4.997   7.968  1.00  0.00    -0.458 OA
BRANCH  27  28
ATOM     28  C   UNL     1       1.051  -4.246   7.390  1.00  0.00     0.338 C 
ATOM     29  O   UNL     1       1.169  -3.594   6.361  1.00  0.00    -0.246 OA
BRANCH  28  30
ATOM     30  C   UNL     1      -0.168  -4.163   8.182  1.00  0.00     0.060 A 
ATOM     31  C   UNL     1      -1.355  -3.943   7.471  1.00  0.00     0.016 A 
ATOM     32  C   UNL     1      -0.007  -3.761   9.506  1.00  0.00     0.016 A 
ATOM     33  C   UNL     1      -2.277  -3.060   7.980  1.00  0.00     0.010 A 
ATOM     34  C   UNL     1      -0.947  -2.903  10.028  1.00  0.00     0.010 A 
ATOM     35  C   UNL     1      -2.012  -2.483   9.219  1.00  0.00    -0.014 A 
BRANCH  35  36
ATOM     36  C   UNL     1      -2.892  -1.428   9.684  1.00  0.00     0.031 A 
ATOM     37  C   UNL     1      -4.182  -1.900  10.237  1.00  0.00     0.074 A 
ATOM     38  C   UNL     1      -2.446  -0.162   9.790  1.00  0.00     0.049 A 
ATOM     39  N   UNL     1      -5.382  -1.514   9.955  1.00  0.00    -0.248 NA
ATOM     40  C   UNL     1      -4.120  -3.041  11.168  1.00  0.00     0.031 C 
ATOM     41  C   UNL     1      -1.082   0.323   9.550  1.00  0.00     0.029 A 
ATOM     42  N   UNL     1      -3.076   0.926  10.309  1.00  0.00    -0.354 N 
ATOM     43  C   UNL     1      -6.213  -2.233  10.809  1.00  0.00     0.074 A 
ATOM     44  C   UNL     1      -5.409  -3.269  11.397  1.00  0.00     0.031 C 
ATOM     45  C   UNL     1      -0.928   1.516  10.163  1.00  0.00     0.029 A 
ATOM     46  C   UNL     1      -2.201   1.916  10.740  1.00  0.00     0.049 A 
ATOM     47  H   UNL     1      -4.055   1.004  10.373  1.00  0.00     0.167 HD
ATOM     48  C   UNL     1      -7.457  -1.810  11.154  1.00  0.00     0.034 A 
ATOM     49  C   UNL     1      -2.485   2.917  11.612  1.00  0.00     0.034 A 
ATOM     50  C   UNL     1      -7.973  -0.828  10.242  1.00  0.00     0.049 A 
ATOM     51  C   UNL     1      -3.962   3.053  11.661  1.00  0.00     0.074 A 
ATOM     52  C   UNL     1      -8.268  -0.826   8.893  1.00  0.00     0.029 A 
ATOM     53  N   UNL     1      -7.924   0.493  10.615  1.00  0.00    -0.354 N 
ATOM     54  N   UNL     1      -4.695   3.433  10.651  1.00  0.00    -0.248 NA
ATOM     55  C   UNL     1      -4.684   2.357  12.717  1.00  0.00     0.031 C 
ATOM     56  C   UNL     1      -7.912   0.476   8.435  1.00  0.00     0.029 A 
ATOM     57  C   UNL     1      -7.454   1.202   9.536  1.00  0.00     0.049 A 
ATOM     58  H   UNL     1      -8.178   0.863  11.491  1.00  0.00     0.167 HD
ATOM     59  C   UNL     1      -5.856   2.680  10.742  1.00  0.00     0.074 A 
ATOM     60  C   UNL     1      -5.842   2.127  12.092  1.00  0.00     0.031 C 
ATOM     61  C   UNL     1      -6.573   2.350   9.629  1.00  0.00     0.034 A 
BRANCH  48  62
ATOM     62  C   UNL     1      -8.081  -2.111  12.490  1.00  0.00     0.023 A 
ATOM     63  C   UNL     1      -9.457  -1.899  12.663  1.00  0.00     0.031 A 
ATOM     64  C   UNL     1      -7.338  -2.380  13.665  1.00  0.00     0.131 A 
ATOM     65  C   UNL     1     -10.032  -1.956  13.945  1.00  0.00     0.055 A 
ATOM     66  C   UNL     1      -7.925  -2.516  14.923  1.00  0.00     0.041 A 
ATOM     67  F   UNL     1      -5.998  -2.430  13.668  1.00  0.00    -0.206 F 
ATOM     68  C   UNL     1      -9.280  -2.288  15.072  1.00  0.00     0.022 A 
BRANCH  65  69
ATOM     69  S   UNL     1     -11.755  -1.437  14.148  1.00  0.00     0.124 S 
ATOM     70  O   UNL     1     -11.739  -0.103  13.557  1.00  0.00    -0.237 OA
ATOM     71  O   UNL     1     -12.470  -2.466  13.399  1.00  0.00    -0.237 OA
ATOM     72  O   UNL     1     -11.952  -1.472  15.596  1.00  0.00    -0.744 OA
ENDBRANCH  65  69
ENDBRANCH  48  62
BRANCH  49  73
ATOM     73  C   UNL     1      -1.577   3.513  12.629  1.00  0.00     0.023 A 
ATOM     74  C   UNL     1      -1.879   4.738  13.255  1.00  0.00     0.031 A 
ATOM     75  C   UNL     1      -0.507   2.769  13.178  1.00  0.00     0.131 A 
ATOM     76  C   UNL     1      -1.128   5.173  14.369  1.00  0.00     0.055 A 
ATOM     77  C   UNL     1       0.248   3.215  14.265  1.00  0.00     0.041 A 
ATOM     78  F   UNL     1      -0.211   1.537  12.736  1.00  0.00    -0.206 F 
ATOM     79  C   UNL     1      -0.068   4.417  14.874  1.00  0.00     0.022 A 
BRANCH  76  80
ATOM     80  S   UNL     1      -1.619   6.673  15.274  1.00  0.00     0.124 S 
ATOM     81  O   UNL     1      -1.041   7.729  14.451  1.00  0.00    -0.237 OA
ATOM     82  O   UNL     1      -3.074   6.580  15.282  1.00  0.00    -0.237 OA
ATOM     83  O   UNL     1      -0.990   6.495  16.584  1.00  0.00    -0.744 OA
ENDBRANCH  76  80
ENDBRANCH  49  73
BRANCH  61  84
ATOM     84  C   UNL     1      -6.236   3.056   8.334  1.00  0.00     0.023 A 
ATOM     85  C   UNL     1      -4.985   2.958   7.686  1.00  0.00     0.031 A 
ATOM     86  C   UNL     1      -7.268   3.734   7.664  1.00  0.00     0.131 A 
ATOM     87  C   UNL     1      -4.799   3.540   6.419  1.00  0.00     0.055 A 
ATOM     88  C   UNL     1      -7.085   4.297   6.401  1.00  0.00     0.041 A 
ATOM     89  F   UNL     1      -8.492   3.820   8.212  1.00  0.00    -0.206 F 
ATOM     90  C   UNL     1      -5.847   4.206   5.775  1.00  0.00     0.022 A 
BRANCH  87  91
ATOM     91  S   UNL     1      -3.190   3.401   5.578  1.00  0.00     0.124 S 
ATOM     92  O   UNL     1      -2.262   3.988   6.537  1.00  0.00    -0.237 OA
ATOM     93  O   UNL     1      -3.068   1.960   5.366  1.00  0.00    -0.237 OA
ATOM     94  O   UNL     1      -3.381   4.183   4.355  1.00  0.00    -0.744 OA
ENDBRANCH  87  91
ENDBRANCH  61  84
ENDBRANCH  35  36
ENDBRANCH  28  30
ENDBRANCH  27  28
ENDBRANCH   1  27
TORSDOF 16
