REMARK SMILES CCC[C@H](C)C(=O)N1CC[C@H](C(=O)OCCOC(=O)c2ccc(-c3c4nc(c(-c5cc(S(=O)(=O)[O-])ccc5F)c5ccc([nH]5)c(-c5cc(S(=O)(=O)[O-])ccc5F)c5nc(c(-c6cc(S(=O)(=O)[O-])ccc6F)c6ccc3[nH]6)C=C5)C=C4)cc2)[C@@H]1C
REMARK SMILES IDX 15 1 14 2 12 3 13 4 11 5 8 6 9 7 83 8 10 9 84 10 6 11 7 12
REMARK SMILES IDX 4 13 5 14 3 15 2 16 1 17 16 18 17 19 18 20 19 21 20 22 21 23
REMARK SMILES IDX 82 24 22 25 81 26 23 27 24 28 25 29 75 30 26 31 80 32 74 33
REMARK SMILES IDX 76 34 27 35 79 36 73 37 72 38 28 40 60 41 40 42 59 43 41 44
REMARK SMILES IDX 44 45 58 46 77 47 42 48 43 49 57 51 78 52 45 53 29 54 30 55
REMARK SMILES IDX 38 56 31 57 37 58 39 59 36 60 32 61 33 62 34 63 35 64 61 65
REMARK SMILES IDX 62 66 70 67 63 68 69 69 71 70 68 71 64 72 65 73 66 74 67 75
REMARK SMILES IDX 46 76 47 77 55 78 48 79 54 80 56 81 53 82 49 83 50 84 51 85
REMARK SMILES IDX 52 86
REMARK H PARENT 76 39 44 50
REMARK Flexibility Score: inf
ROOT
ATOM      1  C   UNL     1       2.279   9.790  -1.819  1.00  0.00     0.274 C 
ENDROOT
BRANCH   1   2
ATOM      2  O   UNL     1       1.168   8.872  -1.694  1.00  0.00    -0.462 OA
BRANCH   2   3
ATOM      3  C   UNL     1       1.058   7.952  -2.697  1.00  0.00     0.311 C 
ATOM      4  O   UNL     1       1.831   7.875  -3.643  1.00  0.00    -0.252 OA
BRANCH   3   5
ATOM      5  C   UNL     1      -0.196   7.097  -2.529  1.00  0.00     0.123 C 
ATOM      6  N   UNL     1       0.220   4.767  -2.977  1.00  0.00    -0.339 N 
ATOM      7  C   UNL     1       0.101   5.480  -4.248  1.00  0.00     0.121 C 
ATOM      8  C   UNL     1      -0.034   5.703  -1.864  1.00  0.00     0.096 C 
ATOM      9  C   UNL     1      -0.705   6.728  -3.921  1.00  0.00     0.039 C 
ATOM     10  C   UNL     1       0.933   5.712  -0.690  1.00  0.00     0.032 C 
BRANCH   6  11
ATOM     11  C   UNL     1       0.357   3.398  -3.088  1.00  0.00     0.225 C 
ATOM     12  O   UNL     1       0.691   2.946  -4.197  1.00  0.00    -0.275 OA
BRANCH  11  13
ATOM     13  C   UNL     1       0.015   2.349  -2.015  1.00  0.00     0.075 C 
ATOM     14  C   UNL     1       0.557   2.474  -0.609  1.00  0.00     0.018 C 
BRANCH  13  15
ATOM     15  C   UNL     1      -1.443   1.851  -2.129  1.00  0.00     0.013 C 
BRANCH  15  16
ATOM     16  C   UNL     1      -2.437   2.168  -1.010  1.00  0.00    -0.003 C 
ATOM     17  C   UNL     1      -2.759   3.638  -0.844  1.00  0.00     0.004 C 
ENDBRANCH  15  16
ENDBRANCH  13  15
ENDBRANCH  11  13
ENDBRANCH   6  11
ENDBRANCH   3   5
ENDBRANCH   2   3
ENDBRANCH   1   2
BRANCH   1  18
ATOM     18  C   UNL     1       3.454   9.347  -0.949  1.00  0.00     0.275 C 
BRANCH  18  19
ATOM     19  O   UNL     1       3.900   8.056  -1.388  1.00  0.00    -0.458 OA
BRANCH  19  20
ATOM     20  C   UNL     1       4.458   7.268  -0.435  1.00  0.00     0.338 C 
ATOM     21  O   UNL     1       4.755   7.618   0.695  1.00  0.00    -0.246 OA
BRANCH  20  22
ATOM     22  C   UNL     1       4.586   5.870  -0.934  1.00  0.00     0.060 A 
ATOM     23  C   UNL     1       3.868   5.425  -2.044  1.00  0.00     0.016 A 
ATOM     24  C   UNL     1       5.343   4.949  -0.207  1.00  0.00     0.016 A 
ATOM     25  C   UNL     1       3.812   4.063  -2.348  1.00  0.00     0.010 A 
ATOM     26  C   UNL     1       5.382   3.601  -0.598  1.00  0.00     0.010 A 
ATOM     27  C   UNL     1       4.588   3.123  -1.656  1.00  0.00    -0.014 A 
BRANCH  27  28
ATOM     28  C   UNL     1       4.563   1.665  -2.015  1.00  0.00     0.031 A 
ATOM     29  C   UNL     1       4.385   0.608  -0.946  1.00  0.00     0.074 A 
ATOM     30  C   UNL     1       4.693   1.253  -3.296  1.00  0.00     0.049 A 
ATOM     31  N   UNL     1       4.606  -0.683  -1.001  1.00  0.00    -0.248 NA
ATOM     32  C   UNL     1       3.904   1.070   0.364  1.00  0.00     0.031 C 
ATOM     33  C   UNL     1       4.775   2.122  -4.471  1.00  0.00     0.029 A 
ATOM     34  N   UNL     1       4.775  -0.015  -3.827  1.00  0.00    -0.354 N 
ATOM     35  C   UNL     1       4.344  -1.178   0.274  1.00  0.00     0.074 A 
ATOM     36  C   UNL     1       3.957  -0.040   1.084  1.00  0.00     0.031 C 
ATOM     37  C   UNL     1       4.828   1.370  -5.578  1.00  0.00     0.029 A 
ATOM     38  C   UNL     1       4.947  -0.029  -5.193  1.00  0.00     0.049 A 
ATOM     39  H   UNL     1       4.717  -0.833  -3.282  1.00  0.00     0.167 HD
ATOM     40  C   UNL     1       4.426  -2.455   0.729  1.00  0.00     0.034 A 
ATOM     41  C   UNL     1       5.250  -1.026  -6.047  1.00  0.00     0.034 A 
ATOM     42  C   UNL     1       4.789  -3.587  -0.095  1.00  0.00     0.049 A 
ATOM     43  C   UNL     1       5.485  -2.408  -5.504  1.00  0.00     0.074 A 
ATOM     44  C   UNL     1       4.919  -4.918   0.271  1.00  0.00     0.029 A 
ATOM     45  N   UNL     1       5.077  -3.528  -1.453  1.00  0.00    -0.354 N 
ATOM     46  N   UNL     1       5.370  -2.843  -4.271  1.00  0.00    -0.248 NA
ATOM     47  C   UNL     1       5.926  -3.425  -6.466  1.00  0.00     0.031 C 
ATOM     48  C   UNL     1       5.356  -5.645  -0.843  1.00  0.00     0.029 A 
ATOM     49  C   UNL     1       5.418  -4.788  -1.928  1.00  0.00     0.049 A 
ATOM     50  H   UNL     1       5.044  -2.710  -2.001  1.00  0.00     0.167 HD
ATOM     51  C   UNL     1       5.710  -4.192  -4.314  1.00  0.00     0.074 A 
ATOM     52  C   UNL     1       6.018  -4.500  -5.696  1.00  0.00     0.031 C 
ATOM     53  C   UNL     1       5.758  -5.091  -3.299  1.00  0.00     0.034 A 
BRANCH  40  54
ATOM     54  C   UNL     1       4.198  -2.683   2.209  1.00  0.00     0.023 A 
ATOM     55  C   UNL     1       2.965  -2.419   2.830  1.00  0.00     0.031 A 
ATOM     56  C   UNL     1       5.255  -3.137   3.021  1.00  0.00     0.131 A 
ATOM     57  C   UNL     1       2.844  -2.531   4.225  1.00  0.00     0.055 A 
ATOM     58  C   UNL     1       5.102  -3.332   4.395  1.00  0.00     0.041 A 
ATOM     59  F   UNL     1       6.464  -3.385   2.494  1.00  0.00    -0.206 F 
ATOM     60  C   UNL     1       3.896  -3.011   5.008  1.00  0.00     0.022 A 
BRANCH  57  61
ATOM     61  S   UNL     1       1.350  -1.877   5.022  1.00  0.00     0.124 S 
ATOM     62  O   UNL     1       1.318  -0.507   4.516  1.00  0.00    -0.237 OA
ATOM     63  O   UNL     1       0.310  -2.768   4.522  1.00  0.00    -0.237 OA
ATOM     64  O   UNL     1       1.642  -1.997   6.449  1.00  0.00    -0.744 OA
ENDBRANCH  57  61
ENDBRANCH  40  54
BRANCH  41  65
ATOM     65  C   UNL     1       5.461  -0.731  -7.495  1.00  0.00     0.023 A 
ATOM     66  C   UNL     1       4.635  -1.295  -8.479  1.00  0.00     0.031 A 
ATOM     67  C   UNL     1       6.510   0.110  -7.915  1.00  0.00     0.131 A 
ATOM     68  C   UNL     1       4.881  -1.023  -9.835  1.00  0.00     0.055 A 
ATOM     69  C   UNL     1       6.709   0.428  -9.258  1.00  0.00     0.041 A 
ATOM     70  F   UNL     1       7.341   0.662  -7.017  1.00  0.00    -0.206 F 
ATOM     71  C   UNL     1       5.896  -0.147 -10.228  1.00  0.00     0.022 A 
BRANCH  68  72
ATOM     72  S   UNL     1       3.900  -1.889 -11.090  1.00  0.00     0.124 S 
ATOM     73  O   UNL     1       4.230  -3.283 -10.816  1.00  0.00    -0.237 OA
ATOM     74  O   UNL     1       2.541  -1.474 -10.760  1.00  0.00    -0.237 OA
ATOM     75  O   UNL     1       4.420  -1.363 -12.351  1.00  0.00    -0.744 OA
ENDBRANCH  68  72
ENDBRANCH  41  65
BRANCH  53  76
ATOM     76  C   UNL     1       6.120  -6.511  -3.666  1.00  0.00     0.023 A 
ATOM     77  C   UNL     1       7.401  -6.850  -4.138  1.00  0.00     0.031 A 
ATOM     78  C   UNL     1       5.156  -7.531  -3.582  1.00  0.00     0.131 A 
ATOM     79  C   UNL     1       7.664  -8.161  -4.568  1.00  0.00     0.055 A 
ATOM     80  C   UNL     1       5.442  -8.846  -3.952  1.00  0.00     0.041 A 
ATOM     81  F   UNL     1       3.915  -7.265  -3.144  1.00  0.00    -0.206 F 
ATOM     82  C   UNL     1       6.697  -9.164  -4.463  1.00  0.00     0.022 A 
BRANCH  79  83
ATOM     83  S   UNL     1       9.255  -8.517  -5.364  1.00  0.00     0.124 S 
ATOM     84  O   UNL     1       9.241  -7.596  -6.496  1.00  0.00    -0.237 OA
ATOM     85  O   UNL     1      10.210  -8.211  -4.305  1.00  0.00    -0.237 OA
ATOM     86  O   UNL     1       9.154  -9.932  -5.716  1.00  0.00    -0.744 OA
ENDBRANCH  79  83
ENDBRANCH  53  76
ENDBRANCH  27  28
ENDBRANCH  20  22
ENDBRANCH  19  20
ENDBRANCH  18  19
ENDBRANCH   1  18
TORSDOF 18
