REMARK SMILES Nc1nc2ccccc2nc1N1CCC(C(=O)OCCOC(=O)c2ccc(-c3c4nc(c(-c5cc(S(=O)(=O)[O-])ccc5F)c5ccc([nH]5)c(-c5cc(S(=O)(=O)[O-])ccc5F)c5nc(c(-c6cc(S(=O)(=O)[O-])ccc6F)c6ccc3[nH]6)C=C5)C=C4)cc2)CC1
REMARK SMILES IDX 20 1 19 2 18 3 16 4 17 5 15 6 12 7 13 8 88 9 14 10 87 11
REMARK SMILES IDX 11 12 2 13 3 14 4 15 10 16 5 17 9 18 6 19 8 20 7 21 1 22
REMARK SMILES IDX 21 25 22 26 23 27 24 28 25 29 86 30 26 31 85 32 27 33 28 34
REMARK SMILES IDX 29 35 79 36 30 37 84 38 78 39 80 40 31 41 83 42 77 43 76 44
REMARK SMILES IDX 32 46 64 47 44 48 63 49 45 50 48 51 62 52 81 53 46 54 47 55
REMARK SMILES IDX 61 57 82 58 49 59 33 60 34 61 42 62 35 63 41 64 43 65 40 66
REMARK SMILES IDX 36 67 37 68 38 69 39 70 65 71 66 72 74 73 67 74 73 75 75 76
REMARK SMILES IDX 72 77 68 78 69 79 70 80 71 81 50 82 51 83 59 84 52 85 58 86
REMARK SMILES IDX 60 87 57 88 53 89 54 90 55 91 56 92
REMARK H PARENT 1 23 1 24 80 45 48 56
REMARK Flexibility Score: inf
ROOT
ATOM      1  C   UNL     1       3.771  -9.076   0.940  1.00  0.00     0.275 C 
ENDROOT
BRANCH   1   2
ATOM      2  C   UNL     1       2.587  -8.342   1.575  1.00  0.00     0.274 C 
BRANCH   2   3
ATOM      3  O   UNL     1       2.438  -7.023   1.021  1.00  0.00    -0.462 OA
BRANCH   3   4
ATOM      4  C   UNL     1       2.971  -6.011   1.749  1.00  0.00     0.309 C 
ATOM      5  O   UNL     1       3.461  -6.137   2.866  1.00  0.00    -0.252 OA
BRANCH   4   6
ATOM      6  C   UNL     1       2.903  -4.672   1.051  1.00  0.00     0.103 C 
ATOM      7  N   UNL     1       1.871  -2.421  -0.346  1.00  0.00    -0.353 N 
ATOM      8  C   UNL     1       2.772  -3.322  -1.055  1.00  0.00     0.119 C 
ATOM      9  C   UNL     1       1.918  -2.385   1.113  1.00  0.00     0.119 C 
ATOM     10  C   UNL     1       2.728  -4.728  -0.468  1.00  0.00     0.037 C 
ATOM     11  C   UNL     1       1.821  -3.799   1.679  1.00  0.00     0.037 C 
BRANCH   7  12
ATOM     12  C   UNL     1       0.665  -2.073  -0.948  1.00  0.00     0.172 A 
ATOM     13  C   UNL     1       0.173  -0.743  -0.854  1.00  0.00     0.167 A 
ATOM     14  N   UNL     1      -0.993  -0.361  -1.407  1.00  0.00    -0.226 NA
ATOM     15  C   UNL     1      -1.670  -1.306  -2.076  1.00  0.00     0.091 A 
ATOM     16  N   UNL     1      -0.015  -3.010  -1.647  1.00  0.00    -0.225 NA
ATOM     17  C   UNL     1      -2.882  -0.971  -2.664  1.00  0.00     0.031 A 
ATOM     18  C   UNL     1      -1.186  -2.633  -2.193  1.00  0.00     0.091 A 
ATOM     19  C   UNL     1      -3.641  -1.916  -3.354  1.00  0.00     0.002 A 
ATOM     20  C   UNL     1      -1.952  -3.565  -2.883  1.00  0.00     0.031 A 
ATOM     21  C   UNL     1      -3.177  -3.220  -3.460  1.00  0.00     0.002 A 
BRANCH  13  22
ATOM     22  N   UNL     1       0.867   0.243  -0.159  1.00  0.00    -0.381 N 
ATOM     23  H   UNL     1       0.504   1.157  -0.108  1.00  0.00     0.158 HD
ATOM     24  H   UNL     1       1.720   0.026   0.282  1.00  0.00     0.158 HD
ENDBRANCH  13  22
ENDBRANCH   7  12
ENDBRANCH   4   6
ENDBRANCH   3   4
ENDBRANCH   2   3
ENDBRANCH   1   2
BRANCH   1  25
ATOM     25  O   UNL     1       5.029  -8.492   1.326  1.00  0.00    -0.458 OA
BRANCH  25  26
ATOM     26  C   UNL     1       5.536  -7.576   0.466  1.00  0.00     0.338 C 
ATOM     27  O   UNL     1       5.067  -7.225  -0.600  1.00  0.00    -0.246 OA
BRANCH  26  28
ATOM     28  C   UNL     1       6.720  -6.953   1.078  1.00  0.00     0.060 A 
ATOM     29  C   UNL     1       7.881  -7.694   1.289  1.00  0.00     0.016 A 
ATOM     30  C   UNL     1       6.675  -5.595   1.400  1.00  0.00     0.016 A 
ATOM     31  C   UNL     1       8.989  -7.070   1.865  1.00  0.00     0.010 A 
ATOM     32  C   UNL     1       7.786  -4.969   1.961  1.00  0.00     0.010 A 
ATOM     33  C   UNL     1       8.948  -5.706   2.213  1.00  0.00    -0.014 A 
BRANCH  33  34
ATOM     34  C   UNL     1      10.142  -5.046   2.794  1.00  0.00     0.031 A 
ATOM     35  C   UNL     1      10.157  -4.604   4.228  1.00  0.00     0.074 A 
ATOM     36  C   UNL     1      11.215  -4.841   2.007  1.00  0.00     0.049 A 
ATOM     37  N   UNL     1      11.152  -4.121   4.925  1.00  0.00    -0.248 NA
ATOM     38  C   UNL     1       8.894  -4.704   4.976  1.00  0.00     0.031 C 
ATOM     39  C   UNL     1      11.274  -5.165   0.582  1.00  0.00     0.029 A 
ATOM     40  N   UNL     1      12.457  -4.328   2.287  1.00  0.00    -0.354 N 
ATOM     41  C   UNL     1      10.645  -3.876   6.195  1.00  0.00     0.074 A 
ATOM     42  C   UNL     1       9.236  -4.198   6.154  1.00  0.00     0.031 C 
ATOM     43  C   UNL     1      12.502  -4.888   0.122  1.00  0.00     0.029 A 
ATOM     44  C   UNL     1      13.310  -4.335   1.208  1.00  0.00     0.049 A 
ATOM     45  H   UNL     1      12.712  -3.988   3.175  1.00  0.00     0.167 HD
ATOM     46  C   UNL     1      11.306  -3.451   7.298  1.00  0.00     0.034 A 
ATOM     47  C   UNL     1      14.601  -3.956   1.106  1.00  0.00     0.034 A 
ATOM     48  C   UNL     1      12.714  -3.135   7.309  1.00  0.00     0.049 A 
ATOM     49  C   UNL     1      15.319  -3.490   2.347  1.00  0.00     0.074 A 
ATOM     50  C   UNL     1      13.493  -2.754   8.387  1.00  0.00     0.029 A 
ATOM     51  N   UNL     1      13.550  -3.156   6.201  1.00  0.00    -0.354 N 
ATOM     52  N   UNL     1      14.859  -3.384   3.573  1.00  0.00    -0.248 NA
ATOM     53  C   UNL     1      16.731  -3.114   2.205  1.00  0.00     0.031 C 
ATOM     54  C   UNL     1      14.775  -2.467   7.919  1.00  0.00     0.029 A 
ATOM     55  C   UNL     1      14.827  -2.761   6.565  1.00  0.00     0.049 A 
ATOM     56  H   UNL     1      13.275  -3.413   5.292  1.00  0.00     0.167 HD
ATOM     57  C   UNL     1      15.931  -2.955   4.351  1.00  0.00     0.074 A 
ATOM     58  C   UNL     1      17.069  -2.848   3.461  1.00  0.00     0.031 C 
ATOM     59  C   UNL     1      15.965  -2.672   5.678  1.00  0.00     0.034 A 
BRANCH  46  60
ATOM     60  C   UNL     1      10.552  -3.329   8.601  1.00  0.00     0.023 A 
ATOM     61  C   UNL     1      10.487  -2.091   9.269  1.00  0.00     0.031 A 
ATOM     62  C   UNL     1      10.038  -4.463   9.257  1.00  0.00     0.131 A 
ATOM     63  C   UNL     1       9.963  -2.025  10.566  1.00  0.00     0.055 A 
ATOM     64  C   UNL     1       9.470  -4.382  10.529  1.00  0.00     0.041 A 
ATOM     65  F   UNL     1      10.084  -5.670   8.670  1.00  0.00    -0.206 F 
ATOM     66  C   UNL     1       9.445  -3.161  11.196  1.00  0.00     0.022 A 
BRANCH  63  67
ATOM     67  S   UNL     1      10.008  -0.482  11.520  1.00  0.00     0.124 S 
ATOM     68  O   UNL     1       8.592  -0.269  11.812  1.00  0.00    -0.237 OA
ATOM     69  O   UNL     1      10.830  -0.858  12.667  1.00  0.00    -0.237 OA
ATOM     70  O   UNL     1      10.604   0.481  10.602  1.00  0.00    -0.744 OA
ENDBRANCH  63  67
ENDBRANCH  46  60
BRANCH  47  71
ATOM     71  C   UNL     1      15.293  -4.099  -0.209  1.00  0.00     0.023 A 
ATOM     72  C   UNL     1      14.833  -3.405  -1.344  1.00  0.00     0.031 A 
ATOM     73  C   UNL     1      16.336  -5.024  -0.380  1.00  0.00     0.131 A 
ATOM     74  C   UNL     1      15.360  -3.705  -2.607  1.00  0.00     0.055 A 
ATOM     75  C   UNL     1      16.913  -5.262  -1.629  1.00  0.00     0.041 A 
ATOM     76  F   UNL     1      16.799  -5.724   0.667  1.00  0.00    -0.206 F 
ATOM     77  C   UNL     1      16.411  -4.615  -2.754  1.00  0.00     0.022 A 
BRANCH  74  78
ATOM     78  S   UNL     1      14.599  -3.038  -4.112  1.00  0.00     0.124 S 
ATOM     79  O   UNL     1      15.709  -2.312  -4.720  1.00  0.00    -0.237 OA
ATOM     80  O   UNL     1      14.188  -4.258  -4.803  1.00  0.00    -0.237 OA
ATOM     81  O   UNL     1      13.505  -2.213  -3.610  1.00  0.00    -0.744 OA
ENDBRANCH  74  78
ENDBRANCH  47  71
BRANCH  59  82
ATOM     82  C   UNL     1      17.270  -2.220   6.294  1.00  0.00     0.023 A 
ATOM     83  C   UNL     1      17.847  -2.969   7.339  1.00  0.00     0.031 A 
ATOM     84  C   UNL     1      17.841  -0.976   5.977  1.00  0.00     0.131 A 
ATOM     85  C   UNL     1      18.924  -2.443   8.064  1.00  0.00     0.055 A 
ATOM     86  C   UNL     1      18.952  -0.483   6.664  1.00  0.00     0.041 A 
ATOM     87  F   UNL     1      17.321  -0.215   5.001  1.00  0.00    -0.206 F 
ATOM     88  C   UNL     1      19.486  -1.209   7.724  1.00  0.00     0.022 A 
BRANCH  85  89
ATOM     89  S   UNL     1      19.561  -3.287   9.539  1.00  0.00     0.124 S 
ATOM     90  O   UNL     1      20.952  -3.535   9.167  1.00  0.00    -0.237 OA
ATOM     91  O   UNL     1      19.364  -2.279  10.577  1.00  0.00    -0.237 OA
ATOM     92  O   UNL     1      18.727  -4.478   9.652  1.00  0.00    -0.744 OA
ENDBRANCH  85  89
ENDBRANCH  59  82
ENDBRANCH  33  34
ENDBRANCH  26  28
ENDBRANCH  25  26
ENDBRANCH   1  25
TORSDOF 16
