REMARK SMILES C[NH+](C)CCCNC(=O)[C@@H]1[C@@H](C(=O)OCCOC(=O)c2ccc(-c3c4nc(c(-c5cc(S(=O)(=O)[O-])ccc5F)c5ccc([nH]5)c(-c5cc(S(=O)(=O)[O-])ccc5F)c5nc(c(-c6cc(S(=O)(=O)[O-])ccc6F)c6ccc3[nH]6)C=C5)C=C4)cc2)C1(C)C
REMARK SMILES IDX 15 1 14 2 12 3 13 4 11 5 10 6 83 7 84 8 85 9 8 10 7 11 9 13
REMARK SMILES IDX 6 14 5 15 4 16 2 17 1 18 3 19 16 21 17 22 18 23 19 24 20 25
REMARK SMILES IDX 21 26 82 27 22 28 81 29 23 30 24 31 25 32 75 33 26 34 80 35
REMARK SMILES IDX 74 36 76 37 27 38 79 39 73 40 72 41 28 43 60 44 40 45 59 46
REMARK SMILES IDX 41 47 44 48 58 49 77 50 42 51 43 52 57 54 78 55 45 56 29 57
REMARK SMILES IDX 30 58 38 59 31 60 37 61 39 62 36 63 32 64 33 65 34 66 35 67
REMARK SMILES IDX 61 68 62 69 70 70 63 71 69 72 71 73 68 74 64 75 65 76 66 77
REMARK SMILES IDX 67 78 46 79 47 80 55 81 48 82 54 83 56 84 53 85 49 86 50 87
REMARK SMILES IDX 51 88 52 89
REMARK H PARENT 7 12 2 20 76 42 44 53
REMARK Flexibility Score: inf
ROOT
ATOM      1  C   UNL     1       1.647   2.404   3.448  1.00  0.00     0.274 C 
ENDROOT
BRANCH   1   2
ATOM      2  O   UNL     1       2.074   3.353   2.458  1.00  0.00    -0.462 OA
BRANCH   2   3
ATOM      3  C   UNL     1       1.462   3.274   1.252  1.00  0.00     0.310 C 
ATOM      4  O   UNL     1       0.724   2.368   0.890  1.00  0.00    -0.252 OA
BRANCH   3   5
ATOM      5  C   UNL     1       1.675   4.458   0.392  1.00  0.00     0.118 C 
ATOM      6  C   UNL     1       2.924   4.610  -0.440  1.00  0.00     0.100 C 
ATOM      7  C   UNL     1       2.607   5.637   0.647  1.00  0.00    -0.009 C 
ATOM      8  C   UNL     1       3.600   5.700   1.781  1.00  0.00     0.013 C 
ATOM      9  C   UNL     1       2.045   6.999   0.292  1.00  0.00     0.013 C 
BRANCH   6  10
ATOM     10  C   UNL     1       2.783   4.931  -1.877  1.00  0.00     0.224 C 
ATOM     11  N   UNL     1       3.720   5.741  -2.450  1.00  0.00    -0.356 N 
ATOM     12  H   UNL     1       3.594   5.940  -3.406  1.00  0.00     0.163 HD
ATOM     13  O   UNL     1       1.857   4.475  -2.535  1.00  0.00    -0.275 OA
BRANCH  11  14
ATOM     14  C   UNL     1       4.877   6.344  -1.822  1.00  0.00     0.121 C 
BRANCH  14  15
ATOM     15  C   UNL     1       6.137   6.188  -2.660  1.00  0.00     0.083 C 
BRANCH  15  16
ATOM     16  C   UNL     1       6.104   6.814  -4.061  1.00  0.00     0.263 C 
BRANCH  16  17
ATOM     17  N   UNL     1       5.974   8.266  -4.207  1.00  0.00    -0.340 N 
ATOM     18  C   UNL     1       4.603   8.763  -4.157  1.00  0.00     0.332 C 
ATOM     19  C   UNL     1       6.858   9.035  -3.342  1.00  0.00     0.332 C 
ATOM     20  H   UNL     1       6.293   8.427  -5.162  1.00  0.00     0.347 HD
ENDBRANCH  16  17
ENDBRANCH  15  16
ENDBRANCH  14  15
ENDBRANCH  11  14
ENDBRANCH   6  10
ENDBRANCH   3   5
ENDBRANCH   2   3
ENDBRANCH   1   2
BRANCH   1  21
ATOM     21  C   UNL     1       0.924   3.135   4.580  1.00  0.00     0.275 C 
BRANCH  21  22
ATOM     22  O   UNL     1      -0.278   3.774   4.105  1.00  0.00    -0.458 OA
BRANCH  22  23
ATOM     23  C   UNL     1      -0.141   5.081   3.772  1.00  0.00     0.338 C 
ATOM     24  O   UNL     1       0.864   5.764   3.866  1.00  0.00    -0.246 OA
BRANCH  23  25
ATOM     25  C   UNL     1      -1.385   5.569   3.160  1.00  0.00     0.060 A 
ATOM     26  C   UNL     1      -1.371   5.887   1.802  1.00  0.00     0.016 A 
ATOM     27  C   UNL     1      -2.526   5.801   3.927  1.00  0.00     0.016 A 
ATOM     28  C   UNL     1      -2.495   6.435   1.194  1.00  0.00     0.010 A 
ATOM     29  C   UNL     1      -3.661   6.348   3.315  1.00  0.00     0.010 A 
ATOM     30  C   UNL     1      -3.650   6.675   1.946  1.00  0.00    -0.014 A 
BRANCH  30  31
ATOM     31  C   UNL     1      -4.821   7.317   1.300  1.00  0.00     0.031 A 
ATOM     32  C   UNL     1      -5.173   8.738   1.633  1.00  0.00     0.074 A 
ATOM     33  C   UNL     1      -5.547   6.632   0.398  1.00  0.00     0.049 A 
ATOM     34  N   UNL     1      -6.200   9.452   1.250  1.00  0.00    -0.248 NA
ATOM     35  C   UNL     1      -4.244   9.444   2.526  1.00  0.00     0.031 C 
ATOM     36  C   UNL     1      -5.269   5.262  -0.038  1.00  0.00     0.029 A 
ATOM     37  N   UNL     1      -6.667   6.988  -0.309  1.00  0.00    -0.354 N 
ATOM     38  C   UNL     1      -6.054  10.689   1.869  1.00  0.00     0.074 A 
ATOM     39  C   UNL     1      -4.856  10.609   2.680  1.00  0.00     0.031 C 
ATOM     40  C   UNL     1      -6.199   4.892  -0.932  1.00  0.00     0.029 A 
ATOM     41  C   UNL     1      -7.168   5.972  -1.089  1.00  0.00     0.049 A 
ATOM     42  H   UNL     1      -7.072   7.884  -0.263  1.00  0.00     0.167 HD
ATOM     43  C   UNL     1      -6.846  11.786   1.764  1.00  0.00     0.034 A 
ATOM     44  C   UNL     1      -8.303   5.902  -1.812  1.00  0.00     0.034 A 
ATOM     45  C   UNL     1      -8.040  11.836   0.952  1.00  0.00     0.049 A 
ATOM     46  C   UNL     1      -9.210   7.103  -1.857  1.00  0.00     0.074 A 
ATOM     47  C   UNL     1      -8.912  12.894   0.759  1.00  0.00     0.029 A 
ATOM     48  N   UNL     1      -8.542  10.773   0.207  1.00  0.00    -0.354 N 
ATOM     49  N   UNL     1      -9.072   8.265  -1.259  1.00  0.00    -0.248 NA
ATOM     50  C   UNL     1     -10.424   6.985  -2.673  1.00  0.00     0.031 C 
ATOM     51  C   UNL     1      -9.973  12.451  -0.041  1.00  0.00     0.029 A 
ATOM     52  C   UNL     1      -9.728  11.139  -0.414  1.00  0.00     0.049 A 
ATOM     53  H   UNL     1      -8.117   9.889   0.132  1.00  0.00     0.167 HD
ATOM     54  C   UNL     1     -10.178   9.020  -1.635  1.00  0.00     0.074 A 
ATOM     55  C   UNL     1     -10.960   8.189  -2.529  1.00  0.00     0.031 C 
ATOM     56  C   UNL     1     -10.515  10.286  -1.278  1.00  0.00     0.034 A 
BRANCH  43  57
ATOM     57  C   UNL     1      -6.470  12.987   2.603  1.00  0.00     0.023 A 
ATOM     58  C   UNL     1      -5.247  13.660   2.434  1.00  0.00     0.031 A 
ATOM     59  C   UNL     1      -7.318  13.421   3.638  1.00  0.00     0.131 A 
ATOM     60  C   UNL     1      -4.864  14.660   3.342  1.00  0.00     0.055 A 
ATOM     61  C   UNL     1      -6.971  14.478   4.482  1.00  0.00     0.041 A 
ATOM     62  F   UNL     1      -8.490  12.807   3.865  1.00  0.00    -0.206 F 
ATOM     63  C   UNL     1      -5.728  15.090   4.351  1.00  0.00     0.022 A 
BRANCH  60  64
ATOM     64  S   UNL     1      -3.151  15.259   3.300  1.00  0.00     0.124 S 
ATOM     65  O   UNL     1      -2.398  14.015   3.441  1.00  0.00    -0.237 OA
ATOM     66  O   UNL     1      -3.076  15.907   1.996  1.00  0.00    -0.237 OA
ATOM     67  O   UNL     1      -3.073  16.157   4.450  1.00  0.00    -0.744 OA
ENDBRANCH  60  64
ENDBRANCH  43  57
BRANCH  44  68
ATOM     68  C   UNL     1      -8.672   4.626  -2.487  1.00  0.00     0.023 A 
ATOM     69  C   UNL     1      -8.727   4.519  -3.884  1.00  0.00     0.031 A 
ATOM     70  C   UNL     1      -8.981   3.484  -1.724  1.00  0.00     0.131 A 
ATOM     71  C   UNL     1      -9.102   3.302  -4.476  1.00  0.00     0.055 A 
ATOM     72  C   UNL     1      -9.306   2.264  -2.317  1.00  0.00     0.041 A 
ATOM     73  F   UNL     1      -8.945   3.534  -0.382  1.00  0.00    -0.206 F 
ATOM     74  C   UNL     1      -9.376   2.171  -3.703  1.00  0.00     0.022 A 
BRANCH  71  75
ATOM     75  S   UNL     1      -9.281   3.228  -6.280  1.00  0.00     0.124 S 
ATOM     76  O   UNL     1     -10.326   4.218  -6.517  1.00  0.00    -0.237 OA
ATOM     77  O   UNL     1      -7.942   3.587  -6.734  1.00  0.00    -0.237 OA
ATOM     78  O   UNL     1      -9.669   1.840  -6.527  1.00  0.00    -0.744 OA
ENDBRANCH  71  75
ENDBRANCH  44  68
BRANCH  56  79
ATOM     79  C   UNL     1     -11.780  10.849  -1.880  1.00  0.00     0.023 A 
ATOM     80  C   UNL     1     -13.048  10.341  -1.543  1.00  0.00     0.031 A 
ATOM     81  C   UNL     1     -11.715  11.897  -2.815  1.00  0.00     0.131 A 
ATOM     82  C   UNL     1     -14.194  10.845  -2.177  1.00  0.00     0.055 A 
ATOM     83  C   UNL     1     -12.863  12.434  -3.399  1.00  0.00     0.041 A 
ATOM     84  F   UNL     1     -10.531  12.417  -3.176  1.00  0.00    -0.206 F 
ATOM     85  C   UNL     1     -14.110  11.899  -3.091  1.00  0.00     0.022 A 
BRANCH  82  86
ATOM     86  S   UNL     1     -15.791  10.046  -1.860  1.00  0.00     0.124 S 
ATOM     87  O   UNL     1     -15.536   8.676  -2.294  1.00  0.00    -0.237 OA
ATOM     88  O   UNL     1     -15.958  10.239  -0.423  1.00  0.00    -0.237 OA
ATOM     89  O   UNL     1     -16.724  10.797  -2.697  1.00  0.00    -0.744 OA
ENDBRANCH  82  86
ENDBRANCH  56  79
ENDBRANCH  30  31
ENDBRANCH  23  25
ENDBRANCH  22  23
ENDBRANCH  21  22
ENDBRANCH   1  21
TORSDOF 19
