REMARK SMILES COc1ccc(/C=C/c2nc(C(=O)OCCOC(=O)c3ccc(-c4c5nc(c(-c6cc(S(=O)(=O)[O-])ccc6F)c6ccc([nH]6)c(-c6cc(S(=O)(=O)[O-])ccc6F)c6nc(c(-c7cc(S(=O)(=O)[O-])ccc7F)c7ccc4[nH]7)C=C6)C=C5)cc3)ccc2C#N)cc1F
REMARK SMILES IDX 15 1 14 2 12 3 13 4 11 5 9 6 10 7 85 8 84 9 83 10 8 11 7 12
REMARK SMILES IDX 6 13 3 14 4 15 89 16 5 17 88 18 90 19 2 20 1 21 86 22 87 23
REMARK SMILES IDX 16 24 17 25 18 26 19 27 20 28 21 29 82 30 22 31 81 32 23 33
REMARK SMILES IDX 24 34 25 35 75 36 26 37 80 38 74 39 76 40 27 41 79 42 73 43
REMARK SMILES IDX 72 44 28 46 60 47 40 48 59 49 41 50 44 51 58 52 77 53 42 54
REMARK SMILES IDX 43 55 57 57 78 58 45 59 29 60 30 61 38 62 31 63 37 64 39 65
REMARK SMILES IDX 36 66 32 67 33 68 34 69 35 70 61 71 62 72 70 73 63 74 69 75
REMARK SMILES IDX 71 76 68 77 64 78 65 79 66 80 67 81 46 82 47 83 55 84 48 85
REMARK SMILES IDX 54 86 56 87 53 88 49 89 50 90 51 91 52 92
REMARK H PARENT 76 45 44 56
REMARK Flexibility Score: inf
ROOT
ATOM      1  C   UNL     1      -0.287  -1.095  13.897  1.00  0.00     0.275 C 
ENDROOT
BRANCH   1   2
ATOM      2  O   UNL     1       0.634  -0.351  13.072  1.00  0.00    -0.457 OA
BRANCH   2   3
ATOM      3  C   UNL     1       0.795  -0.813  11.801  1.00  0.00     0.357 C 
ATOM      4  O   UNL     1       0.317  -1.848  11.363  1.00  0.00    -0.244 OA
BRANCH   3   5
ATOM      5  C   UNL     1       1.568   0.169  10.969  1.00  0.00     0.149 A 
ATOM      6  C   UNL     1       1.860   1.091   8.832  1.00  0.00     0.082 A 
ATOM      7  N   UNL     1       1.254   0.191   9.643  1.00  0.00    -0.240 NA
ATOM      8  C   UNL     1       2.854   1.943   9.302  1.00  0.00     0.078 A 
ATOM      9  C   UNL     1       3.191   1.885  10.664  1.00  0.00     0.024 A 
ATOM     10  C   UNL     1       2.529   1.001  11.517  1.00  0.00     0.037 A 
BRANCH   6  11
ATOM     11  C   UNL     1       1.296   1.140   7.471  1.00  0.00     0.030 C 
ATOM     12  C   UNL     1       2.012   0.888   6.363  1.00  0.00     0.010 C 
BRANCH  12  13
ATOM     13  C   UNL     1       1.548   0.951   4.961  1.00  0.00    -0.022 A 
ATOM     14  C   UNL     1       0.858   1.055   2.212  1.00  0.00     0.154 A 
ATOM     15  C   UNL     1      -0.104   1.296   3.195  1.00  0.00     0.050 A 
ATOM     16  C   UNL     1       2.165   0.789   2.608  1.00  0.00     0.165 A 
ATOM     17  C   UNL     1       0.234   1.234   4.558  1.00  0.00     0.012 A 
ATOM     18  C   UNL     1       2.506   0.731   3.959  1.00  0.00     0.051 A 
ATOM     19  F   UNL     1       3.144   0.620   1.708  1.00  0.00    -0.203 F 
BRANCH  14  20
ATOM     20  O   UNL     1       0.450   1.178   0.912  1.00  0.00    -0.494 OA
ATOM     21  C   UNL     1       0.891   0.115   0.069  1.00  0.00     0.278 C 
ENDBRANCH  14  20
ENDBRANCH  12  13
ENDBRANCH   6  11
BRANCH   8  22
ATOM     22  C   UNL     1       3.539   2.871   8.453  1.00  0.00     0.101 C 
ATOM     23  N   UNL     1       4.154   3.609   7.806  1.00  0.00    -0.192 NA
ENDBRANCH   8  22
ENDBRANCH   3   5
ENDBRANCH   2   3
ENDBRANCH   1   2
BRANCH   1  24
ATOM     24  C   UNL     1      -1.663  -0.422  13.974  1.00  0.00     0.275 C 
BRANCH  24  25
ATOM     25  O   UNL     1      -2.377  -0.495  12.727  1.00  0.00    -0.458 OA
BRANCH  25  26
ATOM     26  C   UNL     1      -2.171   0.556  11.899  1.00  0.00     0.338 C 
ATOM     27  O   UNL     1      -1.476   1.535  12.119  1.00  0.00    -0.246 OA
BRANCH  26  28
ATOM     28  C   UNL     1      -2.807   0.312  10.597  1.00  0.00     0.060 A 
ATOM     29  C   UNL     1      -1.971   0.004   9.530  1.00  0.00     0.016 A 
ATOM     30  C   UNL     1      -4.167   0.516  10.380  1.00  0.00     0.016 A 
ATOM     31  C   UNL     1      -2.451  -0.011   8.231  1.00  0.00     0.010 A 
ATOM     32  C   UNL     1      -4.671   0.421   9.074  1.00  0.00     0.010 A 
ATOM     33  C   UNL     1      -3.811   0.186   7.984  1.00  0.00    -0.014 A 
BRANCH  33  34
ATOM     34  C   UNL     1      -4.300   0.162   6.581  1.00  0.00     0.031 A 
ATOM     35  C   UNL     1      -4.923   1.391   5.977  1.00  0.00     0.074 A 
ATOM     36  C   UNL     1      -4.132  -0.948   5.833  1.00  0.00     0.049 A 
ATOM     37  N   UNL     1      -5.499   1.533   4.813  1.00  0.00    -0.248 NA
ATOM     38  C   UNL     1      -4.896   2.620   6.787  1.00  0.00     0.031 C 
ATOM     39  C   UNL     1      -3.471  -2.178   6.283  1.00  0.00     0.029 A 
ATOM     40  N   UNL     1      -4.487  -1.223   4.536  1.00  0.00    -0.354 N 
ATOM     41  C   UNL     1      -5.933   2.853   4.761  1.00  0.00     0.074 A 
ATOM     42  C   UNL     1      -5.568   3.467   6.019  1.00  0.00     0.031 C 
ATOM     43  C   UNL     1      -3.439  -3.057   5.271  1.00  0.00     0.029 A 
ATOM     44  C   UNL     1      -4.158  -2.497   4.134  1.00  0.00     0.049 A 
ATOM     45  H   UNL     1      -4.934  -0.571   3.950  1.00  0.00     0.167 HD
ATOM     46  C   UNL     1      -6.576   3.488   3.752  1.00  0.00     0.034 A 
ATOM     47  C   UNL     1      -4.441  -3.164   2.997  1.00  0.00     0.034 A 
ATOM     48  C   UNL     1      -6.910   2.863   2.496  1.00  0.00     0.049 A 
ATOM     49  C   UNL     1      -5.240  -2.467   1.931  1.00  0.00     0.074 A 
ATOM     50  C   UNL     1      -7.553   3.423   1.406  1.00  0.00     0.029 A 
ATOM     51  N   UNL     1      -6.631   1.545   2.160  1.00  0.00    -0.354 N 
ATOM     52  N   UNL     1      -5.700  -1.238   1.922  1.00  0.00    -0.248 NA
ATOM     53  C   UNL     1      -5.572  -3.245   0.731  1.00  0.00     0.031 C 
ATOM     54  C   UNL     1      -7.733   2.425   0.445  1.00  0.00     0.029 A 
ATOM     55  C   UNL     1      -7.123   1.265   0.895  1.00  0.00     0.049 A 
ATOM     56  H   UNL     1      -6.154   0.905   2.735  1.00  0.00     0.167 HD
ATOM     57  C   UNL     1      -6.357  -1.088   0.705  1.00  0.00     0.074 A 
ATOM     58  C   UNL     1      -6.230  -2.351   0.006  1.00  0.00     0.031 C 
ATOM     59  C   UNL     1      -6.999  -0.001   0.213  1.00  0.00     0.034 A 
BRANCH  46  60
ATOM     60  C   UNL     1      -7.008   4.915   3.971  1.00  0.00     0.023 A 
ATOM     61  C   UNL     1      -6.083   5.967   4.067  1.00  0.00     0.031 A 
ATOM     62  C   UNL     1      -8.378   5.229   4.038  1.00  0.00     0.131 A 
ATOM     63  C   UNL     1      -6.540   7.282   4.252  1.00  0.00     0.055 A 
ATOM     64  C   UNL     1      -8.828   6.544   4.159  1.00  0.00     0.041 A 
ATOM     65  F   UNL     1      -9.304   4.259   3.973  1.00  0.00    -0.206 F 
ATOM     66  C   UNL     1      -7.906   7.580   4.272  1.00  0.00     0.022 A 
BRANCH  63  67
ATOM     67  S   UNL     1      -5.324   8.597   4.536  1.00  0.00     0.124 S 
ATOM     68  O   UNL     1      -4.717   8.169   5.794  1.00  0.00    -0.237 OA
ATOM     69  O   UNL     1      -4.476   8.505   3.353  1.00  0.00    -0.237 OA
ATOM     70  O   UNL     1      -6.141   9.806   4.625  1.00  0.00    -0.744 OA
ENDBRANCH  63  67
ENDBRANCH  46  60
BRANCH  47  71
ATOM     71  C   UNL     1      -4.015  -4.583   2.844  1.00  0.00     0.023 A 
ATOM     72  C   UNL     1      -3.059  -4.954   1.887  1.00  0.00     0.031 A 
ATOM     73  C   UNL     1      -4.549  -5.590   3.670  1.00  0.00     0.131 A 
ATOM     74  C   UNL     1      -2.675  -6.299   1.770  1.00  0.00     0.055 A 
ATOM     75  C   UNL     1      -4.130  -6.917   3.581  1.00  0.00     0.041 A 
ATOM     76  F   UNL     1      -5.465  -5.286   4.604  1.00  0.00    -0.206 F 
ATOM     77  C   UNL     1      -3.191  -7.279   2.622  1.00  0.00     0.022 A 
BRANCH  74  78
ATOM     78  S   UNL     1      -1.509  -6.761   0.460  1.00  0.00     0.124 S 
ATOM     79  O   UNL     1      -2.269  -6.434  -0.742  1.00  0.00    -0.237 OA
ATOM     80  O   UNL     1      -0.366  -5.901   0.750  1.00  0.00    -0.237 OA
ATOM     81  O   UNL     1      -1.287  -8.187   0.690  1.00  0.00    -0.744 OA
ENDBRANCH  74  78
ENDBRANCH  47  71
BRANCH  59  82
ATOM     82  C   UNL     1      -7.589  -0.105  -1.169  1.00  0.00     0.023 A 
ATOM     83  C   UNL     1      -8.720  -0.895  -1.430  1.00  0.00     0.031 A 
ATOM     84  C   UNL     1      -7.045   0.648  -2.224  1.00  0.00     0.131 A 
ATOM     85  C   UNL     1      -9.260  -0.931  -2.724  1.00  0.00     0.055 A 
ATOM     86  C   UNL     1      -7.617   0.650  -3.496  1.00  0.00     0.041 A 
ATOM     87  F   UNL     1      -5.964   1.420  -2.025  1.00  0.00    -0.206 F 
ATOM     88  C   UNL     1      -8.729  -0.147  -3.752  1.00  0.00     0.022 A 
BRANCH  85  89
ATOM     89  S   UNL     1     -10.651  -2.044  -3.058  1.00  0.00     0.124 S 
ATOM     90  O   UNL     1     -10.055  -3.354  -2.816  1.00  0.00    -0.237 OA
ATOM     91  O   UNL     1     -11.647  -1.607  -2.084  1.00  0.00    -0.237 OA
ATOM     92  O   UNL     1     -10.988  -1.764  -4.453  1.00  0.00    -0.744 OA
ENDBRANCH  85  89
ENDBRANCH  59  82
ENDBRANCH  33  34
ENDBRANCH  26  28
ENDBRANCH  25  26
ENDBRANCH  24  25
ENDBRANCH   1  24
TORSDOF 18
