REMARK SMILES Cc1ccccc1OC1(C(=O)OCCOC(=O)c2ccc(-c3c4nc(c(-c5cc(S(=O)(=O)[O-])ccc5F)c5ccc([nH]5)c(-c5cc(S(=O)(=O)[O-])ccc5F)c5nc(c(-c6cc(S(=O)(=O)[O-])ccc6F)c6ccc3[nH]6)C=C5)C=C4)cc2)CCN(C(=O)[C@H]2CCCCO2)CC1
REMARK SMILES IDX 14 1 13 2 12 3 10 4 11 5 9 6 81 7 93 8 82 9 92 10 83 11
REMARK SMILES IDX 84 12 85 13 8 14 7 15 1 16 2 17 3 18 4 19 6 20 5 21 86 22
REMARK SMILES IDX 87 23 91 24 88 25 90 26 89 27 15 28 16 29 17 30 18 31 19 32
REMARK SMILES IDX 80 33 20 34 79 35 21 36 22 37 23 38 73 39 24 40 78 41 72 42
REMARK SMILES IDX 74 43 25 44 77 45 71 46 70 47 26 49 58 50 38 51 57 52 39 53
REMARK SMILES IDX 42 54 56 55 75 56 40 57 41 58 55 60 76 61 43 62 27 63 28 64
REMARK SMILES IDX 36 65 29 66 35 67 37 68 34 69 30 70 31 71 32 72 33 73 59 74
REMARK SMILES IDX 60 75 68 76 61 77 67 78 69 79 66 80 62 81 63 82 64 83 65 84
REMARK SMILES IDX 44 85 45 86 53 87 46 88 52 89 54 90 51 91 47 92 48 93 49 94
REMARK SMILES IDX 50 95
REMARK H PARENT 74 48 42 59
REMARK Flexibility Score: inf
ROOT
ATOM      1  C   UNL     1       9.909  -7.795  -3.361  1.00  0.00     0.275 C 
ENDROOT
BRANCH   1   2
ATOM      2  C   UNL     1       9.231  -6.461  -3.007  1.00  0.00     0.274 C 
BRANCH   2   3
ATOM      3  O   UNL     1       8.164  -6.609  -2.051  1.00  0.00    -0.459 OA
BRANCH   3   4
ATOM      4  C   UNL     1       7.406  -5.478  -1.916  1.00  0.00     0.350 C 
ATOM      5  O   UNL     1       7.666  -4.443  -2.529  1.00  0.00    -0.247 OA
BRANCH   4   6
ATOM      6  C   UNL     1       6.357  -5.553  -0.741  1.00  0.00     0.209 C 
ATOM      7  C   UNL     1       7.288  -5.331   0.454  1.00  0.00     0.082 C 
ATOM      8  C   UNL     1       5.325  -4.449  -1.071  1.00  0.00     0.082 C 
ATOM      9  C   UNL     1       7.411  -3.876   0.846  1.00  0.00     0.124 C 
ATOM     10  C   UNL     1       5.067  -3.428   0.018  1.00  0.00     0.124 C 
ATOM     11  N   UNL     1       6.156  -3.138   0.947  1.00  0.00    -0.340 N 
ATOM     12  C   UNL     1       6.102  -2.120   1.909  1.00  0.00     0.251 C 
ATOM     13  O   UNL     1       7.032  -1.968   2.710  1.00  0.00    -0.272 OA
BRANCH   6  14
ATOM     14  O   UNL     1       5.746  -6.852  -0.598  1.00  0.00    -0.475 OA
BRANCH  14  15
ATOM     15  C   UNL     1       4.549  -7.130   0.025  1.00  0.00     0.123 A 
ATOM     16  C   UNL     1       4.600  -5.823   2.307  1.00  0.00     0.048 C 
ATOM     17  C   UNL     1       3.992  -6.681   1.238  1.00  0.00    -0.009 A 
ATOM     18  C   UNL     1       2.727  -7.189   1.651  1.00  0.00     0.007 A 
ATOM     19  C   UNL     1       2.031  -8.143   0.923  1.00  0.00     0.001 A 
ATOM     20  C   UNL     1       3.832  -8.131  -0.667  1.00  0.00     0.047 A 
ATOM     21  C   UNL     1       2.594  -8.627  -0.239  1.00  0.00     0.004 A 
ENDBRANCH  14  15
ENDBRANCH   6  14
BRANCH  12  22
ATOM     22  C   UNL     1       4.870  -1.176   1.942  1.00  0.00     0.207 C 
ATOM     23  C   UNL     1       3.663  -1.854   2.600  1.00  0.00     0.042 C 
ATOM     24  O   UNL     1       5.243  -0.008   2.695  1.00  0.00    -0.368 OA
ATOM     25  C   UNL     1       2.521  -0.872   2.844  1.00  0.00     0.006 C 
ATOM     26  C   UNL     1       4.205   0.956   2.805  1.00  0.00     0.161 C 
ATOM     27  C   UNL     1       3.028   0.367   3.564  1.00  0.00     0.029 C 
ENDBRANCH  12  22
ENDBRANCH   4   6
ENDBRANCH   3   4
ENDBRANCH   2   3
ENDBRANCH   1   2
BRANCH   1  28
ATOM     28  O   UNL     1       9.126  -8.864  -3.942  1.00  0.00    -0.458 OA
BRANCH  28  29
ATOM     29  C   UNL     1       7.811  -8.945  -3.632  1.00  0.00     0.338 C 
ATOM     30  O   UNL     1       7.380  -9.547  -2.645  1.00  0.00    -0.246 OA
BRANCH  29  31
ATOM     31  C   UNL     1       7.027  -8.018  -4.484  1.00  0.00     0.060 A 
ATOM     32  C   UNL     1       5.824  -7.504  -3.987  1.00  0.00     0.016 A 
ATOM     33  C   UNL     1       7.613  -7.454  -5.618  1.00  0.00     0.016 A 
ATOM     34  C   UNL     1       5.261  -6.357  -4.540  1.00  0.00     0.010 A 
ATOM     35  C   UNL     1       7.100  -6.277  -6.127  1.00  0.00     0.010 A 
ATOM     36  C   UNL     1       5.929  -5.720  -5.589  1.00  0.00    -0.014 A 
BRANCH  36  37
ATOM     37  C   UNL     1       5.302  -4.671  -6.389  1.00  0.00     0.031 A 
ATOM     38  C   UNL     1       5.058  -3.293  -5.918  1.00  0.00     0.074 A 
ATOM     39  C   UNL     1       4.837  -5.097  -7.583  1.00  0.00     0.049 A 
ATOM     40  N   UNL     1       4.010  -2.601  -6.224  1.00  0.00    -0.248 NA
ATOM     41  C   UNL     1       5.977  -2.579  -5.036  1.00  0.00     0.031 C 
ATOM     42  C   UNL     1       4.210  -4.346  -8.654  1.00  0.00     0.029 A 
ATOM     43  N   UNL     1       4.623  -6.433  -7.934  1.00  0.00    -0.354 N 
ATOM     44  C   UNL     1       4.243  -1.296  -5.840  1.00  0.00     0.074 A 
ATOM     45  C   UNL     1       5.434  -1.353  -5.022  1.00  0.00     0.031 C 
ATOM     46  C   UNL     1       3.416  -5.193  -9.337  1.00  0.00     0.029 A 
ATOM     47  C   UNL     1       3.412  -6.461  -8.608  1.00  0.00     0.049 A 
ATOM     48  H   UNL     1       5.212  -7.199  -7.741  1.00  0.00     0.167 HD
ATOM     49  C   UNL     1       3.517  -0.279  -6.392  1.00  0.00     0.034 A 
ATOM     50  C   UNL     1       2.316  -7.117  -8.130  1.00  0.00     0.034 A 
ATOM     51  C   UNL     1       2.579  -0.782  -7.386  1.00  0.00     0.049 A 
ATOM     52  C   UNL     1       1.129  -6.192  -8.107  1.00  0.00     0.074 A 
ATOM     53  C   UNL     1       2.704  -0.918  -8.759  1.00  0.00     0.029 A 
ATOM     54  N   UNL     1       1.460  -1.512  -7.008  1.00  0.00    -0.354 N 
ATOM     55  N   UNL     1       1.202  -4.919  -7.826  1.00  0.00    -0.248 NA
ATOM     56  C   UNL     1      -0.213  -6.637  -8.449  1.00  0.00     0.031 C 
ATOM     57  C   UNL     1       1.704  -1.816  -9.197  1.00  0.00     0.029 A 
ATOM     58  C   UNL     1       0.943  -2.181  -8.099  1.00  0.00     0.049 A 
ATOM     59  H   UNL     1       1.091  -1.547  -6.096  1.00  0.00     0.167 HD
ATOM     60  C   UNL     1      -0.029  -4.355  -8.052  1.00  0.00     0.074 A 
ATOM     61  C   UNL     1      -0.886  -5.476  -8.409  1.00  0.00     0.031 C 
ATOM     62  C   UNL     1      -0.246  -3.008  -7.995  1.00  0.00     0.034 A 
BRANCH  49  63
ATOM     63  C   UNL     1       3.902   1.184  -6.314  1.00  0.00     0.023 A 
ATOM     64  C   UNL     1       3.683   2.020  -7.434  1.00  0.00     0.031 A 
ATOM     65  C   UNL     1       4.501   1.802  -5.203  1.00  0.00     0.131 A 
ATOM     66  C   UNL     1       4.140   3.349  -7.466  1.00  0.00     0.055 A 
ATOM     67  C   UNL     1       4.990   3.119  -5.245  1.00  0.00     0.041 A 
ATOM     68  F   UNL     1       4.609   1.164  -4.027  1.00  0.00    -0.206 F 
ATOM     69  C   UNL     1       4.828   3.894  -6.387  1.00  0.00     0.022 A 
BRANCH  66  70
ATOM     70  S   UNL     1       3.839   4.350  -8.952  1.00  0.00     0.124 S 
ATOM     71  O   UNL     1       4.433   3.533 -10.005  1.00  0.00    -0.237 OA
ATOM     72  O   UNL     1       2.384   4.457  -8.962  1.00  0.00    -0.237 OA
ATOM     73  O   UNL     1       4.547   5.598  -8.671  1.00  0.00    -0.744 OA
ENDBRANCH  66  70
ENDBRANCH  49  63
BRANCH  50  74
ATOM     74  C   UNL     1       2.526  -8.222  -7.139  1.00  0.00     0.023 A 
ATOM     75  C   UNL     1       3.492  -9.218  -7.405  1.00  0.00     0.031 A 
ATOM     76  C   UNL     1       1.966  -8.206  -5.852  1.00  0.00     0.131 A 
ATOM     77  C   UNL     1       3.952 -10.068  -6.386  1.00  0.00     0.055 A 
ATOM     78  C   UNL     1       2.390  -9.090  -4.848  1.00  0.00     0.041 A 
ATOM     79  F   UNL     1       1.047  -7.291  -5.514  1.00  0.00    -0.206 F 
ATOM     80  C   UNL     1       3.408 -10.007  -5.103  1.00  0.00     0.022 A 
BRANCH  77  81
ATOM     81  S   UNL     1       5.418 -11.100  -6.695  1.00  0.00     0.124 S 
ATOM     82  O   UNL     1       4.830 -12.281  -7.317  1.00  0.00    -0.237 OA
ATOM     83  O   UNL     1       6.226 -10.252  -7.566  1.00  0.00    -0.237 OA
ATOM     84  O   UNL     1       5.974 -11.298  -5.360  1.00  0.00    -0.744 OA
ENDBRANCH  77  81
ENDBRANCH  50  74
BRANCH  62  85
ATOM     85  C   UNL     1      -1.602  -2.346  -8.029  1.00  0.00     0.023 A 
ATOM     86  C   UNL     1      -2.784  -3.034  -7.727  1.00  0.00     0.031 A 
ATOM     87  C   UNL     1      -1.745  -0.962  -8.290  1.00  0.00     0.131 A 
ATOM     88  C   UNL     1      -4.034  -2.403  -7.812  1.00  0.00     0.055 A 
ATOM     89  C   UNL     1      -2.984  -0.314  -8.286  1.00  0.00     0.041 A 
ATOM     90  F   UNL     1      -0.690  -0.175  -8.546  1.00  0.00    -0.206 F 
ATOM     91  C   UNL     1      -4.144  -1.040  -8.069  1.00  0.00     0.022 A 
BRANCH  88  92
ATOM     92  S   UNL     1      -5.511  -3.436  -7.654  1.00  0.00     0.124 S 
ATOM     93  O   UNL     1      -5.371  -4.332  -8.799  1.00  0.00    -0.237 OA
ATOM     94  O   UNL     1      -5.325  -4.051  -6.343  1.00  0.00    -0.237 OA
ATOM     95  O   UNL     1      -6.612  -2.480  -7.743  1.00  0.00    -0.744 OA
ENDBRANCH  88  92
ENDBRANCH  62  85
ENDBRANCH  36  37
ENDBRANCH  29  31
ENDBRANCH  28  29
ENDBRANCH   1  28
TORSDOF 17
