REMARK SMILES C[NH2+][C@]1(C(=O)OCCOC(=O)c2ccc(-c3c4nc(c(-c5cc(S(=O)(=O)[O-])ccc5F)c5ccc([nH]5)c(-c5cc(S(=O)(=O)[O-])ccc5F)c5nc(c(-c6cc(S(=O)(=O)[O-])ccc6F)c6ccc3[nH]6)C=C5)C=C4)cc2)CCC[C@@H]([N@H+]2CC[C@@H](C)C2)C1
REMARK SMILES IDX 8 1 7 2 6 3 4 4 5 5 3 6 75 7 85 8 76 9 78 10 77 11 2 12 1 13
REMARK SMILES IDX 79 16 80 17 84 18 81 20 82 21 83 22 9 23 10 24 11 25 12 26
REMARK SMILES IDX 13 27 74 28 14 29 73 30 15 31 16 32 17 33 67 34 18 35 72 36
REMARK SMILES IDX 66 37 68 38 19 39 71 40 65 41 64 42 20 44 52 45 32 46 51 47
REMARK SMILES IDX 33 48 36 49 50 50 69 51 34 52 35 53 49 55 70 56 37 57 21 58
REMARK SMILES IDX 22 59 30 60 23 61 29 62 31 63 28 64 24 65 25 66 26 67 27 68
REMARK SMILES IDX 53 69 54 70 62 71 55 72 61 73 63 74 60 75 56 76 57 77 58 78
REMARK SMILES IDX 59 79 38 80 39 81 47 82 40 83 46 84 48 85 45 86 41 87 42 88
REMARK SMILES IDX 43 89 44 90
REMARK H PARENT 2 14 2 15 79 19 68 43 36 54
REMARK Flexibility Score: inf
ROOT
ATOM      1  C   UNL     1       3.265  -0.663   1.329  1.00  0.00     0.275 C 
ENDROOT
BRANCH   1   2
ATOM      2  C   UNL     1       2.575   0.527   2.002  1.00  0.00     0.274 C 
BRANCH   2   3
ATOM      3  O   UNL     1       1.140   0.435   1.930  1.00  0.00    -0.457 OA
BRANCH   3   4
ATOM      4  C   UNL     1       0.565   1.117   0.894  1.00  0.00     0.368 C 
ATOM      5  O   UNL     1       1.220   1.809   0.119  1.00  0.00    -0.245 OA
BRANCH   4   6
ATOM      6  C   UNL     1      -0.999   1.069   0.944  1.00  0.00     0.199 C 
ATOM      7  C   UNL     1      -1.547  -0.214   1.621  1.00  0.00     0.081 C 
ATOM      8  C   UNL     1      -1.384   2.251   1.833  1.00  0.00     0.146 C 
ATOM      9  C   UNL     1      -3.053  -0.151   1.912  1.00  0.00     0.013 C 
ATOM     10  C   UNL     1      -2.886   2.389   2.098  1.00  0.00     0.190 C 
ATOM     11  C   UNL     1      -3.436   1.092   2.727  1.00  0.00     0.065 C 
BRANCH   6  12
ATOM     12  N   UNL     1      -1.608   1.174  -0.416  1.00  0.00    -0.334 N 
ATOM     13  C   UNL     1      -1.200   2.298  -1.254  1.00  0.00     0.331 C 
ATOM     14  H   UNL     1      -1.379   0.318  -0.920  1.00  0.00     0.347 HD
ATOM     15  H   UNL     1      -2.602   1.327  -0.244  1.00  0.00     0.347 HD
ENDBRANCH   6  12
BRANCH  10  16
ATOM     16  N   UNL     1      -3.209   3.606   2.869  1.00  0.00    -0.332 N 
ATOM     17  C   UNL     1      -2.707   3.660   4.243  1.00  0.00     0.262 C 
ATOM     18  C   UNL     1      -2.816   4.850   2.186  1.00  0.00     0.265 C 
ATOM     19  H   UNL     1      -4.225   3.535   2.927  1.00  0.00     0.348 HD
ATOM     20  C   UNL     1      -2.071   5.034   4.435  1.00  0.00     0.070 C 
ATOM     21  C   UNL     1      -1.738   5.526   3.034  1.00  0.00     0.047 C 
ATOM     22  C   UNL     1      -0.293   5.203   2.647  1.00  0.00     0.014 C 
ENDBRANCH  10  16
ENDBRANCH   4   6
ENDBRANCH   3   4
ENDBRANCH   2   3
ENDBRANCH   1   2
BRANCH   1  23
ATOM     23  O   UNL     1       2.909  -0.789  -0.059  1.00  0.00    -0.458 OA
BRANCH  23  24
ATOM     24  C   UNL     1       1.837  -1.587  -0.299  1.00  0.00     0.338 C 
ATOM     25  O   UNL     1       1.235  -2.256   0.529  1.00  0.00    -0.246 OA
BRANCH  24  26
ATOM     26  C   UNL     1       1.359  -1.391  -1.682  1.00  0.00     0.060 A 
ATOM     27  C   UNL     1       0.002  -1.117  -1.852  1.00  0.00     0.016 A 
ATOM     28  C   UNL     1       2.191  -1.485  -2.797  1.00  0.00     0.016 A 
ATOM     29  C   UNL     1      -0.526  -0.856  -3.110  1.00  0.00     0.010 A 
ATOM     30  C   UNL     1       1.649  -1.292  -4.076  1.00  0.00     0.010 A 
ATOM     31  C   UNL     1       0.290  -0.967  -4.235  1.00  0.00    -0.014 A 
BRANCH  31  32
ATOM     32  C   UNL     1      -0.341  -0.885  -5.571  1.00  0.00     0.031 A 
ATOM     33  C   UNL     1      -0.937  -2.131  -6.158  1.00  0.00     0.074 A 
ATOM     34  C   UNL     1      -0.449   0.292  -6.212  1.00  0.00     0.049 A 
ATOM     35  N   UNL     1      -1.486  -2.317  -7.329  1.00  0.00    -0.248 NA
ATOM     36  C   UNL     1      -0.922  -3.324  -5.298  1.00  0.00     0.031 C 
ATOM     37  C   UNL     1      -0.020   1.585  -5.680  1.00  0.00     0.029 A 
ATOM     38  N   UNL     1      -0.956   0.590  -7.452  1.00  0.00    -0.354 N 
ATOM     39  C   UNL     1      -1.887  -3.647  -7.348  1.00  0.00     0.074 A 
ATOM     40  C   UNL     1      -1.500  -4.224  -6.077  1.00  0.00     0.031 C 
ATOM     41  C   UNL     1      -0.255   2.534  -6.603  1.00  0.00     0.029 A 
ATOM     42  C   UNL     1      -0.805   1.910  -7.806  1.00  0.00     0.049 A 
ATOM     43  H   UNL     1      -1.387  -0.079  -8.033  1.00  0.00     0.167 HD
ATOM     44  C   UNL     1      -2.515  -4.325  -8.340  1.00  0.00     0.034 A 
ATOM     45  C   UNL     1      -1.043   2.528  -8.982  1.00  0.00     0.034 A 
ATOM     46  C   UNL     1      -2.848  -3.742  -9.616  1.00  0.00     0.049 A 
ATOM     47  C   UNL     1      -1.597   1.715 -10.130  1.00  0.00     0.074 A 
ATOM     48  C   UNL     1      -3.440  -4.345 -10.712  1.00  0.00     0.029 A 
ATOM     49  N   UNL     1      -2.599  -2.423  -9.977  1.00  0.00    -0.354 N 
ATOM     50  N   UNL     1      -1.936   0.445 -10.160  1.00  0.00    -0.248 NA
ATOM     51  C   UNL     1      -1.801   2.418 -11.404  1.00  0.00     0.031 C 
ATOM     52  C   UNL     1      -3.474  -3.416 -11.757  1.00  0.00     0.029 A 
ATOM     53  C   UNL     1      -2.990  -2.204 -11.289  1.00  0.00     0.049 A 
ATOM     54  H   UNL     1      -2.203  -1.742  -9.386  1.00  0.00     0.167 HD
ATOM     55  C   UNL     1      -2.423   0.209 -11.444  1.00  0.00     0.074 A 
ATOM     56  C   UNL     1      -2.346   1.470 -12.153  1.00  0.00     0.031 C 
ATOM     57  C   UNL     1      -2.898  -0.942 -11.987  1.00  0.00     0.034 A 
BRANCH  44  58
ATOM     58  C   UNL     1      -2.790  -5.789  -8.102  1.00  0.00     0.023 A 
ATOM     59  C   UNL     1      -3.670  -6.226  -7.095  1.00  0.00     0.031 A 
ATOM     60  C   UNL     1      -2.117  -6.765  -8.858  1.00  0.00     0.131 A 
ATOM     61  C   UNL     1      -3.796  -7.597  -6.825  1.00  0.00     0.055 A 
ATOM     62  C   UNL     1      -2.310  -8.129  -8.638  1.00  0.00     0.041 A 
ATOM     63  F   UNL     1      -1.242  -6.407  -9.811  1.00  0.00    -0.206 F 
ATOM     64  C   UNL     1      -3.142  -8.553  -7.606  1.00  0.00     0.022 A 
BRANCH  61  65
ATOM     65  S   UNL     1      -4.706  -8.111  -5.341  1.00  0.00     0.124 S 
ATOM     66  O   UNL     1      -3.965  -7.422  -4.287  1.00  0.00    -0.237 OA
ATOM     67  O   UNL     1      -6.051  -7.613  -5.607  1.00  0.00    -0.237 OA
ATOM     68  O   UNL     1      -4.568  -9.566  -5.341  1.00  0.00    -0.744 OA
ENDBRANCH  61  65
ENDBRANCH  44  58
BRANCH  45  69
ATOM     69  C   UNL     1      -0.689   3.966  -9.171  1.00  0.00     0.023 A 
ATOM     70  C   UNL     1      -1.661   4.923  -9.506  1.00  0.00     0.031 A 
ATOM     71  C   UNL     1       0.651   4.390  -9.097  1.00  0.00     0.131 A 
ATOM     72  C   UNL     1      -1.273   6.241  -9.802  1.00  0.00     0.055 A 
ATOM     73  C   UNL     1       1.023   5.715  -9.332  1.00  0.00     0.041 A 
ATOM     74  F   UNL     1       1.625   3.517  -8.793  1.00  0.00    -0.206 F 
ATOM     75  C   UNL     1       0.059   6.646  -9.702  1.00  0.00     0.022 A 
BRANCH  72  76
ATOM     76  S   UNL     1      -2.526   7.400 -10.419  1.00  0.00     0.124 S 
ATOM     77  O   UNL     1      -3.002   6.714 -11.614  1.00  0.00    -0.237 OA
ATOM     78  O   UNL     1      -3.459   7.463  -9.299  1.00  0.00    -0.237 OA
ATOM     79  O   UNL     1      -1.766   8.625 -10.662  1.00  0.00    -0.744 OA
ENDBRANCH  72  76
ENDBRANCH  45  69
BRANCH  57  80
ATOM     80  C   UNL     1      -3.423  -0.874 -13.402  1.00  0.00     0.023 A 
ATOM     81  C   UNL     1      -2.583  -0.611 -14.498  1.00  0.00     0.031 A 
ATOM     82  C   UNL     1      -4.792  -1.079 -13.655  1.00  0.00     0.131 A 
ATOM     83  C   UNL     1      -3.127  -0.507 -15.788  1.00  0.00     0.055 A 
ATOM     84  C   UNL     1      -5.317  -1.039 -14.948  1.00  0.00     0.041 A 
ATOM     85  F   UNL     1      -5.644  -1.331 -12.648  1.00  0.00    -0.206 F 
ATOM     86  C   UNL     1      -4.485  -0.739 -16.022  1.00  0.00     0.022 A 
BRANCH  83  87
ATOM     87  S   UNL     1      -2.054   0.028 -17.149  1.00  0.00     0.124 S 
ATOM     88  O   UNL     1      -1.581   1.324 -16.672  1.00  0.00    -0.237 OA
ATOM     89  O   UNL     1      -1.056  -1.036 -17.197  1.00  0.00    -0.237 OA
ATOM     90  O   UNL     1      -2.956   0.083 -18.298  1.00  0.00    -0.744 OA
ENDBRANCH  83  87
ENDBRANCH  57  80
ENDBRANCH  31  32
ENDBRANCH  24  26
ENDBRANCH  23  24
ENDBRANCH   1  23
TORSDOF 16
