REMARK SMILES C[C@@H](NC(=O)[C@H]1CC=CC[C@@H]1C(=O)OCCOC(=O)c1ccc(-c2c3nc(c(-c4cc(S(=O)(=O)[O-])ccc4F)c4ccc([nH]4)c(-c4cc(S(=O)(=O)[O-])ccc4F)c4nc(c(-c5cc(S(=O)(=O)[O-])ccc5F)c5ccc2[nH]5)C=C4)C=C3)cc1)c1ccc(-n2ccnc2)cc1
REMARK SMILES IDX 15 1 14 2 12 3 13 4 11 5 6 6 7 7 8 8 10 9 9 10 4 11 3 12
REMARK SMILES IDX 5 14 2 15 1 16 83 17 84 18 93 19 85 20 92 21 86 22 87 23
REMARK SMILES IDX 88 24 91 25 89 26 90 27 16 28 17 29 18 30 19 31 20 32 21 33
REMARK SMILES IDX 82 34 22 35 81 36 23 37 24 38 25 39 75 40 26 41 80 42 74 43
REMARK SMILES IDX 76 44 27 45 79 46 73 47 72 48 28 50 60 51 40 52 59 53 41 54
REMARK SMILES IDX 44 55 58 56 77 57 42 58 43 59 57 61 78 62 45 63 29 64 30 65
REMARK SMILES IDX 38 66 31 67 37 68 39 69 36 70 32 71 33 72 34 73 35 74 61 75
REMARK SMILES IDX 62 76 70 77 63 78 69 79 71 80 68 81 64 82 65 83 66 84 67 85
REMARK SMILES IDX 46 86 47 87 55 88 48 89 54 90 56 91 53 92 49 93 50 94 51 95
REMARK SMILES IDX 52 96
REMARK H PARENT 3 13 76 49 44 60
REMARK Flexibility Score: inf
ROOT
ATOM      1  C   UNL     1      -5.277   2.506  -2.543  1.00  0.00     0.274 C 
ENDROOT
BRANCH   1   2
ATOM      2  O   UNL     1      -3.881   2.675  -2.191  1.00  0.00    -0.462 OA
BRANCH   2   3
ATOM      3  C   UNL     1      -3.130   3.409  -3.058  1.00  0.00     0.310 C 
ATOM      4  O   UNL     1      -3.581   3.919  -4.080  1.00  0.00    -0.252 OA
BRANCH   3   5
ATOM      5  C   UNL     1      -1.644   3.464  -2.711  1.00  0.00     0.115 C 
ATOM      6  C   UNL     1      -1.242   2.887  -1.331  1.00  0.00     0.097 C 
ATOM      7  C   UNL     1      -1.540   3.872  -0.186  1.00  0.00     0.041 C 
ATOM      8  C   UNL     1      -1.174   5.288  -0.488  1.00  0.00    -0.030 C 
ATOM      9  C   UNL     1      -1.081   4.884  -2.955  1.00  0.00     0.043 C 
ATOM     10  C   UNL     1      -0.932   5.729  -1.726  1.00  0.00    -0.030 C 
BRANCH   6  11
ATOM     11  C   UNL     1       0.242   2.508  -1.338  1.00  0.00     0.224 C 
ATOM     12  N   UNL     1       0.852   1.852  -0.322  1.00  0.00    -0.349 N 
ATOM     13  H   UNL     1       1.785   2.145  -0.208  1.00  0.00     0.164 HD
ATOM     14  O   UNL     1       0.987   2.826  -2.272  1.00  0.00    -0.275 OA
BRANCH  12  15
ATOM     15  C   UNL     1       0.484   0.820   0.652  1.00  0.00     0.109 C 
ATOM     16  C   UNL     1       1.269  -0.456   0.305  1.00  0.00     0.036 C 
BRANCH  15  17
ATOM     17  C   UNL     1      -0.992   0.561   0.854  1.00  0.00    -0.026 A 
ATOM     18  C   UNL     1      -1.689   1.253   1.856  1.00  0.00     0.008 A 
ATOM     19  C   UNL     1      -1.710  -0.329   0.043  1.00  0.00     0.008 A 
ATOM     20  C   UNL     1      -3.077   1.135   1.985  1.00  0.00     0.027 A 
ATOM     21  C   UNL     1      -3.096  -0.454   0.167  1.00  0.00     0.027 A 
ATOM     22  C   UNL     1      -3.792   0.306   1.114  1.00  0.00     0.046 A 
BRANCH  22  23
ATOM     23  N   UNL     1      -5.211   0.273   1.152  1.00  0.00    -0.306 N 
ATOM     24  C   UNL     1      -6.041   0.752   2.142  1.00  0.00     0.113 A 
ATOM     25  C   UNL     1      -6.053  -0.208   0.170  1.00  0.00     0.204 A 
ATOM     26  C   UNL     1      -7.325   0.537   1.699  1.00  0.00     0.131 A 
ATOM     27  N   UNL     1      -7.324  -0.060   0.470  1.00  0.00    -0.245 NA
ENDBRANCH  22  23
ENDBRANCH  15  17
ENDBRANCH  12  15
ENDBRANCH   6  11
ENDBRANCH   3   5
ENDBRANCH   2   3
ENDBRANCH   1   2
BRANCH   1  28
ATOM     28  C   UNL     1      -6.185   3.208  -1.538  1.00  0.00     0.275 C 
BRANCH  28  29
ATOM     29  O   UNL     1      -5.889   4.610  -1.570  1.00  0.00    -0.458 OA
BRANCH  29  30
ATOM     30  C   UNL     1      -5.550   5.182  -0.391  1.00  0.00     0.338 C 
ATOM     31  O   UNL     1      -5.635   4.692   0.721  1.00  0.00    -0.246 OA
BRANCH  30  32
ATOM     32  C   UNL     1      -5.009   6.527  -0.666  1.00  0.00     0.060 A 
ATOM     33  C   UNL     1      -4.150   6.719  -1.748  1.00  0.00     0.016 A 
ATOM     34  C   UNL     1      -5.286   7.586   0.197  1.00  0.00     0.016 A 
ATOM     35  C   UNL     1      -3.511   7.942  -1.926  1.00  0.00     0.010 A 
ATOM     36  C   UNL     1      -4.723   8.844  -0.050  1.00  0.00     0.010 A 
ATOM     37  C   UNL     1      -3.808   9.034  -1.102  1.00  0.00    -0.014 A 
BRANCH  37  38
ATOM     38  C   UNL     1      -3.152  10.355  -1.329  1.00  0.00     0.031 A 
ATOM     39  C   UNL     1      -2.415  11.035  -0.204  1.00  0.00     0.074 A 
ATOM     40  C   UNL     1      -3.211  10.950  -2.538  1.00  0.00     0.049 A 
ATOM     41  N   UNL     1      -2.003  12.273  -0.109  1.00  0.00    -0.248 NA
ATOM     42  C   UNL     1      -2.132  10.217   0.984  1.00  0.00     0.031 C 
ATOM     43  C   UNL     1      -3.833  10.380  -3.737  1.00  0.00     0.029 A 
ATOM     44  N   UNL     1      -2.731  12.163  -2.968  1.00  0.00    -0.354 N 
ATOM     45  C   UNL     1      -1.491  12.408   1.179  1.00  0.00     0.074 A 
ATOM     46  C   UNL     1      -1.640  11.118   1.821  1.00  0.00     0.031 C 
ATOM     47  C   UNL     1      -3.642  11.209  -4.773  1.00  0.00     0.029 A 
ATOM     48  C   UNL     1      -3.001  12.425  -4.292  1.00  0.00     0.049 A 
ATOM     49  H   UNL     1      -2.241  12.786  -2.384  1.00  0.00     0.167 HD
ATOM     50  C   UNL     1      -0.963  13.512   1.766  1.00  0.00     0.034 A 
ATOM     51  C   UNL     1      -2.813  13.538  -5.027  1.00  0.00     0.034 A 
ATOM     52  C   UNL     1      -0.764  14.766   1.073  1.00  0.00     0.049 A 
ATOM     53  C   UNL     1      -2.253  14.759  -4.351  1.00  0.00     0.074 A 
ATOM     54  C   UNL     1      -0.209  15.941   1.553  1.00  0.00     0.029 A 
ATOM     55  N   UNL     1      -1.101  15.005  -0.255  1.00  0.00    -0.354 N 
ATOM     56  N   UNL     1      -1.867  14.908  -3.105  1.00  0.00    -0.248 NA
ATOM     57  C   UNL     1      -2.134  15.969  -5.173  1.00  0.00     0.031 C 
ATOM     58  C   UNL     1      -0.266  16.903   0.537  1.00  0.00     0.029 A 
ATOM     59  C   UNL     1      -0.790  16.312  -0.601  1.00  0.00     0.049 A 
ATOM     60  H   UNL     1      -1.502  14.342  -0.862  1.00  0.00     0.167 HD
ATOM     61  C   UNL     1      -1.452  16.231  -2.995  1.00  0.00     0.074 A 
ATOM     62  C   UNL     1      -1.614  16.826  -4.307  1.00  0.00     0.031 C 
ATOM     63  C   UNL     1      -0.983  16.895  -1.908  1.00  0.00     0.034 A 
BRANCH  50  64
ATOM     64  C   UNL     1      -0.647  13.436   3.243  1.00  0.00     0.023 A 
ATOM     65  C   UNL     1       0.321  12.563   3.769  1.00  0.00     0.031 A 
ATOM     66  C   UNL     1      -1.371  14.232   4.152  1.00  0.00     0.131 A 
ATOM     67  C   UNL     1       0.479  12.447   5.161  1.00  0.00     0.055 A 
ATOM     68  C   UNL     1      -1.149  14.175   5.529  1.00  0.00     0.041 A 
ATOM     69  F   UNL     1      -2.325  15.071   3.716  1.00  0.00    -0.206 F 
ATOM     70  C   UNL     1      -0.232  13.265   6.043  1.00  0.00     0.022 A 
BRANCH  67  71
ATOM     71  S   UNL     1       1.507  11.100   5.810  1.00  0.00     0.124 S 
ATOM     72  O   UNL     1       0.874   9.927   5.210  1.00  0.00    -0.237 OA
ATOM     73  O   UNL     1       2.830  11.441   5.302  1.00  0.00    -0.237 OA
ATOM     74  O   UNL     1       1.346  11.211   7.258  1.00  0.00    -0.744 OA
ENDBRANCH  67  71
ENDBRANCH  50  64
BRANCH  51  75
ATOM     75  C   UNL     1      -3.231  13.574  -6.459  1.00  0.00     0.023 A 
ATOM     76  C   UNL     1      -2.285  13.738  -7.483  1.00  0.00     0.031 A 
ATOM     77  C   UNL     1      -4.584  13.450  -6.825  1.00  0.00     0.131 A 
ATOM     78  C   UNL     1      -2.707  13.792  -8.821  1.00  0.00     0.055 A 
ATOM     79  C   UNL     1      -4.992  13.449  -8.159  1.00  0.00     0.041 A 
ATOM     80  F   UNL     1      -5.531  13.297  -5.885  1.00  0.00    -0.206 F 
ATOM     81  C   UNL     1      -4.051  13.629  -9.167  1.00  0.00     0.022 A 
BRANCH  78  82
ATOM     82  S   UNL     1      -1.477  14.138 -10.108  1.00  0.00     0.124 S 
ATOM     83  O   UNL     1      -0.976  15.445  -9.698  1.00  0.00    -0.237 OA
ATOM     84  O   UNL     1      -0.552  13.020  -9.954  1.00  0.00    -0.237 OA
ATOM     85  O   UNL     1      -2.262  14.128 -11.341  1.00  0.00    -0.744 OA
ENDBRANCH  78  82
ENDBRANCH  51  75
BRANCH  63  86
ATOM     86  C   UNL     1      -0.585  18.333  -2.122  1.00  0.00     0.023 A 
ATOM     87  C   UNL     1      -1.539  19.329  -2.393  1.00  0.00     0.031 A 
ATOM     88  C   UNL     1       0.771  18.701  -2.096  1.00  0.00     0.131 A 
ATOM     89  C   UNL     1      -1.119  20.635  -2.688  1.00  0.00     0.055 A 
ATOM     90  C   UNL     1       1.179  20.014  -2.334  1.00  0.00     0.041 A 
ATOM     91  F   UNL     1       1.723  17.788  -1.846  1.00  0.00    -0.206 F 
ATOM     92  C   UNL     1       0.233  20.986  -2.646  1.00  0.00     0.022 A 
BRANCH  89  93
ATOM     93  S   UNL     1      -2.357  21.848  -3.223  1.00  0.00     0.124 S 
ATOM     94  O   UNL     1      -2.910  21.211  -4.414  1.00  0.00    -0.237 OA
ATOM     95  O   UNL     1      -3.245  21.920  -2.068  1.00  0.00    -0.237 OA
ATOM     96  O   UNL     1      -1.569  23.053  -3.474  1.00  0.00    -0.744 OA
ENDBRANCH  89  93
ENDBRANCH  63  86
ENDBRANCH  37  38
ENDBRANCH  30  32
ENDBRANCH  29  30
ENDBRANCH  28  29
ENDBRANCH   1  28
TORSDOF 18
