REMARK SMILES C=CC[N@@H+](CC(=O)OCCOC(=O)c1ccc(-c2c3nc(c(-c4cc(S(=O)(=O)[O-])ccc4F)c4ccc([nH]4)c(-c4cc(S(=O)(=O)[O-])ccc4F)c4nc(c(-c5cc(S(=O)(=O)[O-])ccc5F)c5ccc2[nH]5)C=C4)C=C3)cc1)Cc1ccc(C(F)(F)F)cc1
REMARK SMILES IDX 9 1 8 2 6 3 7 4 5 5 4 6 3 8 2 9 1 10 77 11 78 12 79 13 87 14
REMARK SMILES IDX 80 15 86 16 81 17 82 18 83 19 84 20 85 21 10 22 11 23 12 24
REMARK SMILES IDX 13 25 14 26 15 27 76 28 16 29 75 30 17 31 18 32 19 33 69 34
REMARK SMILES IDX 20 35 74 36 68 37 70 38 21 39 73 40 67 41 66 42 22 44 54 45
REMARK SMILES IDX 34 46 53 47 35 48 38 49 52 50 71 51 36 52 37 53 51 55 72 56
REMARK SMILES IDX 39 57 23 58 24 59 32 60 25 61 31 62 33 63 30 64 26 65 27 66
REMARK SMILES IDX 28 67 29 68 55 69 56 70 64 71 57 72 63 73 65 74 62 75 58 76
REMARK SMILES IDX 59 77 60 78 61 79 40 80 41 81 49 82 42 83 48 84 50 85 47 86
REMARK SMILES IDX 43 87 44 88 45 89 46 90
REMARK H PARENT 4 7 70 43 38 54
REMARK Flexibility Score: inf
ROOT
ATOM      1  C   UNL     1      -4.532   0.902  -0.443  1.00  0.00     0.274 C 
ENDROOT
BRANCH   1   2
ATOM      2  O   UNL     1      -3.344   0.169  -0.064  1.00  0.00    -0.458 OA
BRANCH   2   3
ATOM      3  C   UNL     1      -3.549  -1.013   0.578  1.00  0.00     0.361 C 
ATOM      4  O   UNL     1      -4.626  -1.329   1.085  1.00  0.00    -0.245 OA
BRANCH   3   5
ATOM      5  C   UNL     1      -2.375  -1.996   0.544  1.00  0.00     0.387 C 
BRANCH   5   6
ATOM      6  N   UNL     1      -1.032  -1.474   0.295  1.00  0.00    -0.319 N 
ATOM      7  H   UNL     1      -0.390  -2.197   0.619  1.00  0.00     0.349 HD
BRANCH   6   8
ATOM      8  C   UNL     1      -0.504  -0.521   1.238  1.00  0.00     0.291 C 
BRANCH   8   9
ATOM      9  C   UNL     1       0.961  -0.734   1.488  1.00  0.00     0.025 C 
ATOM     10  C   UNL     1       1.914   0.186   1.288  1.00  0.00     0.010 C 
ENDBRANCH   8   9
ENDBRANCH   6   8
BRANCH   6  11
ATOM     11  C   UNL     1      -0.397  -1.724  -0.999  1.00  0.00     0.299 C 
BRANCH  11  12
ATOM     12  C   UNL     1      -0.596  -0.719  -2.121  1.00  0.00     0.006 A 
ATOM     13  C   UNL     1      -0.408   0.655  -1.951  1.00  0.00     0.010 A 
ATOM     14  C   UNL     1      -0.956  -1.177  -3.403  1.00  0.00     0.010 A 
ATOM     15  C   UNL     1      -0.709   1.554  -2.978  1.00  0.00     0.013 A 
ATOM     16  C   UNL     1      -1.271  -0.282  -4.431  1.00  0.00     0.013 A 
ATOM     17  C   UNL     1      -1.192   1.097  -4.212  1.00  0.00     0.056 A 
BRANCH  17  18
ATOM     18  C   UNL     1      -1.626   2.078  -5.267  1.00  0.00     0.416 C 
ATOM     19  F   UNL     1      -2.223   3.187  -4.737  1.00  0.00    -0.166 F 
ATOM     20  F   UNL     1      -0.591   2.542  -6.018  1.00  0.00    -0.166 F 
ATOM     21  F   UNL     1      -2.533   1.567  -6.147  1.00  0.00    -0.166 F 
ENDBRANCH  17  18
ENDBRANCH  11  12
ENDBRANCH   6  11
ENDBRANCH   5   6
ENDBRANCH   3   5
ENDBRANCH   2   3
ENDBRANCH   1   2
BRANCH   1  22
ATOM     22  C   UNL     1      -4.721   0.936  -1.972  1.00  0.00     0.275 C 
BRANCH  22  23
ATOM     23  O   UNL     1      -5.320  -0.253  -2.541  1.00  0.00    -0.458 OA
BRANCH  23  24
ATOM     24  C   UNL     1      -4.490  -1.312  -2.577  1.00  0.00     0.338 C 
ATOM     25  O   UNL     1      -3.380  -1.380  -2.091  1.00  0.00    -0.246 OA
BRANCH  24  26
ATOM     26  C   UNL     1      -4.984  -2.498  -3.255  1.00  0.00     0.060 A 
ATOM     27  C   UNL     1      -4.931  -3.693  -2.525  1.00  0.00     0.016 A 
ATOM     28  C   UNL     1      -5.177  -2.493  -4.635  1.00  0.00     0.016 A 
ATOM     29  C   UNL     1      -5.080  -4.904  -3.181  1.00  0.00     0.010 A 
ATOM     30  C   UNL     1      -5.342  -3.711  -5.290  1.00  0.00     0.010 A 
ATOM     31  C   UNL     1      -5.295  -4.916  -4.565  1.00  0.00    -0.014 A 
BRANCH  31  32
ATOM     32  C   UNL     1      -5.620  -6.188  -5.235  1.00  0.00     0.031 A 
ATOM     33  C   UNL     1      -4.597  -6.943  -6.020  1.00  0.00     0.074 A 
ATOM     34  C   UNL     1      -6.890  -6.615  -5.133  1.00  0.00     0.049 A 
ATOM     35  N   UNL     1      -4.758  -8.002  -6.768  1.00  0.00    -0.248 NA
ATOM     36  C   UNL     1      -3.214  -6.449  -5.956  1.00  0.00     0.031 C 
ATOM     37  C   UNL     1      -7.936  -5.949  -4.348  1.00  0.00     0.029 A 
ATOM     38  N   UNL     1      -7.525  -7.681  -5.705  1.00  0.00    -0.354 N 
ATOM     39  C   UNL     1      -3.500  -8.309  -7.269  1.00  0.00     0.074 A 
ATOM     40  C   UNL     1      -2.587  -7.310  -6.749  1.00  0.00     0.031 C 
ATOM     41  C   UNL     1      -9.093  -6.601  -4.523  1.00  0.00     0.029 A 
ATOM     42  C   UNL     1      -8.876  -7.694  -5.462  1.00  0.00     0.049 A 
ATOM     43  H   UNL     1      -7.062  -8.368  -6.236  1.00  0.00     0.167 HD
ATOM     44  C   UNL     1      -3.155  -9.332  -8.089  1.00  0.00     0.034 A 
ATOM     45  C   UNL     1      -9.843  -8.468  -5.984  1.00  0.00     0.034 A 
ATOM     46  C   UNL     1      -4.101 -10.294  -8.607  1.00  0.00     0.049 A 
ATOM     47  C   UNL     1      -9.450  -9.540  -6.955  1.00  0.00     0.074 A 
ATOM     48  C   UNL     1      -3.872 -11.379  -9.435  1.00  0.00     0.029 A 
ATOM     49  N   UNL     1      -5.469 -10.273  -8.354  1.00  0.00    -0.354 N 
ATOM     50  N   UNL     1      -8.259  -9.819  -7.430  1.00  0.00    -0.248 NA
ATOM     51  C   UNL     1     -10.524 -10.405  -7.451  1.00  0.00     0.031 C 
ATOM     52  C   UNL     1      -5.104 -11.981  -9.724  1.00  0.00     0.029 A 
ATOM     53  C   UNL     1      -6.097 -11.307  -9.031  1.00  0.00     0.049 A 
ATOM     54  H   UNL     1      -5.926  -9.619  -7.777  1.00  0.00     0.167 HD
ATOM     55  C   UNL     1      -8.435 -10.911  -8.268  1.00  0.00     0.074 A 
ATOM     56  C   UNL     1      -9.849 -11.236  -8.233  1.00  0.00     0.031 C 
ATOM     57  C   UNL     1      -7.511 -11.594  -8.991  1.00  0.00     0.034 A 
BRANCH  44  58
ATOM     58  C   UNL     1      -1.712  -9.426  -8.519  1.00  0.00     0.023 A 
ATOM     59  C   UNL     1      -0.687  -9.746  -7.612  1.00  0.00     0.031 A 
ATOM     60  C   UNL     1      -1.356  -9.183  -9.857  1.00  0.00     0.131 A 
ATOM     61  C   UNL     1       0.649  -9.771  -8.045  1.00  0.00     0.055 A 
ATOM     62  C   UNL     1      -0.033  -9.265 -10.295  1.00  0.00     0.041 A 
ATOM     63  F   UNL     1      -2.291  -8.852 -10.762  1.00  0.00    -0.206 F 
ATOM     64  C   UNL     1       0.980  -9.551  -9.384  1.00  0.00     0.022 A 
BRANCH  61  65
ATOM     65  S   UNL     1       1.962  -9.993  -6.813  1.00  0.00     0.124 S 
ATOM     66  O   UNL     1       1.728  -8.859  -5.922  1.00  0.00    -0.237 OA
ATOM     67  O   UNL     1       1.662 -11.310  -6.265  1.00  0.00    -0.237 OA
ATOM     68  O   UNL     1       3.190  -9.911  -7.602  1.00  0.00    -0.744 OA
ENDBRANCH  61  65
ENDBRANCH  44  58
BRANCH  45  69
ATOM     69  C   UNL     1     -11.259  -8.202  -5.630  1.00  0.00     0.023 A 
ATOM     70  C   UNL     1     -11.976  -9.074  -4.802  1.00  0.00     0.031 A 
ATOM     71  C   UNL     1     -11.898  -7.033  -6.084  1.00  0.00     0.131 A 
ATOM     72  C   UNL     1     -13.303  -8.770  -4.461  1.00  0.00     0.055 A 
ATOM     73  C   UNL     1     -13.205  -6.720  -5.716  1.00  0.00     0.041 A 
ATOM     74  F   UNL     1     -11.240  -6.159  -6.864  1.00  0.00    -0.206 F 
ATOM     75  C   UNL     1     -13.918  -7.595  -4.904  1.00  0.00     0.022 A 
BRANCH  72  76
ATOM     76  S   UNL     1     -14.229  -9.954  -3.448  1.00  0.00     0.124 S 
ATOM     77  O   UNL     1     -14.154 -11.165  -4.259  1.00  0.00    -0.237 OA
ATOM     78  O   UNL     1     -13.456  -9.962  -2.211  1.00  0.00    -0.237 OA
ATOM     79  O   UNL     1     -15.556  -9.351  -3.348  1.00  0.00    -0.744 OA
ENDBRANCH  72  76
ENDBRANCH  45  69
BRANCH  57  80
ATOM     80  C   UNL     1      -8.018 -12.783  -9.756  1.00  0.00     0.023 A 
ATOM     81  C   UNL     1      -8.775 -12.632 -10.929  1.00  0.00     0.031 A 
ATOM     82  C   UNL     1      -7.763 -14.081  -9.284  1.00  0.00     0.131 A 
ATOM     83  C   UNL     1      -9.293 -13.766 -11.569  1.00  0.00     0.055 A 
ATOM     84  C   UNL     1      -8.246 -15.207  -9.948  1.00  0.00     0.041 A 
ATOM     85  F   UNL     1      -7.047 -14.271  -8.164  1.00  0.00    -0.206 F 
ATOM     86  C   UNL     1      -9.024 -15.053 -11.093  1.00  0.00     0.022 A 
BRANCH  83  87
ATOM     87  S   UNL     1     -10.375 -13.538 -13.006  1.00  0.00     0.124 S 
ATOM     88  O   UNL     1     -11.520 -12.851 -12.416  1.00  0.00    -0.237 OA
ATOM     89  O   UNL     1      -9.546 -12.739 -13.903  1.00  0.00    -0.237 OA
ATOM     90  O   UNL     1     -10.637 -14.903 -13.459  1.00  0.00    -0.744 OA
ENDBRANCH  83  87
ENDBRANCH  57  80
ENDBRANCH  31  32
ENDBRANCH  24  26
ENDBRANCH  23  24
ENDBRANCH  22  23
ENDBRANCH   1  22
TORSDOF 20
