REMARK SMILES Cc1cc(C(=O)OCCOC(=O)c2ccc(-c3c4nc(c(-c5cc(S(=O)(=O)[O-])ccc5F)c5ccc([nH]5)c(-c5cc(S(=O)(=O)[O-])ccc5F)c5nc(c(-c6cc(S(=O)(=O)[O-])ccc6F)c6ccc3[nH]6)C=C5)C=C4)cc2)ccc1NS(=O)(=O)c1c(F)cccc1F
REMARK SMILES IDX 8 1 7 2 5 3 6 4 4 5 1 6 2 7 3 8 78 9 77 10 76 11 79 12 80 14
REMARK SMILES IDX 81 15 82 16 83 17 84 18 89 19 85 20 86 21 88 22 90 23 87 24
REMARK SMILES IDX 9 25 10 26 11 27 12 28 13 29 14 30 75 31 15 32 74 33 16 34
REMARK SMILES IDX 17 35 18 36 68 37 19 38 73 39 67 40 69 41 20 42 72 43 66 44
REMARK SMILES IDX 65 45 21 47 53 48 33 49 52 50 34 51 37 52 51 53 70 54 35 55
REMARK SMILES IDX 36 56 50 58 71 59 38 60 22 61 23 62 31 63 24 64 30 65 32 66
REMARK SMILES IDX 29 67 25 68 26 69 27 70 28 71 54 72 55 73 63 74 56 75 62 76
REMARK SMILES IDX 64 77 61 78 57 79 58 80 59 81 60 82 39 83 40 84 48 85 41 86
REMARK SMILES IDX 47 87 49 88 46 89 42 90 43 91 44 92 45 93
REMARK H PARENT 79 13 69 46 37 57
REMARK Flexibility Score: inf
ROOT
ATOM      1  C   UNL     1      -3.933  -2.475  -2.175  1.00  0.00     0.275 C 
ENDROOT
BRANCH   1   2
ATOM      2  O   UNL     1      -2.801  -1.678  -1.815  1.00  0.00    -0.458 OA
BRANCH   2   3
ATOM      3  C   UNL     1      -3.059  -0.831  -0.785  1.00  0.00     0.338 C 
ATOM      4  O   UNL     1      -4.172  -0.585  -0.342  1.00  0.00    -0.246 OA
BRANCH   3   5
ATOM      5  C   UNL     1      -1.838  -0.147  -0.285  1.00  0.00     0.060 A 
ATOM      6  C   UNL     1       1.853   0.271  -1.002  1.00  0.00     0.046 C 
ATOM      7  C   UNL     1       0.451   0.596  -0.567  1.00  0.00    -0.026 A 
ATOM      8  C   UNL     1      -0.586  -0.289  -0.888  1.00  0.00     0.021 A 
ATOM      9  C   UNL     1       0.141   1.702   0.240  1.00  0.00     0.052 A 
ATOM     10  C   UNL     1      -0.960   1.644   1.088  1.00  0.00     0.028 A 
ATOM     11  C   UNL     1      -1.971   0.727   0.803  1.00  0.00     0.018 A 
BRANCH   9  12
ATOM     12  N   UNL     1       0.869   2.915   0.031  1.00  0.00    -0.279 N 
ATOM     13  H   UNL     1       1.840   2.865  -0.125  1.00  0.00     0.180 HD
BRANCH  12  14
ATOM     14  S   UNL     1       0.118   4.443   0.041  1.00  0.00     0.267 S 
ATOM     15  O   UNL     1       0.288   4.936   1.390  1.00  0.00    -0.201 OA
ATOM     16  O   UNL     1       0.697   5.165  -1.079  1.00  0.00    -0.201 OA
BRANCH  14  17
ATOM     17  C   UNL     1      -1.605   4.319  -0.287  1.00  0.00     0.158 A 
ATOM     18  C   UNL     1      -2.486   5.070   0.486  1.00  0.00     0.146 A 
ATOM     19  C   UNL     1      -2.125   3.423  -1.209  1.00  0.00     0.146 A 
ATOM     20  F   UNL     1      -2.054   6.047   1.293  1.00  0.00    -0.205 F 
ATOM     21  C   UNL     1      -3.862   4.844   0.432  1.00  0.00     0.041 A 
ATOM     22  C   UNL     1      -3.499   3.162  -1.248  1.00  0.00     0.041 A 
ATOM     23  F   UNL     1      -1.329   2.742  -2.043  1.00  0.00    -0.205 F 
ATOM     24  C   UNL     1      -4.369   3.857  -0.408  1.00  0.00     0.006 A 
ENDBRANCH  14  17
ENDBRANCH  12  14
ENDBRANCH   9  12
ENDBRANCH   3   5
ENDBRANCH   2   3
ENDBRANCH   1   2
BRANCH   1  25
ATOM     25  C   UNL     1      -3.602  -3.652  -3.106  1.00  0.00     0.275 C 
BRANCH  25  26
ATOM     26  O   UNL     1      -2.218  -4.041  -3.296  1.00  0.00    -0.458 OA
BRANCH  26  27
ATOM     27  C   UNL     1      -1.219  -4.082  -2.372  1.00  0.00     0.338 C 
ATOM     28  O   UNL     1      -0.065  -3.826  -2.696  1.00  0.00    -0.246 OA
BRANCH  27  29
ATOM     29  C   UNL     1      -1.607  -4.224  -0.950  1.00  0.00     0.060 A 
ATOM     30  C   UNL     1      -0.898  -3.478   0.004  1.00  0.00     0.016 A 
ATOM     31  C   UNL     1      -2.749  -4.924  -0.578  1.00  0.00     0.016 A 
ATOM     32  C   UNL     1      -1.435  -3.269   1.272  1.00  0.00     0.010 A 
ATOM     33  C   UNL     1      -3.322  -4.665   0.653  1.00  0.00     0.010 A 
ATOM     34  C   UNL     1      -2.682  -3.821   1.574  1.00  0.00    -0.014 A 
BRANCH  34  35
ATOM     35  C   UNL     1      -3.216  -3.840   2.934  1.00  0.00     0.031 A 
ATOM     36  C   UNL     1      -3.783  -2.660   3.619  1.00  0.00     0.074 A 
ATOM     37  C   UNL     1      -3.062  -5.024   3.565  1.00  0.00     0.049 A 
ATOM     38  N   UNL     1      -3.691  -2.437   4.888  1.00  0.00    -0.248 NA
ATOM     39  C   UNL     1      -4.498  -1.603   2.913  1.00  0.00     0.031 C 
ATOM     40  C   UNL     1      -3.493  -5.433   4.888  1.00  0.00     0.029 A 
ATOM     41  N   UNL     1      -2.197  -6.045   3.161  1.00  0.00    -0.354 N 
ATOM     42  C   UNL     1      -4.555  -1.404   5.202  1.00  0.00     0.074 A 
ATOM     43  C   UNL     1      -4.953  -0.855   3.928  1.00  0.00     0.031 C 
ATOM     44  C   UNL     1      -2.646  -6.391   5.314  1.00  0.00     0.029 A 
ATOM     45  C   UNL     1      -1.579  -6.495   4.319  1.00  0.00     0.049 A 
ATOM     46  H   UNL     1      -2.055  -6.377   2.245  1.00  0.00     0.167 HD
ATOM     47  C   UNL     1      -4.972  -1.241   6.494  1.00  0.00     0.034 A 
ATOM     48  C   UNL     1      -0.244  -6.323   4.543  1.00  0.00     0.034 A 
ATOM     49  C   UNL     1      -4.346  -2.230   7.363  1.00  0.00     0.049 A 
ATOM     50  C   UNL     1      -0.028  -5.618   5.858  1.00  0.00     0.074 A 
ATOM     51  C   UNL     1      -4.785  -3.469   7.800  1.00  0.00     0.029 A 
ATOM     52  N   UNL     1      -2.985  -2.166   7.630  1.00  0.00    -0.354 N 
ATOM     53  N   UNL     1      -0.829  -4.705   6.339  1.00  0.00    -0.248 NA
ATOM     54  C   UNL     1       1.077  -5.947   6.745  1.00  0.00     0.031 C 
ATOM     55  C   UNL     1      -3.649  -4.200   8.226  1.00  0.00     0.029 A 
ATOM     56  C   UNL     1      -2.536  -3.385   8.097  1.00  0.00     0.049 A 
ATOM     57  H   UNL     1      -2.423  -1.368   7.506  1.00  0.00     0.167 HD
ATOM     58  C   UNL     1      -0.430  -4.407   7.619  1.00  0.00     0.074 A 
ATOM     59  C   UNL     1       0.782  -5.190   7.813  1.00  0.00     0.031 C 
ATOM     60  C   UNL     1      -1.143  -3.591   8.452  1.00  0.00     0.034 A 
BRANCH  47  61
ATOM     61  C   UNL     1      -6.189  -0.442   6.927  1.00  0.00     0.023 A 
ATOM     62  C   UNL     1      -6.941  -0.886   8.042  1.00  0.00     0.031 A 
ATOM     63  C   UNL     1      -6.683   0.711   6.292  1.00  0.00     0.131 A 
ATOM     64  C   UNL     1      -8.157  -0.279   8.410  1.00  0.00     0.055 A 
ATOM     65  C   UNL     1      -7.912   1.299   6.637  1.00  0.00     0.041 A 
ATOM     66  F   UNL     1      -5.980   1.340   5.339  1.00  0.00    -0.206 F 
ATOM     67  C   UNL     1      -8.666   0.794   7.689  1.00  0.00     0.022 A 
BRANCH  64  68
ATOM     68  S   UNL     1      -9.074  -0.929   9.838  1.00  0.00     0.124 S 
ATOM     69  O   UNL     1      -9.293  -2.321   9.460  1.00  0.00    -0.237 OA
ATOM     70  O   UNL     1      -8.143  -0.696  10.937  1.00  0.00    -0.237 OA
ATOM     71  O   UNL     1     -10.282  -0.104   9.870  1.00  0.00    -0.744 OA
ENDBRANCH  64  68
ENDBRANCH  47  61
BRANCH  48  72
ATOM     72  C   UNL     1       0.654  -6.178   3.349  1.00  0.00     0.023 A 
ATOM     73  C   UNL     1       0.517  -7.093   2.279  1.00  0.00     0.031 A 
ATOM     74  C   UNL     1       1.466  -5.057   3.123  1.00  0.00     0.131 A 
ATOM     75  C   UNL     1       1.055  -6.813   1.012  1.00  0.00     0.055 A 
ATOM     76  C   UNL     1       2.059  -4.811   1.874  1.00  0.00     0.041 A 
ATOM     77  F   UNL     1       1.641  -4.133   4.079  1.00  0.00    -0.206 F 
ATOM     78  C   UNL     1       1.829  -5.673   0.801  1.00  0.00     0.022 A 
BRANCH  75  79
ATOM     79  S   UNL     1       0.529  -7.832  -0.400  1.00  0.00     0.124 S 
ATOM     80  O   UNL     1       1.414  -8.986  -0.288  1.00  0.00    -0.237 OA
ATOM     81  O   UNL     1      -0.881  -8.074  -0.106  1.00  0.00    -0.237 OA
ATOM     82  O   UNL     1       0.763  -6.966  -1.551  1.00  0.00    -0.744 OA
ENDBRANCH  75  79
ENDBRANCH  48  72
BRANCH  60  83
ATOM     83  C   UNL     1      -0.638  -3.047   9.765  1.00  0.00     0.023 A 
ATOM     84  C   UNL     1       0.724  -2.999  10.082  1.00  0.00     0.031 A 
ATOM     85  C   UNL     1      -1.513  -2.474  10.720  1.00  0.00     0.131 A 
ATOM     86  C   UNL     1       1.164  -2.534  11.330  1.00  0.00     0.055 A 
ATOM     87  C   UNL     1      -1.065  -1.919  11.921  1.00  0.00     0.041 A 
ATOM     88  F   UNL     1      -2.838  -2.417  10.523  1.00  0.00    -0.206 F 
ATOM     89  C   UNL     1       0.282  -1.969  12.246  1.00  0.00     0.022 A 
BRANCH  86  90
ATOM     90  S   UNL     1       2.906  -2.781  11.752  1.00  0.00     0.124 S 
ATOM     91  O   UNL     1       3.013  -4.238  11.726  1.00  0.00    -0.237 OA
ATOM     92  O   UNL     1       3.593  -2.079  10.673  1.00  0.00    -0.237 OA
ATOM     93  O   UNL     1       3.030  -2.172  13.073  1.00  0.00    -0.744 OA
ENDBRANCH  86  90
ENDBRANCH  60  83
ENDBRANCH  34  35
ENDBRANCH  27  29
ENDBRANCH  26  27
ENDBRANCH  25  26
ENDBRANCH   1  25
TORSDOF 17
