REMARK SMILES O=C(CC[NH2+]C[C@H](O)Cn1c2ccccc2c2ccccc21)OCCOC(=O)c1ccc(-c2c3nc(c(-c4cc(S(=O)(=O)[O-])ccc4F)c4ccc([nH]4)c(-c4cc(S(=O)(=O)[O-])ccc4F)c4nc(c(-c5cc(S(=O)(=O)[O-])ccc5F)c5ccc2[nH]5)C=C4)C=C3)cc1
REMARK SMILES IDX 23 1 2 2 1 3 3 4 4 5 5 6 6 9 7 10 9 11 10 12 11 13 22 14
REMARK SMILES IDX 12 15 16 16 17 17 21 18 13 19 15 20 18 21 20 22 14 23 19 24
REMARK SMILES IDX 8 25 24 27 25 28 26 29 27 30 28 31 29 32 30 33 91 34 31 35
REMARK SMILES IDX 90 36 32 37 33 38 34 39 84 40 35 41 89 42 83 43 85 44 36 45
REMARK SMILES IDX 88 46 82 47 81 48 37 50 69 51 49 52 68 53 50 54 53 55 67 56
REMARK SMILES IDX 86 57 51 58 52 59 66 61 87 62 54 63 38 64 39 65 47 66 40 67
REMARK SMILES IDX 46 68 48 69 45 70 41 71 42 72 43 73 44 74 70 75 71 76 79 77
REMARK SMILES IDX 72 78 78 79 80 80 77 81 73 82 74 83 75 84 76 85 55 86 56 87
REMARK SMILES IDX 64 88 57 89 63 90 65 91 62 92 58 93 59 94 60 95 61 96
REMARK H PARENT 5 7 5 8 8 26 85 49 53 60
REMARK Flexibility Score: inf
ROOT
ATOM      1  O   UNL     1       6.285  -5.500  -1.348  1.00  0.00    -0.462 OA
ENDROOT
BRANCH   1   2
ATOM      2  C   UNL     1       6.607  -5.902  -0.107  1.00  0.00     0.311 C 
ATOM      3  O   UNL     1       7.767  -6.201   0.151  1.00  0.00    -0.252 OA
BRANCH   2   4
ATOM      4  C   UNL     1       5.484  -6.008   0.906  1.00  0.00     0.184 C 
BRANCH   4   5
ATOM      5  C   UNL     1       4.101  -5.428   0.690  1.00  0.00     0.272 C 
BRANCH   5   6
ATOM      6  N   UNL     1       4.014  -4.084   0.151  1.00  0.00    -0.344 N 
ATOM      7  H   UNL     1       3.308  -4.074  -0.585  1.00  0.00     0.346 HD
ATOM      8  H   UNL     1       4.938  -3.837  -0.203  1.00  0.00     0.346 HD
BRANCH   6   9
ATOM      9  C   UNL     1       3.650  -3.085   1.160  1.00  0.00     0.294 C 
BRANCH   9  10
ATOM     10  C   UNL     1       4.858  -2.270   1.679  1.00  0.00     0.189 C 
BRANCH  10  11
ATOM     11  C   UNL     1       5.795  -3.096   2.567  1.00  0.00     0.160 C 
BRANCH  11  12
ATOM     12  N   UNL     1       7.028  -2.507   3.071  1.00  0.00    -0.338 N 
ATOM     13  C   UNL     1       8.245  -3.190   3.110  1.00  0.00     0.049 A 
ATOM     14  C   UNL     1       7.122  -1.324   3.777  1.00  0.00     0.049 A 
ATOM     15  C   UNL     1       8.636  -4.463   2.645  1.00  0.00     0.027 A 
ATOM     16  C   UNL     1       9.128  -2.426   3.871  1.00  0.00     0.007 A 
ATOM     17  C   UNL     1       8.399  -1.294   4.345  1.00  0.00     0.007 A 
ATOM     18  C   UNL     1       6.196  -0.295   4.016  1.00  0.00     0.027 A 
ATOM     19  C   UNL     1       9.914  -4.955   2.937  1.00  0.00     0.002 A 
ATOM     20  C   UNL     1      10.434  -2.921   4.119  1.00  0.00     0.011 A 
ATOM     21  C   UNL     1       8.712  -0.266   5.257  1.00  0.00     0.011 A 
ATOM     22  C   UNL     1       6.549   0.740   4.880  1.00  0.00     0.002 A 
ATOM     23  C   UNL     1      10.812  -4.188   3.659  1.00  0.00     0.001 A 
ATOM     24  C   UNL     1       7.779   0.739   5.519  1.00  0.00     0.001 A 
ENDBRANCH  11  12
ENDBRANCH  10  11
BRANCH  10  25
ATOM     25  O   UNL     1       5.577  -1.779   0.539  1.00  0.00    -0.385 OA
ATOM     26  H   UNL     1       5.895  -2.527   0.011  1.00  0.00     0.211 HD
ENDBRANCH  10  25
ENDBRANCH   9  10
ENDBRANCH   6   9
ENDBRANCH   5   6
ENDBRANCH   4   5
ENDBRANCH   2   4
ENDBRANCH   1   2
BRANCH   1  27
ATOM     27  C   UNL     1       5.458  -6.369  -2.136  1.00  0.00     0.274 C 
BRANCH  27  28
ATOM     28  C   UNL     1       5.739  -7.885  -2.022  1.00  0.00     0.275 C 
BRANCH  28  29
ATOM     29  O   UNL     1       5.441  -8.387  -0.700  1.00  0.00    -0.458 OA
BRANCH  29  30
ATOM     30  C   UNL     1       6.285  -9.365  -0.229  1.00  0.00     0.338 C 
ATOM     31  O   UNL     1       6.944 -10.104  -0.908  1.00  0.00    -0.246 OA
BRANCH  30  32
ATOM     32  C   UNL     1       6.479  -9.155   1.247  1.00  0.00     0.060 A 
ATOM     33  C   UNL     1       5.423  -9.001   2.161  1.00  0.00     0.016 A 
ATOM     34  C   UNL     1       7.787  -8.889   1.663  1.00  0.00     0.016 A 
ATOM     35  C   UNL     1       5.675  -8.481   3.446  1.00  0.00     0.010 A 
ATOM     36  C   UNL     1       8.032  -8.382   2.944  1.00  0.00     0.010 A 
ATOM     37  C   UNL     1       6.982  -8.144   3.841  1.00  0.00    -0.014 A 
BRANCH  37  38
ATOM     38  C   UNL     1       7.343  -7.951   5.262  1.00  0.00     0.031 A 
ATOM     39  C   UNL     1       6.981  -9.078   6.117  1.00  0.00     0.074 A 
ATOM     40  C   UNL     1       7.988  -6.934   5.873  1.00  0.00     0.049 A 
ATOM     41  N   UNL     1       6.063  -9.005   7.027  1.00  0.00    -0.248 NA
ATOM     42  C   UNL     1       7.501 -10.416   5.858  1.00  0.00     0.031 C 
ATOM     43  C   UNL     1       7.966  -5.553   5.450  1.00  0.00     0.029 A 
ATOM     44  N   UNL     1       8.775  -6.898   7.015  1.00  0.00    -0.354 N 
ATOM     45  C   UNL     1       6.117 -10.221   7.667  1.00  0.00     0.074 A 
ATOM     46  C   UNL     1       6.817 -11.111   6.769  1.00  0.00     0.031 C 
ATOM     47  C   UNL     1       8.825  -4.838   6.204  1.00  0.00     0.029 A 
ATOM     48  C   UNL     1       9.517  -5.722   7.125  1.00  0.00     0.049 A 
ATOM     49  H   UNL     1       8.806  -7.625   7.678  1.00  0.00     0.167 HD
ATOM     50  C   UNL     1       5.889 -10.289   9.005  1.00  0.00     0.034 A 
ATOM     51  C   UNL     1      10.241  -5.187   8.139  1.00  0.00     0.034 A 
ATOM     52  C   UNL     1       5.281  -9.092   9.533  1.00  0.00     0.049 A 
ATOM     53  C   UNL     1       9.475  -5.386   9.383  1.00  0.00     0.074 A 
ATOM     54  C   UNL     1       4.022  -8.531   9.535  1.00  0.00     0.029 A 
ATOM     55  N   UNL     1       6.158  -8.114   9.931  1.00  0.00    -0.354 N 
ATOM     56  N   UNL     1       8.405  -4.707   9.687  1.00  0.00    -0.248 NA
ATOM     57  C   UNL     1       9.718  -6.577  10.194  1.00  0.00     0.031 C 
ATOM     58  C   UNL     1       4.175  -7.163   9.899  1.00  0.00     0.029 A 
ATOM     59  C   UNL     1       5.526  -6.905  10.100  1.00  0.00     0.049 A 
ATOM     60  H   UNL     1       7.120  -8.259  10.077  1.00  0.00     0.167 HD
ATOM     61  C   UNL     1       7.623  -5.632  10.348  1.00  0.00     0.074 A 
ATOM     62  C   UNL     1       8.532  -6.675  10.796  1.00  0.00     0.031 C 
ATOM     63  C   UNL     1       6.276  -5.668  10.160  1.00  0.00     0.034 A 
BRANCH  50  64
ATOM     64  C   UNL     1       6.604 -11.272   9.892  1.00  0.00     0.023 A 
ATOM     65  C   UNL     1       7.781 -11.930   9.489  1.00  0.00     0.031 A 
ATOM     66  C   UNL     1       6.245 -11.419  11.242  1.00  0.00     0.131 A 
ATOM     67  C   UNL     1       8.505 -12.747  10.358  1.00  0.00     0.055 A 
ATOM     68  C   UNL     1       7.016 -12.170  12.138  1.00  0.00     0.041 A 
ATOM     69  F   UNL     1       5.160 -10.805  11.739  1.00  0.00    -0.206 F 
ATOM     70  C   UNL     1       8.147 -12.851  11.695  1.00  0.00     0.022 A 
BRANCH  67  71
ATOM     71  S   UNL     1       9.921 -13.692   9.734  1.00  0.00     0.124 S 
ATOM     72  O   UNL     1      11.008 -13.189  10.565  1.00  0.00    -0.237 OA
ATOM     73  O   UNL     1       9.498 -15.064   9.998  1.00  0.00    -0.237 OA
ATOM     74  O   UNL     1       9.979 -13.326   8.321  1.00  0.00    -0.744 OA
ENDBRANCH  67  71
ENDBRANCH  50  64
BRANCH  51  75
ATOM     75  C   UNL     1      11.727  -5.096   8.123  1.00  0.00     0.023 A 
ATOM     76  C   UNL     1      12.508  -5.729   7.138  1.00  0.00     0.031 A 
ATOM     77  C   UNL     1      12.415  -4.409   9.143  1.00  0.00     0.131 A 
ATOM     78  C   UNL     1      13.912  -5.708   7.220  1.00  0.00     0.055 A 
ATOM     79  C   UNL     1      13.813  -4.378   9.214  1.00  0.00     0.041 A 
ATOM     80  F   UNL     1      11.737  -3.757  10.101  1.00  0.00    -0.206 F 
ATOM     81  C   UNL     1      14.570  -5.037   8.254  1.00  0.00     0.022 A 
BRANCH  78  82
ATOM     82  S   UNL     1      14.923  -6.543   5.964  1.00  0.00     0.124 S 
ATOM     83  O   UNL     1      16.026  -5.605   5.768  1.00  0.00    -0.237 OA
ATOM     84  O   UNL     1      15.273  -7.786   6.643  1.00  0.00    -0.237 OA
ATOM     85  O   UNL     1      14.013  -6.667   4.829  1.00  0.00    -0.744 OA
ENDBRANCH  78  82
ENDBRANCH  51  75
BRANCH  63  86
ATOM     86  C   UNL     1       5.581  -4.395   9.783  1.00  0.00     0.023 A 
ATOM     87  C   UNL     1       4.644  -3.867  10.684  1.00  0.00     0.031 A 
ATOM     88  C   UNL     1       5.696  -3.786   8.525  1.00  0.00     0.131 A 
ATOM     89  C   UNL     1       3.840  -2.787  10.302  1.00  0.00     0.055 A 
ATOM     90  C   UNL     1       4.961  -2.649   8.181  1.00  0.00     0.041 A 
ATOM     91  F   UNL     1       6.452  -4.330   7.568  1.00  0.00    -0.206 F 
ATOM     92  C   UNL     1       4.016  -2.151   9.069  1.00  0.00     0.022 A 
BRANCH  89  93
ATOM     93  S   UNL     1       2.396  -2.333  11.298  1.00  0.00     0.124 S 
ATOM     94  O   UNL     1       2.765  -1.016  11.805  1.00  0.00    -0.237 OA
ATOM     95  O   UNL     1       1.322  -2.343  10.305  1.00  0.00    -0.237 OA
ATOM     96  O   UNL     1       2.312  -3.392  12.299  1.00  0.00    -0.744 OA
ENDBRANCH  89  93
ENDBRANCH  63  86
ENDBRANCH  37  38
ENDBRANCH  30  32
ENDBRANCH  29  30
ENDBRANCH  28  29
ENDBRANCH  27  28
ENDBRANCH   1  27
TORSDOF 21
