REMARK SMILES O=C(OCCOC(=O)[C@H](c1c[nH]c2cc(F)ccc12)[NH+]1CCN(c2ccccc2)CC1)c1ccc(-c2c3nc(c(-c4cc(S(=O)(=O)[O-])ccc4F)c4ccc([nH]4)c(-c4cc(S(=O)(=O)[O-])ccc4F)c4nc(c(-c5cc(S(=O)(=O)[O-])ccc5F)c5ccc2[nH]5)C=C4)C=C3)cc1
REMARK SMILES IDX 4 1 3 2 2 3 1 4 32 5 33 6 94 7 34 8 93 9 35 10 36 11 37 12
REMARK SMILES IDX 87 13 38 14 92 15 86 16 88 17 39 18 91 19 85 20 84 21 40 23
REMARK SMILES IDX 72 24 52 25 71 26 53 27 56 28 70 29 89 30 54 31 55 32 69 34
REMARK SMILES IDX 90 35 57 36 41 37 42 38 50 39 43 40 49 41 51 42 48 43 44 44
REMARK SMILES IDX 45 45 46 46 47 47 73 48 74 49 82 50 75 51 81 52 83 53 80 54
REMARK SMILES IDX 76 55 77 56 78 57 79 58 58 59 59 60 67 61 60 62 66 63 68 64
REMARK SMILES IDX 65 65 61 66 62 67 63 68 64 69 5 70 6 71 7 72 8 73 9 74 20 75
REMARK SMILES IDX 21 76 31 77 22 79 30 80 23 81 24 82 25 83 29 84 26 85 28 86
REMARK SMILES IDX 27 87 10 88 11 89 19 90 12 91 13 92 18 93 14 95 17 96 15 97
REMARK SMILES IDX 16 98
REMARK H PARENT 88 22 56 33 20 78 12 94
REMARK Flexibility Score: inf
ROOT
ATOM      1  C   UNL     1       2.033   4.042   3.712  1.00  0.00     0.275 C 
ENDROOT
BRANCH   1   2
ATOM      2  O   UNL     1       1.273   2.834   3.496  1.00  0.00    -0.458 OA
BRANCH   2   3
ATOM      3  C   UNL     1       0.508   2.425   2.455  1.00  0.00     0.338 C 
ATOM      4  O   UNL     1      -0.009   1.309   2.519  1.00  0.00    -0.246 OA
BRANCH   3   5
ATOM      5  C   UNL     1       0.311   3.200   1.187  1.00  0.00     0.060 A 
ATOM      6  C   UNL     1       0.354   4.586   1.072  1.00  0.00     0.016 A 
ATOM      7  C   UNL     1       0.012   2.459   0.021  1.00  0.00     0.016 A 
ATOM      8  C   UNL     1       0.218   5.203  -0.178  1.00  0.00     0.010 A 
ATOM      9  C   UNL     1      -0.150   3.074  -1.234  1.00  0.00     0.010 A 
ATOM     10  C   UNL     1      -0.019   4.456  -1.349  1.00  0.00    -0.014 A 
BRANCH  10  11
ATOM     11  C   UNL     1      -0.310   5.210  -2.603  1.00  0.00     0.031 A 
ATOM     12  C   UNL     1      -1.603   5.963  -2.635  1.00  0.00     0.074 A 
ATOM     13  C   UNL     1       0.578   5.351  -3.609  1.00  0.00     0.049 A 
ATOM     14  N   UNL     1      -2.008   6.894  -3.453  1.00  0.00    -0.248 NA
ATOM     15  C   UNL     1      -2.565   5.607  -1.581  1.00  0.00     0.031 C 
ATOM     16  C   UNL     1       1.845   4.644  -3.720  1.00  0.00     0.029 A 
ATOM     17  N   UNL     1       0.588   6.200  -4.694  1.00  0.00    -0.354 N 
ATOM     18  C   UNL     1      -3.274   7.247  -3.007  1.00  0.00     0.074 A 
ATOM     19  C   UNL     1      -3.556   6.440  -1.839  1.00  0.00     0.031 C 
ATOM     20  C   UNL     1       2.581   5.199  -4.699  1.00  0.00     0.029 A 
ATOM     21  C   UNL     1       1.793   6.225  -5.374  1.00  0.00     0.049 A 
ATOM     22  H   UNL     1      -0.191   6.739  -4.962  1.00  0.00     0.167 HD
ATOM     23  C   UNL     1      -4.146   8.129  -3.550  1.00  0.00     0.034 A 
ATOM     24  C   UNL     1       2.200   6.982  -6.420  1.00  0.00     0.034 A 
ATOM     25  C   UNL     1      -3.912   8.804  -4.797  1.00  0.00     0.049 A 
ATOM     26  C   UNL     1       1.176   7.899  -7.058  1.00  0.00     0.074 A 
ATOM     27  C   UNL     1      -4.779   9.591  -5.532  1.00  0.00     0.029 A 
ATOM     28  N   UNL     1      -2.728   8.729  -5.524  1.00  0.00    -0.354 N 
ATOM     29  N   UNL     1      -0.035   8.202  -6.646  1.00  0.00    -0.248 NA
ATOM     30  C   UNL     1       1.552   8.531  -8.330  1.00  0.00     0.031 C 
ATOM     31  C   UNL     1      -4.149   9.923  -6.737  1.00  0.00     0.029 A 
ATOM     32  C   UNL     1      -2.854   9.428  -6.713  1.00  0.00     0.049 A 
ATOM     33  H   UNL     1      -1.918   8.250  -5.235  1.00  0.00     0.167 HD
ATOM     34  C   UNL     1      -0.567   9.049  -7.617  1.00  0.00     0.074 A 
ATOM     35  C   UNL     1       0.471   9.247  -8.607  1.00  0.00     0.031 C 
ATOM     36  C   UNL     1      -1.807   9.597  -7.696  1.00  0.00     0.034 A 
BRANCH  23  37
ATOM     37  C   UNL     1      -5.478   8.231  -2.853  1.00  0.00     0.023 A 
ATOM     38  C   UNL     1      -5.573   8.706  -1.532  1.00  0.00     0.031 A 
ATOM     39  C   UNL     1      -6.619   7.656  -3.437  1.00  0.00     0.131 A 
ATOM     40  C   UNL     1      -6.746   8.478  -0.798  1.00  0.00     0.055 A 
ATOM     41  C   UNL     1      -7.816   7.527  -2.732  1.00  0.00     0.041 A 
ATOM     42  F   UNL     1      -6.569   7.147  -4.678  1.00  0.00    -0.206 F 
ATOM     43  C   UNL     1      -7.876   7.914  -1.396  1.00  0.00     0.022 A 
BRANCH  40  44
ATOM     44  S   UNL     1      -6.690   8.700   1.003  1.00  0.00     0.124 S 
ATOM     45  O   UNL     1      -5.635   7.762   1.382  1.00  0.00    -0.237 OA
ATOM     46  O   UNL     1      -6.363  10.115   1.138  1.00  0.00    -0.237 OA
ATOM     47  O   UNL     1      -8.034   8.324   1.437  1.00  0.00    -0.744 OA
ENDBRANCH  40  44
ENDBRANCH  23  37
BRANCH  24  48
ATOM     48  C   UNL     1       3.582   6.875  -7.008  1.00  0.00     0.023 A 
ATOM     49  C   UNL     1       4.406   8.008  -7.168  1.00  0.00     0.031 A 
ATOM     50  C   UNL     1       4.066   5.655  -7.517  1.00  0.00     0.131 A 
ATOM     51  C   UNL     1       5.637   7.903  -7.847  1.00  0.00     0.055 A 
ATOM     52  C   UNL     1       5.319   5.543  -8.127  1.00  0.00     0.041 A 
ATOM     53  F   UNL     1       3.320   4.542  -7.442  1.00  0.00    -0.206 F 
ATOM     54  C   UNL     1       6.106   6.673  -8.308  1.00  0.00     0.022 A 
BRANCH  51  55
ATOM     55  S   UNL     1       6.577   9.414  -8.225  1.00  0.00     0.124 S 
ATOM     56  O   UNL     1       5.630  10.155  -9.048  1.00  0.00    -0.237 OA
ATOM     57  O   UNL     1       6.836   9.955  -6.895  1.00  0.00    -0.237 OA
ATOM     58  O   UNL     1       7.757   8.915  -8.929  1.00  0.00    -0.744 OA
ENDBRANCH  51  55
ENDBRANCH  24  48
BRANCH  36  59
ATOM     59  C   UNL     1      -2.097  10.485  -8.882  1.00  0.00     0.023 A 
ATOM     60  C   UNL     1      -2.151   9.983 -10.195  1.00  0.00     0.031 A 
ATOM     61  C   UNL     1      -2.346  11.855  -8.687  1.00  0.00     0.131 A 
ATOM     62  C   UNL     1      -2.402  10.854 -11.266  1.00  0.00     0.055 A 
ATOM     63  C   UNL     1      -2.657  12.704  -9.749  1.00  0.00     0.041 A 
ATOM     64  F   UNL     1      -2.305  12.389  -7.456  1.00  0.00    -0.206 F 
ATOM     65  C   UNL     1      -2.675  12.207 -11.049  1.00  0.00     0.022 A 
BRANCH  62  66
ATOM     66  S   UNL     1      -2.287  10.215 -12.960  1.00  0.00     0.124 S 
ATOM     67  O   UNL     1      -0.918   9.711 -13.003  1.00  0.00    -0.237 OA
ATOM     68  O   UNL     1      -3.340   9.206 -12.986  1.00  0.00    -0.237 OA
ATOM     69  O   UNL     1      -2.538  11.394 -13.789  1.00  0.00    -0.744 OA
ENDBRANCH  62  66
ENDBRANCH  36  59
ENDBRANCH  10  11
ENDBRANCH   3   5
ENDBRANCH   2   3
ENDBRANCH   1   2
BRANCH   1  70
ATOM     70  C   UNL     1       3.380   4.058   3.003  1.00  0.00     0.274 C 
BRANCH  70  71
ATOM     71  O   UNL     1       3.235   3.772   1.605  1.00  0.00    -0.457 OA
BRANCH  71  72
ATOM     72  C   UNL     1       3.956   2.722   1.120  1.00  0.00     0.370 C 
ATOM     73  O   UNL     1       4.603   1.967   1.842  1.00  0.00    -0.245 OA
BRANCH  72  74
ATOM     74  C   UNL     1       3.818   2.596  -0.415  1.00  0.00     0.328 C 
BRANCH  74  75
ATOM     75  N   UNL     1       4.322   3.736  -1.237  1.00  0.00    -0.316 N 
ATOM     76  C   UNL     1       3.581   5.001  -1.108  1.00  0.00     0.284 C 
ATOM     77  C   UNL     1       5.743   4.083  -1.213  1.00  0.00     0.284 C 
ATOM     78  H   UNL     1       4.143   3.279  -2.131  1.00  0.00     0.349 HD
ATOM     79  C   UNL     1       3.971   6.042  -0.044  1.00  0.00     0.178 C 
ATOM     80  C   UNL     1       6.198   4.799   0.064  1.00  0.00     0.178 C 
ATOM     81  N   UNL     1       5.380   5.978   0.353  1.00  0.00    -0.360 N 
BRANCH  81  82
ATOM     82  C   UNL     1       5.970   7.202   0.616  1.00  0.00     0.037 A 
ATOM     83  C   UNL     1       5.529   7.979   1.696  1.00  0.00     0.026 A 
ATOM     84  C   UNL     1       6.933   7.741  -0.242  1.00  0.00     0.026 A 
ATOM     85  C   UNL     1       6.044   9.257   1.917  1.00  0.00     0.002 A 
ATOM     86  C   UNL     1       7.441   9.023  -0.033  1.00  0.00     0.002 A 
ATOM     87  C   UNL     1       6.998   9.780   1.048  1.00  0.00     0.000 A 
ENDBRANCH  81  82
ENDBRANCH  74  75
BRANCH  74  88
ATOM     88  C   UNL     1       4.434   1.282  -0.895  1.00  0.00     0.046 A 
ATOM     89  C   UNL     1       5.765   0.913  -0.763  1.00  0.00     0.094 A 
ATOM     90  C   UNL     1       3.768   0.127  -1.452  1.00  0.00     0.009 A 
ATOM     91  N   UNL     1       5.957  -0.296  -1.353  1.00  0.00    -0.361 N 
ATOM     92  C   UNL     1       4.753  -0.825  -1.739  1.00  0.00     0.049 A 
ATOM     93  C   UNL     1       2.424  -0.225  -1.724  1.00  0.00     0.014 A 
ATOM     94  H   UNL     1       6.832  -0.729  -1.484  1.00  0.00     0.166 HD
ATOM     95  C   UNL     1       4.479  -2.075  -2.303  1.00  0.00     0.065 A 
ATOM     96  C   UNL     1       2.127  -1.491  -2.254  1.00  0.00     0.040 A 
ATOM     97  C   UNL     1       3.146  -2.387  -2.541  1.00  0.00     0.125 A 
ATOM     98  F   UNL     1       2.844  -3.590  -3.050  1.00  0.00    -0.207 F 
ENDBRANCH  74  88
ENDBRANCH  72  74
ENDBRANCH  71  72
ENDBRANCH  70  71
ENDBRANCH   1  70
TORSDOF 17
