REMARK SMILES CC1(C)[C@H]2CC[C@]1(C)[C@H](NC(=O)CCC(=O)OCCOC(=O)c1ccc(-c3c4nc(c(-c5cc(S(=O)(=O)[O-])ccc5F)c5ccc([nH]5)c(-c5cc(S(=O)(=O)[O-])ccc5F)c5nc(c(-c6cc(S(=O)(=O)[O-])ccc6F)c6ccc3[nH]6)C=C5)C=C4)cc1)C2
REMARK SMILES IDX 18 1 17 2 15 3 16 4 14 5 13 6 11 7 10 8 12 10 9 11 1 12 2 13
REMARK SMILES IDX 3 14 4 15 7 16 5 17 86 18 6 19 8 20 19 21 20 22 21 23 22 24
REMARK SMILES IDX 23 25 24 26 85 27 25 28 84 29 26 30 27 31 28 32 78 33 29 34
REMARK SMILES IDX 83 35 77 36 79 37 30 38 82 39 76 40 75 41 31 43 63 44 43 45
REMARK SMILES IDX 62 46 44 47 47 48 61 49 80 50 45 51 46 52 60 54 81 55 48 56
REMARK SMILES IDX 32 57 33 58 41 59 34 60 40 61 42 62 39 63 35 64 36 65 37 66
REMARK SMILES IDX 38 67 64 68 65 69 73 70 66 71 72 72 74 73 71 74 67 75 68 76
REMARK SMILES IDX 69 77 70 78 49 79 50 80 58 81 51 82 57 83 59 84 56 85 52 86
REMARK SMILES IDX 53 87 54 88 55 89
REMARK H PARENT 10 9 79 42 47 53
REMARK Flexibility Score: inf
ROOT
ATOM      1  C   UNL     1       0.140   0.573   3.675  1.00  0.00     0.274 C 
ENDROOT
BRANCH   1   2
ATOM      2  O   UNL     1      -1.122   0.090   3.092  1.00  0.00    -0.462 OA
BRANCH   2   3
ATOM      3  C   UNL     1      -2.058   1.025   2.727  1.00  0.00     0.306 C 
ATOM      4  O   UNL     1      -1.816   2.225   2.647  1.00  0.00    -0.252 OA
BRANCH   3   5
ATOM      5  C   UNL     1      -3.478   0.442   2.494  1.00  0.00     0.132 C 
BRANCH   5   6
ATOM      6  C   UNL     1      -3.979  -0.207   1.174  1.00  0.00     0.111 C 
BRANCH   6   7
ATOM      7  C   UNL     1      -3.699  -1.704   0.894  1.00  0.00     0.220 C 
ATOM      8  N   UNL     1      -2.618  -2.180   0.175  1.00  0.00    -0.353 N 
ATOM      9  H   UNL     1      -2.797  -3.002  -0.336  1.00  0.00     0.163 HD
ATOM     10  O   UNL     1      -4.552  -2.533   1.236  1.00  0.00    -0.275 OA
BRANCH   8  11
ATOM     11  C   UNL     1      -1.233  -1.663   0.044  1.00  0.00     0.088 C 
ATOM     12  C   UNL     1       0.649   0.056  -3.075  1.00  0.00     0.012 C 
ATOM     13  C   UNL     1       0.166  -0.286  -1.652  1.00  0.00    -0.025 C 
ATOM     14  C   UNL     1       1.251   0.333  -0.779  1.00  0.00     0.012 C 
ATOM     15  C   UNL     1      -1.182   0.312  -1.327  1.00  0.00    -0.003 C 
ATOM     16  C   UNL     1      -0.403  -1.759  -1.341  1.00  0.00    -0.007 C 
ATOM     17  C   UNL     1      -2.131  -0.467  -2.295  1.00  0.00     0.005 C 
ATOM     18  C   UNL     1      -1.266  -0.179   0.116  1.00  0.00     0.029 C 
ATOM     19  C   UNL     1      -1.468  -1.864  -2.437  1.00  0.00     0.010 C 
ATOM     20  C   UNL     1       0.719  -2.780  -1.331  1.00  0.00     0.014 C 
ENDBRANCH   8  11
ENDBRANCH   6   7
ENDBRANCH   5   6
ENDBRANCH   3   5
ENDBRANCH   2   3
ENDBRANCH   1   2
BRANCH   1  21
ATOM     21  C   UNL     1       1.447   0.196   2.919  1.00  0.00     0.275 C 
BRANCH  21  22
ATOM     22  O   UNL     1       1.978   1.343   2.205  1.00  0.00    -0.458 OA
BRANCH  22  23
ATOM     23  C   UNL     1       3.166   1.218   1.544  1.00  0.00     0.338 C 
ATOM     24  O   UNL     1       3.964   0.283   1.689  1.00  0.00    -0.246 OA
BRANCH  23  25
ATOM     25  C   UNL     1       3.265   2.246   0.447  1.00  0.00     0.060 A 
ATOM     26  C   UNL     1       2.224   3.166   0.297  1.00  0.00     0.016 A 
ATOM     27  C   UNL     1       4.206   2.144  -0.599  1.00  0.00     0.016 A 
ATOM     28  C   UNL     1       2.065   3.868  -0.901  1.00  0.00     0.010 A 
ATOM     29  C   UNL     1       4.120   2.982  -1.743  1.00  0.00     0.010 A 
ATOM     30  C   UNL     1       3.054   3.885  -1.900  1.00  0.00    -0.014 A 
BRANCH  30  31
ATOM     31  C   UNL     1       3.014   4.953  -2.965  1.00  0.00     0.031 A 
ATOM     32  C   UNL     1       3.161   4.680  -4.449  1.00  0.00     0.074 A 
ATOM     33  C   UNL     1       2.834   6.241  -2.583  1.00  0.00     0.049 A 
ATOM     34  N   UNL     1       3.445   5.520  -5.418  1.00  0.00    -0.248 NA
ATOM     35  C   UNL     1       2.931   3.305  -4.909  1.00  0.00     0.031 C 
ATOM     36  C   UNL     1       2.564   6.696  -1.214  1.00  0.00     0.029 A 
ATOM     37  N   UNL     1       2.852   7.415  -3.305  1.00  0.00    -0.354 N 
ATOM     38  C   UNL     1       3.462   4.778  -6.599  1.00  0.00     0.074 A 
ATOM     39  C   UNL     1       3.139   3.414  -6.219  1.00  0.00     0.031 C 
ATOM     40  C   UNL     1       2.388   8.018  -1.202  1.00  0.00     0.029 A 
ATOM     41  C   UNL     1       2.745   8.535  -2.509  1.00  0.00     0.049 A 
ATOM     42  H   UNL     1       2.933   7.450  -4.285  1.00  0.00     0.167 HD
ATOM     43  C   UNL     1       3.735   5.196  -7.866  1.00  0.00     0.034 A 
ATOM     44  C   UNL     1       3.029   9.832  -2.728  1.00  0.00     0.034 A 
ATOM     45  C   UNL     1       4.040   6.569  -8.226  1.00  0.00     0.049 A 
ATOM     46  C   UNL     1       3.527  10.248  -4.075  1.00  0.00     0.074 A 
ATOM     47  C   UNL     1       4.378   7.087  -9.469  1.00  0.00     0.029 A 
ATOM     48  N   UNL     1       4.043   7.647  -7.349  1.00  0.00    -0.354 N 
ATOM     49  N   UNL     1       3.701   9.515  -5.147  1.00  0.00    -0.248 NA
ATOM     50  C   UNL     1       3.887  11.661  -4.235  1.00  0.00     0.031 C 
ATOM     51  C   UNL     1       4.655   8.453  -9.328  1.00  0.00     0.029 A 
ATOM     52  C   UNL     1       4.410   8.812  -8.014  1.00  0.00     0.049 A 
ATOM     53  H   UNL     1       3.817   7.594  -6.392  1.00  0.00     0.167 HD
ATOM     54  C   UNL     1       4.169  10.387  -6.121  1.00  0.00     0.074 A 
ATOM     55  C   UNL     1       4.240  11.699  -5.511  1.00  0.00     0.031 C 
ATOM     56  C   UNL     1       4.500  10.119  -7.409  1.00  0.00     0.034 A 
BRANCH  43  57
ATOM     57  C   UNL     1       3.814   4.153  -8.966  1.00  0.00     0.023 A 
ATOM     58  C   UNL     1       2.692   3.446  -9.430  1.00  0.00     0.031 A 
ATOM     59  C   UNL     1       5.052   3.893  -9.589  1.00  0.00     0.131 A 
ATOM     60  C   UNL     1       2.839   2.487 -10.451  1.00  0.00     0.055 A 
ATOM     61  C   UNL     1       5.179   2.990 -10.647  1.00  0.00     0.041 A 
ATOM     62  F   UNL     1       6.165   4.527  -9.185  1.00  0.00    -0.206 F 
ATOM     63  C   UNL     1       4.069   2.272 -11.077  1.00  0.00     0.022 A 
BRANCH  60  64
ATOM     64  S   UNL     1       1.423   1.432 -10.878  1.00  0.00     0.124 S 
ATOM     65  O   UNL     1       1.088   0.846  -9.582  1.00  0.00    -0.237 OA
ATOM     66  O   UNL     1       0.465   2.391 -11.414  1.00  0.00    -0.237 OA
ATOM     67  O   UNL     1       1.976   0.492 -11.851  1.00  0.00    -0.744 OA
ENDBRANCH  60  64
ENDBRANCH  43  57
BRANCH  44  68
ATOM     68  C   UNL     1       2.996  10.793  -1.588  1.00  0.00     0.023 A 
ATOM     69  C   UNL     1       2.110  11.877  -1.577  1.00  0.00     0.031 A 
ATOM     70  C   UNL     1       3.863  10.633  -0.487  1.00  0.00     0.131 A 
ATOM     71  C   UNL     1       2.125  12.772  -0.497  1.00  0.00     0.055 A 
ATOM     72  C   UNL     1       3.823  11.485   0.615  1.00  0.00     0.041 A 
ATOM     73  F   UNL     1       4.737   9.614  -0.450  1.00  0.00    -0.206 F 
ATOM     74  C   UNL     1       2.957  12.571   0.608  1.00  0.00     0.022 A 
BRANCH  71  75
ATOM     75  S   UNL     1       1.095  14.259  -0.596  1.00  0.00     0.124 S 
ATOM     76  O   UNL     1       1.579  14.873  -1.828  1.00  0.00    -0.237 OA
ATOM     77  O   UNL     1      -0.249  13.694  -0.646  1.00  0.00    -0.237 OA
ATOM     78  O   UNL     1       1.422  14.980   0.632  1.00  0.00    -0.744 OA
ENDBRANCH  71  75
ENDBRANCH  44  68
BRANCH  56  79
ATOM     79  C   UNL     1       4.905  11.299  -8.254  1.00  0.00     0.023 A 
ATOM     80  C   UNL     1       6.103  11.999  -8.024  1.00  0.00     0.031 A 
ATOM     81  C   UNL     1       4.046  11.768  -9.263  1.00  0.00     0.131 A 
ATOM     82  C   UNL     1       6.379  13.166  -8.752  1.00  0.00     0.055 A 
ATOM     83  C   UNL     1       4.354  12.897 -10.024  1.00  0.00     0.041 A 
ATOM     84  F   UNL     1       2.884  11.144  -9.516  1.00  0.00    -0.206 F 
ATOM     85  C   UNL     1       5.519  13.611  -9.761  1.00  0.00     0.022 A 
BRANCH  82  86
ATOM     86  S   UNL     1       7.831  14.155  -8.298  1.00  0.00     0.124 S 
ATOM     87  O   UNL     1       7.537  14.506  -6.912  1.00  0.00    -0.237 OA
ATOM     88  O   UNL     1       8.926  13.212  -8.498  1.00  0.00    -0.237 OA
ATOM     89  O   UNL     1       7.796  15.271  -9.242  1.00  0.00    -0.744 OA
ENDBRANCH  82  86
ENDBRANCH  56  79
ENDBRANCH  30  31
ENDBRANCH  23  25
ENDBRANCH  22  23
ENDBRANCH  21  22
ENDBRANCH   1  21
TORSDOF 17
