REMARK SMILES CC(C)CS(=O)(=O)Cc1c(C(=O)OCCOC(=O)c2ccc(-c3c4nc(c(-c5cc(S(=O)(=O)[O-])ccc5F)c5ccc([nH]5)c(-c5cc(S(=O)(=O)[O-])ccc5F)c5nc(c(-c6cc(S(=O)(=O)[O-])ccc6F)c6ccc3[nH]6)C=C5)C=C4)cc2)oc2ccccc12
REMARK SMILES IDX 14 1 13 2 11 3 12 4 10 5 9 6 88 7 82 8 83 9 87 10 84 11
REMARK SMILES IDX 86 12 85 13 8 14 5 15 6 16 7 17 4 18 2 19 1 20 3 21 15 22
REMARK SMILES IDX 16 23 17 24 18 25 19 26 20 27 81 28 21 29 80 30 22 31 23 32
REMARK SMILES IDX 24 33 74 34 25 35 79 36 73 37 75 38 26 39 78 40 72 41 71 42
REMARK SMILES IDX 27 44 59 45 39 46 58 47 40 48 43 49 57 50 76 51 41 52 42 53
REMARK SMILES IDX 56 55 77 56 44 57 28 58 29 59 37 60 30 61 36 62 38 63 35 64
REMARK SMILES IDX 31 65 32 66 33 67 34 68 60 69 61 70 69 71 62 72 68 73 70 74
REMARK SMILES IDX 67 75 63 76 64 77 65 78 66 79 45 80 46 81 54 82 47 83 53 84
REMARK SMILES IDX 55 85 52 86 48 87 49 88 50 89 51 90
REMARK H PARENT 75 43 43 54
REMARK Flexibility Score: inf
ROOT
ATOM      1  C   UNL     1       2.146  -3.024   1.392  1.00  0.00     0.275 C 
ENDROOT
BRANCH   1   2
ATOM      2  O   UNL     1       0.703  -3.104   1.361  1.00  0.00    -0.456 OA
BRANCH   2   3
ATOM      3  C   UNL     1       0.039  -2.183   2.118  1.00  0.00     0.374 C 
ATOM      4  O   UNL     1       0.579  -1.408   2.897  1.00  0.00    -0.242 OA
BRANCH   3   5
ATOM      5  C   UNL     1      -1.374  -2.204   1.810  1.00  0.00     0.217 A 
ATOM      6  C   UNL     1      -2.242  -1.227   1.319  1.00  0.00     0.028 A 
ATOM      7  C   UNL     1      -3.539  -1.645   1.758  1.00  0.00     0.025 A 
ATOM      8  O   UNL     1      -2.086  -3.312   2.188  1.00  0.00    -0.449 OA
ATOM      9  C   UNL     1      -3.399  -2.960   2.177  1.00  0.00     0.135 A 
ATOM     10  C   UNL     1      -4.807  -1.043   1.869  1.00  0.00     0.012 A 
ATOM     11  C   UNL     1      -4.457  -3.770   2.579  1.00  0.00     0.048 A 
ATOM     12  C   UNL     1      -5.884  -1.814   2.328  1.00  0.00     0.001 A 
ATOM     13  C   UNL     1      -5.717  -3.166   2.639  1.00  0.00     0.004 A 
BRANCH   6  14
ATOM     14  C   UNL     1      -1.916   0.100   0.712  1.00  0.00     0.177 C 
BRANCH  14  15
ATOM     15  S   UNL     1      -1.894   0.314  -1.099  1.00  0.00     0.154 S 
ATOM     16  O   UNL     1      -1.549   1.706  -1.323  1.00  0.00    -0.228 OA
ATOM     17  O   UNL     1      -3.205  -0.145  -1.539  1.00  0.00    -0.228 OA
BRANCH  15  18
ATOM     18  C   UNL     1      -0.681  -0.688  -2.056  1.00  0.00     0.140 C 
BRANCH  18  19
ATOM     19  C   UNL     1       0.371   0.038  -2.988  1.00  0.00    -0.002 C 
ATOM     20  C   UNL     1       1.878  -0.020  -2.661  1.00  0.00     0.008 C 
ATOM     21  C   UNL     1       0.329  -0.637  -4.372  1.00  0.00     0.008 C 
ENDBRANCH  18  19
ENDBRANCH  15  18
ENDBRANCH  14  15
ENDBRANCH   6  14
ENDBRANCH   3   5
ENDBRANCH   2   3
ENDBRANCH   1   2
BRANCH   1  22
ATOM     22  C   UNL     1       2.696  -2.092   0.298  1.00  0.00     0.275 C 
BRANCH  22  23
ATOM     23  O   UNL     1       2.861  -0.704   0.728  1.00  0.00    -0.458 OA
BRANCH  23  24
ATOM     24  C   UNL     1       1.723   0.005   0.589  1.00  0.00     0.338 C 
ATOM     25  O   UNL     1       0.678  -0.508   0.208  1.00  0.00    -0.246 OA
BRANCH  24  26
ATOM     26  C   UNL     1       1.684   1.470   0.775  1.00  0.00     0.060 A 
ATOM     27  C   UNL     1       0.760   1.871   1.736  1.00  0.00     0.016 A 
ATOM     28  C   UNL     1       1.926   2.310  -0.325  1.00  0.00     0.016 A 
ATOM     29  C   UNL     1      -0.064   2.970   1.479  1.00  0.00     0.010 A 
ATOM     30  C   UNL     1       1.185   3.492  -0.510  1.00  0.00     0.010 A 
ATOM     31  C   UNL     1       0.158   3.825   0.376  1.00  0.00    -0.014 A 
BRANCH  31  32
ATOM     32  C   UNL     1      -0.510   5.162   0.348  1.00  0.00     0.031 A 
ATOM     33  C   UNL     1      -1.377   5.685  -0.778  1.00  0.00     0.074 A 
ATOM     34  C   UNL     1      -0.258   5.934   1.426  1.00  0.00     0.049 A 
ATOM     35  N   UNL     1      -1.976   6.851  -0.880  1.00  0.00    -0.248 NA
ATOM     36  C   UNL     1      -1.591   4.822  -1.945  1.00  0.00     0.031 C 
ATOM     37  C   UNL     1       0.621   5.541   2.537  1.00  0.00     0.029 A 
ATOM     38  N   UNL     1      -0.700   7.174   1.792  1.00  0.00    -0.354 N 
ATOM     39  C   UNL     1      -2.630   6.859  -2.115  1.00  0.00     0.074 A 
ATOM     40  C   UNL     1      -2.358   5.577  -2.726  1.00  0.00     0.031 C 
ATOM     41  C   UNL     1       0.571   6.462   3.497  1.00  0.00     0.029 A 
ATOM     42  C   UNL     1      -0.192   7.591   3.000  1.00  0.00     0.049 A 
ATOM     43  H   UNL     1      -1.318   7.713   1.248  1.00  0.00     0.167 HD
ATOM     44  C   UNL     1      -3.354   7.858  -2.688  1.00  0.00     0.034 A 
ATOM     45  C   UNL     1      -0.253   8.777   3.624  1.00  0.00     0.034 A 
ATOM     46  C   UNL     1      -3.542   9.155  -2.064  1.00  0.00     0.049 A 
ATOM     47  C   UNL     1      -1.019   9.868   2.956  1.00  0.00     0.074 A 
ATOM     48  C   UNL     1      -4.263  10.245  -2.526  1.00  0.00     0.029 A 
ATOM     49  N   UNL     1      -2.976   9.547  -0.854  1.00  0.00    -0.354 N 
ATOM     50  N   UNL     1      -1.643   9.841   1.801  1.00  0.00    -0.248 NA
ATOM     51  C   UNL     1      -1.088  11.144   3.665  1.00  0.00     0.031 C 
ATOM     52  C   UNL     1      -4.058  11.315  -1.647  1.00  0.00     0.029 A 
ATOM     53  C   UNL     1      -3.293  10.871  -0.580  1.00  0.00     0.049 A 
ATOM     54  H   UNL     1      -2.428   8.969  -0.276  1.00  0.00     0.167 HD
ATOM     55  C   UNL     1      -2.187  11.104   1.642  1.00  0.00     0.074 A 
ATOM     56  C   UNL     1      -1.844  11.852   2.840  1.00  0.00     0.031 C 
ATOM     57  C   UNL     1      -2.901  11.605   0.601  1.00  0.00     0.034 A 
BRANCH  44  58
ATOM     58  C   UNL     1      -3.930   7.646  -4.082  1.00  0.00     0.023 A 
ATOM     59  C   UNL     1      -4.919   6.683  -4.360  1.00  0.00     0.031 A 
ATOM     60  C   UNL     1      -3.512   8.467  -5.150  1.00  0.00     0.131 A 
ATOM     61  C   UNL     1      -5.429   6.547  -5.668  1.00  0.00     0.055 A 
ATOM     62  C   UNL     1      -4.067   8.370  -6.431  1.00  0.00     0.041 A 
ATOM     63  F   UNL     1      -2.559   9.394  -4.966  1.00  0.00    -0.206 F 
ATOM     64  C   UNL     1      -5.026   7.401  -6.697  1.00  0.00     0.022 A 
BRANCH  61  65
ATOM     65  S   UNL     1      -6.567   5.180  -6.042  1.00  0.00     0.124 S 
ATOM     66  O   UNL     1      -5.767   4.016  -5.673  1.00  0.00    -0.237 OA
ATOM     67  O   UNL     1      -7.708   5.475  -5.183  1.00  0.00    -0.237 OA
ATOM     68  O   UNL     1      -6.817   5.322  -7.476  1.00  0.00    -0.744 OA
ENDBRANCH  61  65
ENDBRANCH  44  58
BRANCH  45  69
ATOM     69  C   UNL     1       0.483   8.962   4.904  1.00  0.00     0.023 A 
ATOM     70  C   UNL     1      -0.204   9.184   6.103  1.00  0.00     0.031 A 
ATOM     71  C   UNL     1       1.886   8.826   4.959  1.00  0.00     0.131 A 
ATOM     72  C   UNL     1       0.510   9.264   7.307  1.00  0.00     0.055 A 
ATOM     73  C   UNL     1       2.583   8.837   6.166  1.00  0.00     0.041 A 
ATOM     74  F   UNL     1       2.592   8.598   3.839  1.00  0.00    -0.206 F 
ATOM     75  C   UNL     1       1.893   9.065   7.351  1.00  0.00     0.022 A 
BRANCH  72  76
ATOM     76  S   UNL     1      -0.392   9.694   8.818  1.00  0.00     0.124 S 
ATOM     77  O   UNL     1      -1.045  10.939   8.431  1.00  0.00    -0.237 OA
ATOM     78  O   UNL     1      -1.264   8.537   8.989  1.00  0.00    -0.237 OA
ATOM     79  O   UNL     1       0.667   9.829   9.817  1.00  0.00    -0.744 OA
ENDBRANCH  72  76
ENDBRANCH  45  69
BRANCH  57  80
ATOM     80  C   UNL     1      -3.362  13.029   0.754  1.00  0.00     0.023 A 
ATOM     81  C   UNL     1      -2.443  14.091   0.806  1.00  0.00     0.031 A 
ATOM     82  C   UNL     1      -4.725  13.317   0.931  1.00  0.00     0.131 A 
ATOM     83  C   UNL     1      -2.890  15.381   1.120  1.00  0.00     0.055 A 
ATOM     84  C   UNL     1      -5.173  14.616   1.164  1.00  0.00     0.041 A 
ATOM     85  F   UNL     1      -5.641  12.335   0.899  1.00  0.00    -0.206 F 
ATOM     86  C   UNL     1      -4.252  15.654   1.281  1.00  0.00     0.022 A 
BRANCH  83  87
ATOM     87  S   UNL     1      -1.656  16.664   1.460  1.00  0.00     0.124 S 
ATOM     88  O   UNL     1      -0.917  16.082   2.577  1.00  0.00    -0.237 OA
ATOM     89  O   UNL     1      -0.935  16.748   0.194  1.00  0.00    -0.237 OA
ATOM     90  O   UNL     1      -2.463  17.836   1.793  1.00  0.00    -0.744 OA
ENDBRANCH  83  87
ENDBRANCH  57  80
ENDBRANCH  31  32
ENDBRANCH  24  26
ENDBRANCH  23  24
ENDBRANCH  22  23
ENDBRANCH   1  22
TORSDOF 18
