REMARK SMILES CS(=O)(=O)CC(=O)N1CCO[C@@H](CC(=O)OCCOC(=O)c2ccc(-c3c4nc(c(-c5cc(S(=O)(=O)[O-])ccc5F)c5ccc([nH]5)c(-c5cc(S(=O)(=O)[O-])ccc5F)c5nc(c(-c6cc(S(=O)(=O)[O-])ccc6F)c6ccc3[nH]6)C=C5)C=C4)cc2)C1
REMARK SMILES IDX 17 1 16 2 14 3 15 4 13 5 12 6 8 7 9 8 85 9 10 10 11 11 6 12
REMARK SMILES IDX 7 13 5 14 2 15 1 16 3 17 4 18 18 19 19 20 20 21 21 22 22 23
REMARK SMILES IDX 23 24 84 25 24 26 83 27 25 28 26 29 27 30 77 31 28 32 82 33
REMARK SMILES IDX 76 34 78 35 29 36 81 37 75 38 74 39 30 41 62 42 42 43 61 44
REMARK SMILES IDX 43 45 46 46 60 47 79 48 44 49 45 50 59 52 80 53 47 54 31 55
REMARK SMILES IDX 32 56 40 57 33 58 39 59 41 60 38 61 34 62 35 63 36 64 37 65
REMARK SMILES IDX 63 66 64 67 72 68 65 69 71 70 73 71 70 72 66 73 67 74 68 75
REMARK SMILES IDX 69 76 48 77 49 78 57 79 50 80 56 81 58 82 55 83 51 84 52 85
REMARK SMILES IDX 53 86 54 87
REMARK H PARENT 78 40 46 51
REMARK Flexibility Score: inf
ROOT
ATOM      1  C   UNL     1      -0.515  -2.037   8.335  1.00  0.00     0.274 C 
ENDROOT
BRANCH   1   2
ATOM      2  O   UNL     1      -1.262  -1.941   7.107  1.00  0.00    -0.462 OA
BRANCH   2   3
ATOM      3  C   UNL     1      -2.602  -1.773   7.231  1.00  0.00     0.308 C 
ATOM      4  O   UNL     1      -3.204  -1.732   8.296  1.00  0.00    -0.252 OA
BRANCH   3   5
ATOM      5  C   UNL     1      -3.295  -1.730   5.896  1.00  0.00     0.156 C 
BRANCH   5   6
ATOM      6  C   UNL     1      -2.684  -0.766   4.884  1.00  0.00     0.148 C 
ATOM      7  N   UNL     1      -1.060  -0.450   3.047  1.00  0.00    -0.337 N 
ATOM      8  C   UNL     1      -2.159  -0.062   2.166  1.00  0.00     0.148 C 
ATOM      9  C   UNL     1      -1.456  -1.349   4.137  1.00  0.00     0.152 C 
ATOM     10  C   UNL     1      -3.315   0.510   2.971  1.00  0.00     0.182 C 
ATOM     11  O   UNL     1      -3.744  -0.453   3.943  1.00  0.00    -0.374 OA
BRANCH   7  12
ATOM     12  C   UNL     1       0.268  -0.142   2.837  1.00  0.00     0.237 C 
ATOM     13  O   UNL     1       1.169  -0.942   3.100  1.00  0.00    -0.274 OA
BRANCH  12  14
ATOM     14  C   UNL     1       0.596   1.259   2.414  1.00  0.00     0.236 C 
BRANCH  14  15
ATOM     15  S   UNL     1       0.843   1.464   0.675  1.00  0.00     0.156 S 
ATOM     16  C   UNL     1       1.136  -0.146  -0.015  1.00  0.00     0.158 C 
ATOM     17  O   UNL     1       2.059   2.234   0.483  1.00  0.00    -0.229 OA
ATOM     18  O   UNL     1      -0.402   1.941   0.099  1.00  0.00    -0.229 OA
ENDBRANCH  14  15
ENDBRANCH  12  14
ENDBRANCH   7  12
ENDBRANCH   5   6
ENDBRANCH   3   5
ENDBRANCH   2   3
ENDBRANCH   1   2
BRANCH   1  19
ATOM     19  C   UNL     1       0.135  -0.703   8.710  1.00  0.00     0.275 C 
BRANCH  19  20
ATOM     20  O   UNL     1      -0.844   0.265   9.132  1.00  0.00    -0.458 OA
BRANCH  20  21
ATOM     21  C   UNL     1      -1.292   1.095   8.159  1.00  0.00     0.338 C 
ATOM     22  O   UNL     1      -0.919   1.130   7.000  1.00  0.00    -0.246 OA
BRANCH  21  23
ATOM     23  C   UNL     1      -2.427   1.885   8.669  1.00  0.00     0.060 A 
ATOM     24  C   UNL     1      -3.672   1.729   8.052  1.00  0.00     0.016 A 
ATOM     25  C   UNL     1      -2.259   2.810   9.702  1.00  0.00     0.016 A 
ATOM     26  C   UNL     1      -4.757   2.501   8.466  1.00  0.00     0.010 A 
ATOM     27  C   UNL     1      -3.351   3.581  10.118  1.00  0.00     0.010 A 
ATOM     28  C   UNL     1      -4.606   3.437   9.498  1.00  0.00    -0.014 A 
BRANCH  28  29
ATOM     29  C   UNL     1      -5.761   4.277   9.908  1.00  0.00     0.031 A 
ATOM     30  C   UNL     1      -5.811   5.729   9.519  1.00  0.00     0.074 A 
ATOM     31  C   UNL     1      -6.763   3.732  10.623  1.00  0.00     0.049 A 
ATOM     32  N   UNL     1      -6.704   6.636   9.821  1.00  0.00    -0.248 NA
ATOM     33  C   UNL     1      -4.706   6.226   8.685  1.00  0.00     0.031 C 
ATOM     34  C   UNL     1      -6.832   2.330  11.041  1.00  0.00     0.029 A 
ATOM     35  N   UNL     1      -7.910   4.288  11.133  1.00  0.00    -0.354 N 
ATOM     36  C   UNL     1      -6.263   7.816   9.232  1.00  0.00     0.074 A 
ATOM     37  C   UNL     1      -5.012   7.511   8.569  1.00  0.00     0.031 C 
ATOM     38  C   UNL     1      -7.957   2.140  11.750  1.00  0.00     0.029 A 
ATOM     39  C   UNL     1      -8.666   3.410  11.876  1.00  0.00     0.049 A 
ATOM     40  H   UNL     1      -8.167   5.226  10.981  1.00  0.00     0.167 HD
ATOM     41  C   UNL     1      -6.850   9.039   9.246  1.00  0.00     0.034 A 
ATOM     42  C   UNL     1      -9.785   3.614  12.601  1.00  0.00     0.034 A 
ATOM     43  C   UNL     1      -8.104   9.324   9.901  1.00  0.00     0.049 A 
ATOM     44  C   UNL     1     -10.395   4.994  12.630  1.00  0.00     0.074 A 
ATOM     45  C   UNL     1      -8.811  10.514   9.924  1.00  0.00     0.029 A 
ATOM     46  N   UNL     1      -8.833   8.417  10.658  1.00  0.00    -0.354 N 
ATOM     47  N   UNL     1      -9.985   6.091  12.036  1.00  0.00    -0.248 NA
ATOM     48  C   UNL     1     -11.623   5.160  13.418  1.00  0.00     0.031 C 
ATOM     49  C   UNL     1      -9.927  10.348  10.752  1.00  0.00     0.029 A 
ATOM     50  C   UNL     1      -9.959   9.032  11.186  1.00  0.00     0.049 A 
ATOM     51  H   UNL     1      -8.587   7.474  10.800  1.00  0.00     0.167 HD
ATOM     52  C   UNL     1     -10.919   7.071  12.364  1.00  0.00     0.074 A 
ATOM     53  C   UNL     1     -11.923   6.429  13.185  1.00  0.00     0.031 C 
ATOM     54  C   UNL     1     -10.945   8.383  12.017  1.00  0.00     0.034 A 
BRANCH  41  55
ATOM     55  C   UNL     1      -6.116  10.177   8.582  1.00  0.00     0.023 A 
ATOM     56  C   UNL     1      -5.924  10.232   7.191  1.00  0.00     0.031 A 
ATOM     57  C   UNL     1      -5.607  11.231   9.361  1.00  0.00     0.131 A 
ATOM     58  C   UNL     1      -5.200  11.294   6.627  1.00  0.00     0.055 A 
ATOM     59  C   UNL     1      -4.944  12.318   8.788  1.00  0.00     0.041 A 
ATOM     60  F   UNL     1      -5.743  11.220  10.696  1.00  0.00    -0.206 F 
ATOM     61  C   UNL     1      -4.729  12.349   7.414  1.00  0.00     0.022 A 
BRANCH  58  62
ATOM     62  S   UNL     1      -4.791  11.230   4.861  1.00  0.00     0.124 S 
ATOM     63  O   UNL     1      -4.000  10.004   4.785  1.00  0.00    -0.237 OA
ATOM     64  O   UNL     1      -6.106  11.182   4.234  1.00  0.00    -0.237 OA
ATOM     65  O   UNL     1      -4.038  12.464   4.638  1.00  0.00    -0.744 OA
ENDBRANCH  58  62
ENDBRANCH  41  55
BRANCH  42  66
ATOM     66  C   UNL     1     -10.374   2.508  13.412  1.00  0.00     0.023 A 
ATOM     67  C   UNL     1     -11.669   2.027  13.161  1.00  0.00     0.031 A 
ATOM     68  C   UNL     1      -9.669   1.964  14.501  1.00  0.00     0.131 A 
ATOM     69  C   UNL     1     -12.238   1.072  14.019  1.00  0.00     0.055 A 
ATOM     70  C   UNL     1     -10.218   0.973  15.316  1.00  0.00     0.041 A 
ATOM     71  F   UNL     1      -8.429   2.390  14.789  1.00  0.00    -0.206 F 
ATOM     72  C   UNL     1     -11.517   0.533  15.086  1.00  0.00     0.022 A 
BRANCH  69  73
ATOM     73  S   UNL     1     -13.980   0.623  13.784  1.00  0.00     0.124 S 
ATOM     74  O   UNL     1     -14.635   1.925  13.844  1.00  0.00    -0.237 OA
ATOM     75  O   UNL     1     -13.953  -0.022  12.476  1.00  0.00    -0.237 OA
ATOM     76  O   UNL     1     -14.257  -0.267  14.910  1.00  0.00    -0.744 OA
ENDBRANCH  69  73
ENDBRANCH  42  66
BRANCH  54  77
ATOM     77  C   UNL     1     -12.123   9.194  12.502  1.00  0.00     0.023 A 
ATOM     78  C   UNL     1     -12.317   9.470  13.867  1.00  0.00     0.031 A 
ATOM     79  C   UNL     1     -13.076   9.674  11.587  1.00  0.00     0.131 A 
ATOM     80  C   UNL     1     -13.468  10.156  14.284  1.00  0.00     0.055 A 
ATOM     81  C   UNL     1     -14.189  10.407  12.002  1.00  0.00     0.041 A 
ATOM     82  F   UNL     1     -12.942   9.438  10.272  1.00  0.00    -0.206 F 
ATOM     83  C   UNL     1     -14.397  10.639  13.359  1.00  0.00     0.022 A 
BRANCH  80  84
ATOM     84  S   UNL     1     -13.784  10.326  16.062  1.00  0.00     0.124 S 
ATOM     85  O   UNL     1     -13.818   8.934  16.499  1.00  0.00    -0.237 OA
ATOM     86  O   UNL     1     -12.637  11.107  16.510  1.00  0.00    -0.237 OA
ATOM     87  O   UNL     1     -15.068  11.024  16.117  1.00  0.00    -0.744 OA
ENDBRANCH  80  84
ENDBRANCH  54  77
ENDBRANCH  28  29
ENDBRANCH  21  23
ENDBRANCH  20  21
ENDBRANCH  19  20
ENDBRANCH   1  19
TORSDOF 18
