REMARK SMILES C[C@@H]1[C@H](C)CCC[C@H]1NC(=O)C[N@@H+]1CCC[C@@H]1C(=O)OCCOC(=O)c1ccc(-c2c3nc(c(-c4cc(S(=O)(=O)[O-])ccc4F)c4ccc([nH]4)c(-c4cc(S(=O)(=O)[O-])ccc4F)c4nc(c(-c5cc(S(=O)(=O)[O-])ccc5F)c5ccc2[nH]5)C=C4)C=C3)cc1
REMARK SMILES IDX 21 1 20 2 18 3 19 4 17 5 13 6 14 7 15 9 16 10 12 11 10 12
REMARK SMILES IDX 9 13 11 15 8 16 1 17 2 18 3 19 4 20 5 21 7 22 6 23 22 24
REMARK SMILES IDX 23 25 24 26 25 27 26 28 27 29 88 30 28 31 87 32 29 33 30 34
REMARK SMILES IDX 31 35 81 36 32 37 86 38 80 39 82 40 33 41 85 42 79 43 78 44
REMARK SMILES IDX 34 46 66 47 46 48 65 49 47 50 50 51 64 52 83 53 48 54 49 55
REMARK SMILES IDX 63 57 84 58 51 59 35 60 36 61 44 62 37 63 43 64 45 65 42 66
REMARK SMILES IDX 38 67 39 68 40 69 41 70 67 71 68 72 76 73 69 74 75 75 77 76
REMARK SMILES IDX 74 77 70 78 71 79 72 80 73 81 52 82 53 83 61 84 54 85 60 86
REMARK SMILES IDX 62 87 59 88 55 89 56 90 57 91 58 92
REMARK H PARENT 13 8 9 14 82 45 50 56
REMARK Flexibility Score: inf
ROOT
ATOM      1  C   UNL     1      -7.216   1.220  -3.156  1.00  0.00     0.274 C 
ENDROOT
BRANCH   1   2
ATOM      2  O   UNL     1      -5.824   0.856  -3.132  1.00  0.00    -0.458 OA
BRANCH   2   3
ATOM      3  C   UNL     1      -5.270   0.656  -1.905  1.00  0.00     0.365 C 
ATOM      4  O   UNL     1      -5.737   1.089  -0.856  1.00  0.00    -0.245 OA
BRANCH   3   5
ATOM      5  C   UNL     1      -4.005  -0.208  -1.975  1.00  0.00     0.295 C 
ATOM      6  N   UNL     1      -2.692   0.473  -1.842  1.00  0.00    -0.315 N 
ATOM      7  C   UNL     1      -1.781  -0.220  -2.748  1.00  0.00     0.263 C 
ATOM      8  H   UNL     1      -2.327   0.379  -0.894  1.00  0.00     0.349 HD
ATOM      9  C   UNL     1      -2.631  -0.708  -3.893  1.00  0.00     0.068 C 
ATOM     10  C   UNL     1      -3.920  -1.111  -3.214  1.00  0.00     0.083 C 
BRANCH   6  11
ATOM     11  C   UNL     1      -2.684   1.938  -1.769  1.00  0.00     0.364 C 
BRANCH  11  12
ATOM     12  C   UNL     1      -1.619   2.612  -2.625  1.00  0.00     0.275 C 
ATOM     13  N   UNL     1      -0.334   2.733  -2.192  1.00  0.00    -0.348 N 
ATOM     14  H   UNL     1       0.264   3.192  -2.825  1.00  0.00     0.163 HD
ATOM     15  O   UNL     1      -1.887   3.046  -3.750  1.00  0.00    -0.268 OA
BRANCH  13  16
ATOM     16  C   UNL     1       0.320   2.303  -0.948  1.00  0.00     0.085 C 
ATOM     17  C   UNL     1       1.574   0.405   0.205  1.00  0.00     0.010 C 
ATOM     18  C   UNL     1       1.123   0.990  -1.143  1.00  0.00     0.011 C 
ATOM     19  C   UNL     1       2.289   1.206  -2.140  1.00  0.00    -0.009 C 
ATOM     20  C   UNL     1       3.090  -0.071  -2.402  1.00  0.00     0.008 C 
ATOM     21  C   UNL     1       3.212   2.352  -1.696  1.00  0.00     0.004 C 
ATOM     22  C   UNL     1       1.249   3.428  -0.467  1.00  0.00     0.025 C 
ATOM     23  C   UNL     1       2.446   3.641  -1.398  1.00  0.00     0.002 C 
ENDBRANCH  13  16
ENDBRANCH  11  12
ENDBRANCH   6  11
ENDBRANCH   3   5
ENDBRANCH   2   3
ENDBRANCH   1   2
BRANCH   1  24
ATOM     24  C   UNL     1      -8.040  -0.029  -3.467  1.00  0.00     0.275 C 
BRANCH  24  25
ATOM     25  O   UNL     1      -7.898  -0.980  -2.391  1.00  0.00    -0.458 OA
BRANCH  25  26
ATOM     26  C   UNL     1      -7.457  -2.210  -2.744  1.00  0.00     0.338 C 
ATOM     27  O   UNL     1      -7.189  -2.606  -3.864  1.00  0.00    -0.246 OA
BRANCH  26  28
ATOM     28  C   UNL     1      -7.339  -3.058  -1.545  1.00  0.00     0.060 A 
ATOM     29  C   UNL     1      -6.368  -2.780  -0.584  1.00  0.00     0.016 A 
ATOM     30  C   UNL     1      -8.123  -4.205  -1.437  1.00  0.00     0.016 A 
ATOM     31  C   UNL     1      -6.124  -3.684   0.449  1.00  0.00     0.010 A 
ATOM     32  C   UNL     1      -7.938  -5.065  -0.349  1.00  0.00     0.010 A 
ATOM     33  C   UNL     1      -6.917  -4.831   0.590  1.00  0.00    -0.014 A 
BRANCH  33  34
ATOM     34  C   UNL     1      -6.668  -5.803   1.692  1.00  0.00     0.031 A 
ATOM     35  C   UNL     1      -6.311  -7.230   1.366  1.00  0.00     0.074 A 
ATOM     36  C   UNL     1      -6.768  -5.417   2.981  1.00  0.00     0.049 A 
ATOM     37  N   UNL     1      -6.273  -8.277   2.150  1.00  0.00    -0.248 NA
ATOM     38  C   UNL     1      -5.964  -7.515  -0.034  1.00  0.00     0.031 C 
ATOM     39  C   UNL     1      -7.050  -4.055   3.439  1.00  0.00     0.029 A 
ATOM     40  N   UNL     1      -6.654  -6.138   4.145  1.00  0.00    -0.354 N 
ATOM     41  C   UNL     1      -5.934  -9.352   1.334  1.00  0.00     0.074 A 
ATOM     42  C   UNL     1      -5.797  -8.829  -0.010  1.00  0.00     0.031 C 
ATOM     43  C   UNL     1      -7.076  -4.037   4.780  1.00  0.00     0.029 A 
ATOM     44  C   UNL     1      -6.902  -5.396   5.278  1.00  0.00     0.049 A 
ATOM     45  H   UNL     1      -6.417  -7.093   4.167  1.00  0.00     0.167 HD
ATOM     46  C   UNL     1      -5.755 -10.653   1.676  1.00  0.00     0.034 A 
ATOM     47  C   UNL     1      -7.031  -5.772   6.566  1.00  0.00     0.034 A 
ATOM     48  C   UNL     1      -5.878 -11.153   3.024  1.00  0.00     0.049 A 
ATOM     49  C   UNL     1      -6.884  -7.231   6.915  1.00  0.00     0.074 A 
ATOM     50  C   UNL     1      -5.754 -12.456   3.479  1.00  0.00     0.029 A 
ATOM     51  N   UNL     1      -6.138 -10.369   4.141  1.00  0.00    -0.354 N 
ATOM     52  N   UNL     1      -6.647  -8.250   6.121  1.00  0.00    -0.248 NA
ATOM     53  C   UNL     1      -7.027  -7.592   8.332  1.00  0.00     0.031 C 
ATOM     54  C   UNL     1      -5.982 -12.464   4.861  1.00  0.00     0.029 A 
ATOM     55  C   UNL     1      -6.186 -11.160   5.279  1.00  0.00     0.049 A 
ATOM     56  H   UNL     1      -6.270  -9.394   4.126  1.00  0.00     0.167 HD
ATOM     57  C   UNL     1      -6.595  -9.368   6.947  1.00  0.00     0.074 A 
ATOM     58  C   UNL     1      -6.803  -8.897   8.301  1.00  0.00     0.031 C 
ATOM     59  C   UNL     1      -6.397 -10.670   6.619  1.00  0.00     0.034 A 
BRANCH  46  60
ATOM     60  C   UNL     1      -5.461 -11.629   0.563  1.00  0.00     0.023 A 
ATOM     61  C   UNL     1      -4.260 -11.583  -0.166  1.00  0.00     0.031 A 
ATOM     62  C   UNL     1      -6.408 -12.608   0.213  1.00  0.00     0.131 A 
ATOM     63  C   UNL     1      -4.063 -12.459  -1.245  1.00  0.00     0.055 A 
ATOM     64  C   UNL     1      -6.176 -13.523  -0.816  1.00  0.00     0.041 A 
ATOM     65  F   UNL     1      -7.582 -12.686   0.860  1.00  0.00    -0.206 F 
ATOM     66  C   UNL     1      -5.002 -13.444  -1.559  1.00  0.00     0.022 A 
BRANCH  63  67
ATOM     67  S   UNL     1      -2.612 -12.219  -2.306  1.00  0.00     0.124 S 
ATOM     68  O   UNL     1      -2.852 -10.877  -2.833  1.00  0.00    -0.237 OA
ATOM     69  O   UNL     1      -1.506 -12.347  -1.365  1.00  0.00    -0.237 OA
ATOM     70  O   UNL     1      -2.724 -13.296  -3.288  1.00  0.00    -0.744 OA
ENDBRANCH  63  67
ENDBRANCH  46  60
BRANCH  47  71
ATOM     71  C   UNL     1      -7.393  -4.773   7.614  1.00  0.00     0.023 A 
ATOM     72  C   UNL     1      -6.529  -4.494   8.684  1.00  0.00     0.031 A 
ATOM     73  C   UNL     1      -8.640  -4.122   7.587  1.00  0.00     0.131 A 
ATOM     74  C   UNL     1      -6.941  -3.625   9.707  1.00  0.00     0.055 A 
ATOM     75  C   UNL     1      -9.022  -3.214   8.575  1.00  0.00     0.041 A 
ATOM     76  F   UNL     1      -9.508  -4.355   6.589  1.00  0.00    -0.206 F 
ATOM     77  C   UNL     1      -8.175  -2.973   9.652  1.00  0.00     0.022 A 
BRANCH  74  78
ATOM     78  S   UNL     1      -5.882  -3.439  11.168  1.00  0.00     0.124 S 
ATOM     79  O   UNL     1      -5.719  -4.824  11.596  1.00  0.00    -0.237 OA
ATOM     80  O   UNL     1      -4.699  -2.799  10.603  1.00  0.00    -0.237 OA
ATOM     81  O   UNL     1      -6.678  -2.599  12.060  1.00  0.00    -0.744 OA
ENDBRANCH  74  78
ENDBRANCH  47  71
BRANCH  59  82
ATOM     82  C   UNL     1      -6.346 -11.656   7.757  1.00  0.00     0.023 A 
ATOM     83  C   UNL     1      -7.491 -11.980   8.505  1.00  0.00     0.031 A 
ATOM     84  C   UNL     1      -5.127 -12.259   8.112  1.00  0.00     0.131 A 
ATOM     85  C   UNL     1      -7.383 -12.843   9.606  1.00  0.00     0.055 A 
ATOM     86  C   UNL     1      -5.035 -13.155   9.177  1.00  0.00     0.041 A 
ATOM     87  F   UNL     1      -4.004 -11.981   7.430  1.00  0.00    -0.206 F 
ATOM     88  C   UNL     1      -6.165 -13.442   9.938  1.00  0.00     0.022 A 
BRANCH  85  89
ATOM     89  S   UNL     1      -8.842 -13.110  10.650  1.00  0.00     0.124 S 
ATOM     90  O   UNL     1      -9.144 -11.756  11.103  1.00  0.00    -0.237 OA
ATOM     91  O   UNL     1      -9.794 -13.697   9.713  1.00  0.00    -0.237 OA
ATOM     92  O   UNL     1      -8.358 -14.018  11.689  1.00  0.00    -0.744 OA
ENDBRANCH  85  89
ENDBRANCH  59  82
ENDBRANCH  33  34
ENDBRANCH  26  28
ENDBRANCH  25  26
ENDBRANCH  24  25
ENDBRANCH   1  24
TORSDOF 17
