REMARK SMILES CC[C@@]1(CO)CCCN(c2nc(-c3ccc(C)s3)ccc2C(=O)OCCOC(=O)c2ccc(-c3c4nc(c(-c5cc(S(=O)(=O)[O-])ccc5F)c5ccc([nH]5)c(-c5cc(S(=O)(=O)[O-])ccc5F)c5nc(c(-c6cc(S(=O)(=O)[O-])ccc6F)c6ccc3[nH]6)C=C5)C=C4)cc2)C1
REMARK SMILES IDX 25 1 24 2 22 3 23 4 21 5 10 6 11 7 12 8 20 9 19 10 9 11 3 12
REMARK SMILES IDX 6 13 93 14 7 15 8 16 2 17 1 18 4 19 5 20 13 22 14 23 18 24
REMARK SMILES IDX 15 25 16 26 17 27 26 28 27 29 28 30 29 31 30 32 31 33 92 34
REMARK SMILES IDX 32 35 91 36 33 37 34 38 35 39 85 40 36 41 90 42 84 43 86 44
REMARK SMILES IDX 37 45 89 46 83 47 82 48 38 50 70 51 50 52 69 53 51 54 54 55
REMARK SMILES IDX 68 56 87 57 52 58 53 59 67 61 88 62 55 63 39 64 40 65 48 66
REMARK SMILES IDX 41 67 47 68 49 69 46 70 42 71 43 72 44 73 45 74 71 75 72 76
REMARK SMILES IDX 80 77 73 78 79 79 81 80 78 81 74 82 75 83 76 84 77 85 56 86
REMARK SMILES IDX 57 87 65 88 58 89 64 90 66 91 63 92 59 93 60 94 61 95 62 96
REMARK H PARENT 5 21 86 49 54 60
REMARK Flexibility Score: inf
ROOT
ATOM      1  C   UNL     1       7.058   0.774   0.774  1.00  0.00     0.275 C 
ENDROOT
BRANCH   1   2
ATOM      2  O   UNL     1       5.783   1.449   0.797  1.00  0.00    -0.458 OA
BRANCH   2   3
ATOM      3  C   UNL     1       4.950   1.177  -0.246  1.00  0.00     0.342 C 
ATOM      4  O   UNL     1       5.181   0.397  -1.151  1.00  0.00    -0.246 OA
BRANCH   3   5
ATOM      5  C   UNL     1       3.772   2.075  -0.200  1.00  0.00     0.102 A 
ATOM      6  C   UNL     1       2.507   1.630  -0.593  1.00  0.00     0.143 A 
ATOM      7  N   UNL     1       1.486   2.492  -0.777  1.00  0.00    -0.229 NA
ATOM      8  C   UNL     1       1.662   3.793  -0.476  1.00  0.00     0.083 A 
ATOM      9  C   UNL     1       3.942   3.434   0.102  1.00  0.00     0.022 A 
ATOM     10  C   UNL     1       2.863   4.308  -0.020  1.00  0.00     0.031 A 
BRANCH   6  11
ATOM     11  N   UNL     1       2.162   0.296  -0.670  1.00  0.00    -0.355 N 
ATOM     12  C   UNL     1       0.180  -0.572  -1.992  1.00  0.00     0.011 C 
ATOM     13  C   UNL     1      -0.140  -1.438  -0.758  1.00  0.00     0.013 C 
ATOM     14  C   UNL     1       1.684  -0.196  -1.960  1.00  0.00     0.127 C 
ATOM     15  C   UNL     1       0.261  -0.774   0.555  1.00  0.00     0.022 C 
ATOM     16  C   UNL     1       1.703  -0.290   0.584  1.00  0.00     0.118 C 
BRANCH  12  17
ATOM     17  C   UNL     1      -0.036  -1.404  -3.298  1.00  0.00     0.008 C 
ATOM     18  C   UNL     1      -1.474  -1.789  -3.630  1.00  0.00     0.004 C 
ENDBRANCH  12  17
BRANCH  12  19
ATOM     19  C   UNL     1      -0.731   0.673  -1.985  1.00  0.00     0.164 C 
BRANCH  19  20
ATOM     20  O   UNL     1      -0.336   1.623  -2.968  1.00  0.00    -0.396 OA
ATOM     21  H   UNL     1       0.567   1.924  -2.782  1.00  0.00     0.210 HD
ENDBRANCH  19  20
ENDBRANCH  12  19
ENDBRANCH   6  11
BRANCH   8  22
ATOM     22  C   UNL     1       0.482   4.604  -0.727  1.00  0.00     0.053 A 
ATOM     23  C   UNL     1       0.294   5.593  -1.670  1.00  0.00     0.022 A 
ATOM     24  S   UNL     1      -0.950   4.301   0.163  1.00  0.00    -0.139 S 
ATOM     25  C   UNL     1      -1.052   6.061  -1.696  1.00  0.00     0.016 A 
ATOM     26  C   UNL     1      -1.845   5.426  -0.762  1.00  0.00     0.002 A 
ATOM     27  C   UNL     1      -3.304   5.589  -0.511  1.00  0.00     0.056 C 
ENDBRANCH   8  22
ENDBRANCH   3   5
ENDBRANCH   2   3
ENDBRANCH   1   2
BRANCH   1  28
ATOM     28  C   UNL     1       7.078  -0.414   1.733  1.00  0.00     0.275 C 
BRANCH  28  29
ATOM     29  O   UNL     1       6.290  -1.498   1.206  1.00  0.00    -0.458 OA
BRANCH  29  30
ATOM     30  C   UNL     1       5.168  -1.801   1.900  1.00  0.00     0.338 C 
ATOM     31  O   UNL     1       4.796  -1.283   2.944  1.00  0.00    -0.246 OA
BRANCH  30  32
ATOM     32  C   UNL     1       4.381  -2.852   1.217  1.00  0.00     0.060 A 
ATOM     33  C   UNL     1       4.073  -2.711  -0.128  1.00  0.00     0.016 A 
ATOM     34  C   UNL     1       3.720  -3.830   1.967  1.00  0.00     0.016 A 
ATOM     35  C   UNL     1       2.982  -3.416  -0.650  1.00  0.00     0.010 A 
ATOM     36  C   UNL     1       2.711  -4.625   1.385  1.00  0.00     0.010 A 
ATOM     37  C   UNL     1       2.248  -4.373   0.083  1.00  0.00    -0.014 A 
BRANCH  37  38
ATOM     38  C   UNL     1       0.949  -4.961  -0.463  1.00  0.00     0.031 A 
ATOM     39  C   UNL     1      -0.320  -5.030   0.391  1.00  0.00     0.074 A 
ATOM     40  C   UNL     1       0.797  -5.272  -1.775  1.00  0.00     0.049 A 
ATOM     41  N   UNL     1      -1.472  -5.605   0.124  1.00  0.00    -0.248 NA
ATOM     42  C   UNL     1      -0.305  -4.354   1.697  1.00  0.00     0.031 C 
ATOM     43  C   UNL     1       1.830  -5.148  -2.802  1.00  0.00     0.029 A 
ATOM     44  N   UNL     1      -0.310  -5.682  -2.494  1.00  0.00    -0.354 N 
ATOM     45  C   UNL     1      -2.278  -5.426   1.249  1.00  0.00     0.074 A 
ATOM     46  C   UNL     1      -1.496  -4.659   2.193  1.00  0.00     0.031 C 
ATOM     47  C   UNL     1       1.275  -5.293  -4.012  1.00  0.00     0.029 A 
ATOM     48  C   UNL     1      -0.094  -5.767  -3.855  1.00  0.00     0.049 A 
ATOM     49  H   UNL     1      -1.175  -5.893  -2.074  1.00  0.00     0.167 HD
ATOM     50  C   UNL     1      -3.538  -5.875   1.490  1.00  0.00     0.034 A 
ATOM     51  C   UNL     1      -0.848  -6.250  -4.869  1.00  0.00     0.034 A 
ATOM     52  C   UNL     1      -4.346  -6.602   0.537  1.00  0.00     0.049 A 
ATOM     53  C   UNL     1      -2.176  -6.889  -4.549  1.00  0.00     0.074 A 
ATOM     54  C   UNL     1      -5.596  -7.174   0.726  1.00  0.00     0.029 A 
ATOM     55  N   UNL     1      -4.003  -6.847  -0.784  1.00  0.00    -0.354 N 
ATOM     56  N   UNL     1      -2.835  -6.904  -3.414  1.00  0.00    -0.248 NA
ATOM     57  C   UNL     1      -2.834  -7.633  -5.633  1.00  0.00     0.031 C 
ATOM     58  C   UNL     1      -5.963  -7.841  -0.448  1.00  0.00     0.029 A 
ATOM     59  C   UNL     1      -4.991  -7.602  -1.403  1.00  0.00     0.049 A 
ATOM     60  H   UNL     1      -3.179  -6.531  -1.220  1.00  0.00     0.167 HD
ATOM     61  C   UNL     1      -3.978  -7.665  -3.652  1.00  0.00     0.074 A 
ATOM     62  C   UNL     1      -3.943  -8.053  -5.044  1.00  0.00     0.031 C 
ATOM     63  C   UNL     1      -4.958  -8.021  -2.784  1.00  0.00     0.034 A 
BRANCH  50  64
ATOM     64  C   UNL     1      -4.085  -5.723   2.894  1.00  0.00     0.023 A 
ATOM     65  C   UNL     1      -4.449  -4.487   3.454  1.00  0.00     0.031 A 
ATOM     66  C   UNL     1      -4.254  -6.878   3.684  1.00  0.00     0.131 A 
ATOM     67  C   UNL     1      -4.926  -4.435   4.777  1.00  0.00     0.055 A 
ATOM     68  C   UNL     1      -4.795  -6.828   4.968  1.00  0.00     0.041 A 
ATOM     69  F   UNL     1      -3.900  -8.084   3.211  1.00  0.00    -0.206 F 
ATOM     70  C   UNL     1      -5.126  -5.599   5.526  1.00  0.00     0.022 A 
BRANCH  67  71
ATOM     71  S   UNL     1      -5.164  -2.817   5.566  1.00  0.00     0.124 S 
ATOM     72  O   UNL     1      -3.855  -2.198   5.376  1.00  0.00    -0.237 OA
ATOM     73  O   UNL     1      -6.261  -2.248   4.793  1.00  0.00    -0.237 OA
ATOM     74  O   UNL     1      -5.487  -3.155   6.951  1.00  0.00    -0.744 OA
ENDBRANCH  67  71
ENDBRANCH  50  64
BRANCH  51  75
ATOM     75  C   UNL     1      -0.309  -6.308  -6.270  1.00  0.00     0.023 A 
ATOM     76  C   UNL     1      -1.014  -5.761  -7.357  1.00  0.00     0.031 A 
ATOM     77  C   UNL     1       0.892  -6.989  -6.556  1.00  0.00     0.131 A 
ATOM     78  C   UNL     1      -0.523  -5.925  -8.665  1.00  0.00     0.055 A 
ATOM     79  C   UNL     1       1.424  -7.059  -7.842  1.00  0.00     0.041 A 
ATOM     80  F   UNL     1       1.583  -7.595  -5.577  1.00  0.00    -0.206 F 
ATOM     81  C   UNL     1       0.709  -6.536  -8.909  1.00  0.00     0.022 A 
BRANCH  78  82
ATOM     82  S   UNL     1      -1.579  -5.460 -10.067  1.00  0.00     0.124 S 
ATOM     83  O   UNL     1      -2.762  -6.279  -9.828  1.00  0.00    -0.237 OA
ATOM     84  O   UNL     1      -1.739  -4.024  -9.868  1.00  0.00    -0.237 OA
ATOM     85  O   UNL     1      -0.783  -5.842 -11.232  1.00  0.00    -0.744 OA
ENDBRANCH  78  82
ENDBRANCH  51  75
BRANCH  63  86
ATOM     86  C   UNL     1      -6.094  -8.862  -3.321  1.00  0.00     0.023 A 
ATOM     87  C   UNL     1      -5.889 -10.177  -3.779  1.00  0.00     0.031 A 
ATOM     88  C   UNL     1      -7.398  -8.338  -3.388  1.00  0.00     0.131 A 
ATOM     89  C   UNL     1      -6.957 -10.902  -4.331  1.00  0.00     0.055 A 
ATOM     90  C   UNL     1      -8.468  -9.087  -3.882  1.00  0.00     0.041 A 
ATOM     91  F   UNL     1      -7.655  -7.088  -2.971  1.00  0.00    -0.206 F 
ATOM     92  C   UNL     1      -8.249 -10.372  -4.369  1.00  0.00     0.022 A 
BRANCH  89  93
ATOM     93  S   UNL     1      -6.620 -12.518  -5.086  1.00  0.00     0.124 S 
ATOM     94  O   UNL     1      -5.632 -12.178  -6.104  1.00  0.00    -0.237 OA
ATOM     95  O   UNL     1      -6.128 -13.296  -3.954  1.00  0.00    -0.237 OA
ATOM     96  O   UNL     1      -7.923 -12.935  -5.603  1.00  0.00    -0.744 OA
ENDBRANCH  89  93
ENDBRANCH  63  86
ENDBRANCH  37  38
ENDBRANCH  30  32
ENDBRANCH  29  30
ENDBRANCH  28  29
ENDBRANCH   1  28
TORSDOF 19
