REMARK SMILES CCCCCCNC(=O)Oc1cccc(-c2ccc([C@@H](C)C(=O)OCCOC(=O)c3ccc(-c4c5nc(c(-c6cc(S(=O)(=O)[O-])ccc6F)c6ccc([nH]6)c(-c6cc(S(=O)(=O)[O-])ccc6F)c6nc(c(-c7cc(S(=O)(=O)[O-])ccc7F)c7ccc4[nH]7)C=C6)C=C5)cc3)cc2)c1
REMARK SMILES IDX 20 1 21 2 19 3 16 4 17 5 94 6 18 7 93 8 15 9 11 10 12 11
REMARK SMILES IDX 95 12 13 13 14 14 10 15 8 16 7 17 9 19 6 20 5 21 4 22 3 23
REMARK SMILES IDX 2 24 1 25 22 26 23 27 24 28 25 29 26 30 27 31 28 32 29 33
REMARK SMILES IDX 30 34 31 35 92 36 32 37 91 38 33 39 34 40 35 41 85 42 36 43
REMARK SMILES IDX 90 44 84 45 86 46 37 47 89 48 83 49 82 50 38 52 70 53 50 54
REMARK SMILES IDX 69 55 51 56 54 57 68 58 87 59 52 60 53 61 67 63 88 64 55 65
REMARK SMILES IDX 39 66 40 67 48 68 41 69 47 70 49 71 46 72 42 73 43 74 44 75
REMARK SMILES IDX 45 76 71 77 72 78 80 79 73 80 79 81 81 82 78 83 74 84 75 85
REMARK SMILES IDX 76 86 77 87 56 88 57 89 65 90 58 91 64 92 66 93 63 94 59 95
REMARK SMILES IDX 60 96 61 97 62 98
REMARK H PARENT 7 18 86 51 54 62
REMARK Flexibility Score: inf
ROOT
ATOM      1  C   UNL     1      -4.836  -7.650  11.556  1.00  0.00     0.126 C 
ATOM      2  C   UNL     1      -6.132  -8.253  12.096  1.00  0.00     0.025 C 
ENDROOT
BRANCH   1   3
ATOM      3  C   UNL     1      -4.872  -7.456  10.047  1.00  0.00    -0.034 A 
ATOM      4  C   UNL     1      -4.973  -7.027   7.235  1.00  0.00    -0.018 A 
ATOM      5  C   UNL     1      -5.169  -8.303   7.785  1.00  0.00     0.009 A 
ATOM      6  C   UNL     1      -4.711  -5.971   8.118  1.00  0.00     0.009 A 
ATOM      7  C   UNL     1      -5.123  -8.516   9.167  1.00  0.00     0.005 A 
ATOM      8  C   UNL     1      -4.667  -6.180   9.501  1.00  0.00     0.005 A 
BRANCH   4   9
ATOM      9  C   UNL     1      -5.074  -6.799   5.783  1.00  0.00    -0.015 A 
ATOM     10  C   UNL     1      -4.220  -5.888   3.702  1.00  0.00     0.133 A 
ATOM     11  C   UNL     1      -5.349  -6.324   3.012  1.00  0.00     0.047 A 
ATOM     12  C   UNL     1      -4.079  -6.105   5.074  1.00  0.00     0.056 A 
ATOM     13  C   UNL     1      -6.341  -7.015   3.699  1.00  0.00     0.004 A 
ATOM     14  C   UNL     1      -6.204  -7.248   5.070  1.00  0.00     0.009 A 
BRANCH  10  15
ATOM     15  O   UNL     1      -3.304  -5.105   2.982  1.00  0.00    -0.410 OA
BRANCH  15  16
ATOM     16  C   UNL     1      -1.974  -5.498   2.973  1.00  0.00     0.412 C 
ATOM     17  N   UNL     1      -1.166  -4.638   2.280  1.00  0.00    -0.321 N 
ATOM     18  H   UNL     1      -0.206  -4.858   2.256  1.00  0.00     0.167 HD
ATOM     19  O   UNL     1      -1.521  -6.516   3.482  1.00  0.00    -0.224 OA
BRANCH  17  20
ATOM     20  C   UNL     1      -1.573  -3.437   1.575  1.00  0.00     0.119 C 
BRANCH  20  21
ATOM     21  C   UNL     1      -0.922  -2.174   2.137  1.00  0.00     0.021 C 
BRANCH  21  22
ATOM     22  C   UNL     1       0.606  -2.123   2.021  1.00  0.00     0.002 C 
BRANCH  22  23
ATOM     23  C   UNL     1       1.174  -2.272   0.605  1.00  0.00    -0.000 C 
BRANCH  23  24
ATOM     24  C   UNL     1       0.683  -1.245  -0.418  1.00  0.00    -0.003 C 
ATOM     25  C   UNL     1       1.062   0.185  -0.068  1.00  0.00     0.004 C 
ENDBRANCH  23  24
ENDBRANCH  22  23
ENDBRANCH  21  22
ENDBRANCH  20  21
ENDBRANCH  17  20
ENDBRANCH  15  16
ENDBRANCH  10  15
ENDBRANCH   4   9
ENDBRANCH   1   3
BRANCH   1  26
ATOM     26  C   UNL     1      -3.643  -8.422  12.109  1.00  0.00     0.313 C 
ATOM     27  O   UNL     1      -3.237  -8.258  13.256  1.00  0.00    -0.252 OA
BRANCH  26  28
ATOM     28  O   UNL     1      -3.130  -9.338  11.246  1.00  0.00    -0.462 OA
BRANCH  28  29
ATOM     29  C   UNL     1      -1.977 -10.076  11.694  1.00  0.00     0.274 C 
BRANCH  29  30
ATOM     30  C   UNL     1      -0.685  -9.525  11.085  1.00  0.00     0.275 C 
BRANCH  30  31
ATOM     31  O   UNL     1      -0.377  -8.219  11.605  1.00  0.00    -0.458 OA
BRANCH  31  32
ATOM     32  C   UNL     1      -0.789  -7.193  10.824  1.00  0.00     0.338 C 
ATOM     33  O   UNL     1      -1.330  -7.269   9.736  1.00  0.00    -0.246 OA
BRANCH  32  34
ATOM     34  C   UNL     1      -0.603  -5.918  11.530  1.00  0.00     0.060 A 
ATOM     35  C   UNL     1      -1.745  -5.200  11.889  1.00  0.00     0.016 A 
ATOM     36  C   UNL     1       0.667  -5.374  11.725  1.00  0.00     0.016 A 
ATOM     37  C   UNL     1      -1.631  -3.915  12.408  1.00  0.00     0.010 A 
ATOM     38  C   UNL     1       0.783  -4.086  12.261  1.00  0.00     0.010 A 
ATOM     39  C   UNL     1      -0.366  -3.339  12.578  1.00  0.00    -0.014 A 
BRANCH  39  40
ATOM     40  C   UNL     1      -0.269  -1.917  12.994  1.00  0.00     0.031 A 
ATOM     41  C   UNL     1       0.093  -0.873  11.974  1.00  0.00     0.074 A 
ATOM     42  C   UNL     1      -0.557  -1.563  14.260  1.00  0.00     0.049 A 
ATOM     43  N   UNL     1       0.271   0.414  12.130  1.00  0.00    -0.248 NA
ATOM     44  C   UNL     1       0.281  -1.343  10.593  1.00  0.00     0.031 C 
ATOM     45  C   UNL     1      -0.971  -2.485  15.319  1.00  0.00     0.029 A 
ATOM     46  N   UNL     1      -0.552  -0.334  14.870  1.00  0.00    -0.354 N 
ATOM     47  C   UNL     1       0.611   0.906  10.874  1.00  0.00     0.074 A 
ATOM     48  C   UNL     1       0.636  -0.227   9.973  1.00  0.00     0.031 C 
ATOM     49  C   UNL     1      -1.183  -1.787  16.448  1.00  0.00     0.029 A 
ATOM     50  C   UNL     1      -0.877  -0.380  16.206  1.00  0.00     0.049 A 
ATOM     51  H   UNL     1      -0.337   0.501  14.396  1.00  0.00     0.167 HD
ATOM     52  C   UNL     1       0.875   2.185  10.508  1.00  0.00     0.034 A 
ATOM     53  C   UNL     1      -0.899   0.599  17.132  1.00  0.00     0.034 A 
ATOM     54  C   UNL     1       0.842   3.303  11.421  1.00  0.00     0.049 A 
ATOM     55  C   UNL     1      -0.548   2.005  16.712  1.00  0.00     0.074 A 
ATOM     56  C   UNL     1       1.092   4.640  11.161  1.00  0.00     0.029 A 
ATOM     57  N   UNL     1       0.544   3.215  12.776  1.00  0.00    -0.354 N 
ATOM     58  N   UNL     1      -0.210   2.453  15.524  1.00  0.00    -0.248 NA
ATOM     59  C   UNL     1      -0.586   3.036  17.757  1.00  0.00     0.031 C 
ATOM     60  C   UNL     1       1.000   5.348  12.365  1.00  0.00     0.029 A 
ATOM     61  C   UNL     1       0.628   4.467  13.367  1.00  0.00     0.049 A 
ATOM     62  H   UNL     1       0.307   2.384  13.248  1.00  0.00     0.167 HD
ATOM     63  C   UNL     1      -0.017   3.823  15.678  1.00  0.00     0.074 A 
ATOM     64  C   UNL     1      -0.297   4.128  17.066  1.00  0.00     0.031 C 
ATOM     65  C   UNL     1       0.359   4.748  14.758  1.00  0.00     0.034 A 
BRANCH  52  66
ATOM     66  C   UNL     1       1.286   2.425   9.075  1.00  0.00     0.023 A 
ATOM     67  C   UNL     1       0.403   2.220   7.999  1.00  0.00     0.031 A 
ATOM     68  C   UNL     1       2.599   2.835   8.781  1.00  0.00     0.131 A 
ATOM     69  C   UNL     1       0.862   2.368   6.679  1.00  0.00     0.055 A 
ATOM     70  C   UNL     1       3.028   3.050   7.470  1.00  0.00     0.041 A 
ATOM     71  F   UNL     1       3.493   3.022   9.766  1.00  0.00    -0.206 F 
ATOM     72  C   UNL     1       2.162   2.804   6.410  1.00  0.00     0.022 A 
BRANCH  69  73
ATOM     73  S   UNL     1      -0.226   1.871   5.313  1.00  0.00     0.124 S 
ATOM     74  O   UNL     1      -0.423   0.451   5.590  1.00  0.00    -0.237 OA
ATOM     75  O   UNL     1      -1.390   2.728   5.507  1.00  0.00    -0.237 OA
ATOM     76  O   UNL     1       0.567   2.159   4.119  1.00  0.00    -0.744 OA
ENDBRANCH  69  73
ENDBRANCH  52  66
BRANCH  53  77
ATOM     77  C   UNL     1      -1.212   0.288  18.556  1.00  0.00     0.023 A 
ATOM     78  C   UNL     1      -2.339   0.832  19.191  1.00  0.00     0.031 A 
ATOM     79  C   UNL     1      -0.345  -0.512  19.323  1.00  0.00     0.131 A 
ATOM     80  C   UNL     1      -2.545   0.610  20.562  1.00  0.00     0.055 A 
ATOM     81  C   UNL     1      -0.583  -0.773  20.673  1.00  0.00     0.041 A 
ATOM     82  F   UNL     1       0.749  -1.056  18.766  1.00  0.00    -0.206 F 
ATOM     83  C   UNL     1      -1.681  -0.199  21.304  1.00  0.00     0.022 A 
BRANCH  80  84
ATOM     84  S   UNL     1      -3.911   1.474  21.387  1.00  0.00     0.124 S 
ATOM     85  O   UNL     1      -3.612   2.868  21.080  1.00  0.00    -0.237 OA
ATOM     86  O   UNL     1      -5.076   0.905  20.719  1.00  0.00    -0.237 OA
ATOM     87  O   UNL     1      -3.753   1.097  22.791  1.00  0.00    -0.744 OA
ENDBRANCH  80  84
ENDBRANCH  53  77
BRANCH  65  88
ATOM     88  C   UNL     1       0.446   6.178  15.231  1.00  0.00     0.023 A 
ATOM     89  C   UNL     1       1.429   6.594  16.146  1.00  0.00     0.031 A 
ATOM     90  C   UNL     1      -0.488   7.128  14.782  1.00  0.00     0.131 A 
ATOM     91  C   UNL     1       1.419   7.910  16.630  1.00  0.00     0.055 A 
ATOM     92  C   UNL     1      -0.458   8.451  15.225  1.00  0.00     0.041 A 
ATOM     93  F   UNL     1      -1.448   6.784  13.909  1.00  0.00    -0.206 F 
ATOM     94  C   UNL     1       0.490   8.845  16.165  1.00  0.00     0.022 A 
BRANCH  91  95
ATOM     95  S   UNL     1       2.581   8.363  17.948  1.00  0.00     0.124 S 
ATOM     96  O   UNL     1       2.237   7.408  18.997  1.00  0.00    -0.237 OA
ATOM     97  O   UNL     1       3.875   8.165  17.305  1.00  0.00    -0.237 OA
ATOM     98  O   UNL     1       2.242   9.754  18.242  1.00  0.00    -0.744 OA
ENDBRANCH  91  95
ENDBRANCH  65  88
ENDBRANCH  39  40
ENDBRANCH  32  34
ENDBRANCH  31  32
ENDBRANCH  30  31
ENDBRANCH  29  30
ENDBRANCH  28  29
ENDBRANCH  26  28
ENDBRANCH   1  26
TORSDOF 23
