REMARK SMILES COc1ccc(C(=O)OCCOC(=O)c2ccc(-c3c4nc(c(-c5cc(S(=O)(=O)[O-])ccc5F)c5ccc([nH]5)c(-c5cc(S(=O)(=O)[O-])ccc5F)c5nc(c(-c6cc(S(=O)(=O)[O-])ccc6F)c6ccc3[nH]6)C=C5)C=C4)cc2)cc1NC(=O)c1cc([N+](=O)[O-])ccc1Cl
REMARK SMILES IDX 10 1 9 2 7 3 8 4 6 5 3 6 4 7 79 8 5 9 78 10 2 11 1 12 80 13
REMARK SMILES IDX 81 14 82 16 83 17 84 18 91 19 85 20 90 21 92 22 89 23 86 24
REMARK SMILES IDX 87 25 88 26 11 27 12 28 13 29 14 30 15 31 16 32 77 33 17 34
REMARK SMILES IDX 76 35 18 36 19 37 20 38 70 39 21 40 75 41 69 42 71 43 22 44
REMARK SMILES IDX 74 45 68 46 67 47 23 49 55 50 35 51 54 52 36 53 39 54 53 55
REMARK SMILES IDX 72 56 37 57 38 58 52 60 73 61 40 62 24 63 25 64 33 65 26 66
REMARK SMILES IDX 32 67 34 68 31 69 27 70 28 71 29 72 30 73 56 74 57 75 65 76
REMARK SMILES IDX 58 77 64 78 66 79 63 80 59 81 60 82 61 83 62 84 41 85 42 86
REMARK SMILES IDX 50 87 43 88 49 89 51 90 48 91 44 92 45 93 46 94 47 95
REMARK H PARENT 80 15 71 48 39 59
REMARK Flexibility Score: inf
ROOT
ATOM      1  C   UNL     1       3.232   0.375   8.036  1.00  0.00     0.275 C 
ENDROOT
BRANCH   1   2
ATOM      2  O   UNL     1       2.957   0.669   6.651  1.00  0.00    -0.458 OA
BRANCH   2   3
ATOM      3  C   UNL     1       1.778   0.207   6.157  1.00  0.00     0.338 C 
ATOM      4  O   UNL     1       0.964  -0.467   6.760  1.00  0.00    -0.246 OA
BRANCH   3   5
ATOM      5  C   UNL     1       1.585   0.625   4.739  1.00  0.00     0.062 A 
ATOM      6  C   UNL     1       1.266   0.978   2.001  1.00  0.00     0.142 A 
ATOM      7  C   UNL     1       0.139   0.939   2.821  1.00  0.00     0.049 A 
ATOM      8  C   UNL     1       2.553   0.842   2.542  1.00  0.00     0.084 A 
ATOM      9  C   UNL     1       0.301   0.665   4.178  1.00  0.00     0.019 A 
ATOM     10  C   UNL     1       2.696   0.831   3.924  1.00  0.00     0.045 A 
BRANCH   6  11
ATOM     11  O   UNL     1       1.107   1.140   0.649  1.00  0.00    -0.495 OA
ATOM     12  C   UNL     1       0.771  -0.094   0.013  1.00  0.00     0.278 C 
ENDBRANCH   6  11
BRANCH   8  13
ATOM     13  N   UNL     1       3.612   0.577   1.649  1.00  0.00    -0.319 N 
ATOM     14  C   UNL     1       4.823  -0.059   1.823  1.00  0.00     0.257 C 
ATOM     15  H   UNL     1       3.459   0.906   0.734  1.00  0.00     0.170 HD
ATOM     16  O   UNL     1       5.563  -0.276   0.864  1.00  0.00    -0.269 OA
BRANCH  14  17
ATOM     17  C   UNL     1       5.316  -0.461   3.152  1.00  0.00     0.065 A 
ATOM     18  C   UNL     1       6.402   0.280   3.643  1.00  0.00     0.101 A 
ATOM     19  C   UNL     1       4.740  -1.476   3.931  1.00  0.00     0.054 A 
ATOM     20  C   UNL     1       6.851   0.058   4.948  1.00  0.00     0.270 A 
ATOM     21  C   UNL     1       5.173  -1.660   5.251  1.00  0.00     0.028 A 
ATOM     22  Cl  UNL     1       3.471  -2.491   3.350  1.00  0.00    -0.083 Cl
ATOM     23  C   UNL     1       6.220  -0.888   5.767  1.00  0.00     0.087 A 
BRANCH  20  24
ATOM     24  N   UNL     1       7.991   0.826   5.463  1.00  0.00     0.062 N 
ATOM     25  O   UNL     1       8.641   1.500   4.654  1.00  0.00    -0.258 OA
ATOM     26  O   UNL     1       8.243   0.736   6.673  1.00  0.00    -0.258 OA
ENDBRANCH  20  24
ENDBRANCH  14  17
ENDBRANCH   8  13
ENDBRANCH   3   5
ENDBRANCH   2   3
ENDBRANCH   1   2
BRANCH   1  27
ATOM     27  C   UNL     1       3.122   1.630   8.903  1.00  0.00     0.275 C 
BRANCH  27  28
ATOM     28  O   UNL     1       1.757   2.074   8.977  1.00  0.00    -0.458 OA
BRANCH  28  29
ATOM     29  C   UNL     1       1.427   3.026   8.074  1.00  0.00     0.338 C 
ATOM     30  O   UNL     1       2.172   3.584   7.284  1.00  0.00    -0.246 OA
BRANCH  29  31
ATOM     31  C   UNL     1      -0.029   3.192   8.047  1.00  0.00     0.060 A 
ATOM     32  C   UNL     1      -0.738   2.408   7.144  1.00  0.00     0.016 A 
ATOM     33  C   UNL     1      -0.676   4.190   8.764  1.00  0.00     0.016 A 
ATOM     34  C   UNL     1      -2.070   2.664   6.869  1.00  0.00     0.010 A 
ATOM     35  C   UNL     1      -2.048   4.390   8.557  1.00  0.00     0.010 A 
ATOM     36  C   UNL     1      -2.750   3.650   7.583  1.00  0.00    -0.014 A 
BRANCH  36  37
ATOM     37  C   UNL     1      -4.172   3.939   7.258  1.00  0.00     0.031 A 
ATOM     38  C   UNL     1      -4.560   5.317   6.799  1.00  0.00     0.074 A 
ATOM     39  C   UNL     1      -5.100   2.963   7.339  1.00  0.00     0.049 A 
ATOM     40  N   UNL     1      -5.750   5.838   6.656  1.00  0.00    -0.248 NA
ATOM     41  C   UNL     1      -3.459   6.239   6.479  1.00  0.00     0.031 C 
ATOM     42  C   UNL     1      -4.834   1.565   7.691  1.00  0.00     0.029 A 
ATOM     43  N   UNL     1      -6.456   2.994   7.130  1.00  0.00    -0.354 N 
ATOM     44  C   UNL     1      -5.543   7.164   6.292  1.00  0.00     0.074 A 
ATOM     45  C   UNL     1      -4.111   7.369   6.247  1.00  0.00     0.031 C 
ATOM     46  C   UNL     1      -5.981   0.872   7.649  1.00  0.00     0.029 A 
ATOM     47  C   UNL     1      -7.078   1.792   7.381  1.00  0.00     0.049 A 
ATOM     48  H   UNL     1      -6.938   3.798   6.830  1.00  0.00     0.167 HD
ATOM     49  C   UNL     1      -6.469   8.119   6.030  1.00  0.00     0.034 A 
ATOM     50  C   UNL     1      -8.387   1.477   7.456  1.00  0.00     0.034 A 
ATOM     51  C   UNL     1      -7.891   7.869   6.044  1.00  0.00     0.049 A 
ATOM     52  C   UNL     1      -9.398   2.571   7.228  1.00  0.00     0.074 A 
ATOM     53  C   UNL     1      -8.923   8.750   5.771  1.00  0.00     0.029 A 
ATOM     54  N   UNL     1      -8.483   6.648   6.346  1.00  0.00    -0.354 N 
ATOM     55  N   UNL     1      -9.194   3.836   6.938  1.00  0.00    -0.248 NA
ATOM     56  C   UNL     1     -10.812   2.199   7.346  1.00  0.00     0.031 C 
ATOM     57  C   UNL     1     -10.134   8.085   5.987  1.00  0.00     0.029 A 
ATOM     58  C   UNL     1      -9.864   6.763   6.301  1.00  0.00     0.049 A 
ATOM     59  H   UNL     1      -7.993   5.821   6.560  1.00  0.00     0.167 HD
ATOM     60  C   UNL     1     -10.458   4.404   6.812  1.00  0.00     0.074 A 
ATOM     61  C   UNL     1     -11.413   3.338   7.038  1.00  0.00     0.031 C 
ATOM     62  C   UNL     1     -10.800   5.688   6.536  1.00  0.00     0.034 A 
BRANCH  49  63
ATOM     63  C   UNL     1      -5.979   9.527   5.785  1.00  0.00     0.023 A 
ATOM     64  C   UNL     1      -5.170   9.865   4.687  1.00  0.00     0.031 A 
ATOM     65  C   UNL     1      -6.316  10.550   6.691  1.00  0.00     0.131 A 
ATOM     66  C   UNL     1      -4.671  11.172   4.562  1.00  0.00     0.055 A 
ATOM     67  C   UNL     1      -5.887  11.866   6.515  1.00  0.00     0.041 A 
ATOM     68  F   UNL     1      -7.064  10.284   7.775  1.00  0.00    -0.206 F 
ATOM     69  C   UNL     1      -5.046  12.181   5.452  1.00  0.00     0.022 A 
BRANCH  66  70
ATOM     70  S   UNL     1      -3.409  11.503   3.302  1.00  0.00     0.124 S 
ATOM     71  O   UNL     1      -2.356  10.567   3.687  1.00  0.00    -0.237 OA
ATOM     72  O   UNL     1      -4.113  11.197   2.062  1.00  0.00    -0.237 OA
ATOM     73  O   UNL     1      -3.083  12.914   3.504  1.00  0.00    -0.744 OA
ENDBRANCH  66  70
ENDBRANCH  49  63
BRANCH  50  74
ATOM     74  C   UNL     1      -8.816   0.100   7.840  1.00  0.00     0.023 A 
ATOM     75  C   UNL     1      -9.601  -0.683   6.980  1.00  0.00     0.031 A 
ATOM     76  C   UNL     1      -8.488  -0.437   9.100  1.00  0.00     0.131 A 
ATOM     77  C   UNL     1     -10.070  -1.936   7.407  1.00  0.00     0.055 A 
ATOM     78  C   UNL     1      -8.899  -1.712   9.492  1.00  0.00     0.041 A 
ATOM     79  F   UNL     1      -7.747   0.268   9.969  1.00  0.00    -0.206 F 
ATOM     80  C   UNL     1      -9.708  -2.464   8.649  1.00  0.00     0.022 A 
BRANCH  77  81
ATOM     81  S   UNL     1     -11.252  -2.822   6.356  1.00  0.00     0.124 S 
ATOM     82  O   UNL     1     -12.322  -1.840   6.221  1.00  0.00    -0.237 OA
ATOM     83  O   UNL     1     -10.460  -3.078   5.158  1.00  0.00    -0.237 OA
ATOM     84  O   UNL     1     -11.587  -4.006   7.144  1.00  0.00    -0.744 OA
ENDBRANCH  77  81
ENDBRANCH  50  74
BRANCH  62  85
ATOM     85  C   UNL     1     -12.273   5.987   6.405  1.00  0.00     0.023 A 
ATOM     86  C   UNL     1     -13.150   5.891   7.499  1.00  0.00     0.031 A 
ATOM     87  C   UNL     1     -12.807   6.359   5.158  1.00  0.00     0.131 A 
ATOM     88  C   UNL     1     -14.524   6.100   7.311  1.00  0.00     0.055 A 
ATOM     89  C   UNL     1     -14.164   6.636   4.993  1.00  0.00     0.041 A 
ATOM     90  F   UNL     1     -12.016   6.460   4.078  1.00  0.00    -0.206 F 
ATOM     91  C   UNL     1     -15.034   6.493   6.070  1.00  0.00     0.022 A 
BRANCH  88  92
ATOM     92  S   UNL     1     -15.653   5.747   8.685  1.00  0.00     0.124 S 
ATOM     93  O   UNL     1     -15.367   4.342   8.958  1.00  0.00    -0.237 OA
ATOM     94  O   UNL     1     -15.214   6.696   9.703  1.00  0.00    -0.237 OA
ATOM     95  O   UNL     1     -16.975   6.012   8.120  1.00  0.00    -0.744 OA
ENDBRANCH  88  92
ENDBRANCH  62  85
ENDBRANCH  36  37
ENDBRANCH  29  31
ENDBRANCH  28  29
ENDBRANCH  27  28
ENDBRANCH   1  27
TORSDOF 18
