REMARK SMILES C[C@@H](CCCO)[NH2+][C@@H](C)CC(=O)OCCOC(=O)c1ccc(-c2c3nc(c(-c4cc(S(=O)(=O)[O-])ccc4F)c4ccc([nH]4)c(-c4cc(S(=O)(=O)[O-])ccc4F)c4nc(c(-c5cc(S(=O)(=O)[O-])ccc5F)c5ccc2[nH]5)C=C4)C=C3)cc1
REMARK SMILES IDX 11 1 12 2 10 3 8 4 9 5 7 6 2 9 1 10 3 11 4 12 5 13 6 14
REMARK SMILES IDX 13 16 14 17 15 18 16 19 17 20 18 21 19 22 20 23 81 24 21 25
REMARK SMILES IDX 80 26 22 27 23 28 24 29 74 30 25 31 79 32 73 33 75 34 26 35
REMARK SMILES IDX 78 36 72 37 71 38 27 40 59 41 39 42 58 43 40 44 43 45 57 46
REMARK SMILES IDX 76 47 41 48 42 49 56 51 77 52 44 53 28 54 29 55 37 56 30 57
REMARK SMILES IDX 36 58 38 59 35 60 31 61 32 62 33 63 34 64 60 65 61 66 69 67
REMARK SMILES IDX 62 68 68 69 70 70 67 71 63 72 64 73 65 74 66 75 45 76 46 77
REMARK SMILES IDX 54 78 47 79 53 80 55 81 52 82 48 83 49 84 50 85 51 86
REMARK H PARENT 7 7 7 8 6 15 75 39 43 50
REMARK Flexibility Score: inf
ROOT
ATOM      1  C   UNL     1      -3.865   0.097   1.912  1.00  0.00     0.311 C 
ATOM      2  O   UNL     1      -5.042   0.027   2.241  1.00  0.00    -0.252 OA
ENDROOT
BRANCH   1   3
ATOM      3  C   UNL     1      -3.086   1.392   1.940  1.00  0.00     0.187 C 
BRANCH   3   4
ATOM      4  C   UNL     1      -1.587   1.228   2.272  1.00  0.00     0.190 C 
ATOM      5  C   UNL     1      -1.118   2.384   3.167  1.00  0.00     0.076 C 
BRANCH   4   6
ATOM      6  N   UNL     1      -0.871   1.133   0.981  1.00  0.00    -0.341 N 
ATOM      7  H   UNL     1      -1.205   0.299   0.498  1.00  0.00     0.346 HD
ATOM      8  H   UNL     1      -1.070   2.002   0.486  1.00  0.00     0.346 HD
BRANCH   6   9
ATOM      9  C   UNL     1       0.593   1.047   1.075  1.00  0.00     0.179 C 
ATOM     10  C   UNL     1       1.105  -0.009   0.087  1.00  0.00     0.075 C 
BRANCH   9  11
ATOM     11  C   UNL     1       1.248   2.417   0.801  1.00  0.00     0.067 C 
BRANCH  11  12
ATOM     12  C   UNL     1       1.099   3.016  -0.609  1.00  0.00     0.034 C 
BRANCH  12  13
ATOM     13  C   UNL     1      -0.319   3.223  -1.131  1.00  0.00     0.156 C 
BRANCH  13  14
ATOM     14  O   UNL     1      -1.123   3.907  -0.186  1.00  0.00    -0.396 OA
ATOM     15  H   UNL     1      -1.180   3.383   0.628  1.00  0.00     0.210 HD
ENDBRANCH  13  14
ENDBRANCH  12  13
ENDBRANCH  11  12
ENDBRANCH   9  11
ENDBRANCH   6   9
ENDBRANCH   4   6
ENDBRANCH   3   4
ENDBRANCH   1   3
BRANCH   1  16
ATOM     16  O   UNL     1      -3.132  -0.945   1.433  1.00  0.00    -0.462 OA
BRANCH  16  17
ATOM     17  C   UNL     1      -3.793  -2.225   1.429  1.00  0.00     0.274 C 
BRANCH  17  18
ATOM     18  C   UNL     1      -3.381  -3.066   2.639  1.00  0.00     0.275 C 
BRANCH  18  19
ATOM     19  O   UNL     1      -3.804  -2.449   3.869  1.00  0.00    -0.458 OA
BRANCH  19  20
ATOM     20  C   UNL     1      -2.818  -1.873   4.596  1.00  0.00     0.338 C 
ATOM     21  O   UNL     1      -1.624  -1.871   4.348  1.00  0.00    -0.246 OA
BRANCH  20  22
ATOM     22  C   UNL     1      -3.406  -1.095   5.697  1.00  0.00     0.060 A 
ATOM     23  C   UNL     1      -3.451   0.292   5.559  1.00  0.00     0.016 A 
ATOM     24  C   UNL     1      -3.808  -1.699   6.888  1.00  0.00     0.016 A 
ATOM     25  C   UNL     1      -3.873   1.093   6.614  1.00  0.00     0.010 A 
ATOM     26  C   UNL     1      -4.250  -0.894   7.947  1.00  0.00     0.010 A 
ATOM     27  C   UNL     1      -4.266   0.508   7.822  1.00  0.00    -0.014 A 
BRANCH  27  28
ATOM     28  C   UNL     1      -4.618   1.387   8.965  1.00  0.00     0.031 A 
ATOM     29  C   UNL     1      -3.652   1.554  10.104  1.00  0.00     0.074 A 
ATOM     30  C   UNL     1      -5.770   2.082   8.946  1.00  0.00     0.049 A 
ATOM     31  N   UNL     1      -3.772   2.261  11.198  1.00  0.00    -0.248 NA
ATOM     32  C   UNL     1      -2.382   0.820   9.996  1.00  0.00     0.031 C 
ATOM     33  C   UNL     1      -6.764   2.036   7.872  1.00  0.00     0.029 A 
ATOM     34  N   UNL     1      -6.295   2.971   9.849  1.00  0.00    -0.354 N 
ATOM     35  C   UNL     1      -2.600   2.051  11.918  1.00  0.00     0.074 A 
ATOM     36  C   UNL     1      -1.798   1.123  11.146  1.00  0.00     0.031 C 
ATOM     37  C   UNL     1      -7.774   2.868   8.174  1.00  0.00     0.029 A 
ATOM     38  C   UNL     1      -7.519   3.475   9.478  1.00  0.00     0.049 A 
ATOM     39  H   UNL     1      -5.839   3.223  10.684  1.00  0.00     0.167 HD
ATOM     40  C   UNL     1      -2.228   2.586  13.108  1.00  0.00     0.034 A 
ATOM     41  C   UNL     1      -8.348   4.319  10.123  1.00  0.00     0.034 A 
ATOM     42  C   UNL     1      -3.041   3.507  13.867  1.00  0.00     0.049 A 
ATOM     43  C   UNL     1      -7.931   4.867  11.463  1.00  0.00     0.074 A 
ATOM     44  C   UNL     1      -2.769   4.097  15.090  1.00  0.00     0.029 A 
ATOM     45  N   UNL     1      -4.290   3.974  13.474  1.00  0.00    -0.354 N 
ATOM     46  N   UNL     1      -6.833   4.638  12.146  1.00  0.00    -0.248 NA
ATOM     47  C   UNL     1      -8.863   5.797  12.113  1.00  0.00     0.031 C 
ATOM     48  C   UNL     1      -3.873   4.876  15.460  1.00  0.00     0.029 A 
ATOM     49  C   UNL     1      -4.807   4.827  14.438  1.00  0.00     0.049 A 
ATOM     50  H   UNL     1      -4.742   3.734  12.633  1.00  0.00     0.167 HD
ATOM     51  C   UNL     1      -6.935   5.411  13.299  1.00  0.00     0.074 A 
ATOM     52  C   UNL     1      -8.191   6.129  13.205  1.00  0.00     0.031 C 
ATOM     53  C   UNL     1      -6.071   5.520  14.340  1.00  0.00     0.034 A 
BRANCH  40  54
ATOM     54  C   UNL     1      -0.906   2.131  13.680  1.00  0.00     0.023 A 
ATOM     55  C   UNL     1       0.316   2.422  13.048  1.00  0.00     0.031 A 
ATOM     56  C   UNL     1      -0.873   1.349  14.848  1.00  0.00     0.131 A 
ATOM     57  C   UNL     1       1.509   1.874  13.544  1.00  0.00     0.055 A 
ATOM     58  C   UNL     1       0.326   0.870  15.381  1.00  0.00     0.041 A 
ATOM     59  F   UNL     1      -2.009   1.019  15.482  1.00  0.00    -0.206 F 
ATOM     60  C   UNL     1       1.525   1.119  14.719  1.00  0.00     0.022 A 
BRANCH  57  61
ATOM     61  S   UNL     1       3.019   2.038  12.553  1.00  0.00     0.124 S 
ATOM     62  O   UNL     1       2.622   1.399  11.300  1.00  0.00    -0.237 OA
ATOM     63  O   UNL     1       3.208   3.483  12.502  1.00  0.00    -0.237 OA
ATOM     64  O   UNL     1       4.019   1.305  13.327  1.00  0.00    -0.744 OA
ENDBRANCH  57  61
ENDBRANCH  40  54
BRANCH  41  65
ATOM     65  C   UNL     1      -9.670   4.671   9.535  1.00  0.00     0.023 A 
ATOM     66  C   UNL     1      -9.961   5.983   9.130  1.00  0.00     0.031 A 
ATOM     67  C   UNL     1     -10.680   3.701   9.409  1.00  0.00     0.131 A 
ATOM     68  C   UNL     1     -11.244   6.299   8.655  1.00  0.00     0.055 A 
ATOM     69  C   UNL     1     -11.939   4.010   8.892  1.00  0.00     0.041 A 
ATOM     70  F   UNL     1     -10.451   2.431   9.780  1.00  0.00    -0.206 F 
ATOM     71  C   UNL     1     -12.230   5.319   8.523  1.00  0.00     0.022 A 
BRANCH  68  72
ATOM     72  S   UNL     1     -11.629   8.031   8.278  1.00  0.00     0.124 S 
ATOM     73  O   UNL     1     -11.386   8.677   9.562  1.00  0.00    -0.237 OA
ATOM     74  O   UNL     1     -10.673   8.330   7.218  1.00  0.00    -0.237 OA
ATOM     75  O   UNL     1     -13.028   7.984   7.857  1.00  0.00    -0.744 OA
ENDBRANCH  68  72
ENDBRANCH  41  65
BRANCH  53  76
ATOM     76  C   UNL     1      -6.454   6.482  15.438  1.00  0.00     0.023 A 
ATOM     77  C   UNL     1      -7.559   6.245  16.274  1.00  0.00     0.031 A 
ATOM     78  C   UNL     1      -5.729   7.673  15.619  1.00  0.00     0.131 A 
ATOM     79  C   UNL     1      -7.949   7.216  17.209  1.00  0.00     0.055 A 
ATOM     80  C   UNL     1      -6.088   8.610  16.589  1.00  0.00     0.041 A 
ATOM     81  F   UNL     1      -4.665   7.949  14.848  1.00  0.00    -0.206 F 
ATOM     82  C   UNL     1      -7.213   8.392  17.379  1.00  0.00     0.022 A 
BRANCH  79  83
ATOM     83  S   UNL     1      -9.498   6.975  18.122  1.00  0.00     0.124 S 
ATOM     84  O   UNL     1     -10.462   6.780  17.043  1.00  0.00    -0.237 OA
ATOM     85  O   UNL     1      -9.201   5.798  18.931  1.00  0.00    -0.237 OA
ATOM     86  O   UNL     1      -9.652   8.220  18.872  1.00  0.00    -0.744 OA
ENDBRANCH  79  83
ENDBRANCH  53  76
ENDBRANCH  27  28
ENDBRANCH  20  22
ENDBRANCH  19  20
ENDBRANCH  18  19
ENDBRANCH  17  18
ENDBRANCH  16  17
ENDBRANCH   1  16
TORSDOF 21
