REMARK SMILES CC(C)c1ccc(O[C@H](C)C(=O)Nc2ccccc2C(=O)OCCOC(=O)c2ccc(-c3c4nc(c(-c5cc(S(=O)(=O)[O-])ccc5F)c5ccc([nH]5)c(-c5cc(S(=O)(=O)[O-])ccc5F)c5nc(c(-c6cc(S(=O)(=O)[O-])ccc6F)c6ccc3[nH]6)C=C5)C=C4)cc2)cc1
REMARK SMILES IDX 23 1 22 2 20 3 21 4 19 5 14 6 15 7 16 8 18 9 17 10 13 11
REMARK SMILES IDX 11 12 12 13 9 15 10 16 8 17 7 18 4 19 5 20 92 21 6 22 91 23
REMARK SMILES IDX 2 24 1 25 3 26 24 27 25 28 26 29 27 30 28 31 29 32 90 33
REMARK SMILES IDX 30 34 89 35 31 36 32 37 33 38 83 39 34 40 88 41 82 42 84 43
REMARK SMILES IDX 35 44 87 45 81 46 80 47 36 49 68 50 48 51 67 52 49 53 52 54
REMARK SMILES IDX 66 55 85 56 50 57 51 58 65 60 86 61 53 62 37 63 38 64 46 65
REMARK SMILES IDX 39 66 45 67 47 68 44 69 40 70 41 71 42 72 43 73 69 74 70 75
REMARK SMILES IDX 78 76 71 77 77 78 79 79 76 80 72 81 73 82 74 83 75 84 54 85
REMARK SMILES IDX 55 86 63 87 56 88 62 89 64 90 61 91 57 92 58 93 59 94 60 95
REMARK H PARENT 13 14 84 48 52 59
REMARK Flexibility Score: inf
ROOT
ATOM      1  C   UNL     1      -5.500   1.811   3.311  1.00  0.00     0.275 C 
ENDROOT
BRANCH   1   2
ATOM      2  O   UNL     1      -4.386   0.964   2.958  1.00  0.00    -0.458 OA
BRANCH   2   3
ATOM      3  C   UNL     1      -4.040   1.054   1.656  1.00  0.00     0.340 C 
ATOM      4  O   UNL     1      -4.472   1.893   0.876  1.00  0.00    -0.246 OA
BRANCH   3   5
ATOM      5  C   UNL     1      -3.127   0.001   1.205  1.00  0.00     0.083 A 
ATOM      6  C   UNL     1      -3.508  -1.349   1.185  1.00  0.00     0.055 A 
ATOM      7  C   UNL     1      -2.583  -2.309   0.757  1.00  0.00     0.027 A 
ATOM      8  C   UNL     1      -1.344  -1.918   0.237  1.00  0.00     0.002 A 
ATOM      9  C   UNL     1      -1.870   0.383   0.713  1.00  0.00     0.018 A 
ATOM     10  C   UNL     1      -0.991  -0.572   0.205  1.00  0.00     0.001 A 
BRANCH   6  11
ATOM     11  N   UNL     1      -4.776  -1.808   1.590  1.00  0.00    -0.322 N 
ATOM     12  C   UNL     1      -6.018  -1.343   1.223  1.00  0.00     0.265 C 
ATOM     13  O   UNL     1      -6.954  -1.522   2.013  1.00  0.00    -0.270 OA
ATOM     14  H   UNL     1      -4.773  -2.564   2.220  1.00  0.00     0.170 HD
BRANCH  12  15
ATOM     15  C   UNL     1      -6.281  -0.802  -0.221  1.00  0.00     0.259 C 
ATOM     16  C   UNL     1      -7.132   0.469  -0.174  1.00  0.00     0.064 C 
BRANCH  15  17
ATOM     17  O   UNL     1      -5.097  -0.801  -1.011  1.00  0.00    -0.481 OA
BRANCH  17  18
ATOM     18  C   UNL     1      -5.053  -0.116  -2.184  1.00  0.00     0.120 A 
ATOM     19  C   UNL     1      -4.348   1.222  -4.578  1.00  0.00    -0.045 A 
ATOM     20  C   UNL     1      -4.417   1.902  -3.356  1.00  0.00     0.008 A 
ATOM     21  C   UNL     1      -4.646  -0.152  -4.570  1.00  0.00     0.008 A 
ATOM     22  C   UNL     1      -4.773   1.242  -2.183  1.00  0.00     0.047 A 
ATOM     23  C   UNL     1      -4.984  -0.819  -3.380  1.00  0.00     0.047 A 
BRANCH  19  24
ATOM     24  C   UNL     1      -3.860   1.980  -5.810  1.00  0.00     0.013 C 
ATOM     25  C   UNL     1      -3.964   1.204  -7.128  1.00  0.00     0.012 C 
ATOM     26  C   UNL     1      -4.572   3.332  -5.979  1.00  0.00     0.012 C 
ENDBRANCH  19  24
ENDBRANCH  17  18
ENDBRANCH  15  17
ENDBRANCH  12  15
ENDBRANCH   6  11
ENDBRANCH   3   5
ENDBRANCH   2   3
ENDBRANCH   1   2
BRANCH   1  27
ATOM     27  C   UNL     1      -5.142   3.265   3.659  1.00  0.00     0.275 C 
BRANCH  27  28
ATOM     28  O   UNL     1      -4.576   4.012   2.565  1.00  0.00    -0.458 OA
BRANCH  28  29
ATOM     29  C   UNL     1      -3.223   4.055   2.560  1.00  0.00     0.338 C 
ATOM     30  O   UNL     1      -2.477   3.556   3.387  1.00  0.00    -0.246 OA
BRANCH  29  31
ATOM     31  C   UNL     1      -2.699   4.783   1.391  1.00  0.00     0.060 A 
ATOM     32  C   UNL     1      -2.422   4.080   0.216  1.00  0.00     0.016 A 
ATOM     33  C   UNL     1      -2.233   6.086   1.548  1.00  0.00     0.016 A 
ATOM     34  C   UNL     1      -1.587   4.622  -0.754  1.00  0.00     0.010 A 
ATOM     35  C   UNL     1      -1.454   6.660   0.539  1.00  0.00     0.010 A 
ATOM     36  C   UNL     1      -1.080   5.912  -0.595  1.00  0.00    -0.014 A 
BRANCH  36  37
ATOM     37  C   UNL     1      -0.066   6.449  -1.536  1.00  0.00     0.031 A 
ATOM     38  C   UNL     1       1.301   6.788  -1.008  1.00  0.00     0.074 A 
ATOM     39  C   UNL     1      -0.353   6.629  -2.839  1.00  0.00     0.049 A 
ATOM     40  N   UNL     1       2.232   7.541  -1.528  1.00  0.00    -0.248 NA
ATOM     41  C   UNL     1       1.652   6.209   0.299  1.00  0.00     0.031 C 
ATOM     42  C   UNL     1      -1.595   6.225  -3.499  1.00  0.00     0.029 A 
ATOM     43  N   UNL     1       0.377   7.222  -3.837  1.00  0.00    -0.354 N 
ATOM     44  C   UNL     1       3.254   7.584  -0.584  1.00  0.00     0.074 A 
ATOM     45  C   UNL     1       2.825   6.777   0.539  1.00  0.00     0.031 C 
ATOM     46  C   UNL     1      -1.545   6.591  -4.789  1.00  0.00     0.029 A 
ATOM     47  C   UNL     1      -0.319   7.347  -5.018  1.00  0.00     0.049 A 
ATOM     48  H   UNL     1       1.306   7.528  -3.721  1.00  0.00     0.167 HD
ATOM     49  C   UNL     1       4.431   8.254  -0.652  1.00  0.00     0.034 A 
ATOM     50  C   UNL     1      -0.035   8.058  -6.127  1.00  0.00     0.034 A 
ATOM     51  C   UNL     1       4.832   9.025  -1.805  1.00  0.00     0.049 A 
ATOM     52  C   UNL     1       1.235   8.870  -6.155  1.00  0.00     0.074 A 
ATOM     53  C   UNL     1       5.987   9.763  -1.996  1.00  0.00     0.029 A 
ATOM     54  N   UNL     1       4.085   9.148  -2.972  1.00  0.00    -0.354 N 
ATOM     55  N   UNL     1       2.153   8.998  -5.224  1.00  0.00    -0.248 NA
ATOM     56  C   UNL     1       1.502   9.641  -7.375  1.00  0.00     0.031 C 
ATOM     57  C   UNL     1       5.909  10.380  -3.250  1.00  0.00     0.029 A 
ATOM     58  C   UNL     1       4.745   9.964  -3.877  1.00  0.00     0.049 A 
ATOM     59  H   UNL     1       3.215   8.718  -3.132  1.00  0.00     0.167 HD
ATOM     60  C   UNL     1       3.123   9.839  -5.761  1.00  0.00     0.074 A 
ATOM     61  C   UNL     1       2.679  10.184  -7.097  1.00  0.00     0.031 C 
ATOM     62  C   UNL     1       4.280  10.283  -5.206  1.00  0.00     0.034 A 
BRANCH  49  63
ATOM     63  C   UNL     1       5.313   8.248   0.575  1.00  0.00     0.023 A 
ATOM     64  C   UNL     1       5.888   7.070   1.082  1.00  0.00     0.031 A 
ATOM     65  C   UNL     1       5.543   9.445   1.278  1.00  0.00     0.131 A 
ATOM     66  C   UNL     1       6.598   7.102   2.293  1.00  0.00     0.055 A 
ATOM     67  C   UNL     1       6.320   9.484   2.438  1.00  0.00     0.041 A 
ATOM     68  F   UNL     1       5.000  10.599   0.860  1.00  0.00    -0.206 F 
ATOM     69  C   UNL     1       6.839   8.305   2.962  1.00  0.00     0.022 A 
BRANCH  66  70
ATOM     70  S   UNL     1       7.075   5.530   3.063  1.00  0.00     0.124 S 
ATOM     71  O   UNL     1       5.778   4.878   3.231  1.00  0.00    -0.237 OA
ATOM     72  O   UNL     1       7.959   4.944   2.062  1.00  0.00    -0.237 OA
ATOM     73  O   UNL     1       7.725   5.939   4.307  1.00  0.00    -0.744 OA
ENDBRANCH  66  70
ENDBRANCH  49  63
BRANCH  50  74
ATOM     74  C   UNL     1      -1.006   8.105  -7.258  1.00  0.00     0.023 A 
ATOM     75  C   UNL     1      -0.666   7.610  -8.525  1.00  0.00     0.031 A 
ATOM     76  C   UNL     1      -2.283   8.675  -7.095  1.00  0.00     0.131 A 
ATOM     77  C   UNL     1      -1.577   7.724  -9.588  1.00  0.00     0.055 A 
ATOM     78  C   UNL     1      -3.206   8.734  -8.140  1.00  0.00     0.041 A 
ATOM     79  F   UNL     1      -2.661   9.168  -5.904  1.00  0.00    -0.206 F 
ATOM     80  C   UNL     1      -2.850   8.267  -9.400  1.00  0.00     0.022 A 
BRANCH  77  81
ATOM     81  S   UNL     1      -1.040   7.224 -11.246  1.00  0.00     0.124 S 
ATOM     82  O   UNL     1       0.130   8.070 -11.447  1.00  0.00    -0.237 OA
ATOM     83  O   UNL     1      -0.780   5.800 -11.062  1.00  0.00    -0.237 OA
ATOM     84  O   UNL     1      -2.193   7.541 -12.087  1.00  0.00    -0.744 OA
ENDBRANCH  77  81
ENDBRANCH  50  74
BRANCH  62  85
ATOM     85  C   UNL     1       5.178  11.123  -6.078  1.00  0.00     0.023 A 
ATOM     86  C   UNL     1       4.836  12.432  -6.458  1.00  0.00     0.031 A 
ATOM     87  C   UNL     1       6.405  10.599  -6.523  1.00  0.00     0.131 A 
ATOM     88  C   UNL     1       5.695  13.158  -7.297  1.00  0.00     0.055 A 
ATOM     89  C   UNL     1       7.280  11.346  -7.311  1.00  0.00     0.041 A 
ATOM     90  F   UNL     1       6.777   9.353  -6.188  1.00  0.00    -0.206 F 
ATOM     91  C   UNL     1       6.922  12.630  -7.711  1.00  0.00     0.022 A 
BRANCH  88  92
ATOM     92  S   UNL     1       5.157  14.781  -7.901  1.00  0.00     0.124 S 
ATOM     93  O   UNL     1       3.942  14.444  -8.635  1.00  0.00    -0.237 OA
ATOM     94  O   UNL     1       4.968  15.530  -6.663  1.00  0.00    -0.237 OA
ATOM     95  O   UNL     1       6.277  15.227  -8.729  1.00  0.00    -0.744 OA
ENDBRANCH  88  92
ENDBRANCH  62  85
ENDBRANCH  36  37
ENDBRANCH  29  31
ENDBRANCH  28  29
ENDBRANCH  27  28
ENDBRANCH   1  27
TORSDOF 19
