REMARK SMILES O=C(OCCOC(=O)[C@H]1CCCN(c2cc(-c3ccccn3)nc(-c3ccccc3F)n2)C1)c1ccc(-c2c3nc(c(-c4cc(S(=O)(=O)[O-])ccc4F)c4ccc([nH]4)c(-c4cc(S(=O)(=O)[O-])ccc4F)c4nc(c(-c5cc(S(=O)(=O)[O-])ccc5F)c5ccc2[nH]5)C=C4)C=C3)cc1
REMARK SMILES IDX 4 1 3 2 2 3 1 4 34 5 35 6 96 7 36 8 95 9 37 10 38 11 39 12
REMARK SMILES IDX 89 13 40 14 94 15 88 16 90 17 41 18 93 19 87 20 86 21 42 23
REMARK SMILES IDX 74 24 54 25 73 26 55 27 58 28 72 29 91 30 56 31 57 32 71 34
REMARK SMILES IDX 92 35 59 36 43 37 44 38 52 39 45 40 51 41 53 42 50 43 46 44
REMARK SMILES IDX 47 45 48 46 49 47 75 48 76 49 84 50 77 51 83 52 85 53 82 54
REMARK SMILES IDX 78 55 79 56 80 57 81 58 60 59 61 60 69 61 62 62 68 63 70 64
REMARK SMILES IDX 67 65 63 66 64 67 65 68 66 69 5 70 6 71 7 72 8 73 9 74 10 75
REMARK SMILES IDX 33 76 11 77 13 78 12 79 14 80 15 81 32 82 16 83 24 84 23 85
REMARK SMILES IDX 17 86 18 87 22 88 19 89 21 90 20 91 25 92 26 93 30 94 27 95
REMARK SMILES IDX 29 96 31 97 28 98
REMARK H PARENT 90 22 58 33
REMARK Flexibility Score: inf
ROOT
ATOM      1  C   UNL     1       1.634   1.038   3.390  1.00  0.00     0.275 C 
ENDROOT
BRANCH   1   2
ATOM      2  O   UNL     1       2.005  -0.045   2.523  1.00  0.00    -0.458 OA
BRANCH   2   3
ATOM      3  C   UNL     1       1.629  -0.339   1.257  1.00  0.00     0.338 C 
ATOM      4  O   UNL     1       2.059  -1.374   0.748  1.00  0.00    -0.246 OA
BRANCH   3   5
ATOM      5  C   UNL     1       0.777   0.551   0.399  1.00  0.00     0.060 A 
ATOM      6  C   UNL     1      -0.090   1.550   0.852  1.00  0.00     0.016 A 
ATOM      7  C   UNL     1       0.865   0.348  -0.992  1.00  0.00     0.016 A 
ATOM      8  C   UNL     1      -0.781   2.377  -0.039  1.00  0.00     0.010 A 
ATOM      9  C   UNL     1       0.155   1.153  -1.891  1.00  0.00     0.010 A 
ATOM     10  C   UNL     1      -0.663   2.185  -1.414  1.00  0.00    -0.014 A 
BRANCH  10  11
ATOM     11  C   UNL     1      -1.553   2.933  -2.326  1.00  0.00     0.031 A 
ATOM     12  C   UNL     1      -2.786   2.227  -2.797  1.00  0.00     0.074 A 
ATOM     13  C   UNL     1      -1.321   4.219  -2.653  1.00  0.00     0.049 A 
ATOM     14  N   UNL     1      -3.732   2.662  -3.579  1.00  0.00    -0.248 NA
ATOM     15  C   UNL     1      -2.994   0.858  -2.290  1.00  0.00     0.031 C 
ATOM     16  C   UNL     1      -0.220   5.030  -2.141  1.00  0.00     0.029 A 
ATOM     17  N   UNL     1      -1.993   5.077  -3.487  1.00  0.00    -0.354 N 
ATOM     18  C   UNL     1      -4.669   1.640  -3.622  1.00  0.00     0.074 A 
ATOM     19  C   UNL     1      -4.149   0.537  -2.849  1.00  0.00     0.031 C 
ATOM     20  C   UNL     1      -0.260   6.249  -2.705  1.00  0.00     0.029 A 
ATOM     21  C   UNL     1      -1.386   6.306  -3.627  1.00  0.00     0.049 A 
ATOM     22  H   UNL     1      -2.831   4.836  -3.943  1.00  0.00     0.167 HD
ATOM     23  C   UNL     1      -5.878   1.643  -4.224  1.00  0.00     0.034 A 
ATOM     24  C   UNL     1      -1.700   7.352  -4.419  1.00  0.00     0.034 A 
ATOM     25  C   UNL     1      -6.364   2.742  -5.008  1.00  0.00     0.049 A 
ATOM     26  C   UNL     1      -2.962   7.258  -5.235  1.00  0.00     0.074 A 
ATOM     27  C   UNL     1      -7.554   2.841  -5.700  1.00  0.00     0.029 A 
ATOM     28  N   UNL     1      -5.674   3.930  -5.211  1.00  0.00    -0.354 N 
ATOM     29  N   UNL     1      -3.834   6.276  -5.279  1.00  0.00    -0.248 NA
ATOM     30  C   UNL     1      -3.304   8.408  -6.081  1.00  0.00     0.031 C 
ATOM     31  C   UNL     1      -7.556   4.064  -6.376  1.00  0.00     0.029 A 
ATOM     32  C   UNL     1      -6.399   4.757  -6.048  1.00  0.00     0.049 A 
ATOM     33  H   UNL     1      -4.798   4.149  -4.819  1.00  0.00     0.167 HD
ATOM     34  C   UNL     1      -4.852   6.709  -6.120  1.00  0.00     0.074 A 
ATOM     35  C   UNL     1      -4.480   8.036  -6.571  1.00  0.00     0.031 C 
ATOM     36  C   UNL     1      -5.997   6.076  -6.474  1.00  0.00     0.034 A 
BRANCH  23  37
ATOM     37  C   UNL     1      -6.716   0.409  -4.071  1.00  0.00     0.023 A 
ATOM     38  C   UNL     1      -7.296   0.075  -2.835  1.00  0.00     0.031 A 
ATOM     39  C   UNL     1      -6.905  -0.459  -5.157  1.00  0.00     0.131 A 
ATOM     40  C   UNL     1      -8.008  -1.125  -2.704  1.00  0.00     0.055 A 
ATOM     41  C   UNL     1      -7.664  -1.623  -5.036  1.00  0.00     0.041 A 
ATOM     42  F   UNL     1      -6.340  -0.197  -6.346  1.00  0.00    -0.206 F 
ATOM     43  C   UNL     1      -8.216  -1.964  -3.803  1.00  0.00     0.022 A 
BRANCH  40  44
ATOM     44  S   UNL     1      -8.598  -1.614  -1.062  1.00  0.00     0.124 S 
ATOM     45  O   UNL     1      -7.342  -1.907  -0.374  1.00  0.00    -0.237 OA
ATOM     46  O   UNL     1      -9.309  -0.424  -0.609  1.00  0.00    -0.237 OA
ATOM     47  O   UNL     1      -9.440  -2.777  -1.334  1.00  0.00    -0.744 OA
ENDBRANCH  40  44
ENDBRANCH  23  37
BRANCH  24  48
ATOM     48  C   UNL     1      -0.810   8.548  -4.502  1.00  0.00     0.023 A 
ATOM     49  C   UNL     1      -1.226   9.810  -4.048  1.00  0.00     0.031 A 
ATOM     50  C   UNL     1       0.471   8.447  -5.077  1.00  0.00     0.131 A 
ATOM     51  C   UNL     1      -0.383  10.925  -4.206  1.00  0.00     0.055 A 
ATOM     52  C   UNL     1       1.316   9.552  -5.206  1.00  0.00     0.041 A 
ATOM     53  F   UNL     1       0.924   7.263  -5.520  1.00  0.00    -0.206 F 
ATOM     54  C   UNL     1       0.886  10.803  -4.777  1.00  0.00     0.022 A 
BRANCH  51  55
ATOM     55  S   UNL     1      -0.987  12.557  -3.689  1.00  0.00     0.124 S 
ATOM     56  O   UNL     1      -2.162  12.723  -4.536  1.00  0.00    -0.237 OA
ATOM     57  O   UNL     1      -1.242  12.346  -2.268  1.00  0.00    -0.237 OA
ATOM     58  O   UNL     1       0.133  13.446  -3.991  1.00  0.00    -0.744 OA
ENDBRANCH  51  55
ENDBRANCH  24  48
BRANCH  36  59
ATOM     59  C   UNL     1      -6.952   6.820  -7.363  1.00  0.00     0.023 A 
ATOM     60  C   UNL     1      -6.668   7.030  -8.720  1.00  0.00     0.031 A 
ATOM     61  C   UNL     1      -8.192   7.249  -6.859  1.00  0.00     0.131 A 
ATOM     62  C   UNL     1      -7.612   7.674  -9.530  1.00  0.00     0.055 A 
ATOM     63  C   UNL     1      -9.148   7.842  -7.682  1.00  0.00     0.041 A 
ATOM     64  F   UNL     1      -8.505   7.063  -5.566  1.00  0.00    -0.206 F 
ATOM     65  C   UNL     1      -8.858   8.060  -9.026  1.00  0.00     0.022 A 
BRANCH  62  66
ATOM     66  S   UNL     1      -7.178   8.022 -11.254  1.00  0.00     0.124 S 
ATOM     67  O   UNL     1      -6.082   8.975 -11.101  1.00  0.00    -0.237 OA
ATOM     68  O   UNL     1      -6.808   6.704 -11.759  1.00  0.00    -0.237 OA
ATOM     69  O   UNL     1      -8.410   8.576 -11.812  1.00  0.00    -0.744 OA
ENDBRANCH  62  66
ENDBRANCH  36  59
ENDBRANCH  10  11
ENDBRANCH   3   5
ENDBRANCH   2   3
ENDBRANCH   1   2
BRANCH   1  70
ATOM     70  C   UNL     1       2.368   2.355   3.143  1.00  0.00     0.274 C 
BRANCH  70  71
ATOM     71  O   UNL     1       2.377   2.812   1.783  1.00  0.00    -0.462 OA
BRANCH  71  72
ATOM     72  C   UNL     1       3.460   2.433   1.050  1.00  0.00     0.310 C 
ATOM     73  O   UNL     1       4.233   1.537   1.378  1.00  0.00    -0.252 OA
BRANCH  72  74
ATOM     74  C   UNL     1       3.680   3.296  -0.165  1.00  0.00     0.118 C 
ATOM     75  C   UNL     1       3.068   2.859  -1.484  1.00  0.00     0.019 C 
ATOM     76  C   UNL     1       3.216   4.720   0.099  1.00  0.00     0.133 C 
ATOM     77  C   UNL     1       3.550   3.766  -2.630  1.00  0.00     0.022 C 
ATOM     78  N   UNL     1       3.756   5.590  -0.935  1.00  0.00    -0.356 N 
ATOM     79  C   UNL     1       3.491   5.273  -2.333  1.00  0.00     0.118 C 
BRANCH  78  80
ATOM     80  C   UNL     1       4.981   6.127  -0.564  1.00  0.00     0.133 A 
ATOM     81  C   UNL     1       5.029   7.473  -0.333  1.00  0.00     0.077 A 
ATOM     82  N   UNL     1       5.949   5.304  -0.135  1.00  0.00    -0.211 NA
ATOM     83  C   UNL     1       6.056   7.927   0.470  1.00  0.00     0.095 A 
ATOM     84  C   UNL     1       6.927   5.826   0.622  1.00  0.00     0.165 A 
ATOM     85  N   UNL     1       7.017   7.116   0.970  1.00  0.00    -0.226 NA
BRANCH  83  86
ATOM     86  C   UNL     1       6.050   9.332   0.876  1.00  0.00     0.089 A 
ATOM     87  C   UNL     1       5.004   9.844   1.651  1.00  0.00     0.030 A 
ATOM     88  N   UNL     1       6.989  10.125   0.301  1.00  0.00    -0.255 NA
ATOM     89  C   UNL     1       4.892  11.220   1.806  1.00  0.00     0.004 A 
ATOM     90  C   UNL     1       6.853  11.456   0.472  1.00  0.00     0.112 A 
ATOM     91  C   UNL     1       5.828  12.044   1.195  1.00  0.00     0.020 A 
ENDBRANCH  83  86
BRANCH  84  92
ATOM     92  C   UNL     1       7.930   4.880   1.110  1.00  0.00     0.055 A 
ATOM     93  C   UNL     1       8.556   3.979   0.226  1.00  0.00     0.015 A 
ATOM     94  C   UNL     1       8.280   4.802   2.462  1.00  0.00     0.134 A 
ATOM     95  C   UNL     1       9.526   3.075   0.673  1.00  0.00     0.001 A 
ATOM     96  C   UNL     1       9.242   3.897   2.918  1.00  0.00     0.040 A 
ATOM     97  F   UNL     1       7.665   5.570   3.375  1.00  0.00    -0.206 F 
ATOM     98  C   UNL     1       9.876   3.041   2.020  1.00  0.00     0.003 A 
ENDBRANCH  84  92
ENDBRANCH  78  80
ENDBRANCH  72  74
ENDBRANCH  71  72
ENDBRANCH  70  71
ENDBRANCH   1  70
TORSDOF 17
