REMARK SMILES C[C@H](CSc1ccc(C(=O)N(C)C)cn1)C(=O)OCCOC(=O)c1ccc(-c2c3nc(c(-c4cc(S(=O)(=O)[O-])ccc4F)c4ccc([nH]4)c(-c4cc(S(=O)(=O)[O-])ccc4F)c4nc(c(-c5cc(S(=O)(=O)[O-])ccc5F)c5ccc2[nH]5)C=C4)C=C3)cc1
REMARK SMILES IDX 19 1 18 2 16 3 17 4 2 5 1 6 3 7 4 8 5 9 6 10 15 11 7 12
REMARK SMILES IDX 14 13 8 14 9 15 10 16 11 17 12 18 13 19 20 20 21 21 22 22
REMARK SMILES IDX 23 23 24 24 25 25 86 26 26 27 85 28 27 29 28 30 29 31 79 32
REMARK SMILES IDX 30 33 84 34 78 35 80 36 31 37 83 38 77 39 76 40 32 42 64 43
REMARK SMILES IDX 44 44 63 45 45 46 48 47 62 48 81 49 46 50 47 51 61 53 82 54
REMARK SMILES IDX 49 55 33 56 34 57 42 58 35 59 41 60 43 61 40 62 36 63 37 64
REMARK SMILES IDX 38 65 39 66 65 67 66 68 74 69 67 70 73 71 75 72 72 73 68 74
REMARK SMILES IDX 69 75 70 76 71 77 50 78 51 79 59 80 52 81 58 82 60 83 57 84
REMARK SMILES IDX 53 85 54 86 55 87 56 88
REMARK H PARENT 80 41 48 52
REMARK Flexibility Score: inf
ROOT
ATOM      1  C   UNL     1      -2.890   1.077  -0.528  1.00  0.00     0.274 C 
ENDROOT
BRANCH   1   2
ATOM      2  O   UNL     1      -1.459   0.931  -0.621  1.00  0.00    -0.462 OA
BRANCH   2   3
ATOM      3  C   UNL     1      -0.706   1.915  -0.063  1.00  0.00     0.309 C 
ATOM      4  O   UNL     1      -1.175   2.927   0.447  1.00  0.00    -0.252 OA
BRANCH   3   5
ATOM      5  C   UNL     1       0.785   1.590  -0.011  1.00  0.00     0.106 C 
ATOM      6  C   UNL     1       1.626   2.821  -0.341  1.00  0.00     0.021 C 
BRANCH   5   7
ATOM      7  C   UNL     1       1.223   0.269  -0.666  1.00  0.00     0.091 C 
BRANCH   7   8
ATOM      8  S   UNL     1       1.920   0.306  -2.354  1.00  0.00    -0.106 SA
BRANCH   8   9
ATOM      9  C   UNL     1       0.474   0.782  -3.254  1.00  0.00     0.096 A 
ATOM     10  C   UNL     1      -0.314  -0.165  -3.894  1.00  0.00     0.036 A 
ATOM     11  N   UNL     1       0.209   2.104  -3.296  1.00  0.00    -0.249 NA
ATOM     12  C   UNL     1      -1.430   0.266  -4.616  1.00  0.00     0.018 A 
ATOM     13  C   UNL     1      -0.874   2.499  -4.001  1.00  0.00     0.126 A 
ATOM     14  C   UNL     1      -1.700   1.631  -4.701  1.00  0.00     0.058 A 
BRANCH  14  15
ATOM     15  C   UNL     1      -2.845   2.220  -5.424  1.00  0.00     0.254 C 
ATOM     16  O   UNL     1      -3.429   3.151  -4.867  1.00  0.00    -0.269 OA
ATOM     17  N   UNL     1      -3.216   1.763  -6.689  1.00  0.00    -0.345 N 
ATOM     18  C   UNL     1      -2.492   0.802  -7.507  1.00  0.00     0.146 C 
ATOM     19  C   UNL     1      -4.350   2.416  -7.322  1.00  0.00     0.146 C 
ENDBRANCH  14  15
ENDBRANCH   8   9
ENDBRANCH   7   8
ENDBRANCH   5   7
ENDBRANCH   3   5
ENDBRANCH   2   3
ENDBRANCH   1   2
BRANCH   1  20
ATOM     20  C   UNL     1      -3.494  -0.018   0.357  1.00  0.00     0.275 C 
BRANCH  20  21
ATOM     21  O   UNL     1      -3.087   0.116   1.733  1.00  0.00    -0.458 OA
BRANCH  21  22
ATOM     22  C   UNL     1      -1.968  -0.567   2.065  1.00  0.00     0.338 C 
ATOM     23  O   UNL     1      -1.296  -1.280   1.332  1.00  0.00    -0.246 OA
BRANCH  22  24
ATOM     24  C   UNL     1      -1.562  -0.239   3.439  1.00  0.00     0.060 A 
ATOM     25  C   UNL     1      -0.385   0.488   3.607  1.00  0.00     0.016 A 
ATOM     26  C   UNL     1      -2.251  -0.731   4.548  1.00  0.00     0.016 A 
ATOM     27  C   UNL     1       0.137   0.704   4.875  1.00  0.00     0.010 A 
ATOM     28  C   UNL     1      -1.737  -0.493   5.831  1.00  0.00     0.010 A 
ATOM     29  C   UNL     1      -0.530   0.210   6.000  1.00  0.00    -0.014 A 
BRANCH  29  30
ATOM     30  C   UNL     1       0.082   0.395   7.339  1.00  0.00     0.031 A 
ATOM     31  C   UNL     1       0.677  -0.782   8.059  1.00  0.00     0.074 A 
ATOM     32  C   UNL     1       0.150   1.628   7.877  1.00  0.00     0.049 A 
ATOM     33  N   UNL     1       1.186  -0.847   9.261  1.00  0.00    -0.248 NA
ATOM     34  C   UNL     1       0.696  -2.056   7.326  1.00  0.00     0.031 C 
ATOM     35  C   UNL     1      -0.339   2.853   7.240  1.00  0.00     0.029 A 
ATOM     36  N   UNL     1       0.661   2.056   9.075  1.00  0.00    -0.354 N 
ATOM     37  C   UNL     1       1.563  -2.173   9.443  1.00  0.00     0.074 A 
ATOM     38  C   UNL     1       1.206  -2.880   8.230  1.00  0.00     0.031 C 
ATOM     39  C   UNL     1      -0.099   3.894   8.052  1.00  0.00     0.029 A 
ATOM     40  C   UNL     1       0.504   3.406   9.288  1.00  0.00     0.049 A 
ATOM     41  H   UNL     1       1.098   1.456   9.721  1.00  0.00     0.167 HD
ATOM     42  C   UNL     1       2.150  -2.744  10.525  1.00  0.00     0.034 A 
ATOM     43  C   UNL     1       0.780   4.158  10.372  1.00  0.00     0.034 A 
ATOM     44  C   UNL     1       2.509  -2.017  11.719  1.00  0.00     0.049 A 
ATOM     45  C   UNL     1       1.381   3.492  11.582  1.00  0.00     0.074 A 
ATOM     46  C   UNL     1       3.110  -2.492  12.873  1.00  0.00     0.029 A 
ATOM     47  N   UNL     1       2.298  -0.657  11.916  1.00  0.00    -0.354 N 
ATOM     48  N   UNL     1       1.694   2.229  11.757  1.00  0.00    -0.248 NA
ATOM     49  C   UNL     1       1.663   4.351  12.738  1.00  0.00     0.031 C 
ATOM     50  C   UNL     1       3.209  -1.435  13.785  1.00  0.00     0.029 A 
ATOM     51  C   UNL     1       2.732  -0.283  13.179  1.00  0.00     0.049 A 
ATOM     52  H   UNL     1       1.899  -0.047  11.254  1.00  0.00     0.167 HD
ATOM     53  C   UNL     1       2.224   2.145  13.041  1.00  0.00     0.074 A 
ATOM     54  C   UNL     1       2.204   3.489  13.586  1.00  0.00     0.031 C 
ATOM     55  C   UNL     1       2.685   1.058  13.711  1.00  0.00     0.034 A 
BRANCH  42  56
ATOM     56  C   UNL     1       2.373  -4.236  10.483  1.00  0.00     0.023 A 
ATOM     57  C   UNL     1       3.271  -4.832   9.581  1.00  0.00     0.031 A 
ATOM     58  C   UNL     1       1.643  -5.079  11.341  1.00  0.00     0.131 A 
ATOM     59  C   UNL     1       3.366  -6.232   9.512  1.00  0.00     0.055 A 
ATOM     60  C   UNL     1       1.795  -6.466  11.316  1.00  0.00     0.041 A 
ATOM     61  F   UNL     1       0.754  -4.567  12.207  1.00  0.00    -0.206 F 
ATOM     62  C   UNL     1       2.651  -7.051  10.389  1.00  0.00     0.022 A 
BRANCH  59  63
ATOM     63  S   UNL     1       4.337  -6.973   8.170  1.00  0.00     0.124 S 
ATOM     64  O   UNL     1       3.660  -6.444   6.988  1.00  0.00    -0.237 OA
ATOM     65  O   UNL     1       5.676  -6.455   8.426  1.00  0.00    -0.237 OA
ATOM     66  O   UNL     1       4.173  -8.410   8.381  1.00  0.00    -0.744 OA
ENDBRANCH  59  63
ENDBRANCH  42  56
BRANCH  43  67
ATOM     67  C   UNL     1       0.431   5.606  10.387  1.00  0.00     0.023 A 
ATOM     68  C   UNL     1       1.422   6.596  10.467  1.00  0.00     0.031 A 
ATOM     69  C   UNL     1      -0.914   6.018  10.352  1.00  0.00     0.131 A 
ATOM     70  C   UNL     1       1.052   7.949  10.543  1.00  0.00     0.055 A 
ATOM     71  C   UNL     1      -1.275   7.365  10.378  1.00  0.00     0.041 A 
ATOM     72  F   UNL     1      -1.900   5.110  10.277  1.00  0.00    -0.206 F 
ATOM     73  C   UNL     1      -0.288   8.340  10.485  1.00  0.00     0.022 A 
BRANCH  70  74
ATOM     74  S   UNL     1       2.349   9.193  10.788  1.00  0.00     0.124 S 
ATOM     75  O   UNL     1       2.954   8.751  12.039  1.00  0.00    -0.237 OA
ATOM     76  O   UNL     1       3.161   9.026   9.587  1.00  0.00    -0.237 OA
ATOM     77  O   UNL     1       1.605  10.449  10.864  1.00  0.00    -0.744 OA
ENDBRANCH  70  74
ENDBRANCH  43  67
BRANCH  55  78
ATOM     78  C   UNL     1       3.234   1.299  15.094  1.00  0.00     0.023 A 
ATOM     79  C   UNL     1       2.399   1.661  16.165  1.00  0.00     0.031 A 
ATOM     80  C   UNL     1       4.614   1.186  15.335  1.00  0.00     0.131 A 
ATOM     81  C   UNL     1       2.959   1.949  17.419  1.00  0.00     0.055 A 
ATOM     82  C   UNL     1       5.160   1.423  16.598  1.00  0.00     0.041 A 
ATOM     83  F   UNL     1       5.455   0.845  14.346  1.00  0.00    -0.206 F 
ATOM     84  C   UNL     1       4.332   1.819  17.645  1.00  0.00     0.022 A 
BRANCH  81  85
ATOM     85  S   UNL     1       1.878   2.578  18.733  1.00  0.00     0.124 S 
ATOM     86  O   UNL     1       1.338   3.791  18.128  1.00  0.00    -0.237 OA
ATOM     87  O   UNL     1       0.934   1.480  18.913  1.00  0.00    -0.237 OA
ATOM     88  O   UNL     1       2.792   2.799  19.853  1.00  0.00    -0.744 OA
ENDBRANCH  81  85
ENDBRANCH  55  78
ENDBRANCH  29  30
ENDBRANCH  22  24
ENDBRANCH  21  22
ENDBRANCH  20  21
ENDBRANCH   1  20
TORSDOF 18
