REMARK SMILES C[C@@H](c1ccccc1)[C@@H]1[NH2+][C@@H](C(=O)OCCOC(=O)c2ccc(-c3c4nc(c(-c5cc(S(=O)(=O)[O-])ccc5F)c5ccc([nH]5)c(-c5cc(S(=O)(=O)[O-])ccc5F)c5nc(c(-c6cc(S(=O)(=O)[O-])ccc6F)c6ccc3[nH]6)C=C5)C=C4)cc2)CS1
REMARK SMILES IDX 16 1 15 2 14 3 12 4 13 5 11 6 9 7 10 8 84 9 83 12 2 13 1 14
REMARK SMILES IDX 3 15 4 16 8 17 5 18 7 19 6 20 17 21 18 22 19 23 20 24 21 25
REMARK SMILES IDX 82 26 22 27 81 28 23 29 24 30 25 31 75 32 26 33 80 34 74 35
REMARK SMILES IDX 76 36 27 37 79 38 73 39 72 40 28 42 60 43 40 44 59 45 41 46
REMARK SMILES IDX 44 47 58 48 77 49 42 50 43 51 57 53 78 54 45 55 29 56 30 57
REMARK SMILES IDX 38 58 31 59 37 60 39 61 36 62 32 63 33 64 34 65 35 66 61 67
REMARK SMILES IDX 62 68 70 69 63 70 69 71 71 72 68 73 64 74 65 75 66 76 67 77
REMARK SMILES IDX 46 78 47 79 55 80 48 81 54 82 56 83 53 84 49 85 50 86 51 87
REMARK SMILES IDX 52 88
REMARK H PARENT 10 10 10 11 76 41 44 52
REMARK Flexibility Score: inf
ROOT
ATOM      1  C   UNL     1      -4.318  -3.833   5.120  1.00  0.00     0.275 C 
ENDROOT
BRANCH   1   2
ATOM      2  C   UNL     1      -4.704  -3.405   3.700  1.00  0.00     0.274 C 
BRANCH   2   3
ATOM      3  O   UNL     1      -3.526  -3.087   2.936  1.00  0.00    -0.458 OA
BRANCH   3   4
ATOM      4  C   UNL     1      -3.312  -1.766   2.683  1.00  0.00     0.365 C 
ATOM      5  O   UNL     1      -4.128  -0.872   2.880  1.00  0.00    -0.245 OA
BRANCH   4   6
ATOM      6  C   UNL     1      -1.875  -1.523   2.196  1.00  0.00     0.304 C 
ATOM      7  C   UNL     1      -1.040   0.320   0.838  1.00  0.00     0.249 C 
ATOM      8  N   UNL     1      -1.615  -0.053   2.136  1.00  0.00    -0.322 N 
ATOM      9  S   UNL     1      -1.621  -0.924  -0.352  1.00  0.00    -0.092 SA
ATOM     10  H   UNL     1      -2.493   0.448   2.270  1.00  0.00     0.348 HD
ATOM     11  H   UNL     1      -0.951   0.192   2.871  1.00  0.00     0.348 HD
ATOM     12  C   UNL     1      -1.596  -2.231   0.879  1.00  0.00     0.153 C 
BRANCH   7  13
ATOM     13  C   UNL     1       0.510   0.492   0.970  1.00  0.00     0.085 C 
ATOM     14  C   UNL     1       1.294   0.303  -0.338  1.00  0.00     0.020 C 
BRANCH  13  15
ATOM     15  C   UNL     1       0.871   1.857   1.563  1.00  0.00    -0.038 A 
ATOM     16  C   UNL     1       1.576   1.938   2.773  1.00  0.00     0.004 A 
ATOM     17  C   UNL     1       0.530   3.053   0.906  1.00  0.00     0.004 A 
ATOM     18  C   UNL     1       1.922   3.179   3.314  1.00  0.00     0.000 A 
ATOM     19  C   UNL     1       0.871   4.292   1.452  1.00  0.00     0.000 A 
ATOM     20  C   UNL     1       1.567   4.355   2.655  1.00  0.00     0.000 A 
ENDBRANCH  13  15
ENDBRANCH   7  13
ENDBRANCH   4   6
ENDBRANCH   3   4
ENDBRANCH   2   3
ENDBRANCH   1   2
BRANCH   1  21
ATOM     21  O   UNL     1      -3.767  -2.739   5.879  1.00  0.00    -0.458 OA
BRANCH  21  22
ATOM     22  C   UNL     1      -2.424  -2.582   5.771  1.00  0.00     0.338 C 
ATOM     23  O   UNL     1      -1.662  -3.272   5.115  1.00  0.00    -0.246 OA
BRANCH  22  24
ATOM     24  C   UNL     1      -2.001  -1.357   6.476  1.00  0.00     0.060 A 
ATOM     25  C   UNL     1      -1.200  -0.441   5.788  1.00  0.00     0.016 A 
ATOM     26  C   UNL     1      -2.327  -1.140   7.817  1.00  0.00     0.016 A 
ATOM     27  C   UNL     1      -0.718   0.694   6.434  1.00  0.00     0.010 A 
ATOM     28  C   UNL     1      -1.838  -0.002   8.468  1.00  0.00     0.010 A 
ATOM     29  C   UNL     1      -1.020   0.914   7.783  1.00  0.00    -0.014 A 
BRANCH  29  30
ATOM     30  C   UNL     1      -0.416   2.070   8.487  1.00  0.00     0.031 A 
ATOM     31  C   UNL     1       0.752   1.850   9.405  1.00  0.00     0.074 A 
ATOM     32  C   UNL     1      -0.891   3.310   8.275  1.00  0.00     0.049 A 
ATOM     33  N   UNL     1       1.407   2.712  10.138  1.00  0.00    -0.248 NA
ATOM     34  C   UNL     1       1.246   0.469   9.509  1.00  0.00     0.031 C 
ATOM     35  C   UNL     1      -1.982   3.648   7.362  1.00  0.00     0.029 A 
ATOM     36  N   UNL     1      -0.513   4.515   8.809  1.00  0.00    -0.354 N 
ATOM     37  C   UNL     1       2.389   1.981  10.798  1.00  0.00     0.074 A 
ATOM     38  C   UNL     1       2.214   0.598  10.403  1.00  0.00     0.031 C 
ATOM     39  C   UNL     1      -2.182   4.976   7.394  1.00  0.00     0.029 A 
ATOM     40  C   UNL     1      -1.265   5.575   8.361  1.00  0.00     0.049 A 
ATOM     41  H   UNL     1       0.226   4.612   9.452  1.00  0.00     0.167 HD
ATOM     42  C   UNL     1       3.350   2.426  11.647  1.00  0.00     0.034 A 
ATOM     43  C   UNL     1      -1.231   6.876   8.708  1.00  0.00     0.034 A 
ATOM     44  C   UNL     1       3.497   3.808  12.038  1.00  0.00     0.049 A 
ATOM     45  C   UNL     1      -0.224   7.330   9.735  1.00  0.00     0.074 A 
ATOM     46  C   UNL     1       4.438   4.373  12.882  1.00  0.00     0.029 A 
ATOM     47  N   UNL     1       2.669   4.845  11.623  1.00  0.00    -0.354 N 
ATOM     48  N   UNL     1       0.698   6.630  10.357  1.00  0.00    -0.248 NA
ATOM     49  C   UNL     1      -0.254   8.751  10.105  1.00  0.00     0.031 C 
ATOM     50  C   UNL     1       4.137   5.732  13.032  1.00  0.00     0.029 A 
ATOM     51  C   UNL     1       3.054   6.036  12.223  1.00  0.00     0.049 A 
ATOM     52  H   UNL     1       1.917   4.748  10.994  1.00  0.00     0.167 HD
ATOM     53  C   UNL     1       1.378   7.535  11.167  1.00  0.00     0.074 A 
ATOM     54  C   UNL     1       0.765   8.830  10.948  1.00  0.00     0.031 C 
ATOM     55  C   UNL     1       2.422   7.318  12.008  1.00  0.00     0.034 A 
BRANCH  42  56
ATOM     56  C   UNL     1       4.266   1.388  12.251  1.00  0.00     0.023 A 
ATOM     57  C   UNL     1       5.131   0.610  11.460  1.00  0.00     0.031 A 
ATOM     58  C   UNL     1       4.231   1.130  13.633  1.00  0.00     0.131 A 
ATOM     59  C   UNL     1       5.856  -0.442  12.042  1.00  0.00     0.055 A 
ATOM     60  C   UNL     1       5.019   0.137  14.219  1.00  0.00     0.041 A 
ATOM     61  F   UNL     1       3.409   1.824  14.437  1.00  0.00    -0.206 F 
ATOM     62  C   UNL     1       5.824  -0.668  13.419  1.00  0.00     0.022 A 
BRANCH  59  63
ATOM     63  S   UNL     1       6.707  -1.615  10.950  1.00  0.00     0.124 S 
ATOM     64  O   UNL     1       5.613  -2.074  10.097  1.00  0.00    -0.237 OA
ATOM     65  O   UNL     1       7.711  -0.775  10.307  1.00  0.00    -0.237 OA
ATOM     66  O   UNL     1       7.232  -2.622  11.871  1.00  0.00    -0.744 OA
ENDBRANCH  59  63
ENDBRANCH  42  56
BRANCH  43  67
ATOM     67  C   UNL     1      -2.196   7.842   8.111  1.00  0.00     0.023 A 
ATOM     68  C   UNL     1      -1.752   8.899   7.301  1.00  0.00     0.031 A 
ATOM     69  C   UNL     1      -3.573   7.748   8.380  1.00  0.00     0.131 A 
ATOM     70  C   UNL     1      -2.673   9.842   6.818  1.00  0.00     0.055 A 
ATOM     71  C   UNL     1      -4.490   8.660   7.858  1.00  0.00     0.041 A 
ATOM     72  F   UNL     1      -4.048   6.757   9.152  1.00  0.00    -0.206 F 
ATOM     73  C   UNL     1      -4.040   9.722   7.080  1.00  0.00     0.022 A 
BRANCH  70  74
ATOM     74  S   UNL     1      -2.047  11.274   5.898  1.00  0.00     0.124 S 
ATOM     75  O   UNL     1      -1.165  11.896   6.880  1.00  0.00    -0.237 OA
ATOM     76  O   UNL     1      -1.392  10.642   4.758  1.00  0.00    -0.237 OA
ATOM     77  O   UNL     1      -3.257  12.029   5.579  1.00  0.00    -0.744 OA
ENDBRANCH  70  74
ENDBRANCH  43  67
BRANCH  55  78
ATOM     78  C   UNL     1       2.990   8.525  12.715  1.00  0.00     0.023 A 
ATOM     79  C   UNL     1       2.261   9.225  13.692  1.00  0.00     0.031 A 
ATOM     80  C   UNL     1       4.274   8.994  12.386  1.00  0.00     0.131 A 
ATOM     81  C   UNL     1       2.798  10.388  14.265  1.00  0.00     0.055 A 
ATOM     82  C   UNL     1       4.827  10.118  13.001  1.00  0.00     0.041 A 
ATOM     83  F   UNL     1       5.014   8.366  11.457  1.00  0.00    -0.206 F 
ATOM     84  C   UNL     1       4.083  10.830  13.937  1.00  0.00     0.022 A 
BRANCH  81  85
ATOM     85  S   UNL     1       1.759  11.372  15.381  1.00  0.00     0.124 S 
ATOM     86  O   UNL     1       0.619  11.695  14.529  1.00  0.00    -0.237 OA
ATOM     87  O   UNL     1       1.496  10.436  16.470  1.00  0.00    -0.237 OA
ATOM     88  O   UNL     1       2.611  12.507  15.733  1.00  0.00    -0.744 OA
ENDBRANCH  81  85
ENDBRANCH  55  78
ENDBRANCH  29  30
ENDBRANCH  22  24
ENDBRANCH  21  22
ENDBRANCH   1  21
TORSDOF 16
