REMARK SMILES C#CC[N@H+](CC(=O)OCCOC(=O)c1ccc(-c2c3nc(c(-c4cc(S(=O)(=O)[O-])ccc4F)c4ccc([nH]4)c(-c4cc(S(=O)(=O)[O-])ccc4F)c4nc(c(-c5cc(S(=O)(=O)[O-])ccc5F)c5ccc2[nH]5)C=C4)C=C3)cc1)Cc1cccc2ccccc12
REMARK SMILES IDX 9 1 8 2 6 3 7 4 5 5 4 6 3 8 2 9 1 10 77 11 78 12 79 13 87 14
REMARK SMILES IDX 80 15 82 16 86 17 81 18 83 19 85 20 84 21 10 22 11 23 12 24
REMARK SMILES IDX 13 25 14 26 15 27 76 28 16 29 75 30 17 31 18 32 19 33 69 34
REMARK SMILES IDX 20 35 74 36 68 37 70 38 21 39 73 40 67 41 66 42 22 44 54 45
REMARK SMILES IDX 34 46 53 47 35 48 38 49 52 50 71 51 36 52 37 53 51 55 72 56
REMARK SMILES IDX 39 57 23 58 24 59 32 60 25 61 31 62 33 63 30 64 26 65 27 66
REMARK SMILES IDX 28 67 29 68 55 69 56 70 64 71 57 72 63 73 65 74 62 75 58 76
REMARK SMILES IDX 59 77 60 78 61 79 40 80 41 81 49 82 42 83 48 84 50 85 47 86
REMARK SMILES IDX 43 87 44 88 45 89 46 90
REMARK H PARENT 4 7 70 43 38 54
REMARK Flexibility Score: inf
ROOT
ATOM      1  C   UNL     1      -5.701  -1.849   1.607  1.00  0.00     0.274 C 
ENDROOT
BRANCH   1   2
ATOM      2  O   UNL     1      -4.548  -1.011   1.447  1.00  0.00    -0.458 OA
BRANCH   2   3
ATOM      3  C   UNL     1      -4.765   0.230   0.928  1.00  0.00     0.361 C 
ATOM      4  O   UNL     1      -5.815   0.595   0.410  1.00  0.00    -0.245 OA
BRANCH   3   5
ATOM      5  C   UNL     1      -3.581   1.171   1.155  1.00  0.00     0.387 C 
BRANCH   5   6
ATOM      6  N   UNL     1      -2.340   0.435   1.323  1.00  0.00    -0.312 N 
ATOM      7  H   UNL     1      -2.547  -0.443   1.799  1.00  0.00     0.349 HD
BRANCH   6   8
ATOM      8  C   UNL     1      -1.830  -0.067   0.074  1.00  0.00     0.354 C 
BRANCH   8   9
ATOM      9  C   UNL     1      -0.310  -0.067   0.074  1.00  0.00    -0.047 C 
ATOM     10  C   UNL     1       0.994  -0.067   0.074  1.00  0.00     0.010 C 
ENDBRANCH   8   9
ENDBRANCH   6   8
BRANCH   6  11
ATOM     11  C   UNL     1      -1.472   0.784   2.445  1.00  0.00     0.300 C 
BRANCH  11  12
ATOM     12  C   UNL     1      -1.544  -0.185   3.626  1.00  0.00     0.014 A 
ATOM     13  C   UNL     1      -1.730   0.397   4.894  1.00  0.00     0.010 A 
ATOM     14  C   UNL     1      -1.435  -1.614   3.535  1.00  0.00    -0.010 A 
ATOM     15  C   UNL     1      -1.938  -0.391   6.021  1.00  0.00     0.001 A 
ATOM     16  C   UNL     1      -1.758  -2.399   4.667  1.00  0.00    -0.018 A 
ATOM     17  C   UNL     1      -1.006  -2.338   2.401  1.00  0.00     0.009 A 
ATOM     18  C   UNL     1      -2.006  -1.775   5.895  1.00  0.00     0.009 A 
ATOM     19  C   UNL     1      -1.817  -3.804   4.571  1.00  0.00     0.009 A 
ATOM     20  C   UNL     1      -1.020  -3.732   2.319  1.00  0.00     0.001 A 
ATOM     21  C   UNL     1      -1.467  -4.468   3.398  1.00  0.00     0.001 A 
ENDBRANCH  11  12
ENDBRANCH   6  11
ENDBRANCH   5   6
ENDBRANCH   3   5
ENDBRANCH   2   3
ENDBRANCH   1   2
BRANCH   1  22
ATOM     22  C   UNL     1      -6.195  -1.756   3.046  1.00  0.00     0.275 C 
BRANCH  22  23
ATOM     23  O   UNL     1      -6.402  -0.369   3.387  1.00  0.00    -0.458 OA
BRANCH  23  24
ATOM     24  C   UNL     1      -5.548   0.093   4.332  1.00  0.00     0.338 C 
ATOM     25  O   UNL     1      -4.792  -0.584   5.003  1.00  0.00    -0.246 OA
BRANCH  24  26
ATOM     26  C   UNL     1      -5.640   1.552   4.526  1.00  0.00     0.060 A 
ATOM     27  C   UNL     1      -5.733   2.450   3.464  1.00  0.00     0.016 A 
ATOM     28  C   UNL     1      -5.512   2.030   5.833  1.00  0.00     0.016 A 
ATOM     29  C   UNL     1      -5.600   3.817   3.699  1.00  0.00     0.010 A 
ATOM     30  C   UNL     1      -5.534   3.401   6.083  1.00  0.00     0.010 A 
ATOM     31  C   UNL     1      -5.587   4.306   5.017  1.00  0.00    -0.014 A 
BRANCH  31  32
ATOM     32  C   UNL     1      -5.871   5.741   5.261  1.00  0.00     0.031 A 
ATOM     33  C   UNL     1      -4.903   6.643   5.966  1.00  0.00     0.074 A 
ATOM     34  C   UNL     1      -7.076   6.195   4.859  1.00  0.00     0.049 A 
ATOM     35  N   UNL     1      -5.060   7.891   6.328  1.00  0.00    -0.248 NA
ATOM     36  C   UNL     1      -3.598   6.072   6.327  1.00  0.00     0.031 C 
ATOM     37  C   UNL     1      -8.098   5.377   4.191  1.00  0.00     0.029 A 
ATOM     38  N   UNL     1      -7.649   7.434   4.931  1.00  0.00    -0.354 N 
ATOM     39  C   UNL     1      -3.889   8.253   6.983  1.00  0.00     0.074 A 
ATOM     40  C   UNL     1      -3.032   7.083   6.975  1.00  0.00     0.031 C 
ATOM     41  C   UNL     1      -9.136   6.149   3.856  1.00  0.00     0.029 A 
ATOM     42  C   UNL     1      -8.907   7.486   4.378  1.00  0.00     0.049 A 
ATOM     43  H   UNL     1      -7.204   8.213   5.337  1.00  0.00     0.167 HD
ATOM     44  C   UNL     1      -3.576   9.450   7.543  1.00  0.00     0.034 A 
ATOM     45  C   UNL     1      -9.806   8.484   4.332  1.00  0.00     0.034 A 
ATOM     46  C   UNL     1      -4.465  10.592   7.535  1.00  0.00     0.049 A 
ATOM     47  C   UNL     1      -9.434   9.789   4.963  1.00  0.00     0.074 A 
ATOM     48  C   UNL     1      -4.255  11.859   8.054  1.00  0.00     0.029 A 
ATOM     49  N   UNL     1      -5.744  10.603   6.984  1.00  0.00    -0.354 N 
ATOM     50  N   UNL     1      -8.326  10.111   5.589  1.00  0.00    -0.248 NA
ATOM     51  C   UNL     1     -10.431  10.859   4.889  1.00  0.00     0.031 C 
ATOM     52  C   UNL     1      -5.422  12.612   7.870  1.00  0.00     0.029 A 
ATOM     53  C   UNL     1      -6.341  11.841   7.176  1.00  0.00     0.049 A 
ATOM     54  H   UNL     1      -6.165   9.841   6.525  1.00  0.00     0.167 HD
ATOM     55  C   UNL     1      -8.495  11.427   5.995  1.00  0.00     0.074 A 
ATOM     56  C   UNL     1      -9.796  11.845   5.504  1.00  0.00     0.031 C 
ATOM     57  C   UNL     1      -7.658  12.217   6.714  1.00  0.00     0.034 A 
BRANCH  44  58
ATOM     58  C   UNL     1      -2.250   9.562   8.262  1.00  0.00     0.023 A 
ATOM     59  C   UNL     1      -1.021   9.461   7.586  1.00  0.00     0.031 A 
ATOM     60  C   UNL     1      -2.217   9.761   9.655  1.00  0.00     0.131 A 
ATOM     61  C   UNL     1       0.184   9.500   8.309  1.00  0.00     0.055 A 
ATOM     62  C   UNL     1      -1.015   9.866  10.359  1.00  0.00     0.041 A 
ATOM     63  F   UNL     1      -3.356   9.846  10.360  1.00  0.00    -0.206 F 
ATOM     64  C   UNL     1       0.195   9.723   9.688  1.00  0.00     0.022 A 
BRANCH  61  65
ATOM     65  S   UNL     1       1.735   9.132   7.441  1.00  0.00     0.124 S 
ATOM     66  O   UNL     1       1.470   7.794   6.917  1.00  0.00    -0.237 OA
ATOM     67  O   UNL     1       1.806  10.203   6.455  1.00  0.00    -0.237 OA
ATOM     68  O   UNL     1       2.743   9.190   8.499  1.00  0.00    -0.744 OA
ENDBRANCH  61  65
ENDBRANCH  44  58
BRANCH  45  69
ATOM     69  C   UNL     1     -11.137   8.252   3.710  1.00  0.00     0.023 A 
ATOM     70  C   UNL     1     -11.505   8.907   2.527  1.00  0.00     0.031 A 
ATOM     71  C   UNL     1     -12.045   7.336   4.273  1.00  0.00     0.131 A 
ATOM     72  C   UNL     1     -12.759   8.649   1.951  1.00  0.00     0.055 A 
ATOM     73  C   UNL     1     -13.269   7.046   3.670  1.00  0.00     0.041 A 
ATOM     74  F   UNL     1     -11.732   6.672   5.397  1.00  0.00    -0.206 F 
ATOM     75  C   UNL     1     -13.635   7.712   2.505  1.00  0.00     0.022 A 
BRANCH  72  76
ATOM     76  S   UNL     1     -13.252   9.597   0.487  1.00  0.00     0.124 S 
ATOM     77  O   UNL     1     -13.143  10.970   0.968  1.00  0.00    -0.237 OA
ATOM     78  O   UNL     1     -12.255   9.180  -0.493  1.00  0.00    -0.237 OA
ATOM     79  O   UNL     1     -14.613   9.134   0.224  1.00  0.00    -0.744 OA
ENDBRANCH  72  76
ENDBRANCH  45  69
BRANCH  57  80
ATOM     80  C   UNL     1      -8.155  13.610   6.993  1.00  0.00     0.023 A 
ATOM     81  C   UNL     1      -9.247  13.833   7.850  1.00  0.00     0.031 A 
ATOM     82  C   UNL     1      -7.584  14.713   6.338  1.00  0.00     0.131 A 
ATOM     83  C   UNL     1      -9.782  15.123   7.973  1.00  0.00     0.055 A 
ATOM     84  C   UNL     1      -8.084  16.003   6.511  1.00  0.00     0.041 A 
ATOM     85  F   UNL     1      -6.544  14.549   5.504  1.00  0.00    -0.206 F 
ATOM     86  C   UNL     1      -9.199  16.212   7.319  1.00  0.00     0.022 A 
BRANCH  83  87
ATOM     87  S   UNL     1     -11.321  15.338   8.908  1.00  0.00     0.124 S 
ATOM     88  O   UNL     1     -12.238  14.459   8.189  1.00  0.00    -0.237 OA
ATOM     89  O   UNL     1     -10.937  14.902  10.246  1.00  0.00    -0.237 OA
ATOM     90  O   UNL     1     -11.603  16.767   8.779  1.00  0.00    -0.744 OA
ENDBRANCH  83  87
ENDBRANCH  57  80
ENDBRANCH  31  32
ENDBRANCH  24  26
ENDBRANCH  23  24
ENDBRANCH  22  23
ENDBRANCH   1  22
TORSDOF 19
