REMARK SMILES O=C(N[C@@H](Cc1ccc(O)cc1)C(=O)N[C@@H](Cc1c[nH]c2ccccc12)C(=O)N[C@@H](CO)C(=O)OCCOC(=O)c1ccc(-c2c3nc(c(-c4cc(S(=O)(=O)[O-])ccc4F)c4ccc([nH]4)c(-c4cc(S(=O)(=O)[O-])ccc4F)c4nc(c(-c5cc(S(=O)(=O)[O-])ccc5F)c5ccc2[nH]5)C=C4)C=C3)cc1)c1ccc(F)cc1
REMARK SMILES IDX 33 1 34 2 30 3 29 4 27 5 28 6 16 8 15 9 13 10 14 11 4 13
REMARK SMILES IDX 3 14 1 15 2 16 104 18 105 19 110 20 106 21 109 22 107 23
REMARK SMILES IDX 108 24 5 25 6 26 7 27 12 28 8 29 11 30 9 31 10 32 17 34
REMARK SMILES IDX 18 35 19 36 26 37 20 38 21 39 25 40 22 42 24 43 23 44 31 45
REMARK SMILES IDX 32 46 35 48 36 49 37 50 38 51 39 52 40 53 41 54 42 55 103 56
REMARK SMILES IDX 43 57 102 58 44 59 45 60 46 61 96 62 47 63 101 64 95 65
REMARK SMILES IDX 97 66 48 67 100 68 94 69 93 70 49 72 81 73 61 74 80 75 62 76
REMARK SMILES IDX 65 77 79 78 98 79 63 80 64 81 78 83 99 84 66 85 50 86 51 87
REMARK SMILES IDX 59 88 52 89 58 90 60 91 57 92 53 93 54 94 55 95 56 96 82 97
REMARK SMILES IDX 83 98 91 99 84 100 90 101 92 102 89 103 85 104 86 105 87 106
REMARK SMILES IDX 88 107 67 108 68 109 76 110 69 111 75 112 77 113 74 114
REMARK SMILES IDX 70 115 71 116 72 117 73 118
REMARK H PARENT 29 7 15 12 3 17 10 33 20 41 32 47 97 71 65 82
REMARK Flexibility Score: inf
ROOT
ATOM      1  C   UNL     1       5.736  -6.492   6.686  1.00  0.00     0.331 C 
ATOM      2  O   UNL     1       5.961  -7.652   7.016  1.00  0.00    -0.250 OA
ENDROOT
BRANCH   1   3
ATOM      3  C   UNL     1       6.424  -5.792   5.469  1.00  0.00     0.218 C 
BRANCH   3   4
ATOM      4  N   UNL     1       5.897  -4.441   5.176  1.00  0.00    -0.339 N 
ATOM      5  C   UNL     1       5.976  -3.947   3.897  1.00  0.00     0.243 C 
ATOM      6  O   UNL     1       7.098  -3.597   3.512  1.00  0.00    -0.273 OA
ATOM      7  H   UNL     1       5.492  -3.901   5.892  1.00  0.00     0.164 HD
BRANCH   5   8
ATOM      8  C   UNL     1       4.665  -3.601   3.078  1.00  0.00     0.175 C 
BRANCH   8   9
ATOM      9  N   UNL     1       5.144  -3.159   1.746  1.00  0.00    -0.342 N 
ATOM     10  C   UNL     1       5.429  -1.912   1.260  1.00  0.00     0.243 C 
ATOM     11  O   UNL     1       6.433  -1.841   0.534  1.00  0.00    -0.273 OA
ATOM     12  H   UNL     1       5.280  -3.889   1.099  1.00  0.00     0.164 HD
BRANCH  10  13
ATOM     13  C   UNL     1       4.608  -0.612   1.511  1.00  0.00     0.176 C 
BRANCH  13  14
ATOM     14  N   UNL     1       3.169  -0.777   1.341  1.00  0.00    -0.340 N 
ATOM     15  O   UNL     1       1.161  -0.528   0.364  1.00  0.00    -0.269 OA
ATOM     16  C   UNL     1       2.372  -0.347   0.299  1.00  0.00     0.251 C 
ATOM     17  H   UNL     1       2.705  -1.260   2.063  1.00  0.00     0.164 HD
BRANCH  16  18
ATOM     18  C   UNL     1       2.957   0.362  -0.872  1.00  0.00     0.040 A 
ATOM     19  C   UNL     1       3.948  -0.238  -1.663  1.00  0.00     0.017 A 
ATOM     20  C   UNL     1       2.490   1.644  -1.197  1.00  0.00     0.017 A 
ATOM     21  C   UNL     1       4.519   0.470  -2.725  1.00  0.00     0.040 A 
ATOM     22  C   UNL     1       3.058   2.344  -2.269  1.00  0.00     0.040 A 
ATOM     23  C   UNL     1       4.075   1.756  -3.014  1.00  0.00     0.123 A 
ATOM     24  F   UNL     1       4.637   2.435  -4.024  1.00  0.00    -0.207 F 
ENDBRANCH  16  18
ENDBRANCH  13  14
BRANCH  13  25
ATOM     25  C   UNL     1       5.016   0.337   2.655  1.00  0.00     0.070 C 
BRANCH  25  26
ATOM     26  C   UNL     1       4.492   0.077   4.044  1.00  0.00    -0.045 A 
ATOM     27  C   UNL     1       3.296   0.665   4.488  1.00  0.00     0.007 A 
ATOM     28  C   UNL     1       5.233  -0.706   4.937  1.00  0.00     0.007 A 
ATOM     29  C   UNL     1       2.825   0.428   5.783  1.00  0.00     0.046 A 
ATOM     30  C   UNL     1       4.751  -0.964   6.220  1.00  0.00     0.046 A 
ATOM     31  C   UNL     1       3.545  -0.409   6.628  1.00  0.00     0.115 A 
BRANCH  31  32
ATOM     32  O   UNL     1       3.098  -0.714   7.879  1.00  0.00    -0.508 OA
ATOM     33  H   UNL     1       2.288  -0.357   8.186  1.00  0.00     0.293 HD
ENDBRANCH  31  32
ENDBRANCH  25  26
ENDBRANCH  13  25
ENDBRANCH  10  13
ENDBRANCH   8   9
BRANCH   8  34
ATOM     34  C   UNL     1       3.447  -4.583   2.993  1.00  0.00     0.072 C 
BRANCH  34  35
ATOM     35  C   UNL     1       3.497  -6.094   3.116  1.00  0.00    -0.020 A 
ATOM     36  C   UNL     1       3.955  -6.725   4.232  1.00  0.00     0.087 A 
ATOM     37  C   UNL     1       2.583  -7.143   2.720  1.00  0.00     0.003 A 
ATOM     38  N   UNL     1       4.052  -8.066   4.056  1.00  0.00    -0.361 N 
ATOM     39  C   UNL     1       3.054  -8.380   3.178  1.00  0.00     0.046 A 
ATOM     40  C   UNL     1       1.272  -7.164   2.243  1.00  0.00     0.010 A 
ATOM     41  H   UNL     1       4.700  -8.680   4.471  1.00  0.00     0.166 HD
ATOM     42  C   UNL     1       2.434  -9.611   2.939  1.00  0.00     0.026 A 
ATOM     43  C   UNL     1       0.582  -8.363   2.029  1.00  0.00     0.001 A 
ATOM     44  C   UNL     1       1.182  -9.578   2.330  1.00  0.00     0.002 A 
ENDBRANCH  34  35
ENDBRANCH   8  34
ENDBRANCH   5   8
ENDBRANCH   3   4
BRANCH   3  45
ATOM     45  C   UNL     1       7.940  -5.942   5.482  1.00  0.00     0.193 C 
BRANCH  45  46
ATOM     46  O   UNL     1       8.522  -5.192   6.534  1.00  0.00    -0.394 OA
ATOM     47  H   UNL     1       8.317  -4.251   6.412  1.00  0.00     0.210 HD
ENDBRANCH  45  46
ENDBRANCH   3  45
ENDBRANCH   1   3
BRANCH   1  48
ATOM     48  O   UNL     1       4.668  -5.756   7.163  1.00  0.00    -0.460 OA
BRANCH  48  49
ATOM     49  C   UNL     1       3.543  -6.526   7.671  1.00  0.00     0.274 C 
BRANCH  49  50
ATOM     50  C   UNL     1       2.236  -5.693   7.669  1.00  0.00     0.275 C 
BRANCH  50  51
ATOM     51  O   UNL     1       1.635  -5.532   6.351  1.00  0.00    -0.458 OA
BRANCH  51  52
ATOM     52  C   UNL     1       0.821  -4.438   6.214  1.00  0.00     0.338 C 
ATOM     53  O   UNL     1       0.644  -3.573   7.056  1.00  0.00    -0.246 OA
BRANCH  52  54
ATOM     54  C   UNL     1       0.199  -4.354   4.860  1.00  0.00     0.060 A 
ATOM     55  C   UNL     1       0.682  -3.401   3.959  1.00  0.00     0.016 A 
ATOM     56  C   UNL     1      -0.908  -5.124   4.489  1.00  0.00     0.016 A 
ATOM     57  C   UNL     1       0.203  -3.347   2.639  1.00  0.00     0.010 A 
ATOM     58  C   UNL     1      -1.459  -4.994   3.190  1.00  0.00     0.010 A 
ATOM     59  C   UNL     1      -0.877  -4.139   2.231  1.00  0.00    -0.014 A 
BRANCH  59  60
ATOM     60  C   UNL     1      -1.481  -3.931   0.874  1.00  0.00     0.031 A 
ATOM     61  C   UNL     1      -2.239  -2.660   0.627  1.00  0.00     0.074 A 
ATOM     62  C   UNL     1      -1.291  -4.765  -0.173  1.00  0.00     0.049 A 
ATOM     63  N   UNL     1      -2.795  -2.235  -0.476  1.00  0.00    -0.248 NA
ATOM     64  C   UNL     1      -2.300  -1.709   1.746  1.00  0.00     0.031 C 
ATOM     65  C   UNL     1      -0.305  -5.825  -0.227  1.00  0.00     0.029 A 
ATOM     66  N   UNL     1      -1.884  -4.854  -1.410  1.00  0.00    -0.354 N 
ATOM     67  C   UNL     1      -3.166  -0.924  -0.219  1.00  0.00     0.074 A 
ATOM     68  C   UNL     1      -2.836  -0.651   1.163  1.00  0.00     0.031 C 
ATOM     69  C   UNL     1      -0.466  -6.580  -1.321  1.00  0.00     0.029 A 
ATOM     70  C   UNL     1      -1.513  -5.980  -2.124  1.00  0.00     0.049 A 
ATOM     71  H   UNL     1      -2.513  -4.181  -1.756  1.00  0.00     0.167 HD
ATOM     72  C   UNL     1      -3.724  -0.026  -1.066  1.00  0.00     0.034 A 
ATOM     73  C   UNL     1      -1.923  -6.462  -3.313  1.00  0.00     0.034 A 
ATOM     74  C   UNL     1      -4.181  -0.371  -2.389  1.00  0.00     0.049 A 
ATOM     75  C   UNL     1      -2.838  -5.587  -4.115  1.00  0.00     0.074 A 
ATOM     76  C   UNL     1      -4.938   0.378  -3.270  1.00  0.00     0.029 A 
ATOM     77  N   UNL     1      -3.959  -1.601  -3.006  1.00  0.00    -0.354 N 
ATOM     78  N   UNL     1      -3.247  -4.372  -3.834  1.00  0.00    -0.248 NA
ATOM     79  C   UNL     1      -3.312  -6.111  -5.398  1.00  0.00     0.031 C 
ATOM     80  C   UNL     1      -5.247  -0.426  -4.375  1.00  0.00     0.029 A 
ATOM     81  C   UNL     1      -4.617  -1.653  -4.225  1.00  0.00     0.049 A 
ATOM     82  H   UNL     1      -3.413  -2.329  -2.629  1.00  0.00     0.167 HD
ATOM     83  C   UNL     1      -3.990  -3.962  -4.929  1.00  0.00     0.074 A 
ATOM     84  C   UNL     1      -3.973  -5.065  -5.874  1.00  0.00     0.031 C 
ATOM     85  C   UNL     1      -4.614  -2.776  -5.137  1.00  0.00     0.034 A 
BRANCH  72  86
ATOM     86  C   UNL     1      -3.984   1.340  -0.482  1.00  0.00     0.023 A 
ATOM     87  C   UNL     1      -2.925   2.178  -0.075  1.00  0.00     0.031 A 
ATOM     88  C   UNL     1      -5.295   1.727  -0.163  1.00  0.00     0.131 A 
ATOM     89  C   UNL     1      -3.195   3.307   0.715  1.00  0.00     0.055 A 
ATOM     90  C   UNL     1      -5.562   2.894   0.553  1.00  0.00     0.041 A 
ATOM     91  F   UNL     1      -6.337   0.945  -0.487  1.00  0.00    -0.206 F 
ATOM     92  C   UNL     1      -4.509   3.680   1.014  1.00  0.00     0.022 A 
BRANCH  89  93
ATOM     93  S   UNL     1      -1.810   4.180   1.504  1.00  0.00     0.124 S 
ATOM     94  O   UNL     1      -1.268   3.150   2.389  1.00  0.00    -0.237 OA
ATOM     95  O   UNL     1      -0.972   4.550   0.370  1.00  0.00    -0.237 OA
ATOM     96  O   UNL     1      -2.456   5.297   2.191  1.00  0.00    -0.744 OA
ENDBRANCH  89  93
ENDBRANCH  72  86
BRANCH  73  97
ATOM     97  C   UNL     1      -1.480  -7.806  -3.800  1.00  0.00     0.023 A 
ATOM     98  C   UNL     1      -0.744  -7.971  -4.985  1.00  0.00     0.031 A 
ATOM     99  C   UNL     1      -1.836  -8.968  -3.087  1.00  0.00     0.131 A 
ATOM    100  C   UNL     1      -0.421  -9.264  -5.439  1.00  0.00     0.055 A 
ATOM    101  C   UNL     1      -1.482 -10.248  -3.522  1.00  0.00     0.041 A 
ATOM    102  F   UNL     1      -2.541  -8.878  -1.948  1.00  0.00    -0.206 F 
ATOM    103  C   UNL     1      -0.779 -10.402  -4.712  1.00  0.00     0.022 A 
BRANCH 100 104
ATOM    104  S   UNL     1       0.411  -9.452  -7.043  1.00  0.00     0.124 S 
ATOM    105  O   UNL     1      -0.486  -8.725  -7.934  1.00  0.00    -0.237 OA
ATOM    106  O   UNL     1       1.706  -8.831  -6.786  1.00  0.00    -0.237 OA
ATOM    107  O   UNL     1       0.446 -10.900  -7.241  1.00  0.00    -0.744 OA
ENDBRANCH 100 104
ENDBRANCH  73  97
BRANCH  85 108
ATOM    108  C   UNL     1      -5.322  -2.624  -6.455  1.00  0.00     0.023 A 
ATOM    109  C   UNL     1      -6.462  -3.386  -6.763  1.00  0.00     0.031 A 
ATOM    110  C   UNL     1      -4.837  -1.726  -7.420  1.00  0.00     0.131 A 
ATOM    111  C   UNL     1      -7.047  -3.278  -8.031  1.00  0.00     0.055 A 
ATOM    112  C   UNL     1      -5.462  -1.577  -8.658  1.00  0.00     0.041 A 
ATOM    113  F   UNL     1      -3.748  -0.980  -7.175  1.00  0.00    -0.206 F 
ATOM    114  C   UNL     1      -6.566  -2.365  -8.974  1.00  0.00     0.022 A 
BRANCH 111 115
ATOM    115  S   UNL     1      -8.395  -4.411  -8.461  1.00  0.00     0.124 S 
ATOM    116  O   UNL     1      -7.739  -5.712  -8.365  1.00  0.00    -0.237 OA
ATOM    117  O   UNL     1      -9.389  -4.122  -7.433  1.00  0.00    -0.237 OA
ATOM    118  O   UNL     1      -8.767  -4.002  -9.814  1.00  0.00    -0.744 OA
ENDBRANCH 111 115
ENDBRANCH  85 108
ENDBRANCH  59  60
ENDBRANCH  52  54
ENDBRANCH  51  52
ENDBRANCH  50  51
ENDBRANCH  49  50
ENDBRANCH  48  49
ENDBRANCH   1  48
TORSDOF 27
