REMARK SMILES COc1ccc2[nH]c(C(=O)c3cc(C)ccn3)c(CC(=O)OCCOC(=O)c3ccc(-c4c5nc(c(-c6cc(S(=O)(=O)[O-])ccc6F)c6ccc([nH]6)c(-c6cc(S(=O)(=O)[O-])ccc6F)c6nc(c(-c7cc(S(=O)(=O)[O-])ccc7F)c7ccc4[nH]7)C=C6)C=C5)cc3)c2c1
REMARK SMILES IDX 23 1 22 2 20 3 21 4 19 5 18 6 3 7 4 8 92 9 5 10 91 11 6 12
REMARK SMILES IDX 7 13 8 14 2 16 1 17 9 18 10 19 11 20 12 21 17 22 13 23 16 24
REMARK SMILES IDX 14 25 15 26 24 27 25 28 26 29 27 30 28 31 29 32 90 33 30 34
REMARK SMILES IDX 89 35 31 36 32 37 33 38 83 39 34 40 88 41 82 42 84 43 35 44
REMARK SMILES IDX 87 45 81 46 80 47 36 49 68 50 48 51 67 52 49 53 52 54 66 55
REMARK SMILES IDX 85 56 50 57 51 58 65 60 86 61 53 62 37 63 38 64 46 65 39 66
REMARK SMILES IDX 45 67 47 68 44 69 40 70 41 71 42 72 43 73 69 74 70 75 78 76
REMARK SMILES IDX 71 77 77 78 79 79 76 80 72 81 73 82 74 83 75 84 54 85 55 86
REMARK SMILES IDX 63 87 56 88 62 89 64 90 61 91 57 92 58 93 59 94 60 95
REMARK H PARENT 7 15 84 48 52 59
REMARK Flexibility Score: inf
ROOT
ATOM      1  C   UNL     1      -3.340   6.016  -3.449  1.00  0.00     0.274 C 
ENDROOT
BRANCH   1   2
ATOM      2  O   UNL     1      -2.300   5.099  -3.847  1.00  0.00    -0.462 OA
BRANCH   2   3
ATOM      3  C   UNL     1      -2.727   3.954  -4.447  1.00  0.00     0.310 C 
ATOM      4  O   UNL     1      -3.912   3.650  -4.577  1.00  0.00    -0.252 OA
BRANCH   3   5
ATOM      5  C   UNL     1      -1.625   3.071  -4.994  1.00  0.00     0.161 C 
BRANCH   5   6
ATOM      6  C   UNL     1      -0.224   3.410  -4.579  1.00  0.00     0.000 A 
ATOM      7  C   UNL     1       1.066   1.341  -1.637  1.00  0.00     0.119 A 
ATOM      8  C   UNL     1       2.350   1.883  -1.632  1.00  0.00     0.048 A 
ATOM      9  C   UNL     1       0.113   1.812  -2.544  1.00  0.00     0.057 A 
ATOM     10  C   UNL     1       2.708   2.910  -2.519  1.00  0.00     0.030 A 
ATOM     11  C   UNL     1       0.458   2.814  -3.472  1.00  0.00     0.008 A 
ATOM     12  C   UNL     1       1.743   3.343  -3.434  1.00  0.00     0.046 A 
ATOM     13  N   UNL     1       1.821   4.273  -4.444  1.00  0.00    -0.352 N 
ATOM     14  C   UNL     1       0.713   4.189  -5.260  1.00  0.00     0.093 A 
ATOM     15  H   UNL     1       2.563   4.909  -4.567  1.00  0.00     0.167 HD
BRANCH   7  16
ATOM     16  O   UNL     1       0.625   0.310  -0.850  1.00  0.00    -0.497 OA
ATOM     17  C   UNL     1       1.375   0.047   0.325  1.00  0.00     0.278 C 
ENDBRANCH   7  16
BRANCH  14  18
ATOM     18  C   UNL     1       0.635   4.742  -6.604  1.00  0.00     0.227 C 
ATOM     19  O   UNL     1      -0.173   4.348  -7.441  1.00  0.00    -0.285 OA
BRANCH  18  20
ATOM     20  C   UNL     1       1.648   5.731  -7.044  1.00  0.00     0.113 A 
ATOM     21  C   UNL     1       2.705   5.313  -7.843  1.00  0.00     0.036 A 
ATOM     22  N   UNL     1       1.452   7.011  -6.646  1.00  0.00    -0.253 NA
ATOM     23  C   UNL     1       3.618   6.274  -8.283  1.00  0.00    -0.047 A 
ATOM     24  C   UNL     1       2.295   7.928  -7.159  1.00  0.00     0.112 A 
ATOM     25  C   UNL     1       4.804   5.896  -9.121  1.00  0.00     0.044 C 
ATOM     26  C   UNL     1       3.382   7.614  -7.961  1.00  0.00     0.023 A 
ENDBRANCH  18  20
ENDBRANCH  14  18
ENDBRANCH   5   6
ENDBRANCH   3   5
ENDBRANCH   2   3
ENDBRANCH   1   2
BRANCH   1  27
ATOM     27  C   UNL     1      -3.454   7.166  -4.445  1.00  0.00     0.275 C 
BRANCH  27  28
ATOM     28  O   UNL     1      -3.563   6.643  -5.778  1.00  0.00    -0.458 OA
BRANCH  28  29
ATOM     29  C   UNL     1      -2.563   6.999  -6.617  1.00  0.00     0.338 C 
ATOM     30  O   UNL     1      -1.668   7.802  -6.380  1.00  0.00    -0.246 OA
BRANCH  29  31
ATOM     31  C   UNL     1      -2.735   6.346  -7.926  1.00  0.00     0.060 A 
ATOM     32  C   UNL     1      -3.038   4.987  -8.034  1.00  0.00     0.016 A 
ATOM     33  C   UNL     1      -2.503   7.104  -9.075  1.00  0.00     0.016 A 
ATOM     34  C   UNL     1      -3.029   4.370  -9.286  1.00  0.00     0.010 A 
ATOM     35  C   UNL     1      -2.598   6.505 -10.331  1.00  0.00     0.010 A 
ATOM     36  C   UNL     1      -2.841   5.126 -10.451  1.00  0.00    -0.014 A 
BRANCH  36  37
ATOM     37  C   UNL     1      -2.918   4.508 -11.803  1.00  0.00     0.031 A 
ATOM     38  C   UNL     1      -1.750   4.601 -12.748  1.00  0.00     0.074 A 
ATOM     39  C   UNL     1      -4.063   3.923 -12.208  1.00  0.00     0.049 A 
ATOM     40  N   UNL     1      -1.704   4.374 -14.036  1.00  0.00    -0.248 NA
ATOM     41  C   UNL     1      -0.468   5.027 -12.166  1.00  0.00     0.031 C 
ATOM     42  C   UNL     1      -5.254   3.728 -11.378  1.00  0.00     0.029 A 
ATOM     43  N   UNL     1      -4.423   3.405 -13.428  1.00  0.00    -0.354 N 
ATOM     44  C   UNL     1      -0.403   4.670 -14.431  1.00  0.00     0.074 A 
ATOM     45  C   UNL     1       0.303   5.106 -13.243  1.00  0.00     0.031 C 
ATOM     46  C   UNL     1      -6.207   3.132 -12.108  1.00  0.00     0.029 A 
ATOM     47  C   UNL     1      -5.732   2.987 -13.478  1.00  0.00     0.049 A 
ATOM     48  H   UNL     1      -3.804   3.339 -14.191  1.00  0.00     0.167 HD
ATOM     49  C   UNL     1       0.142   4.589 -15.671  1.00  0.00     0.034 A 
ATOM     50  C   UNL     1      -6.493   2.594 -14.518  1.00  0.00     0.034 A 
ATOM     51  C   UNL     1      -0.577   4.127 -16.837  1.00  0.00     0.049 A 
ATOM     52  C   UNL     1      -5.890   2.577 -15.895  1.00  0.00     0.074 A 
ATOM     53  C   UNL     1      -0.115   3.976 -18.135  1.00  0.00     0.029 A 
ATOM     54  N   UNL     1      -1.912   3.741 -16.849  1.00  0.00    -0.354 N 
ATOM     55  N   UNL     1      -4.676   2.911 -16.268  1.00  0.00    -0.248 NA
ATOM     56  C   UNL     1      -6.763   2.145 -16.992  1.00  0.00     0.031 C 
ATOM     57  C   UNL     1      -1.183   3.557 -18.938  1.00  0.00     0.029 A 
ATOM     58  C   UNL     1      -2.296   3.380 -18.133  1.00  0.00     0.049 A 
ATOM     59  H   UNL     1      -2.501   3.725 -16.060  1.00  0.00     0.167 HD
ATOM     60  C   UNL     1      -4.637   2.712 -17.643  1.00  0.00     0.074 A 
ATOM     61  C   UNL     1      -5.944   2.221 -18.031  1.00  0.00     0.031 C 
ATOM     62  C   UNL     1      -3.610   2.913 -18.507  1.00  0.00     0.034 A 
BRANCH  49  63
ATOM     63  C   UNL     1       1.565   5.069 -15.842  1.00  0.00     0.023 A 
ATOM     64  C   UNL     1       2.654   4.425 -15.227  1.00  0.00     0.031 A 
ATOM     65  C   UNL     1       1.833   6.207 -16.625  1.00  0.00     0.131 A 
ATOM     66  C   UNL     1       3.947   4.960 -15.352  1.00  0.00     0.055 A 
ATOM     67  C   UNL     1       3.130   6.690 -16.809  1.00  0.00     0.041 A 
ATOM     68  F   UNL     1       0.833   6.878 -17.219  1.00  0.00    -0.206 F 
ATOM     69  C   UNL     1       4.195   6.073 -16.160  1.00  0.00     0.022 A 
BRANCH  66  70
ATOM     70  S   UNL     1       5.286   4.258 -14.348  1.00  0.00     0.124 S 
ATOM     71  O   UNL     1       4.789   4.472 -12.991  1.00  0.00    -0.237 OA
ATOM     72  O   UNL     1       5.329   2.872 -14.801  1.00  0.00    -0.237 OA
ATOM     73  O   UNL     1       6.448   5.068 -14.709  1.00  0.00    -0.744 OA
ENDBRANCH  66  70
ENDBRANCH  49  63
BRANCH  50  74
ATOM     74  C   UNL     1      -7.929   2.264 -14.305  1.00  0.00     0.023 A 
ATOM     75  C   UNL     1      -8.407   0.958 -14.486  1.00  0.00     0.031 A 
ATOM     76  C   UNL     1      -8.848   3.261 -13.926  1.00  0.00     0.131 A 
ATOM     77  C   UNL     1      -9.773   0.687 -14.313  1.00  0.00     0.055 A 
ATOM     78  C   UNL     1     -10.195   2.976 -13.707  1.00  0.00     0.041 A 
ATOM     79  F   UNL     1      -8.439   4.526 -13.739  1.00  0.00    -0.206 F 
ATOM     80  C   UNL     1     -10.667   1.683 -13.909  1.00  0.00     0.022 A 
BRANCH  77  81
ATOM     81  S   UNL     1     -10.381  -0.980 -14.684  1.00  0.00     0.124 S 
ATOM     82  O   UNL     1      -9.999  -1.132 -16.084  1.00  0.00    -0.237 OA
ATOM     83  O   UNL     1      -9.641  -1.794 -13.726  1.00  0.00    -0.237 OA
ATOM     84  O   UNL     1     -11.818  -0.882 -14.437  1.00  0.00    -0.744 OA
ENDBRANCH  77  81
ENDBRANCH  50  74
BRANCH  62  85
ATOM     85  C   UNL     1      -3.861   2.554 -19.948  1.00  0.00     0.023 A 
ATOM     86  C   UNL     1      -4.715   3.319 -20.762  1.00  0.00     0.031 A 
ATOM     87  C   UNL     1      -3.258   1.412 -20.504  1.00  0.00     0.131 A 
ATOM     88  C   UNL     1      -4.978   2.906 -22.077  1.00  0.00     0.055 A 
ATOM     89  C   UNL     1      -3.486   1.033 -21.827  1.00  0.00     0.041 A 
ATOM     90  F   UNL     1      -2.438   0.646 -19.767  1.00  0.00    -0.206 F 
ATOM     91  C   UNL     1      -4.359   1.775 -22.618  1.00  0.00     0.022 A 
BRANCH  88  92
ATOM     92  S   UNL     1      -6.197   3.826 -23.056  1.00  0.00     0.124 S 
ATOM     93  O   UNL     1      -7.413   3.650 -22.270  1.00  0.00    -0.237 OA
ATOM     94  O   UNL     1      -5.636   5.174 -23.069  1.00  0.00    -0.237 OA
ATOM     95  O   UNL     1      -6.188   3.142 -24.348  1.00  0.00    -0.744 OA
ENDBRANCH  88  92
ENDBRANCH  62  85
ENDBRANCH  36  37
ENDBRANCH  29  31
ENDBRANCH  28  29
ENDBRANCH  27  28
ENDBRANCH   1  27
TORSDOF 18
