REMARK SMILES C[C@@H](C(=O)OCCOC(=O)c1ccc(-c2c3nc(c(-c4cc(S(=O)(=O)[O-])ccc4F)c4ccc([nH]4)c(-c4cc(S(=O)(=O)[O-])ccc4F)c4nc(c(-c5cc(S(=O)(=O)[O-])ccc5F)c5ccc2[nH]5)C=C4)C=C3)cc1)[C@@H](C)C(=O)c1cc(Cl)c2c(c1)OCCCO2
REMARK SMILES IDX 5 1 3 2 4 3 2 4 1 5 74 6 75 7 76 8 77 9 78 10 79 11 84 12
REMARK SMILES IDX 80 13 83 14 81 15 82 16 85 17 86 18 87 19 89 21 88 22 6 24
REMARK SMILES IDX 7 25 8 26 9 27 10 28 11 29 12 30 73 31 13 32 72 33 14 34
REMARK SMILES IDX 15 35 16 36 66 37 17 38 71 39 65 40 67 41 18 42 70 43 64 44
REMARK SMILES IDX 63 45 19 47 51 48 31 49 50 50 32 51 35 52 49 53 68 54 33 55
REMARK SMILES IDX 34 56 48 58 69 59 36 60 20 61 21 62 29 63 22 64 28 65 30 66
REMARK SMILES IDX 27 67 23 68 24 69 25 70 26 71 52 72 53 73 61 74 54 75 60 76
REMARK SMILES IDX 62 77 59 78 55 79 56 80 57 81 58 82 37 83 38 84 46 85 39 86
REMARK SMILES IDX 45 87 47 88 44 89 40 90 41 91 42 92 43 93
REMARK H PARENT 67 46 35 57
REMARK Flexibility Score: 90.00
ROOT
ATOM      1  O   UNL     1       2.096   2.173  -1.127  1.00  0.00    -0.462 OA
ENDROOT
BRANCH   1   2
ATOM      2  C   UNL     1       0.936   2.489  -0.488  1.00  0.00     0.309 C 
ATOM      3  O   UNL     1       0.358   3.554  -0.644  1.00  0.00    -0.252 OA
BRANCH   2   4
ATOM      4  C   UNL     1       0.512   1.435   0.539  1.00  0.00     0.106 C 
ATOM      5  C   UNL     1       0.895   0.024   0.066  1.00  0.00     0.021 C 
BRANCH   4   6
ATOM      6  C   UNL     1      -0.999   1.530   0.913  1.00  0.00     0.072 C 
ATOM      7  C   UNL     1      -1.382   0.599   2.072  1.00  0.00     0.017 C 
BRANCH   6   8
ATOM      8  C   UNL     1      -1.576   2.949   1.185  1.00  0.00     0.166 C 
ATOM      9  O   UNL     1      -2.560   3.388   0.600  1.00  0.00    -0.294 OA
BRANCH   8  10
ATOM     10  C   UNL     1      -1.068   3.708   2.346  1.00  0.00     0.023 A 
ATOM     11  C   UNL     1      -1.880   3.728   3.486  1.00  0.00     0.036 A 
ATOM     12  C   UNL     1       0.261   4.121   2.394  1.00  0.00     0.062 A 
ATOM     13  C   UNL     1      -1.279   3.889   4.726  1.00  0.00     0.087 A 
ATOM     14  C   UNL     1       0.864   4.217   3.631  1.00  0.00     0.163 A 
ATOM     15  Cl  UNL     1      -2.225   3.714   6.152  1.00  0.00    -0.080 Cl
ATOM     16  C   UNL     1       0.114   3.985   4.783  1.00  0.00     0.179 A 
BRANCH  14  17
ATOM     17  O   UNL     1       2.225   4.335   3.723  1.00  0.00    -0.489 OA
BRANCH  17  18
ATOM     18  C   UNL     1       2.837   3.044   3.661  1.00  0.00     0.233 C 
BRANCH  18  19
ATOM     19  C   UNL     1       2.635   2.175   4.908  1.00  0.00     0.083 CG0
ATOM     20  G   UNL     1       1.234   2.171   5.521  1.00  0.00     0.000 G0
ENDBRANCH  18  19
ENDBRANCH  17  18
ENDBRANCH  14  17
BRANCH  16  21
ATOM     21  O   UNL     1       0.792   3.498   5.882  1.00  0.00    -0.488 OA
BRANCH  21  22
ATOM     22  C   UNL     1       1.234   2.171   5.521  1.00  0.00     0.233 CG0
ATOM     23  G   UNL     1       2.635   2.175   4.908  1.00  0.00     0.000 G0
ENDBRANCH  21  22
ENDBRANCH  16  21
ENDBRANCH   8  10
ENDBRANCH   6   8
ENDBRANCH   4   6
ENDBRANCH   2   4
ENDBRANCH   1   2
BRANCH   1  24
ATOM     24  C   UNL     1       2.579   3.180  -2.042  1.00  0.00     0.274 C 
BRANCH  24  25
ATOM     25  C   UNL     1       2.042   2.961  -3.458  1.00  0.00     0.275 C 
BRANCH  25  26
ATOM     26  O   UNL     1       0.611   3.111  -3.484  1.00  0.00    -0.458 OA
BRANCH  26  27
ATOM     27  C   UNL     1      -0.094   2.104  -4.045  1.00  0.00     0.338 C 
ATOM     28  O   UNL     1       0.361   1.112  -4.608  1.00  0.00    -0.246 OA
BRANCH  27  29
ATOM     29  C   UNL     1      -1.534   2.308  -3.809  1.00  0.00     0.060 A 
ATOM     30  C   UNL     1      -1.998   2.200  -2.505  1.00  0.00     0.016 A 
ATOM     31  C   UNL     1      -2.446   2.472  -4.847  1.00  0.00     0.016 A 
ATOM     32  C   UNL     1      -3.358   2.219  -2.215  1.00  0.00     0.010 A 
ATOM     33  C   UNL     1      -3.819   2.551  -4.553  1.00  0.00     0.010 A 
ATOM     34  C   UNL     1      -4.290   2.409  -3.232  1.00  0.00    -0.014 A 
BRANCH  34  35
ATOM     35  C   UNL     1      -5.742   2.334  -2.912  1.00  0.00     0.031 A 
ATOM     36  C   UNL     1      -6.541   1.172  -3.433  1.00  0.00     0.074 A 
ATOM     37  C   UNL     1      -6.332   3.226  -2.090  1.00  0.00     0.049 A 
ATOM     38  N   UNL     1      -7.835   0.988  -3.445  1.00  0.00    -0.248 NA
ATOM     39  C   UNL     1      -5.767   0.063  -4.010  1.00  0.00     0.031 C 
ATOM     40  C   UNL     1      -5.648   4.304  -1.374  1.00  0.00     0.029 A 
ATOM     41  N   UNL     1      -7.646   3.358  -1.707  1.00  0.00    -0.354 N 
ATOM     42  C   UNL     1      -8.036  -0.236  -4.074  1.00  0.00     0.074 A 
ATOM     43  C   UNL     1      -6.728  -0.748  -4.426  1.00  0.00     0.031 C 
ATOM     44  C   UNL     1      -6.546   4.982  -0.639  1.00  0.00     0.029 A 
ATOM     45  C   UNL     1      -7.879   4.446  -0.895  1.00  0.00     0.049 A 
ATOM     46  H   UNL     1      -8.355   2.734  -1.987  1.00  0.00     0.167 HD
ATOM     47  C   UNL     1      -9.207  -0.864  -4.344  1.00  0.00     0.034 A 
ATOM     48  C   UNL     1      -9.036   4.982  -0.454  1.00  0.00     0.034 A 
ATOM     49  C   UNL     1     -10.499  -0.346  -3.964  1.00  0.00     0.049 A 
ATOM     50  C   UNL     1     -10.337   4.343  -0.878  1.00  0.00     0.074 A 
ATOM     51  C   UNL     1     -11.753  -0.869  -4.229  1.00  0.00     0.029 A 
ATOM     52  N   UNL     1     -10.702   0.816  -3.229  1.00  0.00    -0.354 N 
ATOM     53  N   UNL     1     -10.531   3.254  -1.588  1.00  0.00    -0.248 NA
ATOM     54  C   UNL     1     -11.575   5.016  -0.461  1.00  0.00     0.031 C 
ATOM     55  C   UNL     1     -12.713   0.006  -3.706  1.00  0.00     0.029 A 
ATOM     56  C   UNL     1     -12.059   1.040  -3.054  1.00  0.00     0.049 A 
ATOM     57  H   UNL     1      -9.986   1.396  -2.882  1.00  0.00     0.167 HD
ATOM     58  C   UNL     1     -11.912   3.105  -1.683  1.00  0.00     0.074 A 
ATOM     59  C   UNL     1     -12.502   4.203  -0.945  1.00  0.00     0.031 C 
ATOM     60  C   UNL     1     -12.630   2.146  -2.323  1.00  0.00     0.034 A 
BRANCH  47  61
ATOM     61  C   UNL     1      -9.133  -2.121  -5.174  1.00  0.00     0.023 A 
ATOM     62  C   UNL     1      -8.534  -3.300  -4.700  1.00  0.00     0.031 A 
ATOM     63  C   UNL     1      -9.618  -2.110  -6.494  1.00  0.00     0.131 A 
ATOM     64  C   UNL     1      -8.370  -4.394  -5.565  1.00  0.00     0.055 A 
ATOM     65  C   UNL     1      -9.520  -3.227  -7.325  1.00  0.00     0.041 A 
ATOM     66  F   UNL     1     -10.176  -1.002  -7.008  1.00  0.00    -0.206 F 
ATOM     67  C   UNL     1      -8.879  -4.373  -6.867  1.00  0.00     0.022 A 
BRANCH  64  68
ATOM     68  S   UNL     1      -7.350  -5.792  -5.018  1.00  0.00     0.124 S 
ATOM     69  O   UNL     1      -6.072  -5.138  -4.744  1.00  0.00    -0.237 OA
ATOM     70  O   UNL     1      -8.080  -6.279  -3.853  1.00  0.00    -0.237 OA
ATOM     71  O   UNL     1      -7.347  -6.688  -6.172  1.00  0.00    -0.744 OA
ENDBRANCH  64  68
ENDBRANCH  47  61
BRANCH  48  72
ATOM     72  C   UNL     1      -9.041   6.245   0.345  1.00  0.00     0.023 A 
ATOM     73  C   UNL     1      -9.588   6.292   1.638  1.00  0.00     0.031 A 
ATOM     74  C   UNL     1      -8.566   7.448  -0.209  1.00  0.00     0.131 A 
ATOM     75  C   UNL     1      -9.684   7.520   2.314  1.00  0.00     0.055 A 
ATOM     76  C   UNL     1      -8.610   8.655   0.490  1.00  0.00     0.041 A 
ATOM     77  F   UNL     1      -8.051   7.469  -1.450  1.00  0.00    -0.206 F 
ATOM     78  C   UNL     1      -9.184   8.698   1.755  1.00  0.00     0.022 A 
BRANCH  75  79
ATOM     79  S   UNL     1     -10.567   7.579   3.899  1.00  0.00     0.124 S 
ATOM     80  O   UNL     1     -11.885   7.080   3.525  1.00  0.00    -0.237 OA
ATOM     81  O   UNL     1      -9.758   6.694   4.731  1.00  0.00    -0.237 OA
ATOM     82  O   UNL     1     -10.517   8.993   4.266  1.00  0.00    -0.744 OA
ENDBRANCH  75  79
ENDBRANCH  48  72
BRANCH  60  83
ATOM     83  C   UNL     1     -14.132   2.227  -2.207  1.00  0.00     0.023 A 
ATOM     84  C   UNL     1     -14.869   3.249  -2.829  1.00  0.00     0.031 A 
ATOM     85  C   UNL     1     -14.832   1.269  -1.452  1.00  0.00     0.131 A 
ATOM     86  C   UNL     1     -16.258   3.319  -2.646  1.00  0.00     0.055 A 
ATOM     87  C   UNL     1     -16.219   1.313  -1.315  1.00  0.00     0.041 A 
ATOM     88  F   UNL     1     -14.176   0.272  -0.836  1.00  0.00    -0.206 F 
ATOM     89  C   UNL     1     -16.939   2.349  -1.905  1.00  0.00     0.022 A 
BRANCH  86  90
ATOM     90  S   UNL     1     -17.160   4.738  -3.326  1.00  0.00     0.124 S 
ATOM     91  O   UNL     1     -16.515   5.860  -2.654  1.00  0.00    -0.237 OA
ATOM     92  O   UNL     1     -16.901   4.617  -4.757  1.00  0.00    -0.237 OA
ATOM     93  O   UNL     1     -18.544   4.489  -2.926  1.00  0.00    -0.744 OA
ENDBRANCH  86  90
ENDBRANCH  60  83
ENDBRANCH  34  35
ENDBRANCH  27  29
ENDBRANCH  26  27
ENDBRANCH  25  26
ENDBRANCH  24  25
ENDBRANCH   1  24
TORSDOF 17
