REMARK SMILES C#CCN(CC(=O)OCCOC(=O)c1ccc(-c2c3nc(c(-c4cc(S(=O)(=O)[O-])ccc4F)c4ccc([nH]4)c(-c4cc(S(=O)(=O)[O-])ccc4F)c4nc(c(-c5cc(S(=O)(=O)[O-])ccc5F)c5ccc2[nH]5)C=C4)C=C3)cc1)C(=O)c1c[nH]c(=O)[nH]1
REMARK SMILES IDX 9 1 8 2 6 3 7 4 5 5 4 6 3 7 2 8 1 9 77 10 78 11 79 12 80 13
REMARK SMILES IDX 84 14 81 15 82 16 83 19 10 20 11 21 12 22 13 23 14 24 15 25
REMARK SMILES IDX 76 26 16 27 75 28 17 29 18 30 19 31 69 32 20 33 74 34 68 35
REMARK SMILES IDX 70 36 21 37 73 38 67 39 66 40 22 42 54 43 34 44 53 45 35 46
REMARK SMILES IDX 38 47 52 48 71 49 36 50 37 51 51 53 72 54 39 55 23 56 24 57
REMARK SMILES IDX 32 58 25 59 31 60 33 61 30 62 26 63 27 64 28 65 29 66 55 67
REMARK SMILES IDX 56 68 64 69 57 70 63 71 65 72 62 73 58 74 59 75 60 76 61 77
REMARK SMILES IDX 40 78 41 79 49 80 42 81 48 82 50 83 47 84 43 85 44 86 45 87
REMARK SMILES IDX 46 88
REMARK H PARENT 84 17 81 18 70 41 38 52
REMARK Flexibility Score: inf
ROOT
ATOM      1  C   UNL     1      -6.613  -0.023   1.928  1.00  0.00     0.274 C 
ENDROOT
BRANCH   1   2
ATOM      2  O   UNL     1      -5.199  -0.110   1.601  1.00  0.00    -0.461 OA
BRANCH   2   3
ATOM      3  C   UNL     1      -4.484   1.044   1.740  1.00  0.00     0.325 C 
ATOM      4  O   UNL     1      -5.005   2.145   1.902  1.00  0.00    -0.250 OA
BRANCH   3   5
ATOM      5  C   UNL     1      -2.961   0.840   1.907  1.00  0.00     0.243 C 
BRANCH   5   6
ATOM      6  N   UNL     1      -2.294  -0.267   1.228  1.00  0.00    -0.315 N 
BRANCH   6   7
ATOM      7  C   UNL     1      -1.795   0.032  -0.090  1.00  0.00     0.210 C 
BRANCH   7   8
ATOM      8  C   UNL     1      -0.275   0.032  -0.090  1.00  0.00    -0.085 C 
ATOM      9  C   UNL     1       1.029   0.032  -0.090  1.00  0.00     0.006 C 
ENDBRANCH   7   8
ENDBRANCH   6   7
BRANCH   6  10
ATOM     10  C   UNL     1      -2.088  -1.561   1.680  1.00  0.00     0.273 C 
ATOM     11  O   UNL     1      -1.699  -2.458   0.925  1.00  0.00    -0.267 OA
BRANCH  10  12
ATOM     12  C   UNL     1      -2.342  -1.929   3.082  1.00  0.00     0.125 A 
ATOM     13  C   UNL     1      -3.231  -2.870   3.439  1.00  0.00     0.119 A 
ATOM     14  N   UNL     1      -1.699  -1.469   4.208  1.00  0.00    -0.302 N 
ATOM     15  N   UNL     1      -3.203  -2.997   4.803  1.00  0.00    -0.312 N 
ATOM     16  C   UNL     1      -2.244  -2.119   5.330  1.00  0.00     0.323 A 
ATOM     17  H   UNL     1      -0.978  -0.799   4.225  1.00  0.00     0.172 HD
ATOM     18  H   UNL     1      -3.767  -3.608   5.330  1.00  0.00     0.171 HD
ATOM     19  O   UNL     1      -1.979  -1.968   6.499  1.00  0.00    -0.248 OA
ENDBRANCH  10  12
ENDBRANCH   6  10
ENDBRANCH   5   6
ENDBRANCH   3   5
ENDBRANCH   2   3
ENDBRANCH   1   2
BRANCH   1  20
ATOM     20  C   UNL     1      -6.948  -0.539   3.349  1.00  0.00     0.275 C 
BRANCH  20  21
ATOM     21  O   UNL     1      -6.536   0.354   4.419  1.00  0.00    -0.458 OA
BRANCH  21  22
ATOM     22  C   UNL     1      -5.226   0.207   4.686  1.00  0.00     0.338 C 
ATOM     23  O   UNL     1      -4.492  -0.529   4.052  1.00  0.00    -0.246 OA
BRANCH  22  24
ATOM     24  C   UNL     1      -4.588   1.003   5.728  1.00  0.00     0.060 A 
ATOM     25  C   UNL     1      -3.634   1.924   5.284  1.00  0.00     0.016 A 
ATOM     26  C   UNL     1      -4.528   0.493   7.026  1.00  0.00     0.016 A 
ATOM     27  C   UNL     1      -2.569   2.268   6.106  1.00  0.00     0.010 A 
ATOM     28  C   UNL     1      -3.513   0.926   7.888  1.00  0.00     0.010 A 
ATOM     29  C   UNL     1      -2.517   1.804   7.430  1.00  0.00    -0.014 A 
BRANCH  29  30
ATOM     30  C   UNL     1      -1.499   2.372   8.350  1.00  0.00     0.031 A 
ATOM     31  C   UNL     1      -0.403   1.544   8.959  1.00  0.00     0.074 A 
ATOM     32  C   UNL     1      -1.594   3.688   8.620  1.00  0.00     0.049 A 
ATOM     33  N   UNL     1       0.492   1.884   9.852  1.00  0.00    -0.248 NA
ATOM     34  C   UNL     1      -0.295   0.154   8.507  1.00  0.00     0.031 C 
ATOM     35  C   UNL     1      -2.604   4.589   8.052  1.00  0.00     0.029 A 
ATOM     36  N   UNL     1      -0.843   4.501   9.423  1.00  0.00    -0.354 N 
ATOM     37  C   UNL     1       1.254   0.742  10.089  1.00  0.00     0.074 A 
ATOM     38  C   UNL     1       0.708  -0.302   9.247  1.00  0.00     0.031 C 
ATOM     39  C   UNL     1      -2.389   5.831   8.498  1.00  0.00     0.029 A 
ATOM     40  C   UNL     1      -1.298   5.797   9.459  1.00  0.00     0.049 A 
ATOM     41  H   UNL     1      -0.056   4.188   9.926  1.00  0.00     0.167 HD
ATOM     42  C   UNL     1       2.301   0.587  10.941  1.00  0.00     0.034 A 
ATOM     43  C   UNL     1      -0.917   6.837  10.220  1.00  0.00     0.034 A 
ATOM     44  C   UNL     1       2.811   1.654  11.776  1.00  0.00     0.049 A 
ATOM     45  C   UNL     1       0.207   6.629  11.190  1.00  0.00     0.074 A 
ATOM     46  C   UNL     1       3.855   1.622  12.685  1.00  0.00     0.029 A 
ATOM     47  N   UNL     1       2.305   2.950  11.808  1.00  0.00    -0.354 N 
ATOM     48  N   UNL     1       0.893   5.536  11.433  1.00  0.00    -0.248 NA
ATOM     49  C   UNL     1       0.611   7.793  11.982  1.00  0.00     0.031 C 
ATOM     50  C   UNL     1       3.938   2.873  13.309  1.00  0.00     0.029 A 
ATOM     51  C   UNL     1       2.998   3.716  12.735  1.00  0.00     0.049 A 
ATOM     52  H   UNL     1       1.561   3.277  11.252  1.00  0.00     0.167 HD
ATOM     53  C   UNL     1       1.828   5.887  12.398  1.00  0.00     0.074 A 
ATOM     54  C   UNL     1       1.629   7.299  12.670  1.00  0.00     0.031 C 
ATOM     55  C   UNL     1       2.767   5.116  13.005  1.00  0.00     0.034 A 
BRANCH  42  56
ATOM     56  C   UNL     1       2.913  -0.793  11.066  1.00  0.00     0.023 A 
ATOM     57  C   UNL     1       3.577  -1.422   9.997  1.00  0.00     0.031 A 
ATOM     58  C   UNL     1       2.820  -1.498  12.281  1.00  0.00     0.131 A 
ATOM     59  C   UNL     1       4.072  -2.730  10.147  1.00  0.00     0.055 A 
ATOM     60  C   UNL     1       3.373  -2.771  12.445  1.00  0.00     0.041 A 
ATOM     61  F   UNL     1       2.184  -0.962  13.335  1.00  0.00    -0.206 F 
ATOM     62  C   UNL     1       3.992  -3.400  11.370  1.00  0.00     0.022 A 
BRANCH  59  63
ATOM     63  S   UNL     1       4.722  -3.596   8.689  1.00  0.00     0.124 S 
ATOM     64  O   UNL     1       3.579  -3.556   7.782  1.00  0.00    -0.237 OA
ATOM     65  O   UNL     1       5.864  -2.769   8.315  1.00  0.00    -0.237 OA
ATOM     66  O   UNL     1       5.057  -4.925   9.199  1.00  0.00    -0.744 OA
ENDBRANCH  59  63
ENDBRANCH  42  56
BRANCH  43  67
ATOM     67  C   UNL     1      -1.641   8.132  10.115  1.00  0.00     0.023 A 
ATOM     68  C   UNL     1      -0.997   9.284   9.642  1.00  0.00     0.031 A 
ATOM     69  C   UNL     1      -3.000   8.230  10.471  1.00  0.00     0.131 A 
ATOM     70  C   UNL     1      -1.703  10.493   9.565  1.00  0.00     0.055 A 
ATOM     71  C   UNL     1      -3.712   9.422  10.339  1.00  0.00     0.041 A 
ATOM     72  F   UNL     1      -3.666   7.153  10.916  1.00  0.00    -0.206 F 
ATOM     73  C   UNL     1      -3.060  10.566   9.895  1.00  0.00     0.022 A 
BRANCH  70  74
ATOM     74  S   UNL     1      -0.802  11.991   9.090  1.00  0.00     0.124 S 
ATOM     75  O   UNL     1       0.262  12.028  10.088  1.00  0.00    -0.237 OA
ATOM     76  O   UNL     1      -0.391  11.676   7.726  1.00  0.00    -0.237 OA
ATOM     77  O   UNL     1      -1.808  13.044   9.209  1.00  0.00    -0.744 OA
ENDBRANCH  70  74
ENDBRANCH  43  67
BRANCH  55  78
ATOM     78  C   UNL     1       3.667   5.819  13.989  1.00  0.00     0.023 A 
ATOM     79  C   UNL     1       3.171   6.349  15.193  1.00  0.00     0.031 A 
ATOM     80  C   UNL     1       5.026   6.014  13.688  1.00  0.00     0.131 A 
ATOM     81  C   UNL     1       4.009   7.116  16.015  1.00  0.00     0.055 A 
ATOM     82  C   UNL     1       5.871   6.721  14.542  1.00  0.00     0.041 A 
ATOM     83  F   UNL     1       5.549   5.534  12.548  1.00  0.00    -0.206 F 
ATOM     84  C   UNL     1       5.360   7.293  15.704  1.00  0.00     0.022 A 
BRANCH  81  85
ATOM     85  S   UNL     1       3.278   7.987  17.428  1.00  0.00     0.124 S 
ATOM     86  O   UNL     1       2.248   8.797  16.785  1.00  0.00    -0.237 OA
ATOM     87  O   UNL     1       2.799   6.887  18.258  1.00  0.00    -0.237 OA
ATOM     88  O   UNL     1       4.401   8.740  17.984  1.00  0.00    -0.744 OA
ENDBRANCH  81  85
ENDBRANCH  55  78
ENDBRANCH  29  30
ENDBRANCH  22  24
ENDBRANCH  21  22
ENDBRANCH  20  21
ENDBRANCH   1  20
TORSDOF 19
