REMARK SMILES C[C@@](CC(=O)N[C@@H]1CCS(=O)(=O)C1)(C(=O)OCCOC(=O)c1ccc(-c2c3nc(c(-c4cc(S(=O)(=O)[O-])ccc4F)c4ccc([nH]4)c(-c4cc(S(=O)(=O)[O-])ccc4F)c4nc(c(-c5cc(S(=O)(=O)[O-])ccc5F)c5ccc2[nH]5)C=C4)C=C3)cc1)c1ccccc1
REMARK SMILES IDX 17 1 16 2 14 3 15 4 2 5 1 6 3 7 4 8 5 9 6 10 7 12 8 13 13 14
REMARK SMILES IDX 9 15 10 16 11 17 12 18 85 19 86 20 90 21 87 22 89 23 88 24
REMARK SMILES IDX 18 25 19 26 20 27 21 28 22 29 23 30 84 31 24 32 83 33 25 34
REMARK SMILES IDX 26 35 27 36 77 37 28 38 82 39 76 40 78 41 29 42 81 43 75 44
REMARK SMILES IDX 74 45 30 47 62 48 42 49 61 50 43 51 46 52 60 53 79 54 44 55
REMARK SMILES IDX 45 56 59 58 80 59 47 60 31 61 32 62 40 63 33 64 39 65 41 66
REMARK SMILES IDX 38 67 34 68 35 69 36 70 37 71 63 72 64 73 72 74 65 75 71 76
REMARK SMILES IDX 73 77 70 78 66 79 67 80 68 81 69 82 48 83 49 84 57 85 50 86
REMARK SMILES IDX 56 87 58 88 55 89 51 90 52 91 53 92 54 93
REMARK H PARENT 6 11 78 46 46 57
REMARK Flexibility Score: inf
ROOT
ATOM      1  C   UNL     1      -3.178   0.213  -1.357  1.00  0.00     0.274 C 
ENDROOT
BRANCH   1   2
ATOM      2  O   UNL     1      -1.748   0.166  -1.184  1.00  0.00    -0.461 OA
BRANCH   2   3
ATOM      3  C   UNL     1      -1.021   1.230  -1.641  1.00  0.00     0.316 C 
ATOM      4  O   UNL     1      -1.505   2.128  -2.317  1.00  0.00    -0.251 OA
BRANCH   3   5
ATOM      5  C   UNL     1       0.466   1.127  -1.181  1.00  0.00     0.099 C 
ATOM      6  C   UNL     1       0.467   0.459   0.220  1.00  0.00     0.029 C 
BRANCH   5   7
ATOM      7  C   UNL     1       1.248   0.293  -2.214  1.00  0.00     0.123 C 
BRANCH   7   8
ATOM      8  C   UNL     1       0.677  -1.066  -2.554  1.00  0.00     0.221 C 
ATOM      9  O   UNL     1      -0.220  -1.190  -3.389  1.00  0.00    -0.275 OA
ATOM     10  N   UNL     1       1.167  -2.199  -1.975  1.00  0.00    -0.352 N 
ATOM     11  H   UNL     1       0.840  -3.039  -2.372  1.00  0.00     0.163 HD
BRANCH  10  12
ATOM     12  C   UNL     1       2.097  -2.371  -0.862  1.00  0.00     0.098 C 
ATOM     13  C   UNL     1       3.566  -2.143  -1.233  1.00  0.00     0.042 C 
ATOM     14  C   UNL     1       2.019  -3.777  -0.269  1.00  0.00     0.161 C 
ATOM     15  C   UNL     1       4.037  -3.381  -1.976  1.00  0.00     0.139 C 
ATOM     16  S   UNL     1       3.183  -4.744  -1.208  1.00  0.00     0.152 S 
ATOM     17  O   UNL     1       2.457  -5.469  -2.229  1.00  0.00    -0.229 OA
ATOM     18  O   UNL     1       4.084  -5.404  -0.286  1.00  0.00    -0.229 OA
ENDBRANCH  10  12
ENDBRANCH   7   8
ENDBRANCH   5   7
BRANCH   5  19
ATOM     19  C   UNL     1       1.208   2.506  -1.102  1.00  0.00    -0.030 A 
ATOM     20  C   UNL     1       2.129   2.801  -0.072  1.00  0.00     0.005 A 
ATOM     21  C   UNL     1       1.032   3.497  -2.087  1.00  0.00     0.005 A 
ATOM     22  C   UNL     1       2.789   4.034  -0.000  1.00  0.00     0.000 A 
ATOM     23  C   UNL     1       1.682   4.736  -2.008  1.00  0.00     0.000 A 
ATOM     24  C   UNL     1       2.556   5.007  -0.961  1.00  0.00     0.000 A 
ENDBRANCH   5  19
ENDBRANCH   3   5
ENDBRANCH   2   3
ENDBRANCH   1   2
BRANCH   1  25
ATOM     25  C   UNL     1      -3.824   0.513  -0.007  1.00  0.00     0.275 C 
BRANCH  25  26
ATOM     26  O   UNL     1      -3.451   1.845   0.389  1.00  0.00    -0.458 OA
BRANCH  26  27
ATOM     27  C   UNL     1      -2.982   1.991   1.650  1.00  0.00     0.338 C 
ATOM     28  O   UNL     1      -2.949   1.148   2.529  1.00  0.00    -0.246 OA
BRANCH  27  29
ATOM     29  C   UNL     1      -2.441   3.355   1.796  1.00  0.00     0.060 A 
ATOM     30  C   UNL     1      -1.421   3.766   0.943  1.00  0.00     0.016 A 
ATOM     31  C   UNL     1      -2.852   4.187   2.834  1.00  0.00     0.016 A 
ATOM     32  C   UNL     1      -0.748   4.960   1.169  1.00  0.00     0.010 A 
ATOM     33  C   UNL     1      -2.231   5.433   3.005  1.00  0.00     0.010 A 
ATOM     34  C   UNL     1      -1.140   5.816   2.199  1.00  0.00    -0.014 A 
BRANCH  34  35
ATOM     35  C   UNL     1      -0.330   7.032   2.500  1.00  0.00     0.031 A 
ATOM     36  C   UNL     1       0.332   7.158   3.847  1.00  0.00     0.074 A 
ATOM     37  C   UNL     1      -0.105   7.982   1.569  1.00  0.00     0.049 A 
ATOM     38  N   UNL     1       0.917   8.190   4.398  1.00  0.00    -0.248 NA
ATOM     39  C   UNL     1       0.324   5.952   4.687  1.00  0.00     0.031 C 
ATOM     40  C   UNL     1      -0.566   7.940   0.180  1.00  0.00     0.029 A 
ATOM     41  N   UNL     1       0.588   9.167   1.649  1.00  0.00    -0.354 N 
ATOM     42  C   UNL     1       1.290   7.778   5.674  1.00  0.00     0.074 A 
ATOM     43  C   UNL     1       0.855   6.404   5.812  1.00  0.00     0.031 C 
ATOM     44  C   UNL     1      -0.112   9.025  -0.467  1.00  0.00     0.029 A 
ATOM     45  C   UNL     1       0.581   9.892   0.480  1.00  0.00     0.049 A 
ATOM     46  H   UNL     1       1.046   9.469   2.467  1.00  0.00     0.167 HD
ATOM     47  C   UNL     1       1.930   8.484   6.640  1.00  0.00     0.034 A 
ATOM     48  C   UNL     1       1.033  11.134   0.211  1.00  0.00     0.034 A 
ATOM     49  C   UNL     1       2.391   9.841   6.471  1.00  0.00     0.049 A 
ATOM     50  C   UNL     1       1.650  11.942   1.326  1.00  0.00     0.074 A 
ATOM     51  C   UNL     1       3.016  10.665   7.392  1.00  0.00     0.029 A 
ATOM     52  N   UNL     1       2.285  10.576   5.296  1.00  0.00    -0.354 N 
ATOM     53  N   UNL     1       1.885  11.593   2.570  1.00  0.00    -0.248 NA
ATOM     54  C   UNL     1       2.042  13.320   1.003  1.00  0.00     0.031 C 
ATOM     55  C   UNL     1       3.232  11.912   6.794  1.00  0.00     0.029 A 
ATOM     56  C   UNL     1       2.814  11.846   5.475  1.00  0.00     0.049 A 
ATOM     57  H   UNL     1       1.893  10.242   4.457  1.00  0.00     0.167 HD
ATOM     58  C   UNL     1       2.474  12.703   3.170  1.00  0.00     0.074 A 
ATOM     59  C   UNL     1       2.572  13.725   2.148  1.00  0.00     0.031 C 
ATOM     60  C   UNL     1       2.898  12.862   4.451  1.00  0.00     0.034 A 
BRANCH  47  61
ATOM     61  C   UNL     1       2.075   7.817   7.989  1.00  0.00     0.023 A 
ATOM     62  C   UNL     1       2.830   6.645   8.169  1.00  0.00     0.031 A 
ATOM     63  C   UNL     1       1.367   8.320   9.096  1.00  0.00     0.131 A 
ATOM     64  C   UNL     1       2.778   5.962   9.395  1.00  0.00     0.055 A 
ATOM     65  C   UNL     1       1.395   7.686  10.339  1.00  0.00     0.041 A 
ATOM     66  F   UNL     1       0.609   9.421   8.980  1.00  0.00    -0.206 F 
ATOM     67  C   UNL     1       2.085   6.487  10.488  1.00  0.00     0.022 A 
BRANCH  64  68
ATOM     68  S   UNL     1       3.464   4.284   9.479  1.00  0.00     0.124 S 
ATOM     69  O   UNL     1       2.747   3.615   8.396  1.00  0.00    -0.237 OA
ATOM     70  O   UNL     1       4.887   4.514   9.255  1.00  0.00    -0.237 OA
ATOM     71  O   UNL     1       3.107   3.834  10.823  1.00  0.00    -0.744 OA
ENDBRANCH  64  68
ENDBRANCH  47  61
BRANCH  48  72
ATOM     72  C   UNL     1       0.851  11.732  -1.144  1.00  0.00     0.023 A 
ATOM     73  C   UNL     1       1.954  12.104  -1.929  1.00  0.00     0.031 A 
ATOM     74  C   UNL     1      -0.435  11.988  -1.654  1.00  0.00     0.131 A 
ATOM     75  C   UNL     1       1.751  12.743  -3.163  1.00  0.00     0.055 A 
ATOM     76  C   UNL     1      -0.632  12.571  -2.906  1.00  0.00     0.041 A 
ATOM     77  F   UNL     1      -1.526  11.662  -0.942  1.00  0.00    -0.206 F 
ATOM     78  C   UNL     1       0.466  12.963  -3.664  1.00  0.00     0.022 A 
BRANCH  75  79
ATOM     79  S   UNL     1       3.196  13.351  -4.077  1.00  0.00     0.124 S 
ATOM     80  O   UNL     1       3.756  14.315  -3.137  1.00  0.00    -0.237 OA
ATOM     81  O   UNL     1       3.966  12.128  -4.278  1.00  0.00    -0.237 OA
ATOM     82  O   UNL     1       2.614  13.924  -5.289  1.00  0.00    -0.744 OA
ENDBRANCH  75  79
ENDBRANCH  48  72
BRANCH  60  83
ATOM     83  C   UNL     1       3.561  14.174   4.795  1.00  0.00     0.023 A 
ATOM     84  C   UNL     1       2.850  15.387   4.809  1.00  0.00     0.031 A 
ATOM     85  C   UNL     1       4.935  14.210   5.096  1.00  0.00     0.131 A 
ATOM     86  C   UNL     1       3.526  16.591   5.062  1.00  0.00     0.055 A 
ATOM     87  C   UNL     1       5.590  15.403   5.404  1.00  0.00     0.041 A 
ATOM     88  F   UNL     1       5.664  13.082   5.094  1.00  0.00    -0.206 F 
ATOM     89  C   UNL     1       4.888  16.604   5.375  1.00  0.00     0.022 A 
BRANCH  86  90
ATOM     90  S   UNL     1       2.624  18.155   4.883  1.00  0.00     0.124 S 
ATOM     91  O   UNL     1       2.149  18.076   3.506  1.00  0.00    -0.237 OA
ATOM     92  O   UNL     1       1.601  18.045   5.918  1.00  0.00    -0.237 OA
ATOM     93  O   UNL     1       3.646  19.171   5.128  1.00  0.00    -0.744 OA
ENDBRANCH  86  90
ENDBRANCH  60  83
ENDBRANCH  34  35
ENDBRANCH  27  29
ENDBRANCH  26  27
ENDBRANCH  25  26
ENDBRANCH   1  25
TORSDOF 18
