REMARK SMILES Cc1cc(Br)cc2c1O[C@H](C(F)(F)F)C(C(=O)OCCOC(=O)c1ccc(-c3c4nc(c(-c5cc(S(=O)(=O)[O-])ccc5F)c5ccc([nH]5)c(-c5cc(S(=O)(=O)[O-])ccc5F)c5nc(c(-c6cc(S(=O)(=O)[O-])ccc6F)c6ccc3[nH]6)C=C5)C=C4)cc1)=C2
REMARK SMILES IDX 20 1 19 2 18 3 16 4 17 5 15 6 1 7 2 8 3 9 8 10 4 11 7 12
REMARK SMILES IDX 9 13 5 14 6 15 87 16 10 17 11 18 12 19 13 20 14 21 21 22
REMARK SMILES IDX 22 23 23 24 24 25 25 26 86 27 26 28 85 29 27 30 28 31 29 32
REMARK SMILES IDX 79 33 30 34 84 35 78 36 80 37 31 38 83 39 77 40 76 41 32 43
REMARK SMILES IDX 64 44 44 45 63 46 45 47 48 48 62 49 81 50 46 51 47 52 61 54
REMARK SMILES IDX 82 55 49 56 33 57 34 58 42 59 35 60 41 61 43 62 40 63 36 64
REMARK SMILES IDX 37 65 38 66 39 67 65 68 66 69 74 70 67 71 73 72 75 73 72 74
REMARK SMILES IDX 68 75 69 76 70 77 71 78 50 79 51 80 59 81 52 82 58 83 60 84
REMARK SMILES IDX 57 85 53 86 54 87 55 88 56 89
REMARK H PARENT 80 42 48 53
REMARK Flexibility Score: inf
ROOT
ATOM      1  C   UNL     1      -4.017  -1.911  -7.529  1.00  0.00     0.275 C 
ENDROOT
BRANCH   1   2
ATOM      2  C   UNL     1      -2.743  -2.600  -7.040  1.00  0.00     0.275 C 
BRANCH   2   3
ATOM      3  O   UNL     1      -2.300  -2.062  -5.775  1.00  0.00    -0.459 OA
BRANCH   3   4
ATOM      4  C   UNL     1      -1.252  -1.209  -5.845  1.00  0.00     0.338 C 
ATOM      5  O   UNL     1      -0.645  -0.887  -6.855  1.00  0.00    -0.246 OA
BRANCH   4   6
ATOM      6  C   UNL     1      -0.906  -0.691  -4.509  1.00  0.00     0.087 C 
ATOM      7  C   UNL     1       1.051  -0.102   0.229  1.00  0.00     0.048 C 
ATOM      8  C   UNL     1       0.623   0.788  -0.901  1.00  0.00    -0.007 A 
ATOM      9  C   UNL     1       0.862   2.170  -0.790  1.00  0.00     0.023 A 
ATOM     10  C   UNL     1       0.056   0.283  -2.081  1.00  0.00     0.130 A 
ATOM     11  C   UNL     1       0.516   3.034  -1.826  1.00  0.00     0.019 A 
ATOM     12  C   UNL     1      -0.274   1.158  -3.119  1.00  0.00     0.019 A 
ATOM     13  O   UNL     1      -0.162  -1.067  -2.157  1.00  0.00    -0.475 OA
ATOM     14  Br  UNL     1       0.856   4.885  -1.666  1.00  0.00    -0.051 Br
ATOM     15  C   UNL     1      -0.058   2.536  -2.989  1.00  0.00     0.027 A 
ATOM     16  C   UNL     1      -0.791   0.633  -4.365  1.00  0.00     0.027 C 
ATOM     17  C   UNL     1      -0.549  -1.662  -3.426  1.00  0.00     0.316 C 
BRANCH  17  18
ATOM     18  C   UNL     1       0.561  -2.626  -3.874  1.00  0.00     0.430 C 
ATOM     19  F   UNL     1       0.884  -3.496  -2.885  1.00  0.00    -0.167 F 
ATOM     20  F   UNL     1       0.172  -3.381  -4.930  1.00  0.00    -0.167 F 
ATOM     21  F   UNL     1       1.693  -1.981  -4.232  1.00  0.00    -0.167 F 
ENDBRANCH  17  18
ENDBRANCH   4   6
ENDBRANCH   3   4
ENDBRANCH   2   3
ENDBRANCH   1   2
BRANCH   1  22
ATOM     22  O   UNL     1      -3.755  -0.535  -7.857  1.00  0.00    -0.458 OA
BRANCH  22  23
ATOM     23  C   UNL     1      -4.190   0.360  -6.941  1.00  0.00     0.338 C 
ATOM     24  O   UNL     1      -4.805   0.122  -5.915  1.00  0.00    -0.246 OA
BRANCH  23  25
ATOM     25  C   UNL     1      -3.745   1.716  -7.294  1.00  0.00     0.060 A 
ATOM     26  C   UNL     1      -2.393   2.014  -7.188  1.00  0.00     0.016 A 
ATOM     27  C   UNL     1      -4.668   2.738  -7.497  1.00  0.00     0.016 A 
ATOM     28  C   UNL     1      -1.981   3.337  -7.084  1.00  0.00     0.010 A 
ATOM     29  C   UNL     1      -4.222   4.065  -7.568  1.00  0.00     0.010 A 
ATOM     30  C   UNL     1      -2.880   4.390  -7.301  1.00  0.00    -0.014 A 
BRANCH  30  31
ATOM     31  C   UNL     1      -2.418   5.810  -7.215  1.00  0.00     0.031 A 
ATOM     32  C   UNL     1      -3.137   6.796  -6.322  1.00  0.00     0.074 A 
ATOM     33  C   UNL     1      -1.332   6.220  -7.906  1.00  0.00     0.049 A 
ATOM     34  N   UNL     1      -3.021   8.099  -6.268  1.00  0.00    -0.248 NA
ATOM     35  C   UNL     1      -4.127   6.249  -5.379  1.00  0.00     0.031 C 
ATOM     36  C   UNL     1      -0.491   5.368  -8.754  1.00  0.00     0.029 A 
ATOM     37  N   UNL     1      -0.729   7.452  -7.994  1.00  0.00    -0.354 N 
ATOM     38  C   UNL     1      -3.955   8.530  -5.329  1.00  0.00     0.074 A 
ATOM     39  C   UNL     1      -4.642   7.350  -4.850  1.00  0.00     0.031 C 
ATOM     40  C   UNL     1       0.549   6.079  -9.208  1.00  0.00     0.029 A 
ATOM     41  C   UNL     1       0.384   7.468  -8.804  1.00  0.00     0.049 A 
ATOM     42  H   UNL     1      -1.062   8.249  -7.521  1.00  0.00     0.167 HD
ATOM     43  C   UNL     1      -4.211   9.792  -4.906  1.00  0.00     0.034 A 
ATOM     44  C   UNL     1       1.157   8.485  -9.233  1.00  0.00     0.034 A 
ATOM     45  C   UNL     1      -3.477  10.952  -5.351  1.00  0.00     0.049 A 
ATOM     46  C   UNL     1       0.801   9.885  -8.819  1.00  0.00     0.074 A 
ATOM     47  C   UNL     1      -3.658  12.276  -4.988  1.00  0.00     0.029 A 
ATOM     48  N   UNL     1      -2.412  10.927  -6.241  1.00  0.00    -0.354 N 
ATOM     49  N   UNL     1      -0.159  10.286  -8.020  1.00  0.00    -0.248 NA
ATOM     50  C   UNL     1       1.610  10.970  -9.387  1.00  0.00     0.031 C 
ATOM     51  C   UNL     1      -2.743  13.055  -5.701  1.00  0.00     0.029 A 
ATOM     52  C   UNL     1      -1.944  12.213  -6.457  1.00  0.00     0.049 A 
ATOM     53  H   UNL     1      -2.043  10.115  -6.657  1.00  0.00     0.167 HD
ATOM     54  C   UNL     1      -0.062  11.672  -7.981  1.00  0.00     0.074 A 
ATOM     55  C   UNL     1       1.058  12.037  -8.825  1.00  0.00     0.031 C 
ATOM     56  C   UNL     1      -0.834  12.562  -7.309  1.00  0.00     0.034 A 
BRANCH  43  57
ATOM     57  C   UNL     1      -5.355  10.003  -3.946  1.00  0.00     0.023 A 
ATOM     58  C   UNL     1      -5.307   9.553  -2.616  1.00  0.00     0.031 A 
ATOM     59  C   UNL     1      -6.503  10.703  -4.365  1.00  0.00     0.131 A 
ATOM     60  C   UNL     1      -6.400   9.776  -1.764  1.00  0.00     0.055 A 
ATOM     61  C   UNL     1      -7.559  10.977  -3.495  1.00  0.00     0.041 A 
ATOM     62  F   UNL     1      -6.610  11.141  -5.630  1.00  0.00    -0.206 F 
ATOM     63  C   UNL     1      -7.514  10.507  -2.186  1.00  0.00     0.022 A 
BRANCH  60  64
ATOM     64  S   UNL     1      -6.383   9.032  -0.110  1.00  0.00     0.124 S 
ATOM     65  O   UNL     1      -6.380   7.607  -0.429  1.00  0.00    -0.237 OA
ATOM     66  O   UNL     1      -5.151   9.561   0.464  1.00  0.00    -0.237 OA
ATOM     67  O   UNL     1      -7.615   9.526   0.501  1.00  0.00    -0.744 OA
ENDBRANCH  60  64
ENDBRANCH  43  57
BRANCH  44  68
ATOM     68  C   UNL     1       2.293   8.220 -10.161  1.00  0.00     0.023 A 
ATOM     69  C   UNL     1       3.618   8.454  -9.764  1.00  0.00     0.031 A 
ATOM     70  C   UNL     1       2.071   7.720 -11.458  1.00  0.00     0.131 A 
ATOM     71  C   UNL     1       4.670   8.199 -10.659  1.00  0.00     0.055 A 
ATOM     72  C   UNL     1       3.122   7.420 -12.325  1.00  0.00     0.041 A 
ATOM     73  F   UNL     1       0.822   7.480 -11.888  1.00  0.00    -0.206 F 
ATOM     74  C   UNL     1       4.432   7.666 -11.929  1.00  0.00     0.022 A 
BRANCH  71  75
ATOM     75  S   UNL     1       6.362   8.611 -10.154  1.00  0.00     0.124 S 
ATOM     76  O   UNL     1       6.276  10.057  -9.984  1.00  0.00    -0.237 OA
ATOM     77  O   UNL     1       6.516   7.829  -8.932  1.00  0.00    -0.237 OA
ATOM     78  O   UNL     1       7.173   8.162 -11.284  1.00  0.00    -0.744 OA
ENDBRANCH  71  75
ENDBRANCH  44  68
BRANCH  56  79
ATOM     79  C   UNL     1      -0.477  14.018  -7.437  1.00  0.00     0.023 A 
ATOM     80  C   UNL     1      -0.698  14.722  -8.631  1.00  0.00     0.031 A 
ATOM     81  C   UNL     1       0.054  14.715  -6.338  1.00  0.00     0.131 A 
ATOM     82  C   UNL     1      -0.361  16.081  -8.709  1.00  0.00     0.055 A 
ATOM     83  C   UNL     1       0.341  16.078  -6.406  1.00  0.00     0.041 A 
ATOM     84  F   UNL     1       0.282  14.085  -5.175  1.00  0.00    -0.206 F 
ATOM     85  C   UNL     1       0.139  16.768  -7.599  1.00  0.00     0.022 A 
BRANCH  82  86
ATOM     86  S   UNL     1      -0.548  16.934 -10.298  1.00  0.00     0.124 S 
ATOM     87  O   UNL     1       0.411  16.223 -11.137  1.00  0.00    -0.237 OA
ATOM     88  O   UNL     1      -1.956  16.713 -10.612  1.00  0.00    -0.237 OA
ATOM     89  O   UNL     1      -0.195  18.318  -9.988  1.00  0.00    -0.744 OA
ENDBRANCH  82  86
ENDBRANCH  56  79
ENDBRANCH  30  31
ENDBRANCH  23  25
ENDBRANCH  22  23
ENDBRANCH   1  22
TORSDOF 15
