REMARK SMILES CC(C)CN(C)c1cc2c(cc1Cl)C=C(C(=O)OCCOC(=O)c1ccc(-c3c4nc(c(-c5cc(S(=O)(=O)[O-])ccc5F)c5ccc([nH]5)c(-c5cc(S(=O)(=O)[O-])ccc5F)c5nc(c(-c6cc(S(=O)(=O)[O-])ccc6F)c6ccc3[nH]6)C=C5)C=C4)cc1)[C@@H](C(F)(F)F)O2
REMARK SMILES IDX 19 1 18 2 16 3 17 4 15 5 7 6 8 7 12 8 9 9 11 10 13 11 10 12
REMARK SMILES IDX 92 13 14 14 87 15 5 16 6 17 4 18 2 19 1 20 3 21 88 22 89 23
REMARK SMILES IDX 90 24 91 25 20 26 21 27 22 28 23 29 24 30 25 31 86 32 26 33
REMARK SMILES IDX 85 34 27 35 28 36 29 37 79 38 30 39 84 40 78 41 80 42 31 43
REMARK SMILES IDX 83 44 77 45 76 46 32 48 64 49 44 50 63 51 45 52 48 53 62 54
REMARK SMILES IDX 81 55 46 56 47 57 61 59 82 60 49 61 33 62 34 63 42 64 35 65
REMARK SMILES IDX 41 66 43 67 40 68 36 69 37 70 38 71 39 72 65 73 66 74 74 75
REMARK SMILES IDX 67 76 73 77 75 78 72 79 68 80 69 81 70 82 71 83 50 84 51 85
REMARK SMILES IDX 59 86 52 87 58 88 60 89 57 90 53 91 54 92 55 93 56 94
REMARK H PARENT 80 47 48 58
REMARK Flexibility Score: inf
ROOT
ATOM      1  C   UNL     1      -1.609   2.175  -9.424  1.00  0.00     0.275 C 
ENDROOT
BRANCH   1   2
ATOM      2  O   UNL     1      -2.006   1.813  -8.082  1.00  0.00    -0.459 OA
BRANCH   2   3
ATOM      3  C   UNL     1      -1.184   0.921  -7.486  1.00  0.00     0.338 C 
ATOM      4  O   UNL     1      -0.200   0.402  -7.996  1.00  0.00    -0.246 OA
BRANCH   3   5
ATOM      5  C   UNL     1      -1.582   0.631  -6.100  1.00  0.00     0.087 C 
ATOM      6  C   UNL     1      -1.194  -1.276  -1.465  1.00  0.00     0.059 A 
ATOM      7  C   UNL     1      -2.292  -0.842  -2.248  1.00  0.00     0.074 A 
ATOM      8  C   UNL     1       0.089  -1.200  -2.046  1.00  0.00     0.065 A 
ATOM      9  C   UNL     1      -2.100  -0.298  -3.522  1.00  0.00     0.130 A 
ATOM     10  C   UNL     1       0.290  -0.525  -3.242  1.00  0.00     0.034 A 
ATOM     11  Cl  UNL     1       1.468  -2.024  -1.405  1.00  0.00    -0.082 Cl
ATOM     12  C   UNL     1      -0.805  -0.061  -3.961  1.00  0.00     0.019 A 
ATOM     13  O   UNL     1      -3.191   0.005  -4.301  1.00  0.00    -0.475 OA
ATOM     14  C   UNL     1      -0.577   0.591  -5.224  1.00  0.00     0.027 C 
ATOM     15  C   UNL     1      -2.949   0.122  -5.750  1.00  0.00     0.316 C 
BRANCH   6  16
ATOM     16  N   UNL     1      -1.377  -1.758  -0.163  1.00  0.00    -0.373 N 
ATOM     17  C   UNL     1      -2.350  -2.826   0.009  1.00  0.00     0.143 C 
BRANCH  16  18
ATOM     18  C   UNL     1      -1.222  -0.790   0.948  1.00  0.00     0.119 C 
BRANCH  18  19
ATOM     19  C   UNL     1       0.247  -0.559   1.367  1.00  0.00     0.002 C 
ATOM     20  C   UNL     1       0.824   0.721   0.752  1.00  0.00     0.009 C 
ATOM     21  C   UNL     1       0.400  -0.481   2.889  1.00  0.00     0.009 C 
ENDBRANCH  18  19
ENDBRANCH  16  18
ENDBRANCH   6  16
BRANCH  15  22
ATOM     22  C   UNL     1      -3.235  -1.212  -6.459  1.00  0.00     0.430 C 
ATOM     23  F   UNL     1      -4.472  -1.678  -6.160  1.00  0.00    -0.167 F 
ATOM     24  F   UNL     1      -3.198  -1.067  -7.808  1.00  0.00    -0.167 F 
ATOM     25  F   UNL     1      -2.348  -2.179  -6.134  1.00  0.00    -0.167 F 
ENDBRANCH  15  22
ENDBRANCH   3   5
ENDBRANCH   2   3
ENDBRANCH   1   2
BRANCH   1  26
ATOM     26  C   UNL     1      -0.827   3.490  -9.463  1.00  0.00     0.275 C 
BRANCH  26  27
ATOM     27  O   UNL     1       0.459   3.358  -8.828  1.00  0.00    -0.458 OA
BRANCH  27  28
ATOM     28  C   UNL     1       0.561   3.945  -7.613  1.00  0.00     0.338 C 
ATOM     29  O   UNL     1      -0.312   4.547  -7.013  1.00  0.00    -0.246 OA
BRANCH  28  30
ATOM     30  C   UNL     1       1.900   3.716  -7.044  1.00  0.00     0.060 A 
ATOM     31  C   UNL     1       2.780   4.771  -6.837  1.00  0.00     0.016 A 
ATOM     32  C   UNL     1       2.202   2.456  -6.541  1.00  0.00     0.016 A 
ATOM     33  C   UNL     1       3.965   4.544  -6.122  1.00  0.00     0.010 A 
ATOM     34  C   UNL     1       3.282   2.281  -5.679  1.00  0.00     0.010 A 
ATOM     35  C   UNL     1       4.211   3.308  -5.487  1.00  0.00    -0.014 A 
BRANCH  35  36
ATOM     36  C   UNL     1       5.433   3.086  -4.649  1.00  0.00     0.031 A 
ATOM     37  C   UNL     1       6.360   1.917  -4.916  1.00  0.00     0.074 A 
ATOM     38  C   UNL     1       5.707   3.923  -3.624  1.00  0.00     0.049 A 
ATOM     39  N   UNL     1       7.478   1.598  -4.312  1.00  0.00    -0.248 NA
ATOM     40  C   UNL     1       5.969   0.957  -5.963  1.00  0.00     0.031 C 
ATOM     41  C   UNL     1       4.849   5.025  -3.184  1.00  0.00     0.029 A 
ATOM     42  N   UNL     1       6.791   4.000  -2.780  1.00  0.00    -0.354 N 
ATOM     43  C   UNL     1       7.895   0.397  -4.882  1.00  0.00     0.074 A 
ATOM     44  C   UNL     1       6.874   0.000  -5.820  1.00  0.00     0.031 C 
ATOM     45  C   UNL     1       5.479   5.723  -2.227  1.00  0.00     0.029 A 
ATOM     46  C   UNL     1       6.765   5.094  -1.941  1.00  0.00     0.049 A 
ATOM     47  H   UNL     1       7.518   3.335  -2.775  1.00  0.00     0.167 HD
ATOM     48  C   UNL     1       9.047  -0.288  -4.686  1.00  0.00     0.034 A 
ATOM     49  C   UNL     1       7.681   5.559  -1.064  1.00  0.00     0.034 A 
ATOM     50  C   UNL     1      10.101   0.160  -3.817  1.00  0.00     0.049 A 
ATOM     51  C   UNL     1       8.989   4.820  -0.917  1.00  0.00     0.074 A 
ATOM     52  C   UNL     1      11.348  -0.409  -3.624  1.00  0.00     0.029 A 
ATOM     53  N   UNL     1      10.048   1.291  -3.018  1.00  0.00    -0.354 N 
ATOM     54  N   UNL     1       9.409   3.751  -1.553  1.00  0.00    -0.248 NA
ATOM     55  C   UNL     1       9.954   5.351   0.057  1.00  0.00     0.031 C 
ATOM     56  C   UNL     1      12.031   0.351  -2.676  1.00  0.00     0.029 A 
ATOM     57  C   UNL     1      11.237   1.431  -2.323  1.00  0.00     0.049 A 
ATOM     58  H   UNL     1       9.280   1.904  -2.954  1.00  0.00     0.167 HD
ATOM     59  C   UNL     1      10.696   3.505  -1.081  1.00  0.00     0.074 A 
ATOM     60  C   UNL     1      10.996   4.549  -0.125  1.00  0.00     0.031 C 
ATOM     61  C   UNL     1      11.546   2.499  -1.405  1.00  0.00     0.034 A 
BRANCH  48  62
ATOM     62  C   UNL     1       9.289  -1.558  -5.471  1.00  0.00     0.023 A 
ATOM     63  C   UNL     1       9.494  -2.778  -4.798  1.00  0.00     0.031 A 
ATOM     64  C   UNL     1       9.472  -1.530  -6.865  1.00  0.00     0.131 A 
ATOM     65  C   UNL     1       9.909  -3.907  -5.516  1.00  0.00     0.055 A 
ATOM     66  C   UNL     1       9.835  -2.671  -7.582  1.00  0.00     0.041 A 
ATOM     67  F   UNL     1       9.297  -0.391  -7.554  1.00  0.00    -0.206 F 
ATOM     68  C   UNL     1      10.070  -3.863  -6.905  1.00  0.00     0.022 A 
BRANCH  65  69
ATOM     69  S   UNL     1      10.326  -5.458  -4.673  1.00  0.00     0.124 S 
ATOM     70  O   UNL     1       9.467  -6.418  -5.364  1.00  0.00    -0.237 OA
ATOM     71  O   UNL     1      11.753  -5.583  -4.956  1.00  0.00    -0.237 OA
ATOM     72  O   UNL     1       9.976  -5.206  -3.280  1.00  0.00    -0.744 OA
ENDBRANCH  65  69
ENDBRANCH  48  62
BRANCH  49  73
ATOM     73  C   UNL     1       7.436   6.851  -0.353  1.00  0.00     0.023 A 
ATOM     74  C   UNL     1       6.359   7.017   0.535  1.00  0.00     0.031 A 
ATOM     75  C   UNL     1       8.242   7.973  -0.626  1.00  0.00     0.131 A 
ATOM     76  C   UNL     1       6.087   8.283   1.075  1.00  0.00     0.055 A 
ATOM     77  C   UNL     1       8.008   9.215  -0.034  1.00  0.00     0.041 A 
ATOM     78  F   UNL     1       9.273   7.872  -1.480  1.00  0.00    -0.206 F 
ATOM     79  C   UNL     1       6.915   9.379   0.809  1.00  0.00     0.022 A 
BRANCH  76  80
ATOM     80  S   UNL     1       4.575   8.584   2.032  1.00  0.00     0.124 S 
ATOM     81  O   UNL     1       5.110   8.931   3.345  1.00  0.00    -0.237 OA
ATOM     82  O   UNL     1       3.962   9.684   1.291  1.00  0.00    -0.237 OA
ATOM     83  O   UNL     1       3.861   7.314   1.954  1.00  0.00    -0.744 OA
ENDBRANCH  76  80
ENDBRANCH  49  73
BRANCH  61  84
ATOM     84  C   UNL     1      12.908   2.455  -0.759  1.00  0.00     0.023 A 
ATOM     85  C   UNL     1      14.065   2.551  -1.558  1.00  0.00     0.031 A 
ATOM     86  C   UNL     1      13.061   2.138   0.601  1.00  0.00     0.131 A 
ATOM     87  C   UNL     1      15.320   2.281  -1.000  1.00  0.00     0.055 A 
ATOM     88  C   UNL     1      14.319   1.918   1.163  1.00  0.00     0.041 A 
ATOM     89  F   UNL     1      11.988   2.021   1.399  1.00  0.00    -0.206 F 
ATOM     90  C   UNL     1      15.454   1.972   0.357  1.00  0.00     0.022 A 
BRANCH  87  91
ATOM     91  S   UNL     1      16.810   2.218  -2.034  1.00  0.00     0.124 S 
ATOM     92  O   UNL     1      17.628   3.277  -1.449  1.00  0.00    -0.237 OA
ATOM     93  O   UNL     1      17.290   0.858  -1.800  1.00  0.00    -0.237 OA
ATOM     94  O   UNL     1      16.317   2.486  -3.381  1.00  0.00    -0.744 OA
ENDBRANCH  87  91
ENDBRANCH  61  84
ENDBRANCH  35  36
ENDBRANCH  28  30
ENDBRANCH  27  28
ENDBRANCH  26  27
ENDBRANCH   1  26
TORSDOF 18
