REMARK SMILES C[C@H]1CC([N@H+]2[C@@H](C(=O)OCCOC(=O)c3ccc(-c4c5nc(c(-c6cc(S(=O)(=O)[O-])ccc6F)c6ccc([nH]6)c(-c6cc(S(=O)(=O)[O-])ccc6F)c6nc(c(-c7cc(S(=O)(=O)[O-])ccc7F)c7ccc4[nH]7)C=C6)C=C5)cc3)CC[C@@H]3CCCC[C@@H]32)C[C@H](C)C1
REMARK SMILES IDX 11 1 10 2 9 3 7 4 8 5 6 6 5 7 85 8 78 10 80 11 84 12 79 13
REMARK SMILES IDX 81 14 83 15 82 16 4 17 1 18 2 19 3 20 89 21 87 22 86 23
REMARK SMILES IDX 88 24 12 25 13 26 14 27 15 28 16 29 77 30 17 31 76 32 18 33
REMARK SMILES IDX 19 34 20 35 70 36 21 37 75 38 69 39 71 40 22 41 74 42 68 43
REMARK SMILES IDX 67 44 23 46 55 47 35 48 54 49 36 50 39 51 53 52 72 53 37 54
REMARK SMILES IDX 38 55 52 57 73 58 40 59 24 60 25 61 33 62 26 63 32 64 34 65
REMARK SMILES IDX 31 66 27 67 28 68 29 69 30 70 56 71 57 72 65 73 58 74 64 75
REMARK SMILES IDX 66 76 63 77 59 78 60 79 61 80 62 81 41 82 42 83 50 84 43 85
REMARK SMILES IDX 49 86 51 87 48 88 44 89 45 90 46 91 47 92
REMARK H PARENT 5 9 71 45 39 56
REMARK Flexibility Score: inf
ROOT
ATOM      1  C   UNL     1       5.019  -2.769  -4.086  1.00  0.00     0.275 C 
ENDROOT
BRANCH   1   2
ATOM      2  C   UNL     1       3.594  -2.303  -4.391  1.00  0.00     0.274 C 
BRANCH   2   3
ATOM      3  O   UNL     1       3.026  -1.505  -3.322  1.00  0.00    -0.458 OA
BRANCH   3   4
ATOM      4  C   UNL     1       2.167  -2.170  -2.498  1.00  0.00     0.365 C 
ATOM      5  O   UNL     1       1.961  -3.381  -2.583  1.00  0.00    -0.245 OA
BRANCH   4   6
ATOM      6  C   UNL     1       1.365  -1.304  -1.504  1.00  0.00     0.295 C 
ATOM      7  N   UNL     1       1.502   0.177  -1.604  1.00  0.00    -0.318 N 
ATOM      8  C   UNL     1       2.692   0.729  -0.942  1.00  0.00     0.188 C 
ATOM      9  H   UNL     1       1.157   0.946  -1.029  1.00  0.00     0.349 HD
ATOM     10  C   UNL     1       1.439  -1.772  -0.052  1.00  0.00     0.078 C 
ATOM     11  C   UNL     1       2.774   0.301   0.553  1.00  0.00     0.048 C 
ATOM     12  C   UNL     1       3.075   2.215  -0.937  1.00  0.00     0.065 C 
ATOM     13  C   UNL     1       2.630  -1.206   0.703  1.00  0.00     0.016 C 
ATOM     14  C   UNL     1       1.801   1.029   1.486  1.00  0.00     0.010 C 
ATOM     15  C   UNL     1       2.507   3.141   0.141  1.00  0.00     0.006 C 
ATOM     16  C   UNL     1       1.773   2.542   1.334  1.00  0.00     0.001 C 
BRANCH   7  17
ATOM     17  C   UNL     1       0.608   0.725  -2.636  1.00  0.00     0.185 C 
ATOM     18  C   UNL     1      -2.006   1.613   0.019  1.00  0.00     0.008 C 
ATOM     19  C   UNL     1      -0.859   1.816  -0.962  1.00  0.00    -0.008 C 
ATOM     20  C   UNL     1      -0.819   0.746  -2.038  1.00  0.00     0.068 C 
ATOM     21  C   UNL     1      -0.808   3.201  -1.591  1.00  0.00     0.007 C 
ATOM     22  C   UNL     1       0.082   3.322  -2.853  1.00  0.00    -0.008 C 
ATOM     23  C   UNL     1       0.844   2.065  -3.352  1.00  0.00     0.068 C 
ATOM     24  C   UNL     1       0.979   4.568  -2.841  1.00  0.00     0.008 C 
ENDBRANCH   7  17
ENDBRANCH   4   6
ENDBRANCH   3   4
ENDBRANCH   2   3
ENDBRANCH   1   2
BRANCH   1  25
ATOM     25  O   UNL     1       5.028  -3.509  -2.859  1.00  0.00    -0.458 OA
BRANCH  25  26
ATOM     26  C   UNL     1       6.036  -3.234  -1.995  1.00  0.00     0.338 C 
ATOM     27  O   UNL     1       7.022  -2.555  -2.219  1.00  0.00    -0.246 OA
BRANCH  26  28
ATOM     28  C   UNL     1       5.729  -3.837  -0.676  1.00  0.00     0.060 A 
ATOM     29  C   UNL     1       4.410  -3.918  -0.246  1.00  0.00     0.016 A 
ATOM     30  C   UNL     1       6.748  -4.199   0.203  1.00  0.00     0.016 A 
ATOM     31  C   UNL     1       4.110  -4.213   1.079  1.00  0.00     0.010 A 
ATOM     32  C   UNL     1       6.429  -4.637   1.500  1.00  0.00     0.010 A 
ATOM     33  C   UNL     1       5.104  -4.608   1.975  1.00  0.00    -0.014 A 
BRANCH  33  34
ATOM     34  C   UNL     1       4.754  -4.925   3.396  1.00  0.00     0.031 A 
ATOM     35  C   UNL     1       5.526  -4.284   4.524  1.00  0.00     0.074 A 
ATOM     36  C   UNL     1       3.727  -5.750   3.700  1.00  0.00     0.049 A 
ATOM     37  N   UNL     1       5.589  -4.626   5.785  1.00  0.00    -0.248 NA
ATOM     38  C   UNL     1       6.353  -3.116   4.180  1.00  0.00     0.031 C 
ATOM     39  C   UNL     1       2.820  -6.380   2.736  1.00  0.00     0.029 A 
ATOM     40  N   UNL     1       3.259  -6.196   4.915  1.00  0.00    -0.354 N 
ATOM     41  C   UNL     1       6.529  -3.778   6.365  1.00  0.00     0.074 A 
ATOM     42  C   UNL     1       6.998  -2.896   5.318  1.00  0.00     0.031 C 
ATOM     43  C   UNL     1       1.877  -7.070   3.392  1.00  0.00     0.029 A 
ATOM     44  C   UNL     1       2.197  -7.068   4.812  1.00  0.00     0.049 A 
ATOM     45  H   UNL     1       3.647  -5.918   5.776  1.00  0.00     0.167 HD
ATOM     46  C   UNL     1       6.966  -3.756   7.649  1.00  0.00     0.034 A 
ATOM     47  C   UNL     1       1.595  -7.849   5.731  1.00  0.00     0.034 A 
ATOM     48  C   UNL     1       6.426  -4.591   8.695  1.00  0.00     0.049 A 
ATOM     49  C   UNL     1       2.129  -7.846   7.138  1.00  0.00     0.074 A 
ATOM     50  C   UNL     1       6.788  -4.646  10.030  1.00  0.00     0.029 A 
ATOM     51  N   UNL     1       5.392  -5.504   8.529  1.00  0.00    -0.354 N 
ATOM     52  N   UNL     1       3.110  -7.138   7.647  1.00  0.00    -0.248 NA
ATOM     53  C   UNL     1       1.496  -8.771   8.086  1.00  0.00     0.031 C 
ATOM     54  C   UNL     1       6.012  -5.627  10.658  1.00  0.00     0.029 A 
ATOM     55  C   UNL     1       5.118  -6.139   9.731  1.00  0.00     0.049 A 
ATOM     56  H   UNL     1       4.921  -5.675   7.681  1.00  0.00     0.167 HD
ATOM     57  C   UNL     1       3.209  -7.533   8.976  1.00  0.00     0.074 A 
ATOM     58  C   UNL     1       2.168  -8.515   9.198  1.00  0.00     0.031 C 
ATOM     59  C   UNL     1       4.088  -7.130   9.928  1.00  0.00     0.034 A 
BRANCH  46  60
ATOM     60  C   UNL     1       8.136  -2.859   7.976  1.00  0.00     0.023 A 
ATOM     61  C   UNL     1       8.053  -1.458   7.938  1.00  0.00     0.031 A 
ATOM     62  C   UNL     1       9.373  -3.436   8.325  1.00  0.00     0.131 A 
ATOM     63  C   UNL     1       9.198  -0.683   8.188  1.00  0.00     0.055 A 
ATOM     64  C   UNL     1      10.488  -2.659   8.643  1.00  0.00     0.041 A 
ATOM     65  F   UNL     1       9.518  -4.770   8.357  1.00  0.00    -0.206 F 
ATOM     66  C   UNL     1      10.407  -1.273   8.564  1.00  0.00     0.022 A 
BRANCH  63  67
ATOM     67  S   UNL     1       9.119   1.107   7.901  1.00  0.00     0.124 S 
ATOM     68  O   UNL     1       8.777   1.163   6.481  1.00  0.00    -0.237 OA
ATOM     69  O   UNL     1       8.074   1.529   8.827  1.00  0.00    -0.237 OA
ATOM     70  O   UNL     1      10.466   1.567   8.229  1.00  0.00    -0.744 OA
ENDBRANCH  63  67
ENDBRANCH  46  60
BRANCH  47  71
ATOM     71  C   UNL     1       0.508  -8.793   5.330  1.00  0.00     0.023 A 
ATOM     72  C   UNL     1      -0.779  -8.697   5.880  1.00  0.00     0.031 A 
ATOM     73  C   UNL     1       0.758  -9.840   4.422  1.00  0.00     0.131 A 
ATOM     74  C   UNL     1      -1.755  -9.650   5.545  1.00  0.00     0.055 A 
ATOM     75  C   UNL     1      -0.233 -10.744   4.041  1.00  0.00     0.041 A 
ATOM     76  F   UNL     1       1.975  -9.989   3.873  1.00  0.00    -0.206 F 
ATOM     77  C   UNL     1      -1.496 -10.660   4.615  1.00  0.00     0.022 A 
BRANCH  74  78
ATOM     78  S   UNL     1      -3.344  -9.613   6.419  1.00  0.00     0.124 S 
ATOM     79  O   UNL     1      -2.921  -9.717   7.811  1.00  0.00    -0.237 OA
ATOM     80  O   UNL     1      -3.885  -8.322   6.008  1.00  0.00    -0.237 OA
ATOM     81  O   UNL     1      -4.050 -10.779   5.892  1.00  0.00    -0.744 OA
ENDBRANCH  74  78
ENDBRANCH  47  71
BRANCH  59  82
ATOM     82  C   UNL     1       3.924  -7.736  11.298  1.00  0.00     0.023 A 
ATOM     83  C   UNL     1       4.200  -9.093  11.537  1.00  0.00     0.031 A 
ATOM     84  C   UNL     1       3.453  -6.954  12.366  1.00  0.00     0.131 A 
ATOM     85  C   UNL     1       3.947  -9.643  12.802  1.00  0.00     0.055 A 
ATOM     86  C   UNL     1       3.257  -7.493  13.637  1.00  0.00     0.041 A 
ATOM     87  F   UNL     1       3.172  -5.653  12.189  1.00  0.00    -0.206 F 
ATOM     88  C   UNL     1       3.491  -8.848  13.858  1.00  0.00     0.022 A 
BRANCH  85  89
ATOM     89  S   UNL     1       4.135 -11.433  13.028  1.00  0.00     0.124 S 
ATOM     90  O   UNL     1       3.187 -11.963  12.053  1.00  0.00    -0.237 OA
ATOM     91  O   UNL     1       5.546 -11.640  12.723  1.00  0.00    -0.237 OA
ATOM     92  O   UNL     1       3.767 -11.643  14.427  1.00  0.00    -0.744 OA
ENDBRANCH  85  89
ENDBRANCH  59  82
ENDBRANCH  33  34
ENDBRANCH  26  28
ENDBRANCH  25  26
ENDBRANCH   1  25
TORSDOF 15
