REMARK SMILES O=C(OCCOC(=O)c1[nH]ncc1C[N@H+]1CCC[C@H](C(=O)c2ccc3ccccc3c2)C1)c1ccc(-c2c3nc(c(-c4cc(S(=O)(=O)[O-])ccc4F)c4ccc([nH]4)c(-c4cc(S(=O)(=O)[O-])ccc4F)c4nc(c(-c5cc(S(=O)(=O)[O-])ccc5F)c5ccc2[nH]5)C=C4)C=C3)cc1
REMARK SMILES IDX 5 1 4 2 3 3 2 4 1 5 33 6 34 7 95 8 35 9 94 10 36 11 37 12
REMARK SMILES IDX 38 13 88 14 39 15 93 16 87 17 89 18 40 19 92 20 86 21 85 22
REMARK SMILES IDX 41 24 73 25 53 26 72 27 54 28 57 29 71 30 90 31 55 32 56 33
REMARK SMILES IDX 70 35 91 36 58 37 42 38 43 39 51 40 44 41 50 42 52 43 49 44
REMARK SMILES IDX 45 45 46 46 47 47 48 48 74 49 75 50 83 51 76 52 82 53 84 54
REMARK SMILES IDX 81 55 77 56 78 57 79 58 80 59 59 60 60 61 68 62 61 63 67 64
REMARK SMILES IDX 69 65 66 66 62 67 63 68 64 69 65 70 6 71 7 72 8 73 9 74
REMARK SMILES IDX 10 75 13 76 11 77 12 79 14 80 15 81 16 82 32 83 17 85 19 86
REMARK SMILES IDX 18 87 20 88 21 89 22 90 23 91 31 92 24 93 30 94 25 95 29 96
REMARK SMILES IDX 26 97 28 98 27 99
REMARK H PARENT 89 23 57 34 10 78 15 84
REMARK Flexibility Score: inf
ROOT
ATOM      1  C   UNL     1       4.123  -0.538  -2.048  1.00  0.00     0.275 C 
ENDROOT
BRANCH   1   2
ATOM      2  C   UNL     1       4.380  -1.318  -0.754  1.00  0.00     0.275 C 
BRANCH   2   3
ATOM      3  O   UNL     1       3.283  -1.266   0.176  1.00  0.00    -0.458 OA
BRANCH   3   4
ATOM      4  C   UNL     1       2.925  -0.356   1.111  1.00  0.00     0.338 C 
ATOM      5  O   UNL     1       1.843  -0.531   1.674  1.00  0.00    -0.246 OA
BRANCH   4   6
ATOM      6  C   UNL     1       3.682   0.899   1.453  1.00  0.00     0.060 A 
ATOM      7  C   UNL     1       4.949   1.270   0.997  1.00  0.00     0.016 A 
ATOM      8  C   UNL     1       3.008   1.815   2.288  1.00  0.00     0.016 A 
ATOM      9  C   UNL     1       5.519   2.501   1.350  1.00  0.00     0.010 A 
ATOM     10  C   UNL     1       3.554   3.062   2.611  1.00  0.00     0.010 A 
ATOM     11  C   UNL     1       4.830   3.403   2.162  1.00  0.00    -0.014 A 
BRANCH  11  12
ATOM     12  C   UNL     1       5.520   4.615   2.663  1.00  0.00     0.031 A 
ATOM     13  C   UNL     1       6.032   4.602   4.069  1.00  0.00     0.074 A 
ATOM     14  C   UNL     1       5.747   5.671   1.862  1.00  0.00     0.049 A 
ATOM     15  N   UNL     1       6.750   5.494   4.695  1.00  0.00    -0.248 NA
ATOM     16  C   UNL     1       5.694   3.417   4.872  1.00  0.00     0.031 C 
ATOM     17  C   UNL     1       5.321   5.755   0.472  1.00  0.00     0.029 A 
ATOM     18  N   UNL     1       6.397   6.858   2.078  1.00  0.00    -0.354 N 
ATOM     19  C   UNL     1       6.973   4.967   5.960  1.00  0.00     0.074 A 
ATOM     20  C   UNL     1       6.245   3.718   6.034  1.00  0.00     0.031 C 
ATOM     21  C   UNL     1       5.730   6.920  -0.054  1.00  0.00     0.029 A 
ATOM     22  C   UNL     1       6.423   7.684   0.976  1.00  0.00     0.049 A 
ATOM     23  H   UNL     1       6.806   7.099   2.940  1.00  0.00     0.167 HD
ATOM     24  C   UNL     1       7.742   5.465   6.957  1.00  0.00     0.034 A 
ATOM     25  C   UNL     1       6.948   8.914   0.815  1.00  0.00     0.034 A 
ATOM     26  C   UNL     1       8.406   6.741   6.876  1.00  0.00     0.049 A 
ATOM     27  C   UNL     1       7.698   9.510   1.977  1.00  0.00     0.074 A 
ATOM     28  C   UNL     1       9.171   7.385   7.829  1.00  0.00     0.029 A 
ATOM     29  N   UNL     1       8.358   7.584   5.768  1.00  0.00    -0.354 N 
ATOM     30  N   UNL     1       7.928   8.987   3.161  1.00  0.00    -0.248 NA
ATOM     31  C   UNL     1       8.279  10.841   1.780  1.00  0.00     0.031 C 
ATOM     32  C   UNL     1       9.534   8.640   7.322  1.00  0.00     0.029 A 
ATOM     33  C   UNL     1       9.056   8.753   6.024  1.00  0.00     0.049 A 
ATOM     34  H   UNL     1       7.895   7.378   4.924  1.00  0.00     0.167 HD
ATOM     35  C   UNL     1       8.719   9.909   3.837  1.00  0.00     0.074 A 
ATOM     36  C   UNL     1       8.926  11.017   2.923  1.00  0.00     0.031 C 
ATOM     37  C   UNL     1       9.239   9.843   5.091  1.00  0.00     0.034 A 
BRANCH  24  38
ATOM     38  C   UNL     1       7.812   4.631   8.213  1.00  0.00     0.023 A 
ATOM     39  C   UNL     1       8.339   3.325   8.190  1.00  0.00     0.031 A 
ATOM     40  C   UNL     1       7.200   5.074   9.396  1.00  0.00     0.131 A 
ATOM     41  C   UNL     1       8.130   2.468   9.281  1.00  0.00     0.055 A 
ATOM     42  C   UNL     1       7.082   4.246  10.515  1.00  0.00     0.041 A 
ATOM     43  F   UNL     1       6.655   6.299   9.467  1.00  0.00    -0.206 F 
ATOM     44  C   UNL     1       7.524   2.927  10.453  1.00  0.00     0.022 A 
BRANCH  41  45
ATOM     45  S   UNL     1       8.462   0.696   9.063  1.00  0.00     0.124 S 
ATOM     46  O   UNL     1       7.572   0.364   7.952  1.00  0.00    -0.237 OA
ATOM     47  O   UNL     1       9.889   0.675   8.766  1.00  0.00    -0.237 OA
ATOM     48  O   UNL     1       8.083   0.115  10.349  1.00  0.00    -0.744 OA
ENDBRANCH  41  45
ENDBRANCH  24  38
BRANCH  25  49
ATOM     49  C   UNL     1       6.797   9.646  -0.479  1.00  0.00     0.023 A 
ATOM     50  C   UNL     1       7.910   9.971  -1.271  1.00  0.00     0.031 A 
ATOM     51  C   UNL     1       5.527  10.040  -0.944  1.00  0.00     0.131 A 
ATOM     52  C   UNL     1       7.739  10.693  -2.466  1.00  0.00     0.055 A 
ATOM     53  C   UNL     1       5.357  10.721  -2.151  1.00  0.00     0.041 A 
ATOM     54  F   UNL     1       4.425   9.743  -0.236  1.00  0.00    -0.206 F 
ATOM     55  C   UNL     1       6.469  11.062  -2.914  1.00  0.00     0.022 A 
BRANCH  52  56
ATOM     56  S   UNL     1       9.212  11.187  -3.403  1.00  0.00     0.124 S 
ATOM     57  O   UNL     1       9.992  11.889  -2.390  1.00  0.00    -0.237 OA
ATOM     58  O   UNL     1       9.737   9.895  -3.833  1.00  0.00    -0.237 OA
ATOM     59  O   UNL     1       8.676  12.029  -4.470  1.00  0.00    -0.744 OA
ENDBRANCH  52  56
ENDBRANCH  25  49
BRANCH  37  60
ATOM     60  C   UNL     1      10.129  10.985   5.507  1.00  0.00     0.023 A 
ATOM     61  C   UNL     1       9.627  12.282   5.703  1.00  0.00     0.031 A 
ATOM     62  C   UNL     1      11.507  10.770   5.682  1.00  0.00     0.131 A 
ATOM     63  C   UNL     1      10.509  13.331   5.998  1.00  0.00     0.055 A 
ATOM     64  C   UNL     1      12.370  11.806   6.038  1.00  0.00     0.041 A 
ATOM     65  F   UNL     1      12.037   9.549   5.504  1.00  0.00    -0.206 F 
ATOM     66  C   UNL     1      11.875  13.098   6.184  1.00  0.00     0.022 A 
BRANCH  63  67
ATOM     67  S   UNL     1       9.862  15.025   6.033  1.00  0.00     0.124 S 
ATOM     68  O   UNL     1       9.326  15.171   4.684  1.00  0.00    -0.237 OA
ATOM     69  O   UNL     1       8.877  14.960   7.108  1.00  0.00    -0.237 OA
ATOM     70  O   UNL     1      11.043  15.836   6.324  1.00  0.00    -0.744 OA
ENDBRANCH  63  67
ENDBRANCH  37  60
ENDBRANCH  11  12
ENDBRANCH   4   6
ENDBRANCH   3   4
ENDBRANCH   2   3
ENDBRANCH   1   2
BRANCH   1  71
ATOM     71  O   UNL     1       3.656   0.795  -1.803  1.00  0.00    -0.457 OA
BRANCH  71  72
ATOM     72  C   UNL     1       2.301   0.949  -1.767  1.00  0.00     0.356 C 
ATOM     73  O   UNL     1       1.479   0.092  -2.058  1.00  0.00    -0.244 OA
BRANCH  72  74
ATOM     74  C   UNL     1       1.991   2.205  -1.157  1.00  0.00     0.152 A 
ATOM     75  N   UNL     1       0.999   2.331  -0.225  1.00  0.00    -0.271 N 
ATOM     76  C   UNL     1       2.535   3.473  -1.304  1.00  0.00     0.059 A 
ATOM     77  N   UNL     1       0.948   3.543   0.349  1.00  0.00    -0.183 NA
ATOM     78  H   UNL     1       0.380   1.601   0.005  1.00  0.00     0.190 HD
ATOM     79  C   UNL     1       1.913   4.224  -0.273  1.00  0.00     0.145 A 
BRANCH  76  80
ATOM     80  C   UNL     1       3.469   3.939  -2.380  1.00  0.00     0.303 C 
BRANCH  80  81
ATOM     81  N   UNL     1       2.834   4.917  -3.290  1.00  0.00    -0.330 N 
ATOM     82  C   UNL     1       1.448   4.572  -3.619  1.00  0.00     0.262 C 
ATOM     83  C   UNL     1       2.981   6.296  -2.811  1.00  0.00     0.274 C 
ATOM     84  H   UNL     1       3.345   4.865  -4.171  1.00  0.00     0.348 HD
ATOM     85  C   UNL     1       0.834   5.506  -4.646  1.00  0.00     0.062 C 
ATOM     86  C   UNL     1       2.397   7.348  -3.757  1.00  0.00     0.116 C 
ATOM     87  C   UNL     1       1.005   6.978  -4.280  1.00  0.00     0.023 C 
BRANCH  86  88
ATOM     88  C   UNL     1       3.373   7.826  -4.834  1.00  0.00     0.171 C 
ATOM     89  O   UNL     1       3.585   9.021  -5.032  1.00  0.00    -0.294 OA
BRANCH  88  90
ATOM     90  C   UNL     1       4.038   6.847  -5.716  1.00  0.00     0.019 A 
ATOM     91  C   UNL     1       3.308   6.272  -6.754  1.00  0.00     0.012 A 
ATOM     92  C   UNL     1       5.390   6.543  -5.549  1.00  0.00     0.020 A 
ATOM     93  C   UNL     1       3.881   5.276  -7.539  1.00  0.00     0.009 A 
ATOM     94  C   UNL     1       5.997   5.578  -6.374  1.00  0.00    -0.018 A 
ATOM     95  C   UNL     1       5.219   4.910  -7.352  1.00  0.00    -0.018 A 
ATOM     96  C   UNL     1       7.359   5.258  -6.259  1.00  0.00     0.009 A 
ATOM     97  C   UNL     1       5.804   3.909  -8.142  1.00  0.00     0.009 A 
ATOM     98  C   UNL     1       7.934   4.278  -7.073  1.00  0.00     0.001 A 
ATOM     99  C   UNL     1       7.155   3.594  -8.002  1.00  0.00     0.001 A 
ENDBRANCH  88  90
ENDBRANCH  86  88
ENDBRANCH  80  81
ENDBRANCH  76  80
ENDBRANCH  72  74
ENDBRANCH  71  72
ENDBRANCH   1  71
TORSDOF 18
