REMARK SMILES COC(=O)c1c(NC(=O)[C@@H]2[C@H]3CC[C@H](CC3)[C@H]2C(=O)OCCOC(=O)c2ccc(-c3c4nc(c(-c5cc(S(=O)(=O)[O-])ccc5F)c5ccc([nH]5)c(-c5cc(S(=O)(=O)[O-])ccc5F)c5nc(c(-c6cc(S(=O)(=O)[O-])ccc6F)c6ccc3[nH]6)C=C5)C=C4)cc2)sc(C)c1-c1ccc(C)cc1
REMARK SMILES IDX 21 1 20 2 18 3 19 4 17 5 10 6 11 7 12 8 16 9 14 10 13 11
REMARK SMILES IDX 15 12 8 13 7 14 9 16 6 17 5 18 92 19 89 20 90 21 91 22 3 23
REMARK SMILES IDX 4 24 2 25 1 26 93 27 94 28 99 29 95 30 98 31 96 32 97 33
REMARK SMILES IDX 22 34 23 35 24 36 25 37 26 38 27 39 88 40 28 41 87 42 29 43
REMARK SMILES IDX 30 44 31 45 81 46 32 47 86 48 80 49 82 50 33 51 85 52 79 53
REMARK SMILES IDX 78 54 34 56 66 57 46 58 65 59 47 60 50 61 64 62 83 63 48 64
REMARK SMILES IDX 49 65 63 67 84 68 51 69 35 70 36 71 44 72 37 73 43 74 45 75
REMARK SMILES IDX 42 76 38 77 39 78 40 79 41 80 67 81 68 82 76 83 69 84 75 85
REMARK SMILES IDX 77 86 74 87 70 88 71 89 72 90 73 91 52 92 53 93 61 94 54 95
REMARK SMILES IDX 60 96 62 97 59 98 55 99 56 100 57 101 58 102
REMARK H PARENT 7 15 82 55 50 66
REMARK Flexibility Score: inf
ROOT
ATOM      1  C   UNL     1       5.820   5.295   2.079  1.00  0.00     0.274 C 
ENDROOT
BRANCH   1   2
ATOM      2  O   UNL     1       4.939   5.548   3.192  1.00  0.00    -0.462 OA
BRANCH   2   3
ATOM      3  C   UNL     1       4.527   6.828   3.309  1.00  0.00     0.310 C 
ATOM      4  O   UNL     1       4.929   7.750   2.601  1.00  0.00    -0.252 OA
BRANCH   3   5
ATOM      5  C   UNL     1       3.469   7.074   4.372  1.00  0.00     0.115 C 
ATOM      6  C   UNL     1       2.805   5.947   5.152  1.00  0.00     0.096 C 
ATOM      7  C   UNL     1       3.197   6.098   6.657  1.00  0.00     0.002 C 
ATOM      8  C   UNL     1       4.729   6.302   6.772  1.00  0.00     0.005 C 
ATOM      9  C   UNL     1       2.522   7.349   7.241  1.00  0.00     0.005 C 
ATOM     10  C   UNL     1       3.948   8.192   5.333  1.00  0.00     0.004 C 
ATOM     11  C   UNL     1       5.144   7.630   6.117  1.00  0.00     0.005 C 
ATOM     12  C   UNL     1       2.871   8.563   6.376  1.00  0.00     0.005 C 
BRANCH   6  13
ATOM     13  C   UNL     1       1.264   5.692   5.042  1.00  0.00     0.229 C 
ATOM     14  N   UNL     1       0.203   6.515   4.796  1.00  0.00    -0.317 N 
ATOM     15  H   UNL     1      -0.636   6.059   5.034  1.00  0.00     0.170 HD
ATOM     16  O   UNL     1       0.909   4.543   5.378  1.00  0.00    -0.274 OA
BRANCH  14  17
ATOM     17  C   UNL     1      -0.074   7.792   4.317  1.00  0.00     0.111 A 
ATOM     18  C   UNL     1      -1.295   8.479   4.298  1.00  0.00     0.102 A 
ATOM     19  C   UNL     1      -1.089   9.872   3.906  1.00  0.00     0.012 A 
ATOM     20  S   UNL     1       0.968   8.643   3.295  1.00  0.00    -0.122 S 
ATOM     21  C   UNL     1       0.242  10.120   3.631  1.00  0.00     0.012 A 
ATOM     22  C   UNL     1       1.026  11.368   3.417  1.00  0.00     0.057 C 
BRANCH  18  23
ATOM     23  C   UNL     1      -2.566   7.831   4.613  1.00  0.00     0.341 C 
ATOM     24  O   UNL     1      -2.639   6.820   5.293  1.00  0.00    -0.246 OA
BRANCH  23  25
ATOM     25  O   UNL     1      -3.613   8.429   3.982  1.00  0.00    -0.465 OA
ATOM     26  C   UNL     1      -4.852   7.719   3.991  1.00  0.00     0.282 C 
ENDBRANCH  23  25
ENDBRANCH  18  23
BRANCH  19  27
ATOM     27  C   UNL     1      -2.048  10.946   3.719  1.00  0.00    -0.016 A 
ATOM     28  C   UNL     1      -2.740  11.515   4.787  1.00  0.00     0.009 A 
ATOM     29  C   UNL     1      -2.215  11.457   2.423  1.00  0.00     0.009 A 
ATOM     30  C   UNL     1      -3.580  12.609   4.554  1.00  0.00     0.004 A 
ATOM     31  C   UNL     1      -3.043  12.549   2.196  1.00  0.00     0.004 A 
ATOM     32  C   UNL     1      -3.721  13.142   3.263  1.00  0.00    -0.051 A 
ATOM     33  C   UNL     1      -4.629  14.309   3.008  1.00  0.00     0.044 C 
ENDBRANCH  19  27
ENDBRANCH  14  17
ENDBRANCH   6  13
ENDBRANCH   3   5
ENDBRANCH   2   3
ENDBRANCH   1   2
BRANCH   1  34
ATOM     34  C   UNL     1       5.298   4.143   1.223  1.00  0.00     0.275 C 
BRANCH  34  35
ATOM     35  O   UNL     1       3.993   4.430   0.685  1.00  0.00    -0.458 OA
BRANCH  35  36
ATOM     36  C   UNL     1       2.968   3.910   1.404  1.00  0.00     0.338 C 
ATOM     37  O   UNL     1       3.052   3.261   2.432  1.00  0.00    -0.246 OA
BRANCH  36  38
ATOM     38  C   UNL     1       1.681   4.308   0.815  1.00  0.00     0.060 A 
ATOM     39  C   UNL     1       0.944   5.297   1.463  1.00  0.00     0.016 A 
ATOM     40  C   UNL     1       1.138   3.624  -0.272  1.00  0.00     0.016 A 
ATOM     41  C   UNL     1      -0.359   5.585   1.058  1.00  0.00     0.010 A 
ATOM     42  C   UNL     1      -0.163   3.932  -0.696  1.00  0.00     0.010 A 
ATOM     43  C   UNL     1      -0.932   4.898  -0.019  1.00  0.00    -0.014 A 
BRANCH  43  44
ATOM     44  C   UNL     1      -2.356   5.135  -0.386  1.00  0.00     0.031 A 
ATOM     45  C   UNL     1      -3.381   4.059  -0.145  1.00  0.00     0.074 A 
ATOM     46  C   UNL     1      -2.741   6.309  -0.921  1.00  0.00     0.049 A 
ATOM     47  N   UNL     1      -4.635   4.005  -0.519  1.00  0.00    -0.248 NA
ATOM     48  C   UNL     1      -2.926   2.887   0.614  1.00  0.00     0.031 C 
ATOM     49  C   UNL     1      -1.866   7.457  -1.157  1.00  0.00     0.029 A 
ATOM     50  N   UNL     1      -3.969   6.725  -1.377  1.00  0.00    -0.354 N 
ATOM     51  C   UNL     1      -5.112   2.777  -0.072  1.00  0.00     0.074 A 
ATOM     52  C   UNL     1      -4.003   2.116   0.586  1.00  0.00     0.031 C 
ATOM     53  C   UNL     1      -2.580   8.441  -1.729  1.00  0.00     0.029 A 
ATOM     54  C   UNL     1      -3.946   7.974  -1.952  1.00  0.00     0.049 A 
ATOM     55  H   UNL     1      -4.786   6.181  -1.300  1.00  0.00     0.167 HD
ATOM     56  C   UNL     1      -6.358   2.251  -0.197  1.00  0.00     0.034 A 
ATOM     57  C   UNL     1      -4.898   8.648  -2.628  1.00  0.00     0.034 A 
ATOM     58  C   UNL     1      -7.460   2.926  -0.843  1.00  0.00     0.049 A 
ATOM     59  C   UNL     1      -6.256   8.022  -2.818  1.00  0.00     0.074 A 
ATOM     60  C   UNL     1      -8.765   2.492  -1.001  1.00  0.00     0.029 A 
ATOM     61  N   UNL     1      -7.386   4.176  -1.445  1.00  0.00    -0.354 N 
ATOM     62  N   UNL     1      -6.688   6.849  -2.419  1.00  0.00    -0.248 NA
ATOM     63  C   UNL     1      -7.252   8.813  -3.553  1.00  0.00     0.031 C 
ATOM     64  C   UNL     1      -9.462   3.447  -1.751  1.00  0.00     0.029 A 
ATOM     65  C   UNL     1      -8.613   4.513  -2.002  1.00  0.00     0.049 A 
ATOM     66  H   UNL     1      -6.581   4.741  -1.473  1.00  0.00     0.167 HD
ATOM     67  C   UNL     1      -8.010   6.766  -2.846  1.00  0.00     0.074 A 
ATOM     68  C   UNL     1      -8.310   8.014  -3.517  1.00  0.00     0.031 C 
ATOM     69  C   UNL     1      -8.897   5.749  -2.693  1.00  0.00     0.034 A 
BRANCH  56  70
ATOM     70  C   UNL     1      -6.566   0.846   0.318  1.00  0.00     0.023 A 
ATOM     71  C   UNL     1      -6.447   0.525   1.681  1.00  0.00     0.031 A 
ATOM     72  C   UNL     1      -6.838  -0.200  -0.583  1.00  0.00     0.131 A 
ATOM     73  C   UNL     1      -6.516  -0.815   2.093  1.00  0.00     0.055 A 
ATOM     74  C   UNL     1      -6.986  -1.521  -0.155  1.00  0.00     0.041 A 
ATOM     75  F   UNL     1      -6.946   0.041  -1.899  1.00  0.00    -0.206 F 
ATOM     76  C   UNL     1      -6.806  -1.838   1.187  1.00  0.00     0.022 A 
BRANCH  73  77
ATOM     77  S   UNL     1      -6.062  -1.222   3.802  1.00  0.00     0.124 S 
ATOM     78  O   UNL     1      -4.716  -0.662   3.890  1.00  0.00    -0.237 OA
ATOM     79  O   UNL     1      -7.094  -0.535   4.572  1.00  0.00    -0.237 OA
ATOM     80  O   UNL     1      -6.126  -2.682   3.835  1.00  0.00    -0.744 OA
ENDBRANCH  73  77
ENDBRANCH  56  70
BRANCH  57  81
ATOM     81  C   UNL     1      -4.575   9.962  -3.251  1.00  0.00     0.023 A 
ATOM     82  C   UNL     1      -5.162  11.152  -2.797  1.00  0.00     0.031 A 
ATOM     83  C   UNL     1      -3.681  10.034  -4.335  1.00  0.00     0.131 A 
ATOM     84  C   UNL     1      -4.867  12.363  -3.442  1.00  0.00     0.055 A 
ATOM     85  C   UNL     1      -3.360  11.246  -4.946  1.00  0.00     0.041 A 
ATOM     86  F   UNL     1      -3.091   8.922  -4.803  1.00  0.00    -0.206 F 
ATOM     87  C   UNL     1      -3.962  12.420  -4.505  1.00  0.00     0.022 A 
BRANCH  84  88
ATOM     88  S   UNL     1      -5.720  13.868  -2.898  1.00  0.00     0.124 S 
ATOM     89  O   UNL     1      -7.117  13.524  -3.138  1.00  0.00    -0.237 OA
ATOM     90  O   UNL     1      -5.312  13.959  -1.499  1.00  0.00    -0.237 OA
ATOM     91  O   UNL     1      -5.173  14.905  -3.770  1.00  0.00    -0.744 OA
ENDBRANCH  84  88
ENDBRANCH  57  81
BRANCH  69  92
ATOM     92  C   UNL     1     -10.289   5.967  -3.237  1.00  0.00     0.023 A 
ATOM     93  C   UNL     1     -10.541   6.037  -4.618  1.00  0.00     0.031 A 
ATOM     94  C   UNL     1     -11.374   6.122  -2.357  1.00  0.00     0.131 A 
ATOM     95  C   UNL     1     -11.841   6.304  -5.079  1.00  0.00     0.055 A 
ATOM     96  C   UNL     1     -12.673   6.336  -2.822  1.00  0.00     0.041 A 
ATOM     97  F   UNL     1     -11.189   6.069  -1.028  1.00  0.00    -0.206 F 
ATOM     98  C   UNL     1     -12.910   6.439  -4.189  1.00  0.00     0.022 A 
BRANCH  95  99
ATOM     99  S   UNL     1     -12.105   6.554  -6.856  1.00  0.00     0.124 S 
ATOM    100  O   UNL     1     -11.225   7.684  -7.138  1.00  0.00    -0.237 OA
ATOM    101  O   UNL     1     -11.695   5.271  -7.417  1.00  0.00    -0.237 OA
ATOM    102  O   UNL     1     -13.535   6.844  -6.954  1.00  0.00    -0.744 OA
ENDBRANCH  95  99
ENDBRANCH  69  92
ENDBRANCH  43  44
ENDBRANCH  36  38
ENDBRANCH  35  36
ENDBRANCH  34  35
ENDBRANCH   1  34
TORSDOF 19
