REMARK SMILES CC(C)(C)OC(=O)CSc1ccnc(C(=O)OCCOC(=O)c2ccc(-c3c4nc(c(-c5cc(S(=O)(=O)[O-])ccc5F)c5ccc([nH]5)c(-c5cc(S(=O)(=O)[O-])ccc5F)c5nc(c(-c6cc(S(=O)(=O)[O-])ccc6F)c6ccc3[nH]6)C=C5)C=C4)cc2)c1
REMARK SMILES IDX 18 1 17 2 15 3 16 4 14 5 10 6 11 7 86 8 12 9 13 10 9 11 8 12
REMARK SMILES IDX 6 13 7 14 5 15 2 16 1 17 3 18 4 19 19 20 20 21 21 22 22 23
REMARK SMILES IDX 23 24 24 25 85 26 25 27 84 28 26 29 27 30 28 31 78 32 29 33
REMARK SMILES IDX 83 34 77 35 79 36 30 37 82 38 76 39 75 40 31 42 63 43 43 44
REMARK SMILES IDX 62 45 44 46 47 47 61 48 80 49 45 50 46 51 60 53 81 54 48 55
REMARK SMILES IDX 32 56 33 57 41 58 34 59 40 60 42 61 39 62 35 63 36 64 37 65
REMARK SMILES IDX 38 66 64 67 65 68 73 69 66 70 72 71 74 72 71 73 67 74 68 75
REMARK SMILES IDX 69 76 70 77 49 78 50 79 58 80 51 81 57 82 59 83 56 84 52 85
REMARK SMILES IDX 53 86 54 87 55 88
REMARK H PARENT 79 41 47 52
REMARK Flexibility Score: inf
ROOT
ATOM      1  C   UNL     1      -4.029  -5.430   5.117  1.00  0.00     0.275 C 
ENDROOT
BRANCH   1   2
ATOM      2  O   UNL     1      -3.192  -4.255   5.096  1.00  0.00    -0.457 OA
BRANCH   2   3
ATOM      3  C   UNL     1      -3.601  -3.260   4.262  1.00  0.00     0.357 C 
ATOM      4  O   UNL     1      -4.542  -3.327   3.485  1.00  0.00    -0.244 OA
BRANCH   3   5
ATOM      5  C   UNL     1      -2.799  -2.021   4.493  1.00  0.00     0.149 A 
ATOM      6  C   UNL     1      -0.781  -0.837   4.976  1.00  0.00     0.012 A 
ATOM      7  C   UNL     1      -1.537   0.330   5.075  1.00  0.00     0.035 A 
ATOM      8  C   UNL     1      -1.435  -2.051   4.737  1.00  0.00     0.051 A 
ATOM      9  C   UNL     1      -2.880   0.273   4.771  1.00  0.00     0.113 A 
ATOM     10  N   UNL     1      -3.506  -0.866   4.434  1.00  0.00    -0.249 NA
BRANCH   6  11
ATOM     11  S   UNL     1       1.004  -0.871   5.105  1.00  0.00    -0.114 SA
BRANCH  11  12
ATOM     12  C   UNL     1       1.499   0.849   4.733  1.00  0.00     0.197 C 
BRANCH  12  13
ATOM     13  C   UNL     1       0.891   1.423   3.474  1.00  0.00     0.316 C 
ATOM     14  O   UNL     1       0.289   2.491   3.467  1.00  0.00    -0.251 OA
BRANCH  13  15
ATOM     15  O   UNL     1       1.132   0.651   2.383  1.00  0.00    -0.459 OA
BRANCH  15  16
ATOM     16  C   UNL     1       0.590   1.025   1.087  1.00  0.00     0.104 C 
ATOM     17  C   UNL     1       1.115  -0.047   0.120  1.00  0.00     0.056 C 
ATOM     18  C   UNL     1       1.112   2.392   0.624  1.00  0.00     0.056 C 
ATOM     19  C   UNL     1      -0.943   0.973   1.091  1.00  0.00     0.056 C 
ENDBRANCH  15  16
ENDBRANCH  13  15
ENDBRANCH  12  13
ENDBRANCH  11  12
ENDBRANCH   6  11
ENDBRANCH   3   5
ENDBRANCH   2   3
ENDBRANCH   1   2
BRANCH   1  20
ATOM     20  C   UNL     1      -4.905  -5.487   6.374  1.00  0.00     0.275 C 
BRANCH  20  21
ATOM     21  O   UNL     1      -5.921  -4.466   6.373  1.00  0.00    -0.458 OA
BRANCH  21  22
ATOM     22  C   UNL     1      -5.608  -3.350   7.074  1.00  0.00     0.338 C 
ATOM     23  O   UNL     1      -4.581  -3.144   7.698  1.00  0.00    -0.246 OA
BRANCH  22  24
ATOM     24  C   UNL     1      -6.653  -2.329   6.890  1.00  0.00     0.060 A 
ATOM     25  C   UNL     1      -6.332  -1.228   6.103  1.00  0.00     0.016 A 
ATOM     26  C   UNL     1      -7.876  -2.376   7.558  1.00  0.00     0.016 A 
ATOM     27  C   UNL     1      -7.199  -0.147   5.998  1.00  0.00     0.010 A 
ATOM     28  C   UNL     1      -8.769  -1.301   7.427  1.00  0.00     0.010 A 
ATOM     29  C   UNL     1      -8.429  -0.169   6.661  1.00  0.00    -0.014 A 
BRANCH  29  30
ATOM     30  C   UNL     1      -9.313   1.024   6.582  1.00  0.00     0.031 A 
ATOM     31  C   UNL     1      -9.536   1.875   7.801  1.00  0.00     0.074 A 
ATOM     32  C   UNL     1      -9.864   1.377   5.404  1.00  0.00     0.049 A 
ATOM     33  N   UNL     1     -10.325   2.906   7.961  1.00  0.00    -0.248 NA
ATOM     34  C   UNL     1      -8.770   1.511   9.001  1.00  0.00     0.031 C 
ATOM     35  C   UNL     1      -9.669   0.670   4.137  1.00  0.00     0.029 A 
ATOM     36  N   UNL     1     -10.693   2.422   5.078  1.00  0.00    -0.354 N 
ATOM     37  C   UNL     1     -10.175   3.299   9.287  1.00  0.00     0.074 A 
ATOM     38  C   UNL     1      -9.235   2.376   9.890  1.00  0.00     0.031 C 
ATOM     39  C   UNL     1     -10.345   1.310   3.170  1.00  0.00     0.029 A 
ATOM     40  C   UNL     1     -11.074   2.430   3.756  1.00  0.00     0.049 A 
ATOM     41  H   UNL     1     -10.986   3.101   5.728  1.00  0.00     0.167 HD
ATOM     42  C   UNL     1     -10.766   4.334   9.937  1.00  0.00     0.034 A 
ATOM     43  C   UNL     1     -11.940   3.225   3.098  1.00  0.00     0.034 A 
ATOM     44  C   UNL     1     -11.691   5.251   9.314  1.00  0.00     0.049 A 
ATOM     45  C   UNL     1     -12.639   4.323   3.855  1.00  0.00     0.074 A 
ATOM     46  C   UNL     1     -12.345   6.335   9.876  1.00  0.00     0.029 A 
ATOM     47  N   UNL     1     -12.098   5.193   7.986  1.00  0.00    -0.354 N 
ATOM     48  N   UNL     1     -12.524   4.656   5.120  1.00  0.00    -0.248 NA
ATOM     49  C   UNL     1     -13.587   5.149   3.098  1.00  0.00     0.031 C 
ATOM     50  C   UNL     1     -13.191   6.890   8.909  1.00  0.00     0.029 A 
ATOM     51  C   UNL     1     -13.014   6.200   7.720  1.00  0.00     0.049 A 
ATOM     52  H   UNL     1     -11.781   4.532   7.329  1.00  0.00     0.167 HD
ATOM     53  C   UNL     1     -13.375   5.741   5.306  1.00  0.00     0.074 A 
ATOM     54  C   UNL     1     -13.983   6.016   4.019  1.00  0.00     0.031 C 
ATOM     55  C   UNL     1     -13.630   6.448   6.437  1.00  0.00     0.034 A 
BRANCH  42  56
ATOM     56  C   UNL     1     -10.475   4.476  11.413  1.00  0.00     0.023 A 
ATOM     57  C   UNL     1      -9.185   4.760  11.896  1.00  0.00     0.031 A 
ATOM     58  C   UNL     1     -11.499   4.270  12.356  1.00  0.00     0.131 A 
ATOM     59  C   UNL     1      -8.937   4.749  13.278  1.00  0.00     0.055 A 
ATOM     60  C   UNL     1     -11.262   4.341  13.730  1.00  0.00     0.041 A 
ATOM     61  F   UNL     1     -12.746   3.974  11.956  1.00  0.00    -0.206 F 
ATOM     62  C   UNL     1      -9.972   4.564  14.199  1.00  0.00     0.022 A 
BRANCH  59  63
ATOM     63  S   UNL     1      -7.218   4.823  13.853  1.00  0.00     0.124 S 
ATOM     64  O   UNL     1      -6.628   3.673  13.171  1.00  0.00    -0.237 OA
ATOM     65  O   UNL     1      -6.785   6.135  13.386  1.00  0.00    -0.237 OA
ATOM     66  O   UNL     1      -7.334   4.683  15.303  1.00  0.00    -0.744 OA
ENDBRANCH  59  63
ENDBRANCH  42  56
BRANCH  43  67
ATOM     67  C   UNL     1     -12.245   2.971   1.661  1.00  0.00     0.023 A 
ATOM     68  C   UNL     1     -11.906   3.900   0.666  1.00  0.00     0.031 A 
ATOM     69  C   UNL     1     -12.908   1.793   1.268  1.00  0.00     0.131 A 
ATOM     70  C   UNL     1     -12.255   3.648  -0.671  1.00  0.00     0.055 A 
ATOM     71  C   UNL     1     -13.209   1.525  -0.067  1.00  0.00     0.041 A 
ATOM     72  F   UNL     1     -13.257   0.873   2.182  1.00  0.00    -0.206 F 
ATOM     73  C   UNL     1     -12.890   2.461  -1.046  1.00  0.00     0.022 A 
BRANCH  70  74
ATOM     74  S   UNL     1     -11.922   4.926  -1.915  1.00  0.00     0.124 S 
ATOM     75  O   UNL     1     -12.704   6.047  -1.407  1.00  0.00    -0.237 OA
ATOM     76  O   UNL     1     -10.472   5.064  -1.828  1.00  0.00    -0.237 OA
ATOM     77  O   UNL     1     -12.415   4.332  -3.155  1.00  0.00    -0.744 OA
ENDBRANCH  70  74
ENDBRANCH  43  67
BRANCH  55  78
ATOM     78  C   UNL     1     -14.585   7.609   6.311  1.00  0.00     0.023 A 
ATOM     79  C   UNL     1     -15.955   7.415   6.063  1.00  0.00     0.031 A 
ATOM     80  C   UNL     1     -14.111   8.928   6.423  1.00  0.00     0.131 A 
ATOM     81  C   UNL     1     -16.795   8.524   5.882  1.00  0.00     0.055 A 
ATOM     82  C   UNL     1     -14.961  10.027   6.295  1.00  0.00     0.041 A 
ATOM     83  F   UNL     1     -12.811   9.169   6.657  1.00  0.00    -0.206 F 
ATOM     84  C   UNL     1     -16.310   9.829   6.010  1.00  0.00     0.022 A 
BRANCH  81  85
ATOM     85  S   UNL     1     -18.519   8.244   5.391  1.00  0.00     0.124 S 
ATOM     86  O   UNL     1     -18.364   7.518   4.135  1.00  0.00    -0.237 OA
ATOM     87  O   UNL     1     -19.042   7.471   6.513  1.00  0.00    -0.237 OA
ATOM     88  O   UNL     1     -19.064   9.594   5.264  1.00  0.00    -0.744 OA
ENDBRANCH  81  85
ENDBRANCH  55  78
ENDBRANCH  29  30
ENDBRANCH  22  24
ENDBRANCH  21  22
ENDBRANCH  20  21
ENDBRANCH   1  20
TORSDOF 19
