REMARK SMILES COc1cccc(-c2nn(-c3cc4c(cc3C(N)=O)OCO4)cc2C(=O)OCCOC(=O)c2ccc(-c3c4nc(c(-c5cc(S(=O)(=O)[O-])ccc5F)c5ccc([nH]5)c(-c5cc(S(=O)(=O)[O-])ccc5F)c5nc(c(-c6cc(S(=O)(=O)[O-])ccc6F)c6ccc3[nH]6)C=C5)C=C4)cc2)c1
REMARK SMILES IDX 29 1 28 2 27 3 25 4 26 5 24 6 8 7 9 8 10 9 23 10 7 11 3 12
REMARK SMILES IDX 4 13 96 14 5 15 6 16 2 17 1 18 11 19 12 20 16 21 13 22 15 23
REMARK SMILES IDX 14 24 22 25 20 26 21 27 17 28 18 29 19 30 30 33 31 34 32 35
REMARK SMILES IDX 33 36 34 37 95 38 35 39 94 40 36 41 37 42 38 43 88 44 39 45
REMARK SMILES IDX 93 46 87 47 89 48 40 49 92 50 86 51 85 52 41 54 73 55 53 56
REMARK SMILES IDX 72 57 54 58 57 59 71 60 90 61 55 62 56 63 70 65 91 66 58 67
REMARK SMILES IDX 42 68 43 69 51 70 44 71 50 72 52 73 49 74 45 75 46 76 47 77
REMARK SMILES IDX 48 78 74 79 75 80 83 81 76 82 82 83 84 84 81 85 77 86 78 87
REMARK SMILES IDX 79 88 80 89 59 90 60 91 68 92 61 93 67 94 69 95 66 96 62 97
REMARK SMILES IDX 63 98 64 99 65 100
REMARK H PARENT 18 31 18 32 89 53 57 64
REMARK Flexibility Score: inf
ROOT
ATOM      1  C   UNL     1       2.776  -8.564  -0.854  1.00  0.00     0.275 C 
ENDROOT
BRANCH   1   2
ATOM      2  C   UNL     1       3.501  -7.428  -1.569  1.00  0.00     0.275 C 
BRANCH   2   3
ATOM      3  O   UNL     1       4.237  -6.591  -0.664  1.00  0.00    -0.458 OA
BRANCH   3   4
ATOM      4  C   UNL     1       3.587  -5.484  -0.176  1.00  0.00     0.342 C 
ATOM      5  O   UNL     1       2.477  -5.130  -0.533  1.00  0.00    -0.246 OA
BRANCH   4   6
ATOM      6  C   UNL     1       4.396  -4.764   0.793  1.00  0.00     0.106 A 
ATOM      7  C   UNL     1       4.056  -3.689   1.663  1.00  0.00     0.107 A 
ATOM      8  N   UNL     1       5.133  -3.248   2.343  1.00  0.00    -0.167 NA
ATOM      9  N   UNL     1       6.164  -3.925   1.785  1.00  0.00    -0.239 N 
ATOM     10  C   UNL     1       5.726  -5.001   1.065  1.00  0.00     0.131 A 
BRANCH   7  11
ATOM     11  C   UNL     1       2.734  -3.118   1.893  1.00  0.00     0.007 A 
ATOM     12  C   UNL     1       0.978  -1.542   1.332  1.00  0.00     0.119 A 
ATOM     13  C   UNL     1       0.148  -2.156   2.276  1.00  0.00     0.046 A 
ATOM     14  C   UNL     1       2.270  -2.036   1.128  1.00  0.00     0.056 A 
ATOM     15  C   UNL     1       0.609  -3.222   3.047  1.00  0.00     0.005 A 
ATOM     16  C   UNL     1       1.909  -3.687   2.869  1.00  0.00     0.011 A 
BRANCH  12  17
ATOM     17  O   UNL     1       0.403  -0.473   0.701  1.00  0.00    -0.497 OA
ATOM     18  C   UNL     1       1.152   0.180  -0.311  1.00  0.00     0.278 C 
ENDBRANCH  12  17
ENDBRANCH   7  11
BRANCH   9  19
ATOM     19  C   UNL     1       7.512  -3.547   1.997  1.00  0.00     0.081 A 
ATOM     20  C   UNL     1       7.876  -3.130   3.294  1.00  0.00     0.079 A 
ATOM     21  C   UNL     1       8.475  -3.585   0.944  1.00  0.00     0.069 A 
ATOM     22  C   UNL     1       9.200  -2.819   3.515  1.00  0.00     0.167 A 
ATOM     23  C   UNL     1       9.829  -3.375   1.258  1.00  0.00     0.066 A 
ATOM     24  C   UNL     1      10.148  -2.966   2.532  1.00  0.00     0.166 A 
ATOM     25  O   UNL     1       9.737  -2.330   4.666  1.00  0.00    -0.454 OA
ATOM     26  O   UNL     1      11.390  -2.586   2.941  1.00  0.00    -0.454 OA
ATOM     27  C   UNL     1      11.061  -1.984   4.210  1.00  0.00     0.468 C 
BRANCH  21  28
ATOM     28  C   UNL     1       8.079  -3.584  -0.514  1.00  0.00     0.251 C 
ATOM     29  N   UNL     1       9.024  -3.257  -1.449  1.00  0.00    -0.366 N 
ATOM     30  O   UNL     1       6.944  -3.764  -0.929  1.00  0.00    -0.269 OA
ATOM     31  H   UNL     1       9.956  -3.100  -1.174  1.00  0.00     0.159 HD
ATOM     32  H   UNL     1       8.771  -3.178  -2.398  1.00  0.00     0.159 HD
ENDBRANCH  21  28
ENDBRANCH   9  19
ENDBRANCH   4   6
ENDBRANCH   3   4
ENDBRANCH   2   3
ENDBRANCH   1   2
BRANCH   1  33
ATOM     33  O   UNL     1       1.648  -8.109  -0.105  1.00  0.00    -0.458 OA
BRANCH  33  34
ATOM     34  C   UNL     1       1.941  -7.756   1.167  1.00  0.00     0.338 C 
ATOM     35  O   UNL     1       3.055  -7.574   1.634  1.00  0.00    -0.246 OA
BRANCH  34  36
ATOM     36  C   UNL     1       0.735  -7.763   1.998  1.00  0.00     0.060 A 
ATOM     37  C   UNL     1       0.870  -7.266   3.297  1.00  0.00     0.016 A 
ATOM     38  C   UNL     1      -0.427  -8.428   1.584  1.00  0.00     0.016 A 
ATOM     39  C   UNL     1      -0.118  -7.523   4.222  1.00  0.00     0.010 A 
ATOM     40  C   UNL     1      -1.409  -8.702   2.515  1.00  0.00     0.010 A 
ATOM     41  C   UNL     1      -1.220  -8.290   3.835  1.00  0.00    -0.014 A 
BRANCH  41  42
ATOM     42  C   UNL     1      -2.260  -8.515   4.823  1.00  0.00     0.031 A 
ATOM     43  C   UNL     1      -2.996  -7.269   5.159  1.00  0.00     0.074 A 
ATOM     44  C   UNL     1      -2.549  -9.746   5.293  1.00  0.00     0.049 A 
ATOM     45  N   UNL     1      -3.039  -6.674   6.303  1.00  0.00    -0.248 NA
ATOM     46  C   UNL     1      -3.581  -6.476   4.060  1.00  0.00     0.031 C 
ATOM     47  C   UNL     1      -1.963 -11.022   4.878  1.00  0.00     0.029 A 
ATOM     48  N   UNL     1      -3.501 -10.136   6.184  1.00  0.00    -0.354 N 
ATOM     49  C   UNL     1      -3.887  -5.586   6.130  1.00  0.00     0.074 A 
ATOM     50  C   UNL     1      -4.004  -5.392   4.712  1.00  0.00     0.031 C 
ATOM     51  C   UNL     1      -2.739 -12.038   5.324  1.00  0.00     0.029 A 
ATOM     52  C   UNL     1      -3.816 -11.495   6.136  1.00  0.00     0.049 A 
ATOM     53  H   UNL     1      -3.933  -9.511   6.811  1.00  0.00     0.167 HD
ATOM     54  C   UNL     1      -4.652  -5.145   7.165  1.00  0.00     0.034 A 
ATOM     55  C   UNL     1      -4.919 -12.109   6.657  1.00  0.00     0.034 A 
ATOM     56  C   UNL     1      -4.089  -5.564   8.432  1.00  0.00     0.049 A 
ATOM     57  C   UNL     1      -5.440 -11.211   7.721  1.00  0.00     0.074 A 
ATOM     58  C   UNL     1      -2.857  -5.395   9.037  1.00  0.00     0.029 A 
ATOM     59  N   UNL     1      -4.687  -6.610   9.100  1.00  0.00    -0.354 N 
ATOM     60  N   UNL     1      -4.783 -10.976   8.825  1.00  0.00    -0.248 NA
ATOM     61  C   UNL     1      -6.388 -10.173   7.335  1.00  0.00     0.031 C 
ATOM     62  C   UNL     1      -2.579  -6.649   9.656  1.00  0.00     0.029 A 
ATOM     63  C   UNL     1      -3.694  -7.473   9.492  1.00  0.00     0.049 A 
ATOM     64  H   UNL     1      -5.652  -6.719   9.267  1.00  0.00     0.167 HD
ATOM     65  C   UNL     1      -4.878  -9.605   9.011  1.00  0.00     0.074 A 
ATOM     66  C   UNL     1      -5.951  -9.174   8.111  1.00  0.00     0.031 C 
ATOM     67  C   UNL     1      -3.885  -8.903   9.636  1.00  0.00     0.034 A 
BRANCH  54  68
ATOM     68  C   UNL     1      -6.112  -4.763   7.017  1.00  0.00     0.023 A 
ATOM     69  C   UNL     1      -6.799  -4.444   8.202  1.00  0.00     0.031 A 
ATOM     70  C   UNL     1      -6.925  -5.022   5.888  1.00  0.00     0.131 A 
ATOM     71  C   UNL     1      -8.197  -4.555   8.275  1.00  0.00     0.055 A 
ATOM     72  C   UNL     1      -8.320  -5.061   5.950  1.00  0.00     0.041 A 
ATOM     73  F   UNL     1      -6.431  -5.337   4.686  1.00  0.00    -0.206 F 
ATOM     74  C   UNL     1      -8.964  -4.870   7.158  1.00  0.00     0.022 A 
BRANCH  71  75
ATOM     75  S   UNL     1      -8.966  -4.490   9.911  1.00  0.00     0.124 S 
ATOM     76  O   UNL     1      -8.245  -5.550  10.608  1.00  0.00    -0.237 OA
ATOM     77  O   UNL     1      -8.668  -3.124  10.328  1.00  0.00    -0.237 OA
ATOM     78  O   UNL     1     -10.373  -4.765   9.634  1.00  0.00    -0.744 OA
ENDBRANCH  71  75
ENDBRANCH  54  68
BRANCH  55  79
ATOM     79  C   UNL     1      -5.718 -13.221   6.045  1.00  0.00     0.023 A 
ATOM     80  C   UNL     1      -6.688 -13.976   6.751  1.00  0.00     0.031 A 
ATOM     81  C   UNL     1      -5.697 -13.399   4.641  1.00  0.00     0.131 A 
ATOM     82  C   UNL     1      -7.566 -14.852   6.056  1.00  0.00     0.055 A 
ATOM     83  C   UNL     1      -6.563 -14.261   3.964  1.00  0.00     0.041 A 
ATOM     84  F   UNL     1      -4.888 -12.673   3.856  1.00  0.00    -0.206 F 
ATOM     85  C   UNL     1      -7.509 -14.984   4.667  1.00  0.00     0.022 A 
BRANCH  82  86
ATOM     86  S   UNL     1      -8.870 -15.787   6.932  1.00  0.00     0.124 S 
ATOM     87  O   UNL     1      -8.098 -16.769   7.684  1.00  0.00    -0.237 OA
ATOM     88  O   UNL     1      -9.539 -14.751   7.709  1.00  0.00    -0.237 OA
ATOM     89  O   UNL     1      -9.677 -16.349   5.846  1.00  0.00    -0.744 OA
ENDBRANCH  82  86
ENDBRANCH  55  79
BRANCH  67  90
ATOM     90  C   UNL     1      -2.803  -9.673  10.367  1.00  0.00     0.023 A 
ATOM     91  C   UNL     1      -1.974 -10.665   9.791  1.00  0.00     0.031 A 
ATOM     92  C   UNL     1      -2.534  -9.293  11.694  1.00  0.00     0.131 A 
ATOM     93  C   UNL     1      -0.940 -11.249  10.551  1.00  0.00     0.055 A 
ATOM     94  C   UNL     1      -1.495  -9.854  12.433  1.00  0.00     0.041 A 
ATOM     95  F   UNL     1      -3.265  -8.336  12.290  1.00  0.00    -0.206 F 
ATOM     96  C   UNL     1      -0.699 -10.841  11.867  1.00  0.00     0.022 A 
BRANCH  93  97
ATOM     97  S   UNL     1       0.096 -12.579   9.857  1.00  0.00     0.124 S 
ATOM     98  O   UNL     1      -0.869 -13.476   9.234  1.00  0.00    -0.237 OA
ATOM     99  O   UNL     1       0.975 -11.852   8.944  1.00  0.00    -0.237 OA
ATOM    100  O   UNL     1       0.771 -13.132  11.033  1.00  0.00    -0.744 OA
ENDBRANCH  93  97
ENDBRANCH  67  90
ENDBRANCH  41  42
ENDBRANCH  34  36
ENDBRANCH  33  34
ENDBRANCH   1  33
TORSDOF 18
