REMARK SMILES O=C1CCCC2=C1[C@H](c1ccc([N+](=O)[O-])cc1)CC(=O)N2c1ccccc1C(=O)OCCOC(=O)c1ccc(-c2c3nc(c(-c4cc(S(=O)(=O)[O-])ccc4F)c4ccc([nH]4)c(-c4cc(S(=O)(=O)[O-])ccc4F)c4nc(c(-c5cc(S(=O)(=O)[O-])ccc5F)c5ccc2[nH]5)C=C4)C=C3)cc1
REMARK SMILES IDX 31 1 30 2 28 3 29 4 27 5 22 6 23 7 24 8 26 9 25 10 21 11
REMARK SMILES IDX 1 12 2 13 3 14 7 15 4 16 6 17 8 18 5 19 18 20 19 21 20 22
REMARK SMILES IDX 9 23 10 24 17 25 11 26 16 27 12 28 13 29 14 30 15 31 32 32
REMARK SMILES IDX 33 33 34 34 35 35 36 36 37 37 98 38 38 39 97 40 39 41 40 42
REMARK SMILES IDX 41 43 91 44 42 45 96 46 90 47 92 48 43 49 95 50 89 51 88 52
REMARK SMILES IDX 44 54 76 55 56 56 75 57 57 58 60 59 74 60 93 61 58 62 59 63
REMARK SMILES IDX 73 65 94 66 61 67 45 68 46 69 54 70 47 71 53 72 55 73 52 74
REMARK SMILES IDX 48 75 49 76 50 77 51 78 77 79 78 80 86 81 79 82 85 83 87 84
REMARK SMILES IDX 84 85 80 86 81 87 82 88 83 89 62 90 63 91 71 92 64 93 70 94
REMARK SMILES IDX 72 95 69 96 65 97 66 98 67 99 68 100
REMARK H PARENT 92 53 60 64
REMARK Flexibility Score: inf
ROOT
ATOM      1  C   UNL     1       5.482  -0.391   2.268  1.00  0.00     0.275 C 
ENDROOT
BRANCH   1   2
ATOM      2  O   UNL     1       5.967  -1.266   1.229  1.00  0.00    -0.458 OA
BRANCH   2   3
ATOM      3  C   UNL     1       6.885  -0.725   0.389  1.00  0.00     0.340 C 
ATOM      4  O   UNL     1       7.410   0.371   0.513  1.00  0.00    -0.246 OA
BRANCH   3   5
ATOM      5  C   UNL     1       7.173  -1.598  -0.775  1.00  0.00     0.084 A 
ATOM      6  C   UNL     1       6.189  -2.309  -1.484  1.00  0.00     0.063 A 
ATOM      7  C   UNL     1       6.599  -3.131  -2.556  1.00  0.00     0.027 A 
ATOM      8  C   UNL     1       7.941  -3.225  -2.930  1.00  0.00     0.002 A 
ATOM      9  C   UNL     1       8.518  -1.671  -1.190  1.00  0.00     0.018 A 
ATOM     10  C   UNL     1       8.902  -2.492  -2.249  1.00  0.00     0.001 A 
BRANCH   6  11
ATOM     11  N   UNL     1       4.778  -2.244  -1.189  1.00  0.00    -0.284 N 
ATOM     12  O   UNL     1       0.854   0.299  -0.421  1.00  0.00    -0.294 OA
ATOM     13  C   UNL     1       2.079   0.268  -0.504  1.00  0.00     0.161 C 
ATOM     14  C   UNL     1       2.903   1.525  -0.522  1.00  0.00     0.081 C 
ATOM     15  C   UNL     1       2.819  -1.026  -0.576  1.00  0.00     0.023 C 
ATOM     16  C   UNL     1       3.777   1.464  -1.754  1.00  0.00     0.015 C 
ATOM     17  C   UNL     1       4.054  -1.034  -1.122  1.00  0.00     0.033 C 
ATOM     18  C   UNL     1       2.101  -2.264  -0.109  1.00  0.00     0.064 C 
ATOM     19  C   UNL     1       4.677   0.227  -1.724  1.00  0.00     0.055 C 
ATOM     20  C   UNL     1       2.659  -3.479  -0.840  1.00  0.00     0.114 C 
ATOM     21  C   UNL     1       4.164  -3.487  -0.920  1.00  0.00     0.232 C 
ATOM     22  O   UNL     1       4.756  -4.565  -0.830  1.00  0.00    -0.274 OA
BRANCH  18  23
ATOM     23  C   UNL     1       2.015  -2.388   1.416  1.00  0.00    -0.039 A 
ATOM     24  C   UNL     1       2.834  -3.236   2.182  1.00  0.00     0.011 A 
ATOM     25  C   UNL     1       1.030  -1.639   2.092  1.00  0.00     0.011 A 
ATOM     26  C   UNL     1       2.653  -3.354   3.569  1.00  0.00     0.086 A 
ATOM     27  C   UNL     1       0.855  -1.732   3.474  1.00  0.00     0.086 A 
ATOM     28  C   UNL     1       1.660  -2.603   4.207  1.00  0.00     0.269 A 
BRANCH  28  29
ATOM     29  N   UNL     1       1.439  -2.744   5.650  1.00  0.00     0.062 N 
ATOM     30  O   UNL     1       1.977  -3.697   6.228  1.00  0.00    -0.258 OA
ATOM     31  O   UNL     1       0.713  -1.904   6.204  1.00  0.00    -0.258 OA
ENDBRANCH  28  29
ENDBRANCH  18  23
ENDBRANCH   6  11
ENDBRANCH   3   5
ENDBRANCH   2   3
ENDBRANCH   1   2
BRANCH   1  32
ATOM     32  C   UNL     1       6.036  -0.774   3.635  1.00  0.00     0.275 C 
BRANCH  32  33
ATOM     33  O   UNL     1       7.458  -0.580   3.648  1.00  0.00    -0.458 OA
BRANCH  33  34
ATOM     34  C   UNL     1       8.194  -1.709   3.691  1.00  0.00     0.338 C 
ATOM     35  O   UNL     1       7.788  -2.860   3.826  1.00  0.00    -0.246 OA
BRANCH  34  36
ATOM     36  C   UNL     1       9.605  -1.375   3.476  1.00  0.00     0.060 A 
ATOM     37  C   UNL     1      10.006  -0.998   2.198  1.00  0.00     0.016 A 
ATOM     38  C   UNL     1      10.548  -1.558   4.482  1.00  0.00     0.016 A 
ATOM     39  C   UNL     1      11.354  -0.883   1.884  1.00  0.00     0.010 A 
ATOM     40  C   UNL     1      11.901  -1.357   4.189  1.00  0.00     0.010 A 
ATOM     41  C   UNL     1      12.321  -1.057   2.877  1.00  0.00    -0.014 A 
BRANCH  41  42
ATOM     42  C   UNL     1      13.768  -1.022   2.529  1.00  0.00     0.031 A 
ATOM     43  C   UNL     1      14.611  -2.244   2.781  1.00  0.00     0.074 A 
ATOM     44  C   UNL     1      14.321   0.071   1.968  1.00  0.00     0.049 A 
ATOM     45  N   UNL     1      15.912  -2.371   2.784  1.00  0.00    -0.248 NA
ATOM     46  C   UNL     1      13.884  -3.484   3.092  1.00  0.00     0.031 C 
ATOM     47  C   UNL     1      13.600   1.287   1.585  1.00  0.00     0.029 A 
ATOM     48  N   UNL     1      15.621   0.336   1.616  1.00  0.00    -0.354 N 
ATOM     49  C   UNL     1      16.163  -3.683   3.175  1.00  0.00     0.074 A 
ATOM     50  C   UNL     1      14.875  -4.308   3.396  1.00  0.00     0.031 C 
ATOM     51  C   UNL     1      14.459   2.150   1.020  1.00  0.00     0.029 A 
ATOM     52  C   UNL     1      15.806   1.597   1.098  1.00  0.00     0.049 A 
ATOM     53  H   UNL     1      16.352  -0.315   1.723  1.00  0.00     0.167 HD
ATOM     54  C   UNL     1      17.360  -4.298   3.345  1.00  0.00     0.034 A 
ATOM     55  C   UNL     1      16.937   2.257   0.778  1.00  0.00     0.034 A 
ATOM     56  C   UNL     1      18.625  -3.664   3.059  1.00  0.00     0.049 A 
ATOM     57  C   UNL     1      18.259   1.576   1.021  1.00  0.00     0.074 A 
ATOM     58  C   UNL     1      19.901  -4.187   3.177  1.00  0.00     0.029 A 
ATOM     59  N   UNL     1      18.772  -2.365   2.586  1.00  0.00    -0.354 N 
ATOM     60  N   UNL     1      18.493   0.369   1.484  1.00  0.00    -0.248 NA
ATOM     61  C   UNL     1      19.466   2.354   0.721  1.00  0.00     0.031 C 
ATOM     62  C   UNL     1      20.819  -3.188   2.830  1.00  0.00     0.029 A 
ATOM     63  C   UNL     1      20.116  -2.062   2.429  1.00  0.00     0.049 A 
ATOM     64  H   UNL     1      18.030  -1.749   2.390  1.00  0.00     0.167 HD
ATOM     65  C   UNL     1      19.878   0.240   1.518  1.00  0.00     0.074 A 
ATOM     66  C   UNL     1      20.423   1.483   1.009  1.00  0.00     0.031 C 
ATOM     67  C   UNL     1      20.634  -0.809   1.933  1.00  0.00     0.034 A 
BRANCH  54  68
ATOM     68  C   UNL     1      17.351  -5.687   3.939  1.00  0.00     0.023 A 
ATOM     69  C   UNL     1      16.767  -6.785   3.285  1.00  0.00     0.031 A 
ATOM     70  C   UNL     1      17.895  -5.899   5.220  1.00  0.00     0.131 A 
ATOM     71  C   UNL     1      16.668  -8.021   3.945  1.00  0.00     0.055 A 
ATOM     72  C   UNL     1      17.866  -7.151   5.837  1.00  0.00     0.041 A 
ATOM     73  F   UNL     1      18.446  -4.885   5.905  1.00  0.00    -0.206 F 
ATOM     74  C   UNL     1      17.234  -8.218   5.207  1.00  0.00     0.022 A 
BRANCH  71  75
ATOM     75  S   UNL     1      15.651  -9.325   3.198  1.00  0.00     0.124 S 
ATOM     76  O   UNL     1      14.353  -8.663   3.092  1.00  0.00    -0.237 OA
ATOM     77  O   UNL     1      16.342  -9.581   1.940  1.00  0.00    -0.237 OA
ATOM     78  O   UNL     1      15.711 -10.410   4.175  1.00  0.00    -0.744 OA
ENDBRANCH  71  75
ENDBRANCH  54  68
BRANCH  55  79
ATOM     79  C   UNL     1      16.880   3.660   0.273  1.00  0.00     0.023 A 
ATOM     80  C   UNL     1      17.338   3.985  -1.013  1.00  0.00     0.031 A 
ATOM     81  C   UNL     1      16.393   4.703   1.083  1.00  0.00     0.131 A 
ATOM     82  C   UNL     1      17.325   5.322  -1.442  1.00  0.00     0.055 A 
ATOM     83  C   UNL     1      16.333   6.023   0.632  1.00  0.00     0.041 A 
ATOM     84  F   UNL     1      15.948   4.450   2.324  1.00  0.00    -0.206 F 
ATOM     85  C   UNL     1      16.811   6.340  -0.635  1.00  0.00     0.022 A 
BRANCH  82  86
ATOM     86  S   UNL     1      18.056   5.726  -3.053  1.00  0.00     0.124 S 
ATOM     87  O   UNL     1      19.427   5.257  -2.883  1.00  0.00    -0.237 OA
ATOM     88  O   UNL     1      17.222   4.954  -3.967  1.00  0.00    -0.237 OA
ATOM     89  O   UNL     1      17.899   7.176  -3.144  1.00  0.00    -0.744 OA
ENDBRANCH  82  86
ENDBRANCH  55  79
BRANCH  67  90
ATOM     90  C   UNL     1      22.128  -0.655   1.806  1.00  0.00     0.023 A 
ATOM     91  C   UNL     1      22.847   0.248   2.608  1.00  0.00     0.031 A 
ATOM     92  C   UNL     1      22.835  -1.402   0.848  1.00  0.00     0.131 A 
ATOM     93  C   UNL     1      24.223   0.422   2.398  1.00  0.00     0.055 A 
ATOM     94  C   UNL     1      24.213  -1.266   0.683  1.00  0.00     0.041 A 
ATOM     95  F   UNL     1      22.194  -2.276   0.055  1.00  0.00    -0.206 F 
ATOM     96  C   UNL     1      24.913  -0.340   1.451  1.00  0.00     0.022 A 
BRANCH  93  97
ATOM     97  S   UNL     1      25.085   1.727   3.317  1.00  0.00     0.124 S 
ATOM     98  O   UNL     1      24.354   2.921   2.906  1.00  0.00    -0.237 OA
ATOM     99  O   UNL     1      24.898   1.310   4.703  1.00  0.00    -0.237 OA
ATOM    100  O   UNL     1      26.459   1.642   2.826  1.00  0.00    -0.744 OA
ENDBRANCH  93  97
ENDBRANCH  67  90
ENDBRANCH  41  42
ENDBRANCH  34  36
ENDBRANCH  33  34
ENDBRANCH  32  33
ENDBRANCH   1  32
TORSDOF 17
