REMARK SMILES O=C(CNC(=O)c1ccc(NS(=O)(=O)c2ccc(N3CCCC3=O)cc2)cc1)OCCOC(=O)c1ccc(-c2c3nc(c(-c4cc(S(=O)(=O)[O-])ccc4F)c4ccc([nH]4)c(-c4cc(S(=O)(=O)[O-])ccc4F)c4nc(c(-c5cc(S(=O)(=O)[O-])ccc5F)c5ccc2[nH]5)C=C4)C=C3)cc1
REMARK SMILES IDX 29 1 2 2 1 3 3 4 4 5 5 6 6 8 7 9 8 10 28 11 9 12 27 13 10 14
REMARK SMILES IDX 11 15 12 17 13 18 14 19 15 20 16 21 26 22 17 23 25 24 18 25
REMARK SMILES IDX 19 26 20 27 23 28 21 29 22 30 24 31 30 32 31 33 32 34 33 35
REMARK SMILES IDX 34 36 35 37 36 38 97 39 37 40 96 41 38 42 39 43 40 44 90 45
REMARK SMILES IDX 41 46 95 47 89 48 91 49 42 50 94 51 88 52 87 53 43 55 75 56
REMARK SMILES IDX 55 57 74 58 56 59 59 60 73 61 92 62 57 63 58 64 72 66 93 67
REMARK SMILES IDX 60 68 44 69 45 70 53 71 46 72 52 73 54 74 51 75 47 76 48 77
REMARK SMILES IDX 49 78 50 79 76 80 77 81 85 82 78 83 84 84 86 85 83 86 79 87
REMARK SMILES IDX 80 88 81 89 82 90 61 91 62 92 70 93 63 94 69 95 71 96 68 97
REMARK SMILES IDX 64 98 65 99 66 100 67 101
REMARK H PARENT 4 7 11 16 91 54 59 65
REMARK Flexibility Score: inf
ROOT
ATOM      1  O   UNL     1       2.641  -0.463   0.639  1.00  0.00    -0.461 OA
ENDROOT
BRANCH   1   2
ATOM      2  C   UNL     1       2.627   0.895   0.729  1.00  0.00     0.325 C 
ATOM      3  O   UNL     1       1.925   1.455   1.567  1.00  0.00    -0.250 OA
BRANCH   2   4
ATOM      4  C   UNL     1       3.471   1.688  -0.272  1.00  0.00     0.239 C 
BRANCH   4   5
ATOM      5  N   UNL     1       4.585   2.439   0.282  1.00  0.00    -0.341 N 
ATOM      6  C   UNL     1       5.882   2.477  -0.173  1.00  0.00     0.251 C 
ATOM      7  H   UNL     1       4.388   2.985   1.077  1.00  0.00     0.164 HD
ATOM      8  O   UNL     1       6.683   3.305   0.244  1.00  0.00    -0.269 OA
BRANCH   6   9
ATOM      9  C   UNL     1       6.350   1.432  -1.107  1.00  0.00     0.039 A 
ATOM     10  C   UNL     1       6.867   0.267  -0.547  1.00  0.00     0.016 A 
ATOM     11  C   UNL     1       6.273   1.564  -2.496  1.00  0.00     0.016 A 
ATOM     12  C   UNL     1       7.221  -0.802  -1.366  1.00  0.00     0.027 A 
ATOM     13  C   UNL     1       6.722   0.514  -3.320  1.00  0.00     0.027 A 
ATOM     14  C   UNL     1       7.211  -0.670  -2.754  1.00  0.00     0.049 A 
BRANCH  14  15
ATOM     15  N   UNL     1       7.620  -1.781  -3.575  1.00  0.00    -0.280 N 
ATOM     16  H   UNL     1       6.952  -2.277  -4.101  1.00  0.00     0.180 HD
BRANCH  15  17
ATOM     17  S   UNL     1       9.275  -2.239  -3.636  1.00  0.00     0.261 S 
ATOM     18  O   UNL     1       9.294  -3.657  -3.933  1.00  0.00    -0.201 OA
ATOM     19  O   UNL     1       9.937  -1.301  -4.517  1.00  0.00    -0.201 OA
BRANCH  17  20
ATOM     20  C   UNL     1       9.947  -2.017  -2.007  1.00  0.00     0.087 A 
ATOM     21  C   UNL     1      10.018  -3.094  -1.113  1.00  0.00     0.024 A 
ATOM     22  C   UNL     1      10.311  -0.729  -1.604  1.00  0.00     0.024 A 
ATOM     23  C   UNL     1      10.339  -2.853   0.228  1.00  0.00     0.028 A 
ATOM     24  C   UNL     1      10.556  -0.487  -0.255  1.00  0.00     0.028 A 
ATOM     25  C   UNL     1      10.540  -1.540   0.666  1.00  0.00     0.044 A 
BRANCH  25  26
ATOM     26  N   UNL     1      10.624  -1.261   2.037  1.00  0.00    -0.312 N 
ATOM     27  C   UNL     1      11.754  -1.644   2.834  1.00  0.00     0.126 C 
ATOM     28  C   UNL     1       9.806  -0.335   2.685  1.00  0.00     0.227 C 
ATOM     29  C   UNL     1      11.344  -1.255   4.243  1.00  0.00     0.032 C 
ATOM     30  C   UNL     1      10.394  -0.081   4.048  1.00  0.00     0.102 C 
ATOM     31  O   UNL     1       8.795   0.197   2.255  1.00  0.00    -0.275 OA
ENDBRANCH  25  26
ENDBRANCH  17  20
ENDBRANCH  15  17
ENDBRANCH  14  15
ENDBRANCH   6   9
ENDBRANCH   4   5
ENDBRANCH   2   4
ENDBRANCH   1   2
BRANCH   1  32
ATOM     32  C   UNL     1       3.844  -1.169   0.285  1.00  0.00     0.274 C 
BRANCH  32  33
ATOM     33  C   UNL     1       3.725  -1.899  -1.056  1.00  0.00     0.275 C 
BRANCH  33  34
ATOM     34  O   UNL     1       3.445  -0.972  -2.120  1.00  0.00    -0.458 OA
BRANCH  34  35
ATOM     35  C   UNL     1       2.132  -0.852  -2.448  1.00  0.00     0.338 C 
ATOM     36  O   UNL     1       1.222  -1.567  -2.066  1.00  0.00    -0.246 OA
BRANCH  35  37
ATOM     37  C   UNL     1       1.925   0.433  -3.157  1.00  0.00     0.060 A 
ATOM     38  C   UNL     1       0.822   1.208  -2.781  1.00  0.00     0.016 A 
ATOM     39  C   UNL     1       2.814   0.908  -4.128  1.00  0.00     0.016 A 
ATOM     40  C   UNL     1       0.600   2.453  -3.377  1.00  0.00     0.010 A 
ATOM     41  C   UNL     1       2.588   2.155  -4.725  1.00  0.00     0.010 A 
ATOM     42  C   UNL     1       1.473   2.932  -4.362  1.00  0.00    -0.014 A 
BRANCH  42  43
ATOM     43  C   UNL     1       1.173   4.206  -5.070  1.00  0.00     0.031 A 
ATOM     44  C   UNL     1       0.543   4.161  -6.436  1.00  0.00     0.074 A 
ATOM     45  C   UNL     1       1.455   5.395  -4.502  1.00  0.00     0.049 A 
ATOM     46  N   UNL     1       0.228   5.147  -7.235  1.00  0.00    -0.248 NA
ATOM     47  C   UNL     1       0.233   2.827  -6.973  1.00  0.00     0.031 C 
ATOM     48  C   UNL     1       2.044   5.579  -3.176  1.00  0.00     0.029 A 
ATOM     49  N   UNL     1       1.295   6.675  -4.976  1.00  0.00    -0.354 N 
ATOM     50  C   UNL     1      -0.317   4.558  -8.370  1.00  0.00     0.074 A 
ATOM     51  C   UNL     1      -0.260   3.125  -8.167  1.00  0.00     0.031 C 
ATOM     52  C   UNL     1       2.212   6.895  -2.951  1.00  0.00     0.029 A 
ATOM     53  C   UNL     1       1.774   7.646  -4.127  1.00  0.00     0.049 A 
ATOM     54  H   UNL     1       0.876   6.878  -5.844  1.00  0.00     0.167 HD
ATOM     55  C   UNL     1      -0.826   5.156  -9.475  1.00  0.00     0.034 A 
ATOM     56  C   UNL     1       1.876   8.983  -4.289  1.00  0.00     0.034 A 
ATOM     57  C   UNL     1      -0.889   6.582  -9.671  1.00  0.00     0.049 A 
ATOM     58  C   UNL     1       1.381   9.614  -5.572  1.00  0.00     0.074 A 
ATOM     59  C   UNL     1      -1.458   7.279 -10.724  1.00  0.00     0.029 A 
ATOM     60  N   UNL     1      -0.347   7.529  -8.816  1.00  0.00    -0.354 N 
ATOM     61  N   UNL     1       0.809   9.044  -6.607  1.00  0.00    -0.248 NA
ATOM     62  C   UNL     1       1.547  11.070  -5.707  1.00  0.00     0.031 C 
ATOM     63  C   UNL     1      -1.192   8.640 -10.544  1.00  0.00     0.029 A 
ATOM     64  C   UNL     1      -0.519   8.800  -9.344  1.00  0.00     0.049 A 
ATOM     65  H   UNL     1       0.095   7.329  -7.959  1.00  0.00     0.167 HD
ATOM     66  C   UNL     1       0.525  10.077  -7.500  1.00  0.00     0.074 A 
ATOM     67  C   UNL     1       0.972  11.304  -6.877  1.00  0.00     0.031 C 
ATOM     68  C   UNL     1      -0.057  10.017  -8.724  1.00  0.00     0.034 A 
BRANCH  55  69
ATOM     69  C   UNL     1      -1.322   4.266 -10.584  1.00  0.00     0.023 A 
ATOM     70  C   UNL     1      -2.476   3.479 -10.442  1.00  0.00     0.031 A 
ATOM     71  C   UNL     1      -0.635   4.224 -11.810  1.00  0.00     0.131 A 
ATOM     72  C   UNL     1      -2.886   2.650 -11.497  1.00  0.00     0.055 A 
ATOM     73  C   UNL     1      -1.082   3.444 -12.876  1.00  0.00     0.041 A 
ATOM     74  F   UNL     1       0.485   4.943 -11.989  1.00  0.00    -0.206 F 
ATOM     75  C   UNL     1      -2.211   2.644 -12.720  1.00  0.00     0.022 A 
BRANCH  72  76
ATOM     76  S   UNL     1      -4.266   1.506 -11.217  1.00  0.00     0.124 S 
ATOM     77  O   UNL     1      -3.745   0.675 -10.135  1.00  0.00    -0.237 OA
ATOM     78  O   UNL     1      -5.356   2.407 -10.863  1.00  0.00    -0.237 OA
ATOM     79  O   UNL     1      -4.412   0.825 -12.502  1.00  0.00    -0.744 OA
ENDBRANCH  72  76
ENDBRANCH  55  69
BRANCH  56  80
ATOM     80  C   UNL     1       2.533   9.832  -3.252  1.00  0.00     0.023 A 
ATOM     81  C   UNL     1       1.834  10.864  -2.604  1.00  0.00     0.031 A 
ATOM     82  C   UNL     1       3.905   9.692  -2.975  1.00  0.00     0.131 A 
ATOM     83  C   UNL     1       2.521  11.755  -1.765  1.00  0.00     0.055 A 
ATOM     84  C   UNL     1       4.571  10.544  -2.093  1.00  0.00     0.041 A 
ATOM     85  F   UNL     1       4.623   8.729  -3.574  1.00  0.00    -0.206 F 
ATOM     86  C   UNL     1       3.882  11.595  -1.496  1.00  0.00     0.022 A 
BRANCH  83  87
ATOM     87  S   UNL     1       1.637  13.208  -1.132  1.00  0.00     0.124 S 
ATOM     88  O   UNL     1       1.149  13.819  -2.364  1.00  0.00    -0.237 OA
ATOM     89  O   UNL     1       0.627  12.597  -0.275  1.00  0.00    -0.237 OA
ATOM     90  O   UNL     1       2.676  13.960  -0.431  1.00  0.00    -0.744 OA
ENDBRANCH  83  87
ENDBRANCH  56  80
BRANCH  68  91
ATOM     91  C   UNL     1      -0.269  11.320  -9.456  1.00  0.00     0.023 A 
ATOM     92  C   UNL     1       0.810  12.067  -9.960  1.00  0.00     0.031 A 
ATOM     93  C   UNL     1      -1.569  11.818  -9.655  1.00  0.00     0.131 A 
ATOM     94  C   UNL     1       0.574  13.292 -10.602  1.00  0.00     0.055 A 
ATOM     95  C   UNL     1      -1.802  13.011 -10.341  1.00  0.00     0.041 A 
ATOM     96  F   UNL     1      -2.636  11.146  -9.195  1.00  0.00    -0.206 F 
ATOM     97  C   UNL     1      -0.726  13.761 -10.810  1.00  0.00     0.022 A 
BRANCH  94  98
ATOM     98  S   UNL     1       1.993  14.299 -11.114  1.00  0.00     0.124 S 
ATOM     99  O   UNL     1       2.647  14.573  -9.838  1.00  0.00    -0.237 OA
ATOM    100  O   UNL     1       2.707  13.401 -12.016  1.00  0.00    -0.237 OA
ATOM    101  O   UNL     1       1.377  15.459 -11.757  1.00  0.00    -0.744 OA
ENDBRANCH  94  98
ENDBRANCH  68  91
ENDBRANCH  42  43
ENDBRANCH  35  37
ENDBRANCH  34  35
ENDBRANCH  33  34
ENDBRANCH  32  33
ENDBRANCH   1  32
TORSDOF 20
