REMARK SMILES Cc1cc(N2CC[NH+]([C@@H](C(=O)OCCOC(=O)c3ccc(-c4c5nc(c(-c6cc(S(=O)(=O)[O-])ccc6F)c6ccc([nH]6)c(-c6cc(S(=O)(=O)[O-])ccc6F)c6nc(c(-c7cc(S(=O)(=O)[O-])ccc7F)c7ccc4[nH]7)C=C6)C=C5)cc3)c3c[nH]c4ccccc34)CC2)nc2ccccc12
REMARK SMILES IDX 14 1 13 2 12 3 10 4 11 5 9 6 8 7 5 8 6 9 91 10 7 11 90 12
REMARK SMILES IDX 4 14 1 15 2 16 3 17 98 18 93 19 97 20 92 21 94 22 96 23
REMARK SMILES IDX 95 24 81 25 82 26 89 27 83 28 84 29 88 30 85 32 87 33 86 34
REMARK SMILES IDX 15 35 16 36 17 37 18 38 19 39 80 40 20 41 79 42 21 43 22 44
REMARK SMILES IDX 23 45 73 46 24 47 78 48 72 49 74 50 25 51 77 52 71 53 70 54
REMARK SMILES IDX 26 56 58 57 38 58 57 59 39 60 42 61 56 62 75 63 40 64 41 65
REMARK SMILES IDX 55 67 76 68 43 69 27 70 28 71 36 72 29 73 35 74 37 75 34 76
REMARK SMILES IDX 30 77 31 78 32 79 33 80 59 81 60 82 68 83 61 84 67 85 69 86
REMARK SMILES IDX 66 87 62 88 63 89 64 90 65 91 44 92 45 93 53 94 46 95 52 96
REMARK SMILES IDX 54 97 51 98 47 99 48 100 49 101 50 102
REMARK H PARENT 8 13 83 31 74 55 42 66
REMARK Flexibility Score: inf
ROOT
ATOM      1  C   UNL     1      -0.849  -5.524  -1.696  1.00  0.00     0.275 C 
ENDROOT
BRANCH   1   2
ATOM      2  C   UNL     1      -2.185  -4.825  -1.901  1.00  0.00     0.274 C 
BRANCH   2   3
ATOM      3  O   UNL     1      -2.861  -4.613  -0.638  1.00  0.00    -0.457 OA
BRANCH   3   4
ATOM      4  C   UNL     1      -4.033  -5.276  -0.458  1.00  0.00     0.370 C 
ATOM      5  O   UNL     1      -4.407  -6.182  -1.205  1.00  0.00    -0.245 OA
BRANCH   4   6
ATOM      6  C   UNL     1      -4.958  -4.687   0.611  1.00  0.00     0.328 C 
BRANCH   6   7
ATOM      7  N   UNL     1      -5.306  -3.227   0.478  1.00  0.00    -0.316 N 
ATOM      8  N   UNL     1      -2.988  -1.657  -0.310  1.00  0.00    -0.345 N 
ATOM      9  C   UNL     1      -3.150  -2.104   1.072  1.00  0.00     0.179 C 
ATOM     10  C   UNL     1      -4.100  -1.693  -1.253  1.00  0.00     0.179 C 
ATOM     11  C   UNL     1      -4.626  -2.309   1.400  1.00  0.00     0.285 C 
ATOM     12  C   UNL     1      -5.247  -2.692  -0.890  1.00  0.00     0.285 C 
ATOM     13  H   UNL     1      -6.285  -3.254   0.764  1.00  0.00     0.349 HD
BRANCH   8  14
ATOM     14  C   UNL     1      -1.940  -0.769  -0.442  1.00  0.00     0.129 A 
ATOM     15  C   UNL     1      -1.435   2.955  -0.125  1.00  0.00     0.045 C 
ATOM     16  C   UNL     1      -1.124   1.493  -0.265  1.00  0.00    -0.038 A 
ATOM     17  C   UNL     1      -2.184   0.597  -0.408  1.00  0.00     0.051 A 
ATOM     18  C   UNL     1       0.190   0.981  -0.195  1.00  0.00     0.003 A 
ATOM     19  C   UNL     1       0.345  -0.421  -0.257  1.00  0.00     0.073 A 
ATOM     20  C   UNL     1       1.338   1.791  -0.044  1.00  0.00     0.010 A 
ATOM     21  N   UNL     1      -0.691  -1.265  -0.375  1.00  0.00    -0.231 NA
ATOM     22  C   UNL     1       1.623  -0.958  -0.163  1.00  0.00     0.029 A 
ATOM     23  C   UNL     1       2.610   1.227   0.044  1.00  0.00     0.001 A 
ATOM     24  C   UNL     1       2.753  -0.152  -0.014  1.00  0.00     0.002 A 
ENDBRANCH   8  14
ENDBRANCH   6   7
BRANCH   6  25
ATOM     25  C   UNL     1      -4.817  -5.073   2.078  1.00  0.00     0.046 A 
ATOM     26  C   UNL     1      -5.933  -5.325   2.871  1.00  0.00     0.094 A 
ATOM     27  C   UNL     1      -3.702  -4.993   2.999  1.00  0.00     0.009 A 
ATOM     28  N   UNL     1      -5.597  -5.109   4.177  1.00  0.00    -0.361 N 
ATOM     29  C   UNL     1      -4.261  -4.815   4.271  1.00  0.00     0.046 A 
ATOM     30  C   UNL     1      -2.297  -4.888   2.901  1.00  0.00     0.011 A 
ATOM     31  H   UNL     1      -6.220  -5.158   4.937  1.00  0.00     0.166 HD
ATOM     32  C   UNL     1      -3.531  -4.381   5.384  1.00  0.00     0.026 A 
ATOM     33  C   UNL     1      -1.536  -4.531   4.028  1.00  0.00     0.001 A 
ATOM     34  C   UNL     1      -2.154  -4.233   5.238  1.00  0.00     0.002 A 
ENDBRANCH   6  25
ENDBRANCH   4   6
ENDBRANCH   3   4
ENDBRANCH   2   3
ENDBRANCH   1   2
BRANCH   1  35
ATOM     35  O   UNL     1      -1.109  -6.766  -1.028  1.00  0.00    -0.458 OA
BRANCH  35  36
ATOM     36  C   UNL     1      -0.435  -6.957   0.125  1.00  0.00     0.338 C 
ATOM     37  O   UNL     1       0.612  -6.406   0.453  1.00  0.00    -0.246 OA
BRANCH  36  38
ATOM     38  C   UNL     1      -1.204  -7.848   1.024  1.00  0.00     0.060 A 
ATOM     39  C   UNL     1      -2.579  -8.035   0.856  1.00  0.00     0.016 A 
ATOM     40  C   UNL     1      -0.569  -8.390   2.142  1.00  0.00     0.016 A 
ATOM     41  C   UNL     1      -3.335  -8.656   1.844  1.00  0.00     0.010 A 
ATOM     42  C   UNL     1      -1.311  -9.107   3.083  1.00  0.00     0.010 A 
ATOM     43  C   UNL     1      -2.704  -9.224   2.955  1.00  0.00    -0.014 A 
BRANCH  43  44
ATOM     44  C   UNL     1      -3.480  -9.998   3.955  1.00  0.00     0.031 A 
ATOM     45  C   UNL     1      -3.516  -9.573   5.394  1.00  0.00     0.074 A 
ATOM     46  C   UNL     1      -4.105 -11.125   3.565  1.00  0.00     0.049 A 
ATOM     47  N   UNL     1      -3.916 -10.240   6.446  1.00  0.00    -0.248 NA
ATOM     48  C   UNL     1      -3.024  -8.221   5.687  1.00  0.00     0.031 C 
ATOM     49  C   UNL     1      -4.175 -11.617   2.188  1.00  0.00     0.029 A 
ATOM     50  N   UNL     1      -4.776 -12.073   4.294  1.00  0.00    -0.354 N 
ATOM     51  C   UNL     1      -3.686  -9.407   7.536  1.00  0.00     0.074 A 
ATOM     52  C   UNL     1      -3.107  -8.186   7.010  1.00  0.00     0.031 C 
ATOM     53  C   UNL     1      -4.842 -12.778   2.170  1.00  0.00     0.029 A 
ATOM     54  C   UNL     1      -5.162 -13.155   3.540  1.00  0.00     0.049 A 
ATOM     55  H   UNL     1      -4.961 -11.987   5.257  1.00  0.00     0.167 HD
ATOM     56  C   UNL     1      -3.929  -9.654   8.849  1.00  0.00     0.034 A 
ATOM     57  C   UNL     1      -5.652 -14.352   3.908  1.00  0.00     0.034 A 
ATOM     58  C   UNL     1      -4.515 -10.886   9.337  1.00  0.00     0.049 A 
ATOM     59  C   UNL     1      -5.878 -14.625   5.363  1.00  0.00     0.074 A 
ATOM     60  C   UNL     1      -4.820 -11.244  10.640  1.00  0.00     0.029 A 
ATOM     61  N   UNL     1      -4.885 -11.967   8.541  1.00  0.00    -0.354 N 
ATOM     62  N   UNL     1      -5.597 -13.865   6.397  1.00  0.00    -0.248 NA
ATOM     63  C   UNL     1      -6.495 -15.910   5.698  1.00  0.00     0.031 C 
ATOM     64  C   UNL     1      -5.312 -12.556  10.639  1.00  0.00     0.029 A 
ATOM     65  C   UNL     1      -5.394 -12.995   9.327  1.00  0.00     0.049 A 
ATOM     66  H   UNL     1      -4.798 -11.999   7.561  1.00  0.00     0.167 HD
ATOM     67  C   UNL     1      -6.006 -14.584   7.514  1.00  0.00     0.074 A 
ATOM     68  C   UNL     1      -6.581 -15.821   7.018  1.00  0.00     0.031 C 
ATOM     69  C   UNL     1      -5.917 -14.248   8.827  1.00  0.00     0.034 A 
BRANCH  56  70
ATOM     70  C   UNL     1      -3.498  -8.603   9.850  1.00  0.00     0.023 A 
ATOM     71  C   UNL     1      -4.045  -7.307   9.865  1.00  0.00     0.031 A 
ATOM     72  C   UNL     1      -2.503  -8.901  10.800  1.00  0.00     0.131 A 
ATOM     73  C   UNL     1      -3.553  -6.344  10.762  1.00  0.00     0.055 A 
ATOM     74  C   UNL     1      -2.072  -7.963  11.742  1.00  0.00     0.041 A 
ATOM     75  F   UNL     1      -1.922 -10.111  10.826  1.00  0.00    -0.206 F 
ATOM     76  C   UNL     1      -2.587  -6.671  11.717  1.00  0.00     0.022 A 
BRANCH  73  77
ATOM     77  S   UNL     1      -4.092  -4.620  10.575  1.00  0.00     0.124 S 
ATOM     78  O   UNL     1      -3.783  -4.356   9.171  1.00  0.00    -0.237 OA
ATOM     79  O   UNL     1      -5.509  -4.696  10.909  1.00  0.00    -0.237 OA
ATOM     80  O   UNL     1      -3.261  -3.895  11.534  1.00  0.00    -0.744 OA
ENDBRANCH  73  77
ENDBRANCH  56  70
BRANCH  57  81
ATOM     81  C   UNL     1      -5.880 -15.387   2.865  1.00  0.00     0.023 A 
ATOM     82  C   UNL     1      -7.174 -15.758   2.477  1.00  0.00     0.031 A 
ATOM     83  C   UNL     1      -4.788 -15.958   2.183  1.00  0.00     0.131 A 
ATOM     84  C   UNL     1      -7.347 -16.675   1.429  1.00  0.00     0.055 A 
ATOM     85  C   UNL     1      -4.966 -16.835   1.114  1.00  0.00     0.041 A 
ATOM     86  F   UNL     1      -3.531 -15.620   2.511  1.00  0.00    -0.206 F 
ATOM     87  C   UNL     1      -6.253 -17.200   0.733  1.00  0.00     0.022 A 
BRANCH  84  88
ATOM     88  S   UNL     1      -9.030 -17.179   0.984  1.00  0.00     0.124 S 
ATOM     89  O   UNL     1      -9.484 -17.824   2.211  1.00  0.00    -0.237 OA
ATOM     90  O   UNL     1      -9.657 -15.901   0.662  1.00  0.00    -0.237 OA
ATOM     91  O   UNL     1      -8.829 -18.073  -0.154  1.00  0.00    -0.744 OA
ENDBRANCH  84  88
ENDBRANCH  57  81
BRANCH  69  92
ATOM     92  C   UNL     1      -6.481 -15.251   9.806  1.00  0.00     0.023 A 
ATOM     93  C   UNL     1      -5.913 -16.529   9.959  1.00  0.00     0.031 A 
ATOM     94  C   UNL     1      -7.652 -14.957  10.527  1.00  0.00     0.131 A 
ATOM     95  C   UNL     1      -6.566 -17.495  10.739  1.00  0.00     0.055 A 
ATOM     96  C   UNL     1      -8.259 -15.901  11.357  1.00  0.00     0.041 A 
ATOM     97  F   UNL     1      -8.240 -13.755  10.416  1.00  0.00    -0.206 F 
ATOM     98  C   UNL     1      -7.729 -17.185  11.449  1.00  0.00     0.022 A 
BRANCH  95  99
ATOM     99  S   UNL     1      -5.964 -19.206  10.688  1.00  0.00     0.124 S 
ATOM    100  O   UNL     1      -5.965 -19.485   9.255  1.00  0.00    -0.237 OA
ATOM    101  O   UNL     1      -4.652 -19.093  11.315  1.00  0.00    -0.237 OA
ATOM    102  O   UNL     1      -6.961 -19.943  11.462  1.00  0.00    -0.744 OA
ENDBRANCH  95  99
ENDBRANCH  69  92
ENDBRANCH  43  44
ENDBRANCH  36  38
ENDBRANCH  35  36
ENDBRANCH   1  35
TORSDOF 17
