REMARK SMILES O=C(OCCOC(=O)c1nn(-c2ccc([N+](=O)[O-])cc2)cc1CCO)c1ccc(-c2c3nc(c(-c4cc(S(=O)(=O)[O-])ccc4F)c4ccc([nH]4)c(-c4cc(S(=O)(=O)[O-])ccc4F)c4nc(c(-c5cc(S(=O)(=O)[O-])ccc5F)c5ccc2[nH]5)C=C4)C=C3)cc1
REMARK SMILES IDX 4 1 3 2 2 3 1 4 26 5 27 6 88 7 28 8 87 9 29 10 30 11 31 12
REMARK SMILES IDX 81 13 32 14 86 15 80 16 82 17 33 18 85 19 79 20 78 21 34 23
REMARK SMILES IDX 66 24 46 25 65 26 47 27 50 28 64 29 83 30 48 31 49 32 63 34
REMARK SMILES IDX 84 35 51 36 35 37 36 38 44 39 37 40 43 41 45 42 42 43 38 44
REMARK SMILES IDX 39 45 40 46 41 47 67 48 68 49 76 50 69 51 75 52 77 53 74 54
REMARK SMILES IDX 70 55 71 56 72 57 73 58 52 59 53 60 61 61 54 62 60 63 62 64
REMARK SMILES IDX 59 65 55 66 56 67 57 68 58 69 5 70 6 71 7 72 8 73 9 74 10 75
REMARK SMILES IDX 22 76 11 77 21 78 23 79 24 80 25 81 12 83 13 84 20 85 14 86
REMARK SMILES IDX 19 87 15 88 16 89 17 90 18 91
REMARK H PARENT 82 22 50 33 25 82
REMARK Flexibility Score: inf
ROOT
ATOM      1  C   UNL     1       4.939   0.806   0.233  1.00  0.00     0.275 C 
ENDROOT
BRANCH   1   2
ATOM      2  O   UNL     1       3.766   1.485  -0.251  1.00  0.00    -0.458 OA
BRANCH   2   3
ATOM      3  C   UNL     1       2.629   0.866  -0.625  1.00  0.00     0.338 C 
ATOM      4  O   UNL     1       1.570   1.099  -0.048  1.00  0.00    -0.246 OA
BRANCH   3   5
ATOM      5  C   UNL     1       2.602   0.082  -1.897  1.00  0.00     0.060 A 
ATOM      6  C   UNL     1       3.639  -0.679  -2.438  1.00  0.00     0.016 A 
ATOM      7  C   UNL     1       1.342   0.018  -2.513  1.00  0.00     0.016 A 
ATOM      8  C   UNL     1       3.416  -1.456  -3.587  1.00  0.00     0.010 A 
ATOM      9  C   UNL     1       1.098  -0.842  -3.574  1.00  0.00     0.010 A 
ATOM     10  C   UNL     1       2.140  -1.536  -4.171  1.00  0.00    -0.014 A 
BRANCH  10  11
ATOM     11  C   UNL     1       1.895  -2.381  -5.353  1.00  0.00     0.031 A 
ATOM     12  C   UNL     1       2.567  -3.715  -5.348  1.00  0.00     0.074 A 
ATOM     13  C   UNL     1       1.061  -2.065  -6.376  1.00  0.00     0.049 A 
ATOM     14  N   UNL     1       3.599  -4.069  -6.039  1.00  0.00    -0.248 NA
ATOM     15  C   UNL     1       2.141  -4.732  -4.374  1.00  0.00     0.031 C 
ATOM     16  C   UNL     1       0.153  -0.919  -6.510  1.00  0.00     0.029 A 
ATOM     17  N   UNL     1       0.810  -2.761  -7.526  1.00  0.00    -0.354 N 
ATOM     18  C   UNL     1       3.819  -5.418  -5.774  1.00  0.00     0.074 A 
ATOM     19  C   UNL     1       3.005  -5.721  -4.625  1.00  0.00     0.031 C 
ATOM     20  C   UNL     1      -0.698  -1.113  -7.544  1.00  0.00     0.029 A 
ATOM     21  C   UNL     1      -0.273  -2.293  -8.274  1.00  0.00     0.049 A 
ATOM     22  H   UNL     1       1.352  -3.534  -7.806  1.00  0.00     0.167 HD
ATOM     23  C   UNL     1       4.505  -6.207  -6.651  1.00  0.00     0.034 A 
ATOM     24  C   UNL     1      -0.759  -2.768  -9.455  1.00  0.00     0.034 A 
ATOM     25  C   UNL     1       5.247  -5.402  -7.597  1.00  0.00     0.049 A 
ATOM     26  C   UNL     1       0.369  -3.467 -10.112  1.00  0.00     0.074 A 
ATOM     27  C   UNL     1       6.234  -4.441  -7.476  1.00  0.00     0.029 A 
ATOM     28  N   UNL     1       4.718  -5.218  -8.855  1.00  0.00    -0.354 N 
ATOM     29  N   UNL     1       1.440  -2.846 -10.524  1.00  0.00    -0.248 NA
ATOM     30  C   UNL     1       0.533  -4.888  -9.851  1.00  0.00     0.031 C 
ATOM     31  C   UNL     1       5.857  -3.421  -8.400  1.00  0.00     0.029 A 
ATOM     32  C   UNL     1       4.738  -3.866  -9.107  1.00  0.00     0.049 A 
ATOM     33  H   UNL     1       4.387  -5.922  -9.460  1.00  0.00     0.167 HD
ATOM     34  C   UNL     1       2.491  -3.668 -10.151  1.00  0.00     0.074 A 
ATOM     35  C   UNL     1       1.867  -4.949  -9.817  1.00  0.00     0.031 C 
ATOM     36  C   UNL     1       3.733  -3.164  -9.885  1.00  0.00     0.034 A 
BRANCH  23  37
ATOM     37  C   UNL     1       4.269  -7.686  -6.879  1.00  0.00     0.023 A 
ATOM     38  C   UNL     1       5.083  -8.347  -7.823  1.00  0.00     0.031 A 
ATOM     39  C   UNL     1       3.132  -8.403  -6.446  1.00  0.00     0.131 A 
ATOM     40  C   UNL     1       4.712  -9.595  -8.356  1.00  0.00     0.055 A 
ATOM     41  C   UNL     1       2.799  -9.672  -6.933  1.00  0.00     0.041 A 
ATOM     42  F   UNL     1       2.232  -7.887  -5.601  1.00  0.00    -0.206 F 
ATOM     43  C   UNL     1       3.573 -10.263  -7.917  1.00  0.00     0.022 A 
BRANCH  40  44
ATOM     44  S   UNL     1       5.646 -10.251  -9.766  1.00  0.00     0.124 S 
ATOM     45  O   UNL     1       5.587  -9.135 -10.703  1.00  0.00    -0.237 OA
ATOM     46  O   UNL     1       6.948 -10.518  -9.164  1.00  0.00    -0.237 OA
ATOM     47  O   UNL     1       4.885 -11.435 -10.156  1.00  0.00    -0.744 OA
ENDBRANCH  40  44
ENDBRANCH  23  37
BRANCH  24  48
ATOM     48  C   UNL     1      -2.189  -2.958  -9.841  1.00  0.00     0.023 A 
ATOM     49  C   UNL     1      -2.623  -3.146 -11.175  1.00  0.00     0.031 A 
ATOM     50  C   UNL     1      -3.140  -3.218  -8.828  1.00  0.00     0.131 A 
ATOM     51  C   UNL     1      -3.946  -3.582 -11.444  1.00  0.00     0.055 A 
ATOM     52  C   UNL     1      -4.439  -3.657  -9.099  1.00  0.00     0.041 A 
ATOM     53  F   UNL     1      -2.807  -3.138  -7.530  1.00  0.00    -0.206 F 
ATOM     54  C   UNL     1      -4.845  -3.851 -10.409  1.00  0.00     0.022 A 
BRANCH  51  55
ATOM     55  S   UNL     1      -4.507  -3.888 -13.156  1.00  0.00     0.124 S 
ATOM     56  O   UNL     1      -4.518  -2.545 -13.724  1.00  0.00    -0.237 OA
ATOM     57  O   UNL     1      -3.489  -4.800 -13.663  1.00  0.00    -0.237 OA
ATOM     58  O   UNL     1      -5.831  -4.488 -12.980  1.00  0.00    -0.744 OA
ENDBRANCH  51  55
ENDBRANCH  24  48
BRANCH  36  59
ATOM     59  C   UNL     1       4.035  -1.722 -10.255  1.00  0.00     0.023 A 
ATOM     60  C   UNL     1       3.333  -0.587  -9.781  1.00  0.00     0.031 A 
ATOM     61  C   UNL     1       5.185  -1.494 -11.032  1.00  0.00     0.131 A 
ATOM     62  C   UNL     1       3.796   0.710 -10.094  1.00  0.00     0.055 A 
ATOM     63  C   UNL     1       5.651  -0.212 -11.319  1.00  0.00     0.041 A 
ATOM     64  F   UNL     1       5.907  -2.528 -11.496  1.00  0.00    -0.206 F 
ATOM     65  C   UNL     1       4.955   0.896 -10.854  1.00  0.00     0.022 A 
BRANCH  62  66
ATOM     66  S   UNL     1       2.894   2.193  -9.528  1.00  0.00     0.124 S 
ATOM     67  O   UNL     1       1.513   1.916  -9.904  1.00  0.00    -0.237 OA
ATOM     68  O   UNL     1       3.175   2.208  -8.095  1.00  0.00    -0.237 OA
ATOM     69  O   UNL     1       3.523   3.281 -10.279  1.00  0.00    -0.744 OA
ENDBRANCH  62  66
ENDBRANCH  36  59
ENDBRANCH  10  11
ENDBRANCH   3   5
ENDBRANCH   2   3
ENDBRANCH   1   2
BRANCH   1  70
ATOM     70  C   UNL     1       4.752  -0.094   1.457  1.00  0.00     0.275 C 
BRANCH  70  71
ATOM     71  O   UNL     1       4.159  -1.354   1.109  1.00  0.00    -0.457 OA
BRANCH  71  72
ATOM     72  C   UNL     1       2.861  -1.553   1.510  1.00  0.00     0.359 C 
ATOM     73  O   UNL     1       2.182  -0.716   2.073  1.00  0.00    -0.244 OA
BRANCH  72  74
ATOM     74  C   UNL     1       2.366  -2.870   1.084  1.00  0.00     0.174 A 
ATOM     75  N   UNL     1       2.997  -3.999   1.450  1.00  0.00    -0.161 NA
ATOM     76  C   UNL     1       1.244  -3.159   0.244  1.00  0.00     0.008 A 
ATOM     77  N   UNL     1       2.415  -4.968   0.716  1.00  0.00    -0.240 N 
ATOM     78  C   UNL     1       1.399  -4.495  -0.070  1.00  0.00     0.119 A 
BRANCH  76  79
ATOM     79  C   UNL     1       0.248  -2.210  -0.325  1.00  0.00     0.068 C 
BRANCH  79  80
ATOM     80  C   UNL     1      -0.892  -1.761   0.581  1.00  0.00     0.161 C 
BRANCH  80  81
ATOM     81  O   UNL     1      -0.452  -1.130   1.774  1.00  0.00    -0.396 OA
ATOM     82  H   UNL     1       0.071  -1.757   2.297  1.00  0.00     0.210 HD
ENDBRANCH  80  81
ENDBRANCH  79  80
ENDBRANCH  76  79
BRANCH  77  83
ATOM     83  C   UNL     1       2.825  -6.308   0.852  1.00  0.00     0.065 A 
ATOM     84  C   UNL     1       3.022  -6.809   2.146  1.00  0.00     0.035 A 
ATOM     85  C   UNL     1       3.007  -7.118  -0.274  1.00  0.00     0.035 A 
ATOM     86  C   UNL     1       3.364  -8.148   2.321  1.00  0.00     0.088 A 
ATOM     87  C   UNL     1       3.413  -8.445  -0.102  1.00  0.00     0.088 A 
ATOM     88  C   UNL     1       3.571  -8.959   1.196  1.00  0.00     0.269 A 
BRANCH  88  89
ATOM     89  N   UNL     1       3.955 -10.362   1.387  1.00  0.00     0.062 N 
ATOM     90  O   UNL     1       3.928 -10.814   2.542  1.00  0.00    -0.258 OA
ATOM     91  O   UNL     1       4.280 -11.015   0.387  1.00  0.00    -0.258 OA
ENDBRANCH  88  89
ENDBRANCH  77  83
ENDBRANCH  72  74
ENDBRANCH  71  72
ENDBRANCH  70  71
ENDBRANCH   1  70
TORSDOF 19
