REMARK SMILES C=CCCCn1cc(C(=O)OCCOC(=O)c2ccc(-c3c4nc(c(-c5cc(S(=O)(=O)[O-])ccc5F)c5ccc([nH]5)c(-c5cc(S(=O)(=O)[O-])ccc5F)c5nc(c(-c6cc(S(=O)(=O)[O-])ccc6F)c6ccc3[nH]6)C=C5)C=C4)cc2)cc1Br
REMARK SMILES IDX 12 1 11 2 9 3 10 4 8 5 6 6 7 7 81 8 80 9 82 10 5 11 4 12
REMARK SMILES IDX 3 13 2 14 1 15 13 16 14 17 15 18 16 19 17 20 18 21 79 22
REMARK SMILES IDX 19 23 78 24 20 25 21 26 22 27 72 28 23 29 77 30 71 31 73 32
REMARK SMILES IDX 24 33 76 34 70 35 69 36 25 38 57 39 37 40 56 41 38 42 41 43
REMARK SMILES IDX 55 44 74 45 39 46 40 47 54 49 75 50 42 51 26 52 27 53 35 54
REMARK SMILES IDX 28 55 34 56 36 57 33 58 29 59 30 60 31 61 32 62 58 63 59 64
REMARK SMILES IDX 67 65 60 66 66 67 68 68 65 69 61 70 62 71 63 72 64 73 43 74
REMARK SMILES IDX 44 75 52 76 45 77 51 78 53 79 50 80 46 81 47 82 48 83 49 84
REMARK H PARENT 73 37 41 48
REMARK Flexibility Score: inf
ROOT
ATOM      1  C   UNL     1      -4.155   4.836  -2.989  1.00  0.00     0.275 C 
ENDROOT
BRANCH   1   2
ATOM      2  O   UNL     1      -3.424   4.331  -1.862  1.00  0.00    -0.458 OA
BRANCH   2   3
ATOM      3  C   UNL     1      -2.511   5.187  -1.308  1.00  0.00     0.339 C 
ATOM      4  O   UNL     1      -2.111   6.218  -1.844  1.00  0.00    -0.246 OA
BRANCH   3   5
ATOM      5  C   UNL     1      -2.075   4.767   0.015  1.00  0.00     0.078 A 
ATOM      6  N   UNL     1      -1.654   3.467   1.781  1.00  0.00    -0.341 N 
ATOM      7  C   UNL     1      -2.413   3.582   0.648  1.00  0.00     0.102 A 
ATOM      8  C   UNL     1      -1.083   4.686   2.040  1.00  0.00     0.085 A 
ATOM      9  C   UNL     1      -1.296   5.503   0.954  1.00  0.00     0.051 A 
ATOM     10  Br  UNL     1      -0.138   5.189   3.572  1.00  0.00    -0.031 Br
BRANCH   6  11
ATOM     11  C   UNL     1      -1.428   2.250   2.540  1.00  0.00     0.123 C 
BRANCH  11  12
ATOM     12  C   UNL     1      -1.747   0.918   1.840  1.00  0.00     0.026 C 
BRANCH  12  13
ATOM     13  C   UNL     1      -1.096   0.673   0.469  1.00  0.00     0.028 C 
BRANCH  13  14
ATOM     14  C   UNL     1       0.402   0.746   0.449  1.00  0.00    -0.035 C 
ATOM     15  C   UNL     1       1.180  -0.233  -0.029  1.00  0.00     0.004 C 
ENDBRANCH  13  14
ENDBRANCH  12  13
ENDBRANCH  11  12
ENDBRANCH   6  11
ENDBRANCH   3   5
ENDBRANCH   2   3
ENDBRANCH   1   2
BRANCH   1  16
ATOM     16  C   UNL     1      -5.383   5.616  -2.544  1.00  0.00     0.275 C 
BRANCH  16  17
ATOM     17  O   UNL     1      -5.009   6.820  -1.879  1.00  0.00    -0.458 OA
BRANCH  17  18
ATOM     18  C   UNL     1      -4.979   6.730  -0.529  1.00  0.00     0.338 C 
ATOM     19  O   UNL     1      -4.935   5.709   0.136  1.00  0.00    -0.246 OA
BRANCH  18  20
ATOM     20  C   UNL     1      -5.273   8.044   0.043  1.00  0.00     0.060 A 
ATOM     21  C   UNL     1      -5.293   8.134   1.438  1.00  0.00     0.016 A 
ATOM     22  C   UNL     1      -5.868   9.011  -0.778  1.00  0.00     0.016 A 
ATOM     23  C   UNL     1      -6.101   9.088   2.014  1.00  0.00     0.010 A 
ATOM     24  C   UNL     1      -6.699   9.936  -0.204  1.00  0.00     0.010 A 
ATOM     25  C   UNL     1      -6.864   9.913   1.179  1.00  0.00    -0.014 A 
BRANCH  25  26
ATOM     26  C   UNL     1      -7.731  10.896   1.788  1.00  0.00     0.031 A 
ATOM     27  C   UNL     1      -6.960  12.021   2.364  1.00  0.00     0.074 A 
ATOM     28  C   UNL     1      -9.073  10.851   1.681  1.00  0.00     0.049 A 
ATOM     29  N   UNL     1      -6.834  12.333   3.608  1.00  0.00    -0.248 NA
ATOM     30  C   UNL     1      -6.037  12.746   1.470  1.00  0.00     0.031 C 
ATOM     31  C   UNL     1      -9.886   9.930   0.884  1.00  0.00     0.029 A 
ATOM     32  N   UNL     1      -9.997  11.713   2.177  1.00  0.00    -0.354 N 
ATOM     33  C   UNL     1      -6.020  13.459   3.622  1.00  0.00     0.074 A 
ATOM     34  C   UNL     1      -5.370  13.497   2.344  1.00  0.00     0.031 C 
ATOM     35  C   UNL     1     -11.134  10.441   0.756  1.00  0.00     0.029 A 
ATOM     36  C   UNL     1     -11.235  11.661   1.544  1.00  0.00     0.049 A 
ATOM     37  H   UNL     1      -9.807  12.325   2.925  1.00  0.00     0.167 HD
ATOM     38  C   UNL     1      -6.183  14.422   4.568  1.00  0.00     0.034 A 
ATOM     39  C   UNL     1     -12.212  12.611   1.595  1.00  0.00     0.034 A 
ATOM     40  C   UNL     1      -6.904  13.899   5.710  1.00  0.00     0.049 A 
ATOM     41  C   UNL     1     -11.931  13.448   2.795  1.00  0.00     0.074 A 
ATOM     42  C   UNL     1      -6.698  12.822   6.555  1.00  0.00     0.029 A 
ATOM     43  N   UNL     1      -8.233  14.235   5.862  1.00  0.00    -0.354 N 
ATOM     44  N   UNL     1     -12.010  12.997   4.018  1.00  0.00    -0.248 NA
ATOM     45  C   UNL     1     -11.065  14.609   2.623  1.00  0.00     0.031 C 
ATOM     46  C   UNL     1      -7.992  12.255   6.748  1.00  0.00     0.029 A 
ATOM     47  C   UNL     1      -8.926  13.072   6.107  1.00  0.00     0.049 A 
ATOM     48  H   UNL     1      -8.615  15.140   5.806  1.00  0.00     0.167 HD
ATOM     49  C   UNL     1     -10.898  13.513   4.667  1.00  0.00     0.074 A 
ATOM     50  C   UNL     1     -10.397  14.564   3.780  1.00  0.00     0.031 C 
ATOM     51  C   UNL     1     -10.304  12.851   5.706  1.00  0.00     0.034 A 
BRANCH  38  52
ATOM     52  C   UNL     1      -6.054  15.904   4.285  1.00  0.00     0.023 A 
ATOM     53  C   UNL     1      -6.319  16.774   5.357  1.00  0.00     0.031 A 
ATOM     54  C   UNL     1      -5.978  16.515   3.009  1.00  0.00     0.131 A 
ATOM     55  C   UNL     1      -6.619  18.127   5.131  1.00  0.00     0.055 A 
ATOM     56  C   UNL     1      -6.208  17.876   2.800  1.00  0.00     0.041 A 
ATOM     57  F   UNL     1      -5.767  15.834   1.878  1.00  0.00    -0.206 F 
ATOM     58  C   UNL     1      -6.569  18.686   3.859  1.00  0.00     0.022 A 
BRANCH  55  59
ATOM     59  S   UNL     1      -7.265  19.094   6.516  1.00  0.00     0.124 S 
ATOM     60  O   UNL     1      -8.393  18.273   6.941  1.00  0.00    -0.237 OA
ATOM     61  O   UNL     1      -6.117  19.127   7.416  1.00  0.00    -0.237 OA
ATOM     62  O   UNL     1      -7.614  20.372   5.902  1.00  0.00    -0.744 OA
ENDBRANCH  55  59
ENDBRANCH  38  52
BRANCH  39  63
ATOM     63  C   UNL     1     -13.131  13.042   0.496  1.00  0.00     0.023 A 
ATOM     64  C   UNL     1     -14.272  13.847   0.724  1.00  0.00     0.031 A 
ATOM     65  C   UNL     1     -12.755  12.863  -0.856  1.00  0.00     0.131 A 
ATOM     66  C   UNL     1     -14.973  14.425  -0.364  1.00  0.00     0.055 A 
ATOM     67  C   UNL     1     -13.452  13.432  -1.924  1.00  0.00     0.041 A 
ATOM     68  F   UNL     1     -11.639  12.199  -1.190  1.00  0.00    -0.206 F 
ATOM     69  C   UNL     1     -14.559  14.227  -1.683  1.00  0.00     0.022 A 
BRANCH  66  70
ATOM     70  S   UNL     1     -16.388  15.543  -0.082  1.00  0.00     0.124 S 
ATOM     71  O   UNL     1     -17.441  14.615   0.313  1.00  0.00    -0.237 OA
ATOM     72  O   UNL     1     -15.886  16.438   0.954  1.00  0.00    -0.237 OA
ATOM     73  O   UNL     1     -16.587  16.176  -1.388  1.00  0.00    -0.744 OA
ENDBRANCH  66  70
ENDBRANCH  39  63
BRANCH  51  74
ATOM     74  C   UNL     1     -11.034  11.685   6.352  1.00  0.00     0.023 A 
ATOM     75  C   UNL     1     -11.557  10.563   5.667  1.00  0.00     0.031 A 
ATOM     76  C   UNL     1     -11.100  11.671   7.758  1.00  0.00     0.131 A 
ATOM     77  C   UNL     1     -12.132   9.497   6.391  1.00  0.00     0.055 A 
ATOM     78  C   UNL     1     -11.644  10.604   8.470  1.00  0.00     0.041 A 
ATOM     79  F   UNL     1     -10.605  12.694   8.474  1.00  0.00    -0.206 F 
ATOM     80  C   UNL     1     -12.170   9.515   7.788  1.00  0.00     0.022 A 
BRANCH  77  81
ATOM     81  S   UNL     1     -12.882   8.073   5.533  1.00  0.00     0.124 S 
ATOM     82  O   UNL     1     -13.615   8.681   4.429  1.00  0.00    -0.237 OA
ATOM     83  O   UNL     1     -11.714   7.277   5.165  1.00  0.00    -0.237 OA
ATOM     84  O   UNL     1     -13.728   7.467   6.564  1.00  0.00    -0.744 OA
ENDBRANCH  77  81
ENDBRANCH  51  74
ENDBRANCH  25  26
ENDBRANCH  18  20
ENDBRANCH  17  18
ENDBRANCH  16  17
ENDBRANCH   1  16
TORSDOF 18
