REMARK SMILES CC[C@@](C)(NC(=O)Nc1c(C)cccc1Cl)C(=O)OCCOC(=O)c1ccc(-c2c3nc(c(-c4cc(S(=O)(=O)[O-])ccc4F)c4ccc([nH]4)c(-c4cc(S(=O)(=O)[O-])ccc4F)c4nc(c(-c5cc(S(=O)(=O)[O-])ccc5F)c5ccc2[nH]5)C=C4)C=C3)cc1
REMARK SMILES IDX 21 1 20 2 19 3 17 4 18 5 3 6 4 7 2 8 1 9 5 10 6 11 7 13 8 14
REMARK SMILES IDX 9 16 10 17 15 18 11 19 12 20 14 21 16 22 13 23 22 24 23 25
REMARK SMILES IDX 24 26 25 27 26 28 87 29 27 30 86 31 28 32 29 33 30 34 80 35
REMARK SMILES IDX 31 36 85 37 79 38 81 39 32 40 84 41 78 42 77 43 33 45 65 46
REMARK SMILES IDX 45 47 64 48 46 49 49 50 63 51 82 52 47 53 48 54 62 56 83 57
REMARK SMILES IDX 50 58 34 59 35 60 43 61 36 62 42 63 44 64 41 65 37 66 38 67
REMARK SMILES IDX 39 68 40 69 66 70 67 71 75 72 68 73 74 74 76 75 73 76 69 77
REMARK SMILES IDX 70 78 71 79 72 80 51 81 52 82 60 83 53 84 59 85 61 86 58 87
REMARK SMILES IDX 54 88 55 89 56 90 57 91
REMARK H PARENT 5 12 8 15 81 44 49 55
REMARK Flexibility Score: inf
ROOT
ATOM      1  C   UNL     1       4.856   3.902  -1.248  1.00  0.00     0.275 C 
ENDROOT
BRANCH   1   2
ATOM      2  C   UNL     1       4.024   3.682  -2.856  1.00  0.00     0.274 C 
BRANCH   2   3
ATOM      3  O   UNL     1       2.433   3.697  -3.386  1.00  0.00    -0.460 OA
BRANCH   3   4
ATOM      4  C   UNL     1       1.411   2.748  -3.872  1.00  0.00     0.331 C 
ATOM      5  O   UNL     1       1.420   2.399  -5.059  1.00  0.00    -0.249 OA
BRANCH   4   6
ATOM      6  C   UNL     1       0.007   2.296  -2.879  1.00  0.00     0.136 C 
ATOM      7  C   UNL     1      -1.161   1.892  -3.801  1.00  0.00     0.047 C 
BRANCH   6   8
ATOM      8  C   UNL     1      -0.307   1.422  -1.542  1.00  0.00     0.037 C 
ATOM      9  C   UNL     1      -0.085  -0.074  -1.379  1.00  0.00     0.007 C 
ENDBRANCH   6   8
BRANCH   6  10
ATOM     10  N   UNL     1      -0.160   3.613  -2.381  1.00  0.00    -0.322 N 
ATOM     11  C   UNL     1       0.832   4.066  -1.587  1.00  0.00     0.320 C 
ATOM     12  H   UNL     1      -0.948   4.160  -2.600  1.00  0.00     0.166 HD
ATOM     13  O   UNL     1       0.783   5.180  -1.123  1.00  0.00    -0.248 OA
ATOM     14  N   UNL     1       1.911   3.233  -1.327  1.00  0.00    -0.306 N 
ATOM     15  H   UNL     1       2.607   3.793  -0.913  1.00  0.00     0.171 HD
BRANCH  14  16
ATOM     16  C   UNL     1       2.472   1.841  -1.410  1.00  0.00     0.064 A 
ATOM     17  C   UNL     1       2.966   0.851  -2.373  1.00  0.00    -0.026 A 
ATOM     18  C   UNL     1       2.834   1.562  -0.123  1.00  0.00     0.064 A 
ATOM     19  C   UNL     1       3.180   0.782  -3.878  1.00  0.00     0.046 C 
ATOM     20  C   UNL     1       3.603  -0.358  -1.927  1.00  0.00     0.005 A 
ATOM     21  C   UNL     1       3.876   0.601   0.127  1.00  0.00     0.023 A 
ATOM     22  Cl  UNL     1       2.044   2.826   1.093  1.00  0.00    -0.082 Cl
ATOM     23  C   UNL     1       4.168  -0.434  -0.704  1.00  0.00     0.002 A 
ENDBRANCH  14  16
ENDBRANCH   6  10
ENDBRANCH   4   6
ENDBRANCH   3   4
ENDBRANCH   2   3
ENDBRANCH   1   2
BRANCH   1  24
ATOM     24  O   UNL     1       4.644   3.142   0.141  1.00  0.00    -0.458 OA
BRANCH  24  25
ATOM     25  C   UNL     1       5.242   3.221   1.453  1.00  0.00     0.338 C 
ATOM     26  O   UNL     1       6.231   3.927   1.635  1.00  0.00    -0.246 OA
BRANCH  25  27
ATOM     27  C   UNL     1       4.564   2.405   2.800  1.00  0.00     0.060 A 
ATOM     28  C   UNL     1       3.526   1.468   2.769  1.00  0.00     0.016 A 
ATOM     29  C   UNL     1       4.864   2.631   4.149  1.00  0.00     0.016 A 
ATOM     30  C   UNL     1       2.605   1.096   3.732  1.00  0.00     0.010 A 
ATOM     31  C   UNL     1       4.049   2.056   5.247  1.00  0.00     0.010 A 
ATOM     32  C   UNL     1       2.875   1.299   5.029  1.00  0.00    -0.014 A 
BRANCH  32  33
ATOM     33  C   UNL     1       1.796   0.778   5.923  1.00  0.00     0.031 A 
ATOM     34  C   UNL     1       1.002   1.771   6.710  1.00  0.00     0.074 A 
ATOM     35  C   UNL     1       1.285  -0.483   5.832  1.00  0.00     0.049 A 
ATOM     36  N   UNL     1       0.245   1.582   7.753  1.00  0.00    -0.248 NA
ATOM     37  C   UNL     1       1.055   3.162   6.235  1.00  0.00     0.031 C 
ATOM     38  C   UNL     1       1.639  -1.512   4.834  1.00  0.00     0.029 A 
ATOM     39  N   UNL     1       0.323  -1.121   6.589  1.00  0.00    -0.354 N 
ATOM     40  C   UNL     1      -0.163   2.849   8.147  1.00  0.00     0.074 A 
ATOM     41  C   UNL     1       0.370   3.788   7.181  1.00  0.00     0.031 C 
ATOM     42  C   UNL     1       0.941  -2.635   5.069  1.00  0.00     0.029 A 
ATOM     43  C   UNL     1       0.196  -2.467   6.305  1.00  0.00     0.049 A 
ATOM     44  H   UNL     1      -0.222  -0.660   7.268  1.00  0.00     0.167 HD
ATOM     45  C   UNL     1      -0.866   3.174   9.257  1.00  0.00     0.034 A 
ATOM     46  C   UNL     1      -0.355  -3.473   7.018  1.00  0.00     0.034 A 
ATOM     47  C   UNL     1      -1.413   2.185  10.154  1.00  0.00     0.049 A 
ATOM     48  C   UNL     1      -0.964  -3.130   8.354  1.00  0.00     0.074 A 
ATOM     49  C   UNL     1      -2.067   2.372  11.358  1.00  0.00     0.029 A 
ATOM     50  N   UNL     1      -1.382   0.813   9.931  1.00  0.00    -0.354 N 
ATOM     51  N   UNL     1      -1.137  -1.948   8.900  1.00  0.00    -0.248 NA
ATOM     52  C   UNL     1      -1.422  -4.250   9.183  1.00  0.00     0.031 C 
ATOM     53  C   UNL     1      -2.364   1.114  11.895  1.00  0.00     0.029 A 
ATOM     54  C   UNL     1      -1.977   0.141  10.986  1.00  0.00     0.049 A 
ATOM     55  H   UNL     1      -0.993   0.381   9.136  1.00  0.00     0.167 HD
ATOM     56  C   UNL     1      -1.756  -2.182  10.124  1.00  0.00     0.074 A 
ATOM     57  C   UNL     1      -1.934  -3.617  10.228  1.00  0.00     0.031 C 
ATOM     58  C   UNL     1      -2.146  -1.292  11.073  1.00  0.00     0.034 A 
BRANCH  45  59
ATOM     59  C   UNL     1      -0.912   4.633   9.631  1.00  0.00     0.023 A 
ATOM     60  C   UNL     1      -1.561   5.604   8.852  1.00  0.00     0.031 A 
ATOM     61  C   UNL     1      -0.201   5.066  10.767  1.00  0.00     0.131 A 
ATOM     62  C   UNL     1      -1.422   6.963   9.178  1.00  0.00     0.055 A 
ATOM     63  C   UNL     1      -0.139   6.410  11.133  1.00  0.00     0.041 A 
ATOM     64  F   UNL     1       0.472   4.188  11.528  1.00  0.00    -0.206 F 
ATOM     65  C   UNL     1      -0.738   7.370  10.327  1.00  0.00     0.022 A 
BRANCH  62  66
ATOM     66  S   UNL     1      -2.004   8.205   7.990  1.00  0.00     0.124 S 
ATOM     67  O   UNL     1      -1.238   7.853   6.798  1.00  0.00    -0.237 OA
ATOM     68  O   UNL     1      -3.437   7.938   7.934  1.00  0.00    -0.237 OA
ATOM     69  O   UNL     1      -1.630   9.475   8.610  1.00  0.00    -0.744 OA
ENDBRANCH  62  66
ENDBRANCH  45  59
BRANCH  46  70
ATOM     70  C   UNL     1      -0.219  -4.904   6.591  1.00  0.00     0.023 A 
ATOM     71  C   UNL     1      -1.345  -5.721   6.395  1.00  0.00     0.031 A 
ATOM     72  C   UNL     1       1.050  -5.506   6.463  1.00  0.00     0.131 A 
ATOM     73  C   UNL     1      -1.182  -7.091   6.121  1.00  0.00     0.055 A 
ATOM     74  C   UNL     1       1.206  -6.855   6.134  1.00  0.00     0.041 A 
ATOM     75  F   UNL     1       2.167  -4.788   6.660  1.00  0.00    -0.206 F 
ATOM     76  C   UNL     1       0.085  -7.660   5.974  1.00  0.00     0.022 A 
BRANCH  73  77
ATOM     77  S   UNL     1      -2.657  -8.148   6.048  1.00  0.00     0.124 S 
ATOM     78  O   UNL     1      -3.220  -7.964   7.380  1.00  0.00    -0.237 OA
ATOM     79  O   UNL     1      -3.402  -7.549   4.945  1.00  0.00    -0.237 OA
ATOM     80  O   UNL     1      -2.111  -9.477   5.777  1.00  0.00    -0.744 OA
ENDBRANCH  73  77
ENDBRANCH  46  70
BRANCH  58  81
ATOM     81  C   UNL     1      -2.875  -1.852  12.269  1.00  0.00     0.023 A 
ATOM     82  C   UNL     1      -2.246  -2.698  13.198  1.00  0.00     0.031 A 
ATOM     83  C   UNL     1      -4.236  -1.551  12.461  1.00  0.00     0.131 A 
ATOM     84  C   UNL     1      -2.994  -3.267  14.239  1.00  0.00     0.055 A 
ATOM     85  C   UNL     1      -4.957  -2.065  13.539  1.00  0.00     0.041 A 
ATOM     86  F   UNL     1      -4.888  -0.753  11.601  1.00  0.00    -0.206 F 
ATOM     87  C   UNL     1      -4.340  -2.942  14.426  1.00  0.00     0.022 A 
BRANCH  84  88
ATOM     88  S   UNL     1      -2.214  -4.531  15.281  1.00  0.00     0.124 S 
ATOM     89  O   UNL     1      -1.797  -5.522  14.294  1.00  0.00    -0.237 OA
ATOM     90  O   UNL     1      -1.139  -3.784  15.926  1.00  0.00    -0.237 OA
ATOM     91  O   UNL     1      -3.293  -4.957  16.170  1.00  0.00    -0.744 OA
ENDBRANCH  84  88
ENDBRANCH  58  81
ENDBRANCH  32  33
ENDBRANCH  25  27
ENDBRANCH  24  25
ENDBRANCH   1  24
TORSDOF 17
