REMARK SMILES O=C(CCCN1C(=O)/C(=C/c2ccccc2Cl)SC1=S)Nc1cccc(C(=O)OCCOC(=O)c2ccc(-c3c4nc(c(-c5cc(S(=O)(=O)[O-])ccc5F)c5ccc([nH]5)c(-c5cc(S(=O)(=O)[O-])ccc5F)c5nc(c(-c6cc(S(=O)(=O)[O-])ccc6F)c6ccc3[nH]6)C=C5)C=C4)cc2)c1
REMARK SMILES IDX 29 1 27 2 28 3 26 4 22 5 23 6 98 7 24 8 25 9 21 10 1 11 2 12
REMARK SMILES IDX 3 14 4 15 5 16 6 17 7 18 19 19 8 20 9 21 18 22 20 23 10 24
REMARK SMILES IDX 11 25 12 26 16 27 13 28 15 29 17 30 14 31 30 32 31 33 32 34
REMARK SMILES IDX 33 35 34 36 35 37 36 38 97 39 37 40 96 41 38 42 39 43 40 44
REMARK SMILES IDX 90 45 41 46 95 47 89 48 91 49 42 50 94 51 88 52 87 53 43 55
REMARK SMILES IDX 75 56 55 57 74 58 56 59 59 60 73 61 92 62 57 63 58 64 72 66
REMARK SMILES IDX 93 67 60 68 44 69 45 70 53 71 46 72 52 73 54 74 51 75 47 76
REMARK SMILES IDX 48 77 49 78 50 79 76 80 77 81 85 82 78 83 84 84 86 85 83 86
REMARK SMILES IDX 79 87 80 88 81 89 82 90 61 91 62 92 70 93 63 94 69 95 71 96
REMARK SMILES IDX 68 97 64 98 65 99 66 100 67 101
REMARK H PARENT 21 13 91 54 59 65
REMARK Flexibility Score: inf
ROOT
ATOM      1  O   UNL     1      -0.911   0.936   3.989  1.00  0.00    -0.458 OA
ENDROOT
BRANCH   1   2
ATOM      2  C   UNL     1      -0.901   2.219   3.547  1.00  0.00     0.338 C 
ATOM      3  O   UNL     1      -1.738   3.076   3.782  1.00  0.00    -0.246 OA
BRANCH   2   4
ATOM      4  C   UNL     1       0.371   2.492   2.832  1.00  0.00     0.062 A 
ATOM      5  C   UNL     1       2.255   1.752   1.513  1.00  0.00     0.042 A 
ATOM      6  C   UNL     1       2.905   2.965   1.757  1.00  0.00     0.026 A 
ATOM      7  C   UNL     1       1.012   1.496   2.096  1.00  0.00     0.041 A 
ATOM      8  C   UNL     1       2.239   3.983   2.435  1.00  0.00     0.003 A 
ATOM      9  C   UNL     1       0.952   3.763   2.922  1.00  0.00     0.016 A 
BRANCH   5  10
ATOM     10  N   UNL     1       2.880   0.841   0.644  1.00  0.00    -0.326 N 
ATOM     11  O   UNL     1       0.973  -0.183  -0.210  1.00  0.00    -0.275 OA
ATOM     12  C   UNL     1       2.194  -0.057  -0.150  1.00  0.00     0.224 C 
ATOM     13  H   UNL     1       3.863   0.843   0.600  1.00  0.00     0.169 HD
BRANCH  12  14
ATOM     14  C   UNL     1       3.076  -0.940  -0.997  1.00  0.00     0.102 C 
BRANCH  14  15
ATOM     15  C   UNL     1       3.946  -0.197  -2.010  1.00  0.00     0.032 C 
BRANCH  15  16
ATOM     16  C   UNL     1       5.350   0.230  -1.551  1.00  0.00     0.128 C 
BRANCH  16  17
ATOM     17  N   UNL     1       6.015  -0.637  -0.575  1.00  0.00    -0.293 N 
ATOM     18  C   UNL     1       6.575  -0.054   0.556  1.00  0.00     0.266 C 
ATOM     19  C   UNL     1       6.259  -1.988  -0.726  1.00  0.00     0.148 C 
ATOM     20  O   UNL     1       6.485   1.125   0.867  1.00  0.00    -0.268 OA
ATOM     21  C   UNL     1       7.317  -1.073   1.346  1.00  0.00     0.081 C 
ATOM     22  S   UNL     1       6.881  -2.637   0.782  1.00  0.00    -0.054 SA
ATOM     23  S   UNL     1       6.034  -2.951  -2.069  1.00  0.00    -0.052 S 
ATOM     24  C   UNL     1       8.222  -0.759   2.284  1.00  0.00     0.031 C 
BRANCH  24  25
ATOM     25  C   UNL     1       8.992  -1.730   3.085  1.00  0.00    -0.006 A 
ATOM     26  C   UNL     1       8.797  -1.699   4.475  1.00  0.00     0.010 A 
ATOM     27  C   UNL     1       9.885  -2.681   2.557  1.00  0.00     0.048 A 
ATOM     28  C   UNL     1       9.416  -2.635   5.306  1.00  0.00     0.001 A 
ATOM     29  C   UNL     1      10.475  -3.640   3.389  1.00  0.00     0.021 A 
ATOM     30  Cl  UNL     1      10.351  -2.699   0.887  1.00  0.00    -0.084 Cl
ATOM     31  C   UNL     1      10.233  -3.622   4.761  1.00  0.00     0.002 A 
ENDBRANCH  24  25
ENDBRANCH  16  17
ENDBRANCH  15  16
ENDBRANCH  14  15
ENDBRANCH  12  14
ENDBRANCH   5  10
ENDBRANCH   2   4
ENDBRANCH   1   2
BRANCH   1  32
ATOM     32  C   UNL     1      -2.013   0.543   4.831  1.00  0.00     0.275 C 
BRANCH  32  33
ATOM     33  C   UNL     1      -1.557   0.377   6.281  1.00  0.00     0.275 C 
BRANCH  33  34
ATOM     34  O   UNL     1      -1.231   1.661   6.842  1.00  0.00    -0.458 OA
BRANCH  34  35
ATOM     35  C   UNL     1       0.072   1.849   7.153  1.00  0.00     0.338 C 
ATOM     36  O   UNL     1       0.976   1.034   7.096  1.00  0.00    -0.246 OA
BRANCH  35  37
ATOM     37  C   UNL     1       0.288   3.266   7.482  1.00  0.00     0.060 A 
ATOM     38  C   UNL     1       0.508   4.141   6.425  1.00  0.00     0.016 A 
ATOM     39  C   UNL     1       0.421   3.707   8.794  1.00  0.00     0.016 A 
ATOM     40  C   UNL     1       0.935   5.445   6.654  1.00  0.00     0.010 A 
ATOM     41  C   UNL     1       0.791   5.039   9.031  1.00  0.00     0.010 A 
ATOM     42  C   UNL     1       1.094   5.910   7.964  1.00  0.00    -0.014 A 
BRANCH  42  43
ATOM     43  C   UNL     1       1.700   7.252   8.207  1.00  0.00     0.031 A 
ATOM     44  C   UNL     1       3.025   7.345   8.921  1.00  0.00     0.074 A 
ATOM     45  C   UNL     1       1.118   8.377   7.745  1.00  0.00     0.049 A 
ATOM     46  N   UNL     1       3.656   8.396   9.377  1.00  0.00    -0.248 NA
ATOM     47  C   UNL     1       3.722   6.074   9.165  1.00  0.00     0.031 C 
ATOM     48  C   UNL     1      -0.118   8.433   6.963  1.00  0.00     0.029 A 
ATOM     49  N   UNL     1       1.498   9.693   7.855  1.00  0.00    -0.354 N 
ATOM     50  C   UNL     1       4.796   7.910  10.011  1.00  0.00     0.074 A 
ATOM     51  C   UNL     1       4.752   6.467   9.896  1.00  0.00     0.031 C 
ATOM     52  C   UNL     1      -0.374   9.710   6.636  1.00  0.00     0.029 A 
ATOM     53  C   UNL     1       0.628  10.573   7.254  1.00  0.00     0.049 A 
ATOM     54  H   UNL     1       2.318   9.979   8.320  1.00  0.00     0.167 HD
ATOM     55  C   UNL     1       5.788   8.602  10.627  1.00  0.00     0.034 A 
ATOM     56  C   UNL     1       0.614  11.922   7.235  1.00  0.00     0.034 A 
ATOM     57  C   UNL     1       5.838  10.044  10.696  1.00  0.00     0.049 A 
ATOM     58  C   UNL     1       1.692  12.673   7.976  1.00  0.00     0.074 A 
ATOM     59  C   UNL     1       6.781  10.850  11.310  1.00  0.00     0.029 A 
ATOM     60  N   UNL     1       4.908  10.899  10.116  1.00  0.00    -0.354 N 
ATOM     61  N   UNL     1       2.713  12.202   8.654  1.00  0.00    -0.248 NA
ATOM     62  C   UNL     1       1.608  14.139   7.956  1.00  0.00     0.031 C 
ATOM     63  C   UNL     1       6.395  12.186  11.148  1.00  0.00     0.029 A 
ATOM     64  C   UNL     1       5.249  12.220  10.370  1.00  0.00     0.049 A 
ATOM     65  H   UNL     1       4.121  10.610   9.600  1.00  0.00     0.167 HD
ATOM     66  C   UNL     1       3.405  13.316   9.121  1.00  0.00     0.074 A 
ATOM     67  C   UNL     1       2.694  14.480   8.633  1.00  0.00     0.031 C 
ATOM     68  C   UNL     1       4.527  13.372   9.883  1.00  0.00     0.034 A 
BRANCH  55  69
ATOM     69  C   UNL     1       6.856   7.796  11.331  1.00  0.00     0.023 A 
ATOM     70  C   UNL     1       7.718   6.928  10.637  1.00  0.00     0.031 A 
ATOM     71  C   UNL     1       6.968   7.848  12.732  1.00  0.00     0.131 A 
ATOM     72  C   UNL     1       8.585   6.084  11.349  1.00  0.00     0.055 A 
ATOM     73  C   UNL     1       7.897   7.072  13.429  1.00  0.00     0.041 A 
ATOM     74  F   UNL     1       6.159   8.640  13.454  1.00  0.00    -0.206 F 
ATOM     75  C   UNL     1       8.699   6.168  12.738  1.00  0.00     0.022 A 
BRANCH  72  76
ATOM     76  S   UNL     1       9.435   4.757  10.449  1.00  0.00     0.124 S 
ATOM     77  O   UNL     1       8.312   4.024   9.871  1.00  0.00    -0.237 OA
ATOM     78  O   UNL     1      10.268   5.496   9.508  1.00  0.00    -0.237 OA
ATOM     79  O   UNL     1      10.161   4.042  11.497  1.00  0.00    -0.744 OA
ENDBRANCH  72  76
ENDBRANCH  55  69
BRANCH  56  80
ATOM     80  C   UNL     1      -0.484  12.658   6.543  1.00  0.00     0.023 A 
ATOM     81  C   UNL     1      -0.221  13.492   5.445  1.00  0.00     0.031 A 
ATOM     82  C   UNL     1      -1.811  12.573   7.002  1.00  0.00     0.131 A 
ATOM     83  C   UNL     1      -1.262  14.234   4.864  1.00  0.00     0.055 A 
ATOM     84  C   UNL     1      -2.852  13.270   6.388  1.00  0.00     0.041 A 
ATOM     85  F   UNL     1      -2.118  11.795   8.053  1.00  0.00    -0.206 F 
ATOM     86  C   UNL     1      -2.578  14.117   5.318  1.00  0.00     0.022 A 
BRANCH  83  87
ATOM     87  S   UNL     1      -0.860  15.419   3.551  1.00  0.00     0.124 S 
ATOM     88  O   UNL     1       0.071  16.312   4.231  1.00  0.00    -0.237 OA
ATOM     89  O   UNL     1      -0.286  14.553   2.526  1.00  0.00    -0.237 OA
ATOM     90  O   UNL     1      -2.155  16.006   3.213  1.00  0.00    -0.744 OA
ENDBRANCH  83  87
ENDBRANCH  56  80
BRANCH  68  91
ATOM     91  C   UNL     1       5.082  14.744  10.182  1.00  0.00     0.023 A 
ATOM     92  C   UNL     1       4.402  15.657  11.008  1.00  0.00     0.031 A 
ATOM     93  C   UNL     1       6.299  15.150   9.607  1.00  0.00     0.131 A 
ATOM     94  C   UNL     1       4.917  16.950  11.191  1.00  0.00     0.055 A 
ATOM     95  C   UNL     1       6.834  16.418   9.838  1.00  0.00     0.041 A 
ATOM     96  F   UNL     1       6.989  14.319   8.809  1.00  0.00    -0.206 F 
ATOM     97  C   UNL     1       6.136  17.331  10.623  1.00  0.00     0.022 A 
BRANCH  94  98
ATOM     98  S   UNL     1       3.925  18.163  12.105  1.00  0.00     0.124 S 
ATOM     99  O   UNL     1       2.685  18.183  11.337  1.00  0.00    -0.237 OA
ATOM    100  O   UNL     1       3.843  17.561  13.432  1.00  0.00    -0.237 OA
ATOM    101  O   UNL     1       4.722  19.386  12.029  1.00  0.00    -0.744 OA
ENDBRANCH  94  98
ENDBRANCH  68  91
ENDBRANCH  42  43
ENDBRANCH  35  37
ENDBRANCH  34  35
ENDBRANCH  33  34
ENDBRANCH  32  33
ENDBRANCH   1  32
TORSDOF 20
