REMARK SMILES CC(C)CCn1nc(C(=O)OCCOC(=O)c2ccc(-c3c4nc(c(-c5cc(S(=O)(=O)[O-])ccc5F)c5ccc([nH]5)c(-c5cc(S(=O)(=O)[O-])ccc5F)c5nc(c(-c6cc(S(=O)(=O)[O-])ccc6F)c6ccc3[nH]6)C=C5)C=C4)cc2)c2c1CCN(C(=O)[C@@H]1CCc3nn(C)c(=O)n3C1)C2
REMARK SMILES IDX 12 1 11 2 9 3 10 4 8 5 6 6 7 7 81 8 80 9 82 10 98 11 83 12
REMARK SMILES IDX 84 13 5 14 4 15 2 16 1 17 3 18 85 19 86 20 87 21 88 22 97 23
REMARK SMILES IDX 89 24 96 25 90 26 94 27 91 28 92 29 95 30 93 31 13 32 14 33
REMARK SMILES IDX 15 34 16 35 17 36 18 37 79 38 19 39 78 40 20 41 21 42 22 43
REMARK SMILES IDX 72 44 23 45 77 46 71 47 73 48 24 49 76 50 70 51 69 52 25 54
REMARK SMILES IDX 57 55 37 56 56 57 38 58 41 59 55 60 74 61 39 62 40 63 54 65
REMARK SMILES IDX 75 66 42 67 26 68 27 69 35 70 28 71 34 72 36 73 33 74 29 75
REMARK SMILES IDX 30 76 31 77 32 78 58 79 59 80 67 81 60 82 66 83 68 84 65 85
REMARK SMILES IDX 61 86 62 87 63 88 64 89 43 90 44 91 52 92 45 93 51 94 53 95
REMARK SMILES IDX 50 96 46 97 47 98 48 99 49 100
REMARK H PARENT 73 53 41 64
REMARK Flexibility Score: inf
ROOT
ATOM      1  C   UNL     1       0.371   7.816  -4.490  1.00  0.00     0.275 C 
ENDROOT
BRANCH   1   2
ATOM      2  O   UNL     1       0.501   6.436  -4.117  1.00  0.00    -0.457 OA
BRANCH   2   3
ATOM      3  C   UNL     1       0.139   6.042  -2.856  1.00  0.00     0.359 C 
ATOM      4  O   UNL     1       0.025   6.815  -1.906  1.00  0.00    -0.244 OA
BRANCH   3   5
ATOM      5  C   UNL     1      -0.134   4.591  -2.819  1.00  0.00     0.175 A 
ATOM      6  N   UNL     1      -0.560   2.604  -2.105  1.00  0.00    -0.268 N 
ATOM      7  N   UNL     1      -0.404   3.889  -1.691  1.00  0.00    -0.165 NA
ATOM      8  C   UNL     1      -0.217   2.466  -3.413  1.00  0.00     0.046 A 
ATOM      9  C   UNL     1      -0.151   3.733  -3.951  1.00  0.00     0.028 A 
ATOM     10  C   UNL     1       0.103   1.270  -4.210  1.00  0.00     0.078 C 
ATOM     11  C   UNL     1       0.024   4.024  -5.421  1.00  0.00     0.159 C 
ATOM     12  C   UNL     1       0.997   1.784  -5.348  1.00  0.00     0.126 C 
ATOM     13  N   UNL     1       0.297   2.769  -6.153  1.00  0.00    -0.338 N 
BRANCH   6  14
ATOM     14  C   UNL     1      -1.166   1.638  -1.201  1.00  0.00     0.145 C 
BRANCH  14  15
ATOM     15  C   UNL     1      -0.784   0.155  -1.356  1.00  0.00     0.027 C 
BRANCH  15  16
ATOM     16  C   UNL     1       0.709  -0.159  -1.130  1.00  0.00    -0.016 C 
ATOM     17  C   UNL     1       1.101  -0.060   0.341  1.00  0.00     0.007 C 
ATOM     18  C   UNL     1       1.047  -1.553  -1.672  1.00  0.00     0.007 C 
ENDBRANCH  15  16
ENDBRANCH  14  15
ENDBRANCH   6  14
BRANCH  13  19
ATOM     19  C   UNL     1      -0.044   2.697  -7.486  1.00  0.00     0.227 C 
ATOM     20  O   UNL     1      -0.490   3.703  -8.056  1.00  0.00    -0.274 OA
BRANCH  19  21
ATOM     21  C   UNL     1       0.105   1.422  -8.352  1.00  0.00     0.099 C 
ATOM     22  C   UNL     1      -0.879   0.275  -8.099  1.00  0.00     0.023 C 
ATOM     23  C   UNL     1       1.529   0.933  -8.594  1.00  0.00     0.142 C 
ATOM     24  C   UNL     1      -0.416  -0.822  -7.148  1.00  0.00     0.078 C 
ATOM     25  N   UNL     1       1.904  -0.179  -7.749  1.00  0.00    -0.278 N 
ATOM     26  C   UNL     1       1.073  -0.953  -7.022  1.00  0.00     0.133 A 
ATOM     27  C   UNL     1       3.160  -0.366  -7.223  1.00  0.00     0.345 A 
ATOM     28  N   UNL     1       1.654  -1.654  -6.091  1.00  0.00    -0.155 NA
ATOM     29  N   UNL     1       2.982  -1.292  -6.188  1.00  0.00    -0.216 N 
ATOM     30  O   UNL     1       4.176   0.251  -7.498  1.00  0.00    -0.246 OA
ATOM     31  C   UNL     1       3.918  -1.503  -5.116  1.00  0.00     0.179 C 
ENDBRANCH  19  21
ENDBRANCH  13  19
ENDBRANCH   3   5
ENDBRANCH   2   3
ENDBRANCH   1   2
BRANCH   1  32
ATOM     32  C   UNL     1      -1.031   8.090  -5.015  1.00  0.00     0.275 C 
BRANCH  32  33
ATOM     33  O   UNL     1      -1.938   8.040  -3.923  1.00  0.00    -0.458 OA
BRANCH  33  34
ATOM     34  C   UNL     1      -2.552   6.855  -3.704  1.00  0.00     0.338 C 
ATOM     35  O   UNL     1      -2.383   5.822  -4.323  1.00  0.00    -0.246 OA
BRANCH  34  36
ATOM     36  C   UNL     1      -3.564   7.046  -2.664  1.00  0.00     0.060 A 
ATOM     37  C   UNL     1      -4.375   5.950  -2.349  1.00  0.00     0.016 A 
ATOM     38  C   UNL     1      -3.915   8.360  -2.343  1.00  0.00     0.016 A 
ATOM     39  C   UNL     1      -5.678   6.202  -1.984  1.00  0.00     0.010 A 
ATOM     40  C   UNL     1      -5.218   8.609  -2.032  1.00  0.00     0.010 A 
ATOM     41  C   UNL     1      -6.098   7.532  -1.964  1.00  0.00    -0.014 A 
BRANCH  41  42
ATOM     42  C   UNL     1      -7.501   7.846  -1.848  1.00  0.00     0.031 A 
ATOM     43  C   UNL     1      -7.938   7.921  -0.439  1.00  0.00     0.074 A 
ATOM     44  C   UNL     1      -8.203   8.248  -2.925  1.00  0.00     0.049 A 
ATOM     45  N   UNL     1      -8.631   7.050   0.215  1.00  0.00    -0.248 NA
ATOM     46  C   UNL     1      -7.296   8.934   0.422  1.00  0.00     0.031 C 
ATOM     47  C   UNL     1      -7.735   8.494  -4.293  1.00  0.00     0.029 A 
ATOM     48  N   UNL     1      -9.495   8.650  -2.982  1.00  0.00    -0.354 N 
ATOM     49  C   UNL     1      -8.721   7.560   1.504  1.00  0.00     0.074 A 
ATOM     50  C   UNL     1      -7.641   8.491   1.629  1.00  0.00     0.031 C 
ATOM     51  C   UNL     1      -8.662   9.224  -4.959  1.00  0.00     0.029 A 
ATOM     52  C   UNL     1      -9.829   9.395  -4.110  1.00  0.00     0.049 A 
ATOM     53  H   UNL     1     -10.148   8.431  -2.279  1.00  0.00     0.167 HD
ATOM     54  C   UNL     1      -9.858   7.429   2.241  1.00  0.00     0.034 A 
ATOM     55  C   UNL     1     -10.942  10.174  -4.235  1.00  0.00     0.034 A 
ATOM     56  C   UNL     1     -10.737   6.449   1.637  1.00  0.00     0.049 A 
ATOM     57  C   UNL     1     -11.898   9.688  -3.192  1.00  0.00     0.074 A 
ATOM     58  C   UNL     1     -10.615   5.106   1.334  1.00  0.00     0.029 A 
ATOM     59  N   UNL     1     -11.778   6.915   0.859  1.00  0.00    -0.354 N 
ATOM     60  N   UNL     1     -12.415   8.484  -3.208  1.00  0.00    -0.248 NA
ATOM     61  C   UNL     1     -11.829  10.306  -1.870  1.00  0.00     0.031 C 
ATOM     62  C   UNL     1     -11.223   4.965   0.053  1.00  0.00     0.029 A 
ATOM     63  C   UNL     1     -11.777   6.196  -0.312  1.00  0.00     0.049 A 
ATOM     64  H   UNL     1     -12.407   7.633   1.100  1.00  0.00     0.167 HD
ATOM     65  C   UNL     1     -12.355   8.038  -1.893  1.00  0.00     0.074 A 
ATOM     66  C   UNL     1     -12.038   9.229  -1.103  1.00  0.00     0.031 C 
ATOM     67  C   UNL     1     -12.247   6.708  -1.588  1.00  0.00     0.034 A 
BRANCH  54  68
ATOM     68  C   UNL     1     -10.361   8.444   3.248  1.00  0.00     0.023 A 
ATOM     69  C   UNL     1     -11.598   8.155   3.849  1.00  0.00     0.031 A 
ATOM     70  C   UNL     1      -9.877   9.757   3.456  1.00  0.00     0.131 A 
ATOM     71  C   UNL     1     -12.350   9.159   4.479  1.00  0.00     0.055 A 
ATOM     72  C   UNL     1     -10.599  10.736   4.144  1.00  0.00     0.041 A 
ATOM     73  F   UNL     1      -8.727  10.212   2.950  1.00  0.00    -0.206 F 
ATOM     74  C   UNL     1     -11.862  10.452   4.626  1.00  0.00     0.022 A 
BRANCH  71  75
ATOM     75  S   UNL     1     -14.059   8.779   4.928  1.00  0.00     0.124 S 
ATOM     76  O   UNL     1     -14.589   8.277   3.665  1.00  0.00    -0.237 OA
ATOM     77  O   UNL     1     -13.877   7.795   5.989  1.00  0.00    -0.237 OA
ATOM     78  O   UNL     1     -14.588  10.071   5.358  1.00  0.00    -0.744 OA
ENDBRANCH  71  75
ENDBRANCH  54  68
BRANCH  55  79
ATOM     79  C   UNL     1     -11.010  11.527  -4.876  1.00  0.00     0.023 A 
ATOM     80  C   UNL     1     -12.211  12.140  -5.302  1.00  0.00     0.031 A 
ATOM     81  C   UNL     1      -9.857  12.350  -4.886  1.00  0.00     0.131 A 
ATOM     82  C   UNL     1     -12.216  13.498  -5.724  1.00  0.00     0.055 A 
ATOM     83  C   UNL     1      -9.867  13.683  -5.303  1.00  0.00     0.041 A 
ATOM     84  F   UNL     1      -8.682  11.907  -4.410  1.00  0.00    -0.206 F 
ATOM     85  C   UNL     1     -11.050  14.266  -5.720  1.00  0.00     0.022 A 
BRANCH  82  86
ATOM     86  S   UNL     1     -13.765  14.324  -6.232  1.00  0.00     0.124 S 
ATOM     87  O   UNL     1     -14.103  13.621  -7.465  1.00  0.00    -0.237 OA
ATOM     88  O   UNL     1     -14.639  14.086  -5.089  1.00  0.00    -0.237 OA
ATOM     89  O   UNL     1     -13.366  15.721  -6.415  1.00  0.00    -0.744 OA
ENDBRANCH  82  86
ENDBRANCH  55  79
BRANCH  67  90
ATOM     90  C   UNL     1     -12.435   5.675  -2.684  1.00  0.00     0.023 A 
ATOM     91  C   UNL     1     -11.607   5.527  -3.823  1.00  0.00     0.031 A 
ATOM     92  C   UNL     1     -13.388   4.671  -2.435  1.00  0.00     0.131 A 
ATOM     93  C   UNL     1     -11.750   4.391  -4.650  1.00  0.00     0.055 A 
ATOM     94  C   UNL     1     -13.506   3.541  -3.240  1.00  0.00     0.041 A 
ATOM     95  F   UNL     1     -14.183   4.744  -1.355  1.00  0.00    -0.206 F 
ATOM     96  C   UNL     1     -12.687   3.396  -4.351  1.00  0.00     0.022 A 
BRANCH  93  97
ATOM     97  S   UNL     1     -10.714   4.175  -6.137  1.00  0.00     0.124 S 
ATOM     98  O   UNL     1     -10.854   5.448  -6.833  1.00  0.00    -0.237 OA
ATOM     99  O   UNL     1      -9.398   3.894  -5.570  1.00  0.00    -0.237 OA
ATOM    100  O   UNL     1     -11.332   3.037  -6.822  1.00  0.00    -0.744 OA
ENDBRANCH  93  97
ENDBRANCH  67  90
ENDBRANCH  41  42
ENDBRANCH  34  36
ENDBRANCH  33  34
ENDBRANCH  32  33
ENDBRANCH   1  32
TORSDOF 19
