REMARK SMILES CC(C)[NH2+][C@]1(C(=O)OCCOC(=O)c2ccc(-c3c4nc(c(-c5cc(S(=O)(=O)[O-])ccc5F)c5ccc([nH]5)c(-c5cc(S(=O)(=O)[O-])ccc5F)c5nc(c(-c6cc(S(=O)(=O)[O-])ccc6F)c6ccc3[nH]6)C=C5)C=C4)cc2)CCC[C@H]([N@H+](C)C2CCCCC2)C1
REMARK SMILES IDX 10 1 9 2 8 3 6 4 7 5 5 6 77 7 89 8 78 9 80 10 79 11 4 12
REMARK SMILES IDX 2 15 1 16 3 17 81 18 82 19 83 21 84 22 88 23 85 24 87 25
REMARK SMILES IDX 86 26 11 27 12 28 13 29 14 30 15 31 76 32 16 33 75 34 17 35
REMARK SMILES IDX 18 36 19 37 69 38 20 39 74 40 68 41 70 42 21 43 73 44 67 45
REMARK SMILES IDX 66 46 22 48 54 49 34 50 53 51 35 52 38 53 52 54 71 55 36 56
REMARK SMILES IDX 37 57 51 59 72 60 39 61 23 62 24 63 32 64 25 65 31 66 33 67
REMARK SMILES IDX 30 68 26 69 27 70 28 71 29 72 55 73 56 74 64 75 57 76 63 77
REMARK SMILES IDX 65 78 62 79 58 80 59 81 60 82 61 83 40 84 41 85 49 86 42 87
REMARK SMILES IDX 48 88 50 89 47 90 43 91 44 92 45 93 46 94
REMARK H PARENT 4 13 4 14 81 20 70 47 38 58
REMARK Flexibility Score: inf
ROOT
ATOM      1  C   UNL     1       0.027   0.480   0.688  1.00  0.00     0.275 C 
ENDROOT
BRANCH   1   2
ATOM      2  C   UNL     1      -0.976  -0.437   1.411  1.00  0.00     0.274 C 
BRANCH   2   3
ATOM      3  O   UNL     1      -1.429  -1.501   0.540  1.00  0.00    -0.457 OA
BRANCH   3   4
ATOM      4  C   UNL     1      -2.559  -1.357  -0.273  1.00  0.00     0.368 C 
ATOM      5  O   UNL     1      -3.527  -0.658  -0.011  1.00  0.00    -0.245 OA
BRANCH   4   6
ATOM      6  C   UNL     1      -2.207  -2.120  -1.642  1.00  0.00     0.200 C 
ATOM      7  C   UNL     1      -2.113  -3.598  -1.202  1.00  0.00     0.081 C 
ATOM      8  C   UNL     1      -3.177  -2.024  -2.865  1.00  0.00     0.146 C 
ATOM      9  C   UNL     1      -2.135  -4.719  -2.236  1.00  0.00     0.013 C 
ATOM     10  C   UNL     1      -2.991  -3.078  -4.102  1.00  0.00     0.190 C 
ATOM     11  C   UNL     1      -2.769  -4.512  -3.607  1.00  0.00     0.065 C 
BRANCH   6  12
ATOM     12  N   UNL     1      -0.960  -1.396  -1.912  1.00  0.00    -0.330 N 
ATOM     13  H   UNL     1      -1.185  -0.402  -1.921  1.00  0.00     0.347 HD
ATOM     14  H   UNL     1      -0.327  -1.707  -1.175  1.00  0.00     0.347 HD
BRANCH  12  15
ATOM     15  C   UNL     1      -0.262  -1.677  -3.108  1.00  0.00     0.176 C 
ATOM     16  C   UNL     1       0.198  -0.350  -3.726  1.00  0.00     0.075 C 
ATOM     17  C   UNL     1       0.805  -2.734  -2.811  1.00  0.00     0.075 C 
ENDBRANCH  12  15
ENDBRANCH   6  12
BRANCH  10  18
ATOM     18  N   UNL     1      -2.458  -2.687  -5.543  1.00  0.00    -0.332 N 
ATOM     19  C   UNL     1      -3.589  -2.962  -6.474  1.00  0.00     0.333 C 
ATOM     20  H   UNL     1      -2.140  -1.732  -5.382  1.00  0.00     0.348 HD
BRANCH  18  21
ATOM     21  C   UNL     1      -1.163  -3.281  -6.204  1.00  0.00     0.184 C 
ATOM     22  C   UNL     1      -1.179  -3.333  -7.794  1.00  0.00     0.065 C 
ATOM     23  C   UNL     1       0.155  -2.490  -6.027  1.00  0.00     0.065 C 
ATOM     24  C   UNL     1       0.126  -3.763  -8.525  1.00  0.00     0.006 C 
ATOM     25  C   UNL     1       1.409  -3.219  -6.494  1.00  0.00     0.006 C 
ATOM     26  C   UNL     1       1.431  -3.185  -7.994  1.00  0.00     0.000 C 
ENDBRANCH  18  21
ENDBRANCH  10  18
ENDBRANCH   4   6
ENDBRANCH   3   4
ENDBRANCH   2   3
ENDBRANCH   1   2
BRANCH   1  27
ATOM     27  O   UNL     1      -0.721   1.347  -0.173  1.00  0.00    -0.458 OA
BRANCH  27  28
ATOM     28  C   UNL     1      -0.025   2.020  -1.111  1.00  0.00     0.338 C 
ATOM     29  O   UNL     1       1.204   2.083  -1.200  1.00  0.00    -0.246 OA
BRANCH  28  30
ATOM     30  C   UNL     1      -0.972   2.642  -2.065  1.00  0.00     0.060 A 
ATOM     31  C   UNL     1      -2.159   1.974  -2.388  1.00  0.00     0.016 A 
ATOM     32  C   UNL     1      -0.622   3.794  -2.770  1.00  0.00     0.016 A 
ATOM     33  C   UNL     1      -2.926   2.392  -3.472  1.00  0.00     0.010 A 
ATOM     34  C   UNL     1      -1.476   4.286  -3.770  1.00  0.00     0.010 A 
ATOM     35  C   UNL     1      -2.623   3.572  -4.165  1.00  0.00    -0.014 A 
BRANCH  35  36
ATOM     36  C   UNL     1      -3.473   4.016  -5.319  1.00  0.00     0.031 A 
ATOM     37  C   UNL     1      -2.847   4.346  -6.655  1.00  0.00     0.074 A 
ATOM     38  C   UNL     1      -4.815   4.106  -5.192  1.00  0.00     0.049 A 
ATOM     39  N   UNL     1      -3.373   4.946  -7.696  1.00  0.00    -0.248 NA
ATOM     40  C   UNL     1      -1.435   3.980  -6.834  1.00  0.00     0.031 C 
ATOM     41  C   UNL     1      -5.581   3.783  -3.986  1.00  0.00     0.029 A 
ATOM     42  N   UNL     1      -5.782   4.481  -6.097  1.00  0.00    -0.354 N 
ATOM     43  C   UNL     1      -2.340   5.098  -8.617  1.00  0.00     0.074 A 
ATOM     44  C   UNL     1      -1.154   4.535  -8.004  1.00  0.00     0.031 C 
ATOM     45  C   UNL     1      -6.891   3.903  -4.245  1.00  0.00     0.029 A 
ATOM     46  C   UNL     1      -7.062   4.433  -5.591  1.00  0.00     0.049 A 
ATOM     47  H   UNL     1      -5.577   4.758  -7.019  1.00  0.00     0.167 HD
ATOM     48  C   UNL     1      -2.377   5.654  -9.856  1.00  0.00     0.034 A 
ATOM     49  C   UNL     1      -8.241   4.818  -6.118  1.00  0.00     0.034 A 
ATOM     50  C   UNL     1      -3.584   6.138 -10.488  1.00  0.00     0.049 A 
ATOM     51  C   UNL     1      -8.258   5.438  -7.488  1.00  0.00     0.074 A 
ATOM     52  C   UNL     1      -3.735   6.698 -11.747  1.00  0.00     0.029 A 
ATOM     53  N   UNL     1      -4.853   6.102  -9.922  1.00  0.00    -0.354 N 
ATOM     54  N   UNL     1      -7.257   5.664  -8.306  1.00  0.00    -0.248 NA
ATOM     55  C   UNL     1      -9.565   5.872  -7.997  1.00  0.00     0.031 C 
ATOM     56  C   UNL     1      -5.080   7.047 -11.920  1.00  0.00     0.029 A 
ATOM     57  C   UNL     1      -5.785   6.642 -10.799  1.00  0.00     0.049 A 
ATOM     58  H   UNL     1      -5.061   5.744  -9.029  1.00  0.00     0.167 HD
ATOM     59  C   UNL     1      -7.817   6.264  -9.430  1.00  0.00     0.074 A 
ATOM     60  C   UNL     1      -9.246   6.329  -9.198  1.00  0.00     0.031 C 
ATOM     61  C   UNL     1      -7.204   6.727 -10.549  1.00  0.00     0.034 A 
BRANCH  48  62
ATOM     62  C   UNL     1      -1.063   5.824 -10.589  1.00  0.00     0.023 A 
ATOM     63  C   UNL     1      -0.280   4.733 -11.002  1.00  0.00     0.031 A 
ATOM     64  C   UNL     1      -0.579   7.118 -10.863  1.00  0.00     0.131 A 
ATOM     65  C   UNL     1       0.973   4.954 -11.598  1.00  0.00     0.055 A 
ATOM     66  C   UNL     1       0.629   7.331 -11.530  1.00  0.00     0.041 A 
ATOM     67  F   UNL     1      -1.271   8.202 -10.480  1.00  0.00    -0.206 F 
ATOM     68  C   UNL     1       1.421   6.245 -11.888  1.00  0.00     0.022 A 
BRANCH  65  69
ATOM     69  S   UNL     1       2.073   3.536 -11.865  1.00  0.00     0.124 S 
ATOM     70  O   UNL     1       2.214   3.010 -10.509  1.00  0.00    -0.237 OA
ATOM     71  O   UNL     1       1.308   2.712 -12.793  1.00  0.00    -0.237 OA
ATOM     72  O   UNL     1       3.284   4.139 -12.419  1.00  0.00    -0.744 OA
ENDBRANCH  65  69
ENDBRANCH  48  62
BRANCH  49  73
ATOM     73  C   UNL     1      -9.496   4.702  -5.319  1.00  0.00     0.023 A 
ATOM     74  C   UNL     1     -10.550   3.874  -5.737  1.00  0.00     0.031 A 
ATOM     75  C   UNL     1      -9.672   5.447  -4.138  1.00  0.00     0.131 A 
ATOM     76  C   UNL     1     -11.743   3.835  -4.998  1.00  0.00     0.055 A 
ATOM     77  C   UNL     1     -10.836   5.357  -3.374  1.00  0.00     0.041 A 
ATOM     78  F   UNL     1      -8.699   6.260  -3.696  1.00  0.00    -0.206 F 
ATOM     79  C   UNL     1     -11.885   4.556  -3.810  1.00  0.00     0.022 A 
BRANCH  76  80
ATOM     80  S   UNL     1     -13.143   2.886  -5.655  1.00  0.00     0.124 S 
ATOM     81  O   UNL     1     -13.354   3.524  -6.949  1.00  0.00    -0.237 OA
ATOM     82  O   UNL     1     -12.603   1.531  -5.688  1.00  0.00    -0.237 OA
ATOM     83  O   UNL     1     -14.198   3.110  -4.669  1.00  0.00    -0.744 OA
ENDBRANCH  76  80
ENDBRANCH  49  73
BRANCH  61  84
ATOM     84  C   UNL     1      -8.099   7.314 -11.614  1.00  0.00     0.023 A 
ATOM     85  C   UNL     1      -8.822   8.501 -11.395  1.00  0.00     0.031 A 
ATOM     86  C   UNL     1      -8.278   6.646 -12.838  1.00  0.00     0.131 A 
ATOM     87  C   UNL     1      -9.745   8.944 -12.355  1.00  0.00     0.055 A 
ATOM     88  C   UNL     1      -9.151   7.126 -13.815  1.00  0.00     0.041 A 
ATOM     89  F   UNL     1      -7.617   5.507 -13.098  1.00  0.00    -0.206 F 
ATOM     90  C   UNL     1      -9.904   8.271 -13.569  1.00  0.00     0.022 A 
BRANCH  87  91
ATOM     91  S   UNL     1     -10.826  10.342 -11.943  1.00  0.00     0.124 S 
ATOM     92  O   UNL     1     -11.469   9.879 -10.717  1.00  0.00    -0.237 OA
ATOM     93  O   UNL     1      -9.873  11.437 -11.789  1.00  0.00    -0.237 OA
ATOM     94  O   UNL     1     -11.708  10.447 -13.104  1.00  0.00    -0.744 OA
ENDBRANCH  87  91
ENDBRANCH  61  84
ENDBRANCH  35  36
ENDBRANCH  28  30
ENDBRANCH  27  28
ENDBRANCH   1  27
TORSDOF 18
