REMARK SMILES O=C(OCCOC(=O)c1cc(NC(=O)c2cc([N+](=O)[O-])ccc2N2CCCC2)ccc1Cl)c1ccc(-c2c3nc(c(-c4cc(S(=O)(=O)[O-])ccc4F)c4ccc([nH]4)c(-c4cc(S(=O)(=O)[O-])ccc4F)c4nc(c(-c5cc(S(=O)(=O)[O-])ccc5F)c5ccc2[nH]5)C=C4)C=C3)cc1
REMARK SMILES IDX 4 1 3 2 2 3 1 4 33 5 34 6 95 7 35 8 94 9 36 10 37 11 38 12
REMARK SMILES IDX 88 13 39 14 93 15 87 16 89 17 40 18 92 19 86 20 85 21 41 23
REMARK SMILES IDX 73 24 53 25 72 26 54 27 57 28 71 29 90 30 55 31 56 32 70 34
REMARK SMILES IDX 91 35 58 36 42 37 43 38 51 39 44 40 50 41 52 42 49 43 45 44
REMARK SMILES IDX 46 45 47 46 48 47 74 48 75 49 83 50 76 51 82 52 84 53 81 54
REMARK SMILES IDX 77 55 78 56 79 57 80 58 59 59 60 60 68 61 61 62 67 63 69 64
REMARK SMILES IDX 66 65 62 66 63 67 64 68 65 69 5 70 6 71 7 72 8 73 9 74 10 75
REMARK SMILES IDX 31 76 11 77 30 78 32 79 29 80 12 81 13 82 14 84 15 85 16 86
REMARK SMILES IDX 23 87 17 88 22 89 21 90 24 91 25 92 28 93 26 94 27 95 18 96
REMARK SMILES IDX 19 97 20 98
REMARK H PARENT 89 22 57 33 12 83
REMARK Flexibility Score: inf
ROOT
ATOM      1  C   UNL     1       4.460  -0.145   2.230  1.00  0.00     0.275 C 
ENDROOT
BRANCH   1   2
ATOM      2  O   UNL     1       4.081   0.808   1.230  1.00  0.00    -0.458 OA
BRANCH   2   3
ATOM      3  C   UNL     1       3.697   0.348   0.022  1.00  0.00     0.338 C 
ATOM      4  O   UNL     1       2.554   0.495  -0.390  1.00  0.00    -0.246 OA
BRANCH   3   5
ATOM      5  C   UNL     1       4.768  -0.172  -0.870  1.00  0.00     0.060 A 
ATOM      6  C   UNL     1       5.549  -1.295  -0.583  1.00  0.00     0.016 A 
ATOM      7  C   UNL     1       4.780   0.338  -2.162  1.00  0.00     0.016 A 
ATOM      8  C   UNL     1       6.239  -1.965  -1.605  1.00  0.00     0.010 A 
ATOM      9  C   UNL     1       5.375  -0.399  -3.188  1.00  0.00     0.010 A 
ATOM     10  C   UNL     1       6.038  -1.615  -2.945  1.00  0.00    -0.014 A 
BRANCH  10  11
ATOM     11  C   UNL     1       6.367  -2.565  -4.071  1.00  0.00     0.031 A 
ATOM     12  C   UNL     1       6.947  -2.051  -5.371  1.00  0.00     0.074 A 
ATOM     13  C   UNL     1       5.965  -3.862  -4.029  1.00  0.00     0.049 A 
ATOM     14  N   UNL     1       7.063  -2.659  -6.526  1.00  0.00    -0.248 NA
ATOM     15  C   UNL     1       7.339  -0.636  -5.407  1.00  0.00     0.031 C 
ATOM     16  C   UNL     1       5.223  -4.503  -2.936  1.00  0.00     0.029 A 
ATOM     17  N   UNL     1       6.096  -4.881  -4.950  1.00  0.00    -0.354 N 
ATOM     18  C   UNL     1       7.458  -1.677  -7.428  1.00  0.00     0.074 A 
ATOM     19  C   UNL     1       7.415  -0.421  -6.711  1.00  0.00     0.031 C 
ATOM     20  C   UNL     1       5.011  -5.796  -3.228  1.00  0.00     0.029 A 
ATOM     21  C   UNL     1       5.545  -6.082  -4.551  1.00  0.00     0.049 A 
ATOM     22  H   UNL     1       6.545  -4.761  -5.819  1.00  0.00     0.167 HD
ATOM     23  C   UNL     1       7.908  -1.805  -8.702  1.00  0.00     0.034 A 
ATOM     24  C   UNL     1       5.467  -7.280  -5.170  1.00  0.00     0.034 A 
ATOM     25  C   UNL     1       8.112  -3.073  -9.349  1.00  0.00     0.049 A 
ATOM     26  C   UNL     1       6.081  -7.437  -6.540  1.00  0.00     0.074 A 
ATOM     27  C   UNL     1       8.789  -3.340 -10.526  1.00  0.00     0.029 A 
ATOM     28  N   UNL     1       7.664  -4.290  -8.860  1.00  0.00    -0.354 N 
ATOM     29  N   UNL     1       6.628  -6.521  -7.304  1.00  0.00    -0.248 NA
ATOM     30  C   UNL     1       6.092  -8.788  -7.122  1.00  0.00     0.031 C 
ATOM     31  C   UNL     1       8.727  -4.717 -10.764  1.00  0.00     0.029 A 
ATOM     32  C   UNL     1       8.043  -5.310  -9.716  1.00  0.00     0.049 A 
ATOM     33  H   UNL     1       7.153  -4.411  -8.028  1.00  0.00     0.167 HD
ATOM     34  C   UNL     1       7.093  -7.197  -8.429  1.00  0.00     0.074 A 
ATOM     35  C   UNL     1       6.764  -8.594  -8.248  1.00  0.00     0.031 C 
ATOM     36  C   UNL     1       7.743  -6.704  -9.511  1.00  0.00     0.034 A 
BRANCH  23  37
ATOM     37  C   UNL     1       8.298  -0.544  -9.436  1.00  0.00     0.023 A 
ATOM     38  C   UNL     1       9.287   0.312  -8.924  1.00  0.00     0.031 A 
ATOM     39  C   UNL     1       7.658  -0.164 -10.628  1.00  0.00     0.131 A 
ATOM     40  C   UNL     1       9.504   1.565  -9.508  1.00  0.00     0.055 A 
ATOM     41  C   UNL     1       7.963   1.038 -11.273  1.00  0.00     0.041 A 
ATOM     42  F   UNL     1       6.709  -0.941 -11.173  1.00  0.00    -0.206 F 
ATOM     43  C   UNL     1       8.871   1.925 -10.698  1.00  0.00     0.022 A 
BRANCH  40  44
ATOM     44  S   UNL     1      10.479   2.775  -8.576  1.00  0.00     0.124 S 
ATOM     45  O   UNL     1       9.646   2.966  -7.391  1.00  0.00    -0.237 OA
ATOM     46  O   UNL     1      11.737   2.070  -8.360  1.00  0.00    -0.237 OA
ATOM     47  O   UNL     1      10.550   3.923  -9.476  1.00  0.00    -0.744 OA
ENDBRANCH  40  44
ENDBRANCH  23  37
BRANCH  24  48
ATOM     48  C   UNL     1       4.794  -8.447  -4.521  1.00  0.00     0.023 A 
ATOM     49  C   UNL     1       5.526  -9.594  -4.169  1.00  0.00     0.031 A 
ATOM     50  C   UNL     1       3.401  -8.473  -4.332  1.00  0.00     0.131 A 
ATOM     51  C   UNL     1       4.856 -10.747  -3.729  1.00  0.00     0.055 A 
ATOM     52  C   UNL     1       2.745  -9.606  -3.843  1.00  0.00     0.041 A 
ATOM     53  F   UNL     1       2.655  -7.396  -4.625  1.00  0.00    -0.206 F 
ATOM     54  C   UNL     1       3.471 -10.759  -3.559  1.00  0.00     0.022 A 
BRANCH  51  55
ATOM     55  S   UNL     1       5.815 -12.272  -3.503  1.00  0.00     0.124 S 
ATOM     56  O   UNL     1       6.467 -12.406  -4.801  1.00  0.00    -0.237 OA
ATOM     57  O   UNL     1       6.681 -11.917  -2.384  1.00  0.00    -0.237 OA
ATOM     58  O   UNL     1       4.793 -13.274  -3.209  1.00  0.00    -0.744 OA
ENDBRANCH  51  55
ENDBRANCH  24  48
BRANCH  36  59
ATOM     59  C   UNL     1       8.217  -7.688 -10.546  1.00  0.00     0.023 A 
ATOM     60  C   UNL     1       7.321  -8.357 -11.394  1.00  0.00     0.031 A 
ATOM     61  C   UNL     1       9.593  -7.934 -10.701  1.00  0.00     0.131 A 
ATOM     62  C   UNL     1       7.810  -9.265 -12.344  1.00  0.00     0.055 A 
ATOM     63  C   UNL     1      10.077  -8.800 -11.682  1.00  0.00     0.041 A 
ATOM     64  F   UNL     1      10.490  -7.319  -9.913  1.00  0.00    -0.206 F 
ATOM     65  C   UNL     1       9.182  -9.476 -12.506  1.00  0.00     0.022 A 
BRANCH  62  66
ATOM     66  S   UNL     1       6.622 -10.202 -13.344  1.00  0.00     0.124 S 
ATOM     67  O   UNL     1       5.934 -10.995 -12.330  1.00  0.00    -0.237 OA
ATOM     68  O   UNL     1       5.835  -9.145 -13.969  1.00  0.00    -0.237 OA
ATOM     69  O   UNL     1       7.471 -10.964 -14.259  1.00  0.00    -0.744 OA
ENDBRANCH  62  66
ENDBRANCH  36  59
ENDBRANCH  10  11
ENDBRANCH   3   5
ENDBRANCH   2   3
ENDBRANCH   1   2
BRANCH   1  70
ATOM     70  C   UNL     1       3.458  -1.283   2.491  1.00  0.00     0.275 C 
BRANCH  70  71
ATOM     71  O   UNL     1       3.066  -1.990   1.298  1.00  0.00    -0.458 OA
BRANCH  71  72
ATOM     72  C   UNL     1       1.728  -2.143   1.107  1.00  0.00     0.339 C 
ATOM     73  O   UNL     1       0.837  -1.721   1.831  1.00  0.00    -0.246 OA
BRANCH  72  74
ATOM     74  C   UNL     1       1.431  -2.875  -0.143  1.00  0.00     0.080 A 
ATOM     75  C   UNL     1       0.485  -2.302  -1.023  1.00  0.00     0.043 A 
ATOM     76  C   UNL     1       1.971  -4.136  -0.419  1.00  0.00     0.055 A 
ATOM     77  C   UNL     1       0.080  -2.986  -2.171  1.00  0.00     0.042 A 
ATOM     78  C   UNL     1       1.550  -4.827  -1.557  1.00  0.00     0.023 A 
ATOM     79  Cl  UNL     1       3.108  -4.926   0.611  1.00  0.00    -0.083 Cl
ATOM     80  C   UNL     1       0.595  -4.269  -2.409  1.00  0.00     0.028 A 
BRANCH  77  81
ATOM     81  N   UNL     1      -0.738  -2.466  -3.195  1.00  0.00    -0.322 N 
ATOM     82  C   UNL     1      -0.996  -1.187  -3.632  1.00  0.00     0.258 C 
ATOM     83  H   UNL     1      -1.224  -3.159  -3.698  1.00  0.00     0.170 HD
ATOM     84  O   UNL     1      -1.754  -1.013  -4.588  1.00  0.00    -0.269 OA
BRANCH  82  85
ATOM     85  C   UNL     1      -0.412   0.008  -3.009  1.00  0.00     0.070 A 
ATOM     86  C   UNL     1      -1.295   0.716  -2.174  1.00  0.00     0.101 A 
ATOM     87  C   UNL     1       0.854   0.526  -3.361  1.00  0.00     0.050 A 
ATOM     88  C   UNL     1      -0.893   1.930  -1.619  1.00  0.00     0.270 A 
ATOM     89  C   UNL     1       1.201   1.774  -2.806  1.00  0.00     0.034 A 
ATOM     90  C   UNL     1       0.358   2.464  -1.924  1.00  0.00     0.088 A 
BRANCH  87  91
ATOM     91  N   UNL     1       1.758  -0.059  -4.228  1.00  0.00    -0.371 N 
ATOM     92  C   UNL     1       1.641   0.180  -5.669  1.00  0.00     0.116 C 
ATOM     93  C   UNL     1       2.335  -1.377  -3.984  1.00  0.00     0.116 C 
ATOM     94  C   UNL     1       1.933  -1.190  -6.288  1.00  0.00     0.023 C 
ATOM     95  C   UNL     1       2.933  -1.793  -5.317  1.00  0.00     0.023 C 
ENDBRANCH  87  91
BRANCH  88  96
ATOM     96  N   UNL     1      -1.808   2.661  -0.740  1.00  0.00     0.062 N 
ATOM     97  O   UNL     1      -3.007   2.344  -0.766  1.00  0.00    -0.258 OA
ATOM     98  O   UNL     1      -1.338   3.561  -0.029  1.00  0.00    -0.258 OA
ENDBRANCH  88  96
ENDBRANCH  82  85
ENDBRANCH  77  81
ENDBRANCH  72  74
ENDBRANCH  71  72
ENDBRANCH  70  71
ENDBRANCH   1  70
TORSDOF 18
