REMARK SMILES COc1cc2c(cc1OC)[C@H](C(=O)OCCOC(=O)c1ccc(-c3c4nc(c(-c5cc(S(=O)(=O)[O-])ccc5F)c5ccc([nH]5)c(-c5cc(S(=O)(=O)[O-])ccc5F)c5nc(c(-c6cc(S(=O)(=O)[O-])ccc6F)c6ccc3[nH]6)C=C5)C=C4)cc1)[C@H](c1cccc(Cl)c1)N(C)C2=O
REMARK SMILES IDX 16 1 15 2 14 3 12 4 13 5 11 6 3 7 4 8 8 9 5 10 7 11 6 12
REMARK SMILES IDX 93 13 91 14 94 15 83 16 92 17 2 18 1 19 9 20 10 21 84 22
REMARK SMILES IDX 85 23 90 24 86 25 88 26 87 27 89 28 17 29 18 30 19 31 20 32
REMARK SMILES IDX 21 33 82 34 22 35 81 36 23 37 24 38 25 39 75 40 26 41 80 42
REMARK SMILES IDX 74 43 76 44 27 45 79 46 73 47 72 48 28 50 60 51 40 52 59 53
REMARK SMILES IDX 41 54 44 55 58 56 77 57 42 58 43 59 57 61 78 62 45 63 29 64
REMARK SMILES IDX 30 65 38 66 31 67 37 68 39 69 36 70 32 71 33 72 34 73 35 74
REMARK SMILES IDX 61 75 62 76 70 77 63 78 69 79 71 80 68 81 64 82 65 83 66 84
REMARK SMILES IDX 67 85 46 86 47 87 55 88 48 89 54 90 56 91 53 92 49 93 50 94
REMARK SMILES IDX 51 95 52 96
REMARK H PARENT 76 49 44 60
REMARK Flexibility Score: inf
ROOT
ATOM      1  C   UNL     1      -1.729  -5.736  -5.638  1.00  0.00     0.275 C 
ENDROOT
BRANCH   1   2
ATOM      2  C   UNL     1      -0.784  -6.470  -4.675  1.00  0.00     0.274 C 
BRANCH   2   3
ATOM      3  O   UNL     1       0.194  -5.568  -4.123  1.00  0.00    -0.462 OA
BRANCH   3   4
ATOM      4  C   UNL     1       1.335  -5.391  -4.826  1.00  0.00     0.316 C 
ATOM      5  O   UNL     1       1.673  -6.136  -5.743  1.00  0.00    -0.251 OA
BRANCH   4   6
ATOM      6  C   UNL     1       2.146  -4.161  -4.450  1.00  0.00     0.157 C 
ATOM      7  C   UNL     1       1.041  -1.526  -1.167  1.00  0.00     0.161 A 
ATOM      8  C   UNL     1       2.349  -1.566  -1.668  1.00  0.00     0.064 A 
ATOM      9  C   UNL     1       0.043  -2.269  -1.806  1.00  0.00     0.161 A 
ATOM     10  C   UNL     1       2.675  -2.386  -2.757  1.00  0.00     0.048 A 
ATOM     11  C   UNL     1       0.388  -3.070  -2.903  1.00  0.00     0.056 A 
ATOM     12  C   UNL     1       1.712  -3.230  -3.329  1.00  0.00    -0.015 A 
ATOM     13  C   UNL     1       4.057  -2.311  -3.325  1.00  0.00     0.254 C 
ATOM     14  N   UNL     1       4.447  -3.354  -4.161  1.00  0.00    -0.333 N 
ATOM     15  O   UNL     1       4.786  -1.371  -3.028  1.00  0.00    -0.269 OA
ATOM     16  C   UNL     1       3.635  -4.578  -4.266  1.00  0.00     0.134 C 
ATOM     17  C   UNL     1       5.748  -3.311  -4.807  1.00  0.00     0.147 C 
BRANCH   7  18
ATOM     18  O   UNL     1       0.743  -0.826  -0.028  1.00  0.00    -0.493 OA
ATOM     19  C   UNL     1       1.281   0.492   0.012  1.00  0.00     0.278 C 
ENDBRANCH   7  18
BRANCH   9  20
ATOM     20  O   UNL     1      -1.296  -2.340  -1.527  1.00  0.00    -0.493 OA
ATOM     21  C   UNL     1      -1.794  -1.660  -0.389  1.00  0.00     0.278 C 
ENDBRANCH   9  20
BRANCH  16  22
ATOM     22  C   UNL     1       3.888  -5.561  -3.108  1.00  0.00    -0.023 A 
ATOM     23  C   UNL     1       3.523  -6.913  -3.247  1.00  0.00     0.006 A 
ATOM     24  C   UNL     1       4.458  -5.171  -1.883  1.00  0.00     0.026 A 
ATOM     25  C   UNL     1       3.633  -7.812  -2.182  1.00  0.00     0.002 A 
ATOM     26  C   UNL     1       4.580  -6.073  -0.824  1.00  0.00     0.041 A 
ATOM     27  C   UNL     1       4.150  -7.387  -0.963  1.00  0.00     0.020 A 
ATOM     28  Cl  UNL     1       5.258  -5.549   0.669  1.00  0.00    -0.084 Cl
ENDBRANCH  16  22
ENDBRANCH   4   6
ENDBRANCH   3   4
ENDBRANCH   2   3
ENDBRANCH   1   2
BRANCH   1  29
ATOM     29  O   UNL     1      -1.127  -5.541  -6.933  1.00  0.00    -0.458 OA
BRANCH  29  30
ATOM     30  C   UNL     1      -0.472  -4.370  -7.111  1.00  0.00     0.338 C 
ATOM     31  O   UNL     1      -0.382  -3.454  -6.304  1.00  0.00    -0.246 OA
BRANCH  30  32
ATOM     32  C   UNL     1       0.293  -4.418  -8.367  1.00  0.00     0.060 A 
ATOM     33  C   UNL     1       1.685  -4.284  -8.308  1.00  0.00     0.016 A 
ATOM     34  C   UNL     1      -0.351  -4.556  -9.597  1.00  0.00     0.016 A 
ATOM     35  C   UNL     1       2.444  -4.296  -9.470  1.00  0.00     0.010 A 
ATOM     36  C   UNL     1       0.412  -4.560 -10.768  1.00  0.00     0.010 A 
ATOM     37  C   UNL     1       1.811  -4.428 -10.708  1.00  0.00    -0.014 A 
BRANCH  37  38
ATOM     38  C   UNL     1       2.617  -4.354 -11.946  1.00  0.00     0.031 A 
ATOM     39  C   UNL     1       2.619  -3.083 -12.740  1.00  0.00     0.074 A 
ATOM     40  C   UNL     1       3.355  -5.411 -12.328  1.00  0.00     0.049 A 
ATOM     41  N   UNL     1       3.157  -2.836 -13.905  1.00  0.00    -0.248 NA
ATOM     42  C   UNL     1       1.918  -1.939 -12.139  1.00  0.00     0.031 C 
ATOM     43  C   UNL     1       3.481  -6.665 -11.583  1.00  0.00     0.029 A 
ATOM     44  N   UNL     1       4.133  -5.602 -13.439  1.00  0.00    -0.354 N 
ATOM     45  C   UNL     1       2.848  -1.511 -14.188  1.00  0.00     0.074 A 
ATOM     46  C   UNL     1       2.056  -1.017 -13.080  1.00  0.00     0.031 C 
ATOM     47  C   UNL     1       4.278  -7.501 -12.268  1.00  0.00     0.029 A 
ATOM     48  C   UNL     1       4.674  -6.863 -13.520  1.00  0.00     0.049 A 
ATOM     49  H   UNL     1       4.290  -4.903 -14.115  1.00  0.00     0.167 HD
ATOM     50  C   UNL     1       3.194  -0.780 -15.276  1.00  0.00     0.034 A 
ATOM     51  C   UNL     1       5.372  -7.447 -14.514  1.00  0.00     0.034 A 
ATOM     52  C   UNL     1       3.975  -1.303 -16.370  1.00  0.00     0.049 A 
ATOM     53  C   UNL     1       5.665  -6.645 -15.756  1.00  0.00     0.074 A 
ATOM     54  C   UNL     1       4.375  -0.664 -17.531  1.00  0.00     0.029 A 
ATOM     55  N   UNL     1       4.470  -2.600 -16.443  1.00  0.00    -0.354 N 
ATOM     56  N   UNL     1       5.336  -5.403 -16.035  1.00  0.00    -0.248 NA
ATOM     57  C   UNL     1       6.421  -7.321 -16.817  1.00  0.00     0.031 C 
ATOM     58  C   UNL     1       5.057  -1.590 -18.329  1.00  0.00     0.029 A 
ATOM     59  C   UNL     1       5.146  -2.789 -17.638  1.00  0.00     0.049 A 
ATOM     60  H   UNL     1       4.356  -3.286 -15.745  1.00  0.00     0.167 HD
ATOM     61  C   UNL     1       5.868  -5.144 -17.294  1.00  0.00     0.074 A 
ATOM     62  C   UNL     1       6.549  -6.353 -17.713  1.00  0.00     0.031 C 
ATOM     63  C   UNL     1       5.806  -4.009 -18.038  1.00  0.00     0.034 A 
BRANCH  50  64
ATOM     64  C   UNL     1       2.666   0.631 -15.353  1.00  0.00     0.023 A 
ATOM     65  C   UNL     1       3.057   1.622 -14.435  1.00  0.00     0.031 A 
ATOM     66  C   UNL     1       1.715   0.976 -16.330  1.00  0.00     0.131 A 
ATOM     67  C   UNL     1       2.448   2.886 -14.469  1.00  0.00     0.055 A 
ATOM     68  C   UNL     1       1.169   2.259 -16.406  1.00  0.00     0.041 A 
ATOM     69  F   UNL     1       1.285   0.064 -17.216  1.00  0.00    -0.206 F 
ATOM     70  C   UNL     1       1.523   3.218 -15.462  1.00  0.00     0.022 A 
BRANCH  67  71
ATOM     71  S   UNL     1       2.772   4.043 -13.110  1.00  0.00     0.124 S 
ATOM     72  O   UNL     1       2.314   3.277 -11.954  1.00  0.00    -0.237 OA
ATOM     73  O   UNL     1       4.212   4.251 -13.210  1.00  0.00    -0.237 OA
ATOM     74  O   UNL     1       1.950   5.204 -13.445  1.00  0.00    -0.744 OA
ENDBRANCH  67  71
ENDBRANCH  50  64
BRANCH  51  75
ATOM     75  C   UNL     1       5.788  -8.874 -14.408  1.00  0.00     0.023 A 
ATOM     76  C   UNL     1       7.144  -9.236 -14.377  1.00  0.00     0.031 A 
ATOM     77  C   UNL     1       4.829  -9.903 -14.381  1.00  0.00     0.131 A 
ATOM     78  C   UNL     1       7.504 -10.592 -14.361  1.00  0.00     0.055 A 
ATOM     79  C   UNL     1       5.192 -11.249 -14.316  1.00  0.00     0.041 A 
ATOM     80  F   UNL     1       3.519  -9.612 -14.409  1.00  0.00    -0.206 F 
ATOM     81  C   UNL     1       6.538 -11.601 -14.318  1.00  0.00     0.022 A 
BRANCH  78  82
ATOM     82  S   UNL     1       9.262 -11.025 -14.477  1.00  0.00     0.124 S 
ATOM     83  O   UNL     1       9.642 -10.392 -15.735  1.00  0.00    -0.237 OA
ATOM     84  O   UNL     1       9.802 -10.421 -13.264  1.00  0.00    -0.237 OA
ATOM     85  O   UNL     1       9.252 -12.487 -14.492  1.00  0.00    -0.744 OA
ENDBRANCH  78  82
ENDBRANCH  51  75
BRANCH  63  86
ATOM     86  C   UNL     1       6.537  -4.022 -19.357  1.00  0.00     0.023 A 
ATOM     87  C   UNL     1       6.101  -4.811 -20.436  1.00  0.00     0.031 A 
ATOM     88  C   UNL     1       7.695  -3.244 -19.528  1.00  0.00     0.131 A 
ATOM     89  C   UNL     1       6.850  -4.845 -21.621  1.00  0.00     0.055 A 
ATOM     90  C   UNL     1       8.405  -3.240 -20.728  1.00  0.00     0.041 A 
ATOM     91  F   UNL     1       8.155  -2.475 -18.528  1.00  0.00    -0.206 F 
ATOM     92  C   UNL     1       7.991  -4.053 -21.779  1.00  0.00     0.022 A 
BRANCH  89  93
ATOM     93  S   UNL     1       6.361  -6.003 -22.928  1.00  0.00     0.124 S 
ATOM     94  O   UNL     1       6.442  -7.288 -22.241  1.00  0.00    -0.237 OA
ATOM     95  O   UNL     1       5.017  -5.545 -23.266  1.00  0.00    -0.237 OA
ATOM     96  O   UNL     1       7.366  -5.792 -23.968  1.00  0.00    -0.744 OA
ENDBRANCH  89  93
ENDBRANCH  63  86
ENDBRANCH  37  38
ENDBRANCH  30  32
ENDBRANCH  29  30
ENDBRANCH   1  29
TORSDOF 17
