REMARK SMILES O=C(N[C@H](C(=O)OCCOC(=O)c1ccc(-c2c3nc(c(-c4cc(S(=O)(=O)[O-])ccc4F)c4ccc([nH]4)c(-c4cc(S(=O)(=O)[O-])ccc4F)c4nc(c(-c5cc(S(=O)(=O)[O-])ccc5F)c5ccc2[nH]5)C=C4)C=C3)cc1)c1ccccc1F)c1ccc(C[NH+]2CCCCC2)cc1
REMARK SMILES IDX 8 1 7 2 5 3 6 4 4 5 3 6 1 7 2 8 83 10 84 11 95 12 85 13
REMARK SMILES IDX 94 14 86 15 87 16 88 17 89 18 93 19 90 21 92 22 91 23 76 24
REMARK SMILES IDX 77 25 81 26 78 27 80 28 82 29 79 30 9 31 10 32 11 33 12 34
REMARK SMILES IDX 13 35 14 36 75 37 15 38 74 39 16 40 17 41 18 42 68 43 19 44
REMARK SMILES IDX 73 45 67 46 69 47 20 48 72 49 66 50 65 51 21 53 53 54 33 55
REMARK SMILES IDX 52 56 34 57 37 58 51 59 70 60 35 61 36 62 50 64 71 65 38 66
REMARK SMILES IDX 22 67 23 68 31 69 24 70 30 71 32 72 29 73 25 74 26 75 27 76
REMARK SMILES IDX 28 77 54 78 55 79 63 80 56 81 62 82 64 83 61 84 57 85 58 86
REMARK SMILES IDX 59 87 60 88 39 89 40 90 48 91 41 92 47 93 49 94 46 95 42 96
REMARK SMILES IDX 43 97 44 98 45 99
REMARK H PARENT 3 9 88 20 69 52 37 63
REMARK Flexibility Score: inf
ROOT
ATOM      1  C   UNL     1       1.199  -2.568  -1.560  1.00  0.00     0.274 C 
ENDROOT
BRANCH   1   2
ATOM      2  O   UNL     1       2.550  -2.675  -2.387  1.00  0.00    -0.460 OA
BRANCH   2   3
ATOM      3  C   UNL     1       3.271  -1.553  -2.674  1.00  0.00     0.333 C 
ATOM      4  O   UNL     1       2.805  -0.581  -3.257  1.00  0.00    -0.249 OA
BRANCH   3   5
ATOM      5  C   UNL     1       4.679  -1.626  -1.959  1.00  0.00     0.226 C 
BRANCH   5   6
ATOM      6  N   UNL     1       4.967  -2.910  -1.284  1.00  0.00    -0.335 N 
ATOM      7  O   UNL     1       4.503  -4.680   0.072  1.00  0.00    -0.269 OA
ATOM      8  C   UNL     1       4.141  -3.617  -0.417  1.00  0.00     0.252 C 
ATOM      9  H   UNL     1       5.847  -3.311  -1.470  1.00  0.00     0.165 HD
BRANCH   8  10
ATOM     10  C   UNL     1       2.736  -3.161  -0.228  1.00  0.00     0.039 A 
ATOM     11  C   UNL     1       2.375  -1.396  -0.294  1.00  0.00     0.014 A 
ATOM     12  C   UNL     1       1.378  -4.341  -0.429  1.00  0.00     0.014 A 
ATOM     13  C   UNL     1       0.708  -0.802  -0.549  1.00  0.00     0.010 A 
ATOM     14  C   UNL     1      -0.321  -3.745  -0.645  1.00  0.00     0.010 A 
ATOM     15  C   UNL     1      -0.653  -1.965  -0.730  1.00  0.00     0.006 A 
BRANCH  15  16
ATOM     16  C   UNL     1      -2.068  -1.450  -0.947  1.00  0.00     0.299 C 
BRANCH  16  17
ATOM     17  N   UNL     1      -2.272   0.011  -0.859  1.00  0.00    -0.331 N 
ATOM     18  C   UNL     1      -1.966   0.558   0.469  1.00  0.00     0.262 C 
ATOM     19  C   UNL     1      -1.756   0.735  -2.027  1.00  0.00     0.262 C 
ATOM     20  H   UNL     1      -3.274   0.187  -0.931  1.00  0.00     0.348 HD
ATOM     21  C   UNL     1      -1.964   2.084   0.560  1.00  0.00     0.062 C 
ATOM     22  C   UNL     1      -1.763   2.260  -1.898  1.00  0.00     0.062 C 
ATOM     23  C   UNL     1      -1.177   2.721  -0.574  1.00  0.00     0.012 C 
ENDBRANCH  16  17
ENDBRANCH  15  16
ENDBRANCH   8  10
ENDBRANCH   5   6
BRANCH   5  24
ATOM     24  C   UNL     1       5.694  -1.189  -2.983  1.00  0.00     0.021 A 
ATOM     25  C   UNL     1       6.193  -2.078  -3.937  1.00  0.00     0.009 A 
ATOM     26  C   UNL     1       5.897   0.190  -3.157  1.00  0.00     0.129 A 
ATOM     27  C   UNL     1       6.815  -1.579  -5.080  1.00  0.00     0.001 A 
ATOM     28  C   UNL     1       6.512   0.689  -4.295  1.00  0.00     0.039 A 
ATOM     29  F   UNL     1       5.408   1.056  -2.256  1.00  0.00    -0.207 F 
ATOM     30  C   UNL     1       6.952  -0.201  -5.271  1.00  0.00     0.003 A 
ENDBRANCH   5  24
ENDBRANCH   3   5
ENDBRANCH   2   3
ENDBRANCH   1   2
BRANCH   1  31
ATOM     31  C   UNL     1       0.900  -2.560   0.603  1.00  0.00     0.275 C 
BRANCH  31  32
ATOM     32  O   UNL     1       1.182  -1.385   1.642  1.00  0.00    -0.458 OA
BRANCH  32  33
ATOM     33  C   UNL     1       2.251  -1.482   2.468  1.00  0.00     0.338 C 
ATOM     34  O   UNL     1       2.971  -2.446   2.647  1.00  0.00    -0.246 OA
BRANCH  33  35
ATOM     35  C   UNL     1       2.602  -0.126   2.896  1.00  0.00     0.060 A 
ATOM     36  C   UNL     1       3.773   0.453   2.384  1.00  0.00     0.016 A 
ATOM     37  C   UNL     1       1.828   0.515   3.858  1.00  0.00     0.016 A 
ATOM     38  C   UNL     1       4.217   1.664   2.892  1.00  0.00     0.010 A 
ATOM     39  C   UNL     1       2.284   1.719   4.379  1.00  0.00     0.010 A 
ATOM     40  C   UNL     1       3.502   2.264   3.932  1.00  0.00    -0.014 A 
BRANCH  40  41
ATOM     41  C   UNL     1       4.122   3.353   4.707  1.00  0.00     0.031 A 
ATOM     42  C   UNL     1       4.712   3.013   6.045  1.00  0.00     0.074 A 
ATOM     43  C   UNL     1       4.130   4.601   4.216  1.00  0.00     0.049 A 
ATOM     44  N   UNL     1       5.151   3.805   6.984  1.00  0.00    -0.248 NA
ATOM     45  C   UNL     1       4.797   1.579   6.376  1.00  0.00     0.031 C 
ATOM     46  C   UNL     1       3.631   4.987   2.896  1.00  0.00     0.029 A 
ATOM     47  N   UNL     1       4.550   5.774   4.778  1.00  0.00    -0.354 N 
ATOM     48  C   UNL     1       5.538   2.971   8.029  1.00  0.00     0.074 A 
ATOM     49  C   UNL     1       5.255   1.614   7.617  1.00  0.00     0.031 C 
ATOM     50  C   UNL     1       3.756   6.317   2.758  1.00  0.00     0.029 A 
ATOM     51  C   UNL     1       4.285   6.874   3.999  1.00  0.00     0.049 A 
ATOM     52  H   UNL     1       4.998   5.825   5.653  1.00  0.00     0.167 HD
ATOM     53  C   UNL     1       6.076   3.322   9.221  1.00  0.00     0.034 A 
ATOM     54  C   UNL     1       4.416   8.182   4.287  1.00  0.00     0.034 A 
ATOM     55  C   UNL     1       6.331   4.695   9.583  1.00  0.00     0.049 A 
ATOM     56  C   UNL     1       4.955   8.554   5.646  1.00  0.00     0.074 A 
ATOM     57  C   UNL     1       6.879   5.195  10.749  1.00  0.00     0.029 A 
ATOM     58  N   UNL     1       6.043   5.791   8.775  1.00  0.00    -0.354 N 
ATOM     59  N   UNL     1       5.308   7.765   6.638  1.00  0.00    -0.248 NA
ATOM     60  C   UNL     1       5.121   9.983   5.922  1.00  0.00     0.031 C 
ATOM     61  C   UNL     1       6.854   6.592  10.676  1.00  0.00     0.029 A 
ATOM     62  C   UNL     1       6.372   6.966   9.429  1.00  0.00     0.049 A 
ATOM     63  H   UNL     1       5.660   5.738   7.870  1.00  0.00     0.167 HD
ATOM     64  C   UNL     1       5.767   8.605   7.647  1.00  0.00     0.074 A 
ATOM     65  C   UNL     1       5.659   9.958   7.132  1.00  0.00     0.031 C 
ATOM     66  C   UNL     1       6.238   8.297   8.883  1.00  0.00     0.034 A 
BRANCH  53  67
ATOM     67  C   UNL     1       6.353   2.221  10.218  1.00  0.00     0.023 A 
ATOM     68  C   UNL     1       7.272   1.189   9.957  1.00  0.00     0.031 A 
ATOM     69  C   UNL     1       5.657   2.183  11.440  1.00  0.00     0.131 A 
ATOM     70  C   UNL     1       7.419   0.131  10.870  1.00  0.00     0.055 A 
ATOM     71  C   UNL     1       5.866   1.170  12.379  1.00  0.00     0.041 A 
ATOM     72  F   UNL     1       4.745   3.122  11.737  1.00  0.00    -0.206 F 
ATOM     73  C   UNL     1       6.742   0.128  12.091  1.00  0.00     0.022 A 
BRANCH  70  74
ATOM     74  S   UNL     1       8.403  -1.313  10.378  1.00  0.00     0.124 S 
ATOM     75  O   UNL     1       7.694  -1.758   9.181  1.00  0.00    -0.237 OA
ATOM     76  O   UNL     1       9.724  -0.735  10.160  1.00  0.00    -0.237 OA
ATOM     77  O   UNL     1       8.296  -2.209  11.527  1.00  0.00    -0.744 OA
ENDBRANCH  70  74
ENDBRANCH  53  67
BRANCH  54  78
ATOM     78  C   UNL     1       4.004   9.216   3.297  1.00  0.00     0.023 A 
ATOM     79  C   UNL     1       4.940  10.105   2.751  1.00  0.00     0.031 A 
ATOM     80  C   UNL     1       2.662   9.341   2.892  1.00  0.00     0.131 A 
ATOM     81  C   UNL     1       4.518  11.105   1.860  1.00  0.00     0.055 A 
ATOM     82  C   UNL     1       2.257  10.300   1.962  1.00  0.00     0.041 A 
ATOM     83  F   UNL     1       1.723   8.514   3.381  1.00  0.00    -0.206 F 
ATOM     84  C   UNL     1       3.187  11.198   1.449  1.00  0.00     0.022 A 
BRANCH  81  85
ATOM     85  S   UNL     1       5.728  12.339   1.311  1.00  0.00     0.124 S 
ATOM     86  O   UNL     1       6.200  12.877   2.582  1.00  0.00    -0.237 OA
ATOM     87  O   UNL     1       6.678  11.520   0.567  1.00  0.00    -0.237 OA
ATOM     88  O   UNL     1       4.931  13.258   0.501  1.00  0.00    -0.744 OA
ENDBRANCH  81  85
ENDBRANCH  54  78
BRANCH  66  89
ATOM     89  C   UNL     1       6.711   9.450   9.731  1.00  0.00     0.023 A 
ATOM     90  C   UNL     1       5.821  10.421  10.220  1.00  0.00     0.031 A 
ATOM     91  C   UNL     1       8.076   9.581  10.044  1.00  0.00     0.131 A 
ATOM     92  C   UNL     1       6.314  11.516  10.942  1.00  0.00     0.055 A 
ATOM     93  C   UNL     1       8.551  10.635  10.824  1.00  0.00     0.041 A 
ATOM     94  F   UNL     1       8.969   8.682   9.600  1.00  0.00    -0.206 F 
ATOM     95  C   UNL     1       7.670  11.618  11.265  1.00  0.00     0.022 A 
BRANCH  92  96
ATOM     96  S   UNL     1       5.174  12.860  11.365  1.00  0.00     0.124 S 
ATOM     97  O   UNL     1       4.701  13.279  10.050  1.00  0.00    -0.237 OA
ATOM     98  O   UNL     1       4.194  12.184  12.209  1.00  0.00    -0.237 OA
ATOM     99  O   UNL     1       6.025  13.826  12.056  1.00  0.00    -0.744 OA
ENDBRANCH  92  96
ENDBRANCH  66  89
ENDBRANCH  40  41
ENDBRANCH  33  35
ENDBRANCH  32  33
ENDBRANCH  31  32
ENDBRANCH   1  31
TORSDOF 19
