REMARK SMILES C[C@H](O)C[C@@H](Cc1cccc(Br)c1)C(=O)OCCOC(=O)c1ccc(-c2c3nc(c(-c4cc(S(=O)(=O)[O-])ccc4F)c4ccc([nH]4)c(-c4cc(S(=O)(=O)[O-])ccc4F)c4nc(c(-c5cc(S(=O)(=O)[O-])ccc5F)c5ccc2[nH]5)C=C4)C=C3)cc1
REMARK SMILES IDX 17 1 16 2 14 3 15 4 5 5 4 6 2 7 1 8 3 9 6 11 7 12 8 13 13 14
REMARK SMILES IDX 9 15 11 16 10 17 12 18 18 19 19 20 20 21 21 22 22 23 23 24
REMARK SMILES IDX 84 25 24 26 83 27 25 28 26 29 27 30 77 31 28 32 82 33 76 34
REMARK SMILES IDX 78 35 29 36 81 37 75 38 74 39 30 41 62 42 42 43 61 44 43 45
REMARK SMILES IDX 46 46 60 47 79 48 44 49 45 50 59 52 80 53 47 54 31 55 32 56
REMARK SMILES IDX 40 57 33 58 39 59 41 60 38 61 34 62 35 63 36 64 37 65 63 66
REMARK SMILES IDX 64 67 72 68 65 69 71 70 73 71 70 72 66 73 67 74 68 75 69 76
REMARK SMILES IDX 48 77 49 78 57 79 50 80 56 81 58 82 55 83 51 84 52 85 53 86
REMARK SMILES IDX 54 87
REMARK H PARENT 3 10 78 40 46 51
REMARK Flexibility Score: inf
ROOT
ATOM      1  C   UNL     1      -4.971  -0.496  -1.969  1.00  0.00     0.274 C 
ENDROOT
BRANCH   1   2
ATOM      2  O   UNL     1      -3.542  -0.664  -1.897  1.00  0.00    -0.462 OA
BRANCH   2   3
ATOM      3  C   UNL     1      -2.797   0.469  -1.985  1.00  0.00     0.309 C 
ATOM      4  O   UNL     1      -3.259   1.595  -2.136  1.00  0.00    -0.252 OA
BRANCH   3   5
ATOM      5  C   UNL     1      -1.300   0.203  -1.945  1.00  0.00     0.106 C 
BRANCH   5   6
ATOM      6  C   UNL     1      -0.906  -1.010  -1.075  1.00  0.00     0.047 C 
BRANCH   6   7
ATOM      7  C   UNL     1       0.608  -1.186  -0.913  1.00  0.00     0.112 C 
ATOM      8  C   UNL     1       0.955  -2.387  -0.043  1.00  0.00     0.038 C 
BRANCH   7   9
ATOM      9  O   UNL     1       1.170  -0.006  -0.352  1.00  0.00    -0.393 OA
ATOM     10  H   UNL     1       0.792   0.146   0.528  1.00  0.00     0.210 HD
ENDBRANCH   7   9
ENDBRANCH   6   7
ENDBRANCH   5   6
BRANCH   5  11
ATOM     11  C   UNL     1      -0.739   0.223  -3.376  1.00  0.00     0.051 C 
BRANCH  11  12
ATOM     12  C   UNL     1      -1.284  -0.828  -4.317  1.00  0.00    -0.046 A 
ATOM     13  C   UNL     1      -0.893  -2.170  -4.216  1.00  0.00     0.004 A 
ATOM     14  C   UNL     1      -2.191  -0.464  -5.324  1.00  0.00     0.019 A 
ATOM     15  C   UNL     1      -1.417  -3.134  -5.079  1.00  0.00     0.001 A 
ATOM     16  C   UNL     1      -2.696  -1.429  -6.196  1.00  0.00     0.018 A 
ATOM     17  C   UNL     1      -2.319  -2.764  -6.073  1.00  0.00     0.016 A 
ATOM     18  Br  UNL     1      -3.898  -0.919  -7.563  1.00  0.00    -0.051 Br
ENDBRANCH  11  12
ENDBRANCH   5  11
ENDBRANCH   3   5
ENDBRANCH   2   3
ENDBRANCH   1   2
BRANCH   1  19
ATOM     19  C   UNL     1      -5.629  -0.656  -0.597  1.00  0.00     0.275 C 
BRANCH  19  20
ATOM     20  O   UNL     1      -5.192   0.363   0.320  1.00  0.00    -0.458 OA
BRANCH  20  21
ATOM     21  C   UNL     1      -4.144   0.001   1.096  1.00  0.00     0.338 C 
ATOM     22  O   UNL     1      -3.597  -1.088   1.132  1.00  0.00    -0.246 OA
BRANCH  21  23
ATOM     23  C   UNL     1      -3.640   1.162   1.843  1.00  0.00     0.060 A 
ATOM     24  C   UNL     1      -2.354   1.618   1.544  1.00  0.00     0.016 A 
ATOM     25  C   UNL     1      -4.353   1.699   2.916  1.00  0.00     0.016 A 
ATOM     26  C   UNL     1      -1.747   2.575   2.349  1.00  0.00     0.010 A 
ATOM     27  C   UNL     1      -3.746   2.673   3.718  1.00  0.00     0.010 A 
ATOM     28  C   UNL     1      -2.426   3.086   3.461  1.00  0.00    -0.014 A 
BRANCH  28  29
ATOM     29  C   UNL     1      -1.687   3.949   4.415  1.00  0.00     0.031 A 
ATOM     30  C   UNL     1      -1.228   3.369   5.726  1.00  0.00     0.074 A 
ATOM     31  C   UNL     1      -1.364   5.210   4.079  1.00  0.00     0.049 A 
ATOM     32  N   UNL     1      -0.577   3.940   6.706  1.00  0.00    -0.248 NA
ATOM     33  C   UNL     1      -1.550   1.954   5.962  1.00  0.00     0.031 C 
ATOM     34  C   UNL     1      -1.708   5.859   2.813  1.00  0.00     0.029 A 
ATOM     35  N   UNL     1      -0.663   6.167   4.767  1.00  0.00    -0.354 N 
ATOM     36  C   UNL     1      -0.428   2.963   7.684  1.00  0.00     0.074 A 
ATOM     37  C   UNL     1      -1.083   1.771   7.188  1.00  0.00     0.031 C 
ATOM     38  C   UNL     1      -1.206   7.105   2.811  1.00  0.00     0.029 A 
ATOM     39  C   UNL     1      -0.542   7.356   4.087  1.00  0.00     0.049 A 
ATOM     40  H   UNL     1      -0.282   6.017   5.662  1.00  0.00     0.167 HD
ATOM     41  C   UNL     1       0.202   3.051   8.883  1.00  0.00     0.034 A 
ATOM     42  C   UNL     1       0.027   8.520   4.461  1.00  0.00     0.034 A 
ATOM     43  C   UNL     1       0.856   4.246   9.359  1.00  0.00     0.049 A 
ATOM     44  C   UNL     1       0.683   8.607   5.816  1.00  0.00     0.074 A 
ATOM     45  C   UNL     1       1.518   4.452  10.557  1.00  0.00     0.029 A 
ATOM     46  N   UNL     1       0.932   5.443   8.656  1.00  0.00    -0.354 N 
ATOM     47  N   UNL     1       0.796   7.682   6.742  1.00  0.00    -0.248 NA
ATOM     48  C   UNL     1       1.297   9.893   6.169  1.00  0.00     0.031 C 
ATOM     49  C   UNL     1       1.945   5.785  10.602  1.00  0.00     0.029 A 
ATOM     50  C   UNL     1       1.611   6.394   9.403  1.00  0.00     0.049 A 
ATOM     51  H   UNL     1       0.558   5.594   7.758  1.00  0.00     0.167 HD
ATOM     52  C   UNL     1       1.521   8.269   7.776  1.00  0.00     0.074 A 
ATOM     53  C   UNL     1       1.829   9.619   7.351  1.00  0.00     0.031 C 
ATOM     54  C   UNL     1       1.902   7.739   8.967  1.00  0.00     0.034 A 
BRANCH  41  55
ATOM     55  C   UNL     1       0.148   1.837   9.778  1.00  0.00     0.023 A 
ATOM     56  C   UNL     1       0.765   0.623   9.425  1.00  0.00     0.031 A 
ATOM     57  C   UNL     1      -0.580   1.879  10.981  1.00  0.00     0.131 A 
ATOM     58  C   UNL     1       0.579  -0.515  10.225  1.00  0.00     0.055 A 
ATOM     59  C   UNL     1      -0.696   0.763  11.812  1.00  0.00     0.041 A 
ATOM     60  F   UNL     1      -1.210   3.002  11.359  1.00  0.00    -0.206 F 
ATOM     61  C   UNL     1      -0.128  -0.448  11.428  1.00  0.00     0.022 A 
BRANCH  58  62
ATOM     62  S   UNL     1       1.144  -2.120   9.595  1.00  0.00     0.124 S 
ATOM     63  O   UNL     1       0.406  -2.222   8.339  1.00  0.00    -0.237 OA
ATOM     64  O   UNL     1       2.584  -1.923   9.476  1.00  0.00    -0.237 OA
ATOM     65  O   UNL     1       0.727  -3.062  10.632  1.00  0.00    -0.744 OA
ENDBRANCH  58  62
ENDBRANCH  41  55
BRANCH  42  66
ATOM     66  C   UNL     1      -0.022   9.706   3.561  1.00  0.00     0.023 A 
ATOM     67  C   UNL     1       1.150  10.258   3.020  1.00  0.00     0.031 A 
ATOM     68  C   UNL     1      -1.245  10.336   3.269  1.00  0.00     0.131 A 
ATOM     69  C   UNL     1       1.079  11.430   2.251  1.00  0.00     0.055 A 
ATOM     70  C   UNL     1      -1.316  11.472   2.463  1.00  0.00     0.041 A 
ATOM     71  F   UNL     1      -2.395   9.847   3.761  1.00  0.00    -0.206 F 
ATOM     72  C   UNL     1      -0.147  12.034   1.959  1.00  0.00     0.022 A 
BRANCH  69  73
ATOM     73  S   UNL     1       2.624  12.203   1.699  1.00  0.00     0.124 S 
ATOM     74  O   UNL     1       3.303  12.450   2.966  1.00  0.00    -0.237 OA
ATOM     75  O   UNL     1       3.200  11.161   0.856  1.00  0.00    -0.237 OA
ATOM     76  O   UNL     1       2.173  13.398   0.989  1.00  0.00    -0.744 OA
ENDBRANCH  69  73
ENDBRANCH  42  66
BRANCH  54  77
ATOM     77  C   UNL     1       2.741   8.617   9.863  1.00  0.00     0.023 A 
ATOM     78  C   UNL     1       2.219   9.773  10.467  1.00  0.00     0.031 A 
ATOM     79  C   UNL     1       4.094   8.304  10.087  1.00  0.00     0.131 A 
ATOM     80  C   UNL     1       3.060  10.610  11.217  1.00  0.00     0.055 A 
ATOM     81  C   UNL     1       4.912   9.111  10.879  1.00  0.00     0.041 A 
ATOM     82  F   UNL     1       4.643   7.212   9.534  1.00  0.00    -0.206 F 
ATOM     83  C   UNL     1       4.400  10.279  11.437  1.00  0.00     0.022 A 
BRANCH  80  84
ATOM     84  S   UNL     1       2.406  12.193  11.815  1.00  0.00     0.124 S 
ATOM     85  O   UNL     1       1.935  12.815  10.582  1.00  0.00    -0.237 OA
ATOM     86  O   UNL     1       1.370  11.767  12.751  1.00  0.00    -0.237 OA
ATOM     87  O   UNL     1       3.568  12.834  12.428  1.00  0.00    -0.744 OA
ENDBRANCH  80  84
ENDBRANCH  54  77
ENDBRANCH  28  29
ENDBRANCH  21  23
ENDBRANCH  20  21
ENDBRANCH  19  20
ENDBRANCH   1  19
TORSDOF 19
