REMARK SMILES O=C(OCCOC(=O)[C@@H]1CCCCN1c1ccccc1[N+](=O)[O-])c1ccc(-c2c3nc(c(-c4cc(S(=O)(=O)[O-])ccc4F)c4ccc([nH]4)c(-c4cc(S(=O)(=O)[O-])ccc4F)c4nc(c(-c5cc(S(=O)(=O)[O-])ccc5F)c5ccc2[nH]5)C=C4)C=C3)cc1
REMARK SMILES IDX 4 1 3 2 2 3 1 4 24 5 25 6 86 7 26 8 85 9 27 10 28 11 29 12
REMARK SMILES IDX 79 13 30 14 84 15 78 16 80 17 31 18 83 19 77 20 76 21 32 23
REMARK SMILES IDX 64 24 44 25 63 26 45 27 48 28 62 29 81 30 46 31 47 32 61 34
REMARK SMILES IDX 82 35 49 36 33 37 34 38 42 39 35 40 41 41 43 42 40 43 36 44
REMARK SMILES IDX 37 45 38 46 39 47 65 48 66 49 74 50 67 51 73 52 75 53 72 54
REMARK SMILES IDX 68 55 69 56 70 57 71 58 50 59 51 60 59 61 52 62 58 63 60 64
REMARK SMILES IDX 57 65 53 66 54 67 55 68 56 69 5 70 6 71 7 72 8 73 9 74 10 75
REMARK SMILES IDX 14 76 11 77 13 78 12 79 15 80 16 81 20 82 17 83 19 84 18 85
REMARK SMILES IDX 21 86 22 87 23 88
REMARK H PARENT 80 22 48 33
REMARK Flexibility Score: inf
ROOT
ATOM      1  C   UNL     1       3.714  -0.790  -1.733  1.00  0.00     0.275 C 
ENDROOT
BRANCH   1   2
ATOM      2  O   UNL     1       2.458  -1.031  -1.081  1.00  0.00    -0.458 OA
BRANCH   2   3
ATOM      3  C   UNL     1       2.027  -0.502   0.086  1.00  0.00     0.338 C 
ATOM      4  O   UNL     1       0.957  -0.869   0.562  1.00  0.00    -0.246 OA
BRANCH   3   5
ATOM      5  C   UNL     1       2.765   0.575   0.800  1.00  0.00     0.060 A 
ATOM      6  C   UNL     1       4.314   1.416   0.260  1.00  0.00     0.016 A 
ATOM      7  C   UNL     1       2.013   1.075   2.388  1.00  0.00     0.016 A 
ATOM      8  C   UNL     1       5.104   2.697   1.300  1.00  0.00     0.010 A 
ATOM      9  C   UNL     1       2.976   2.158   3.542  1.00  0.00     0.010 A 
ATOM     10  C   UNL     1       4.508   2.985   2.974  1.00  0.00    -0.014 A 
BRANCH  10  11
ATOM     11  C   UNL     1       5.402   3.810   3.851  1.00  0.00     0.031 A 
ATOM     12  C   UNL     1       5.894   3.265   5.169  1.00  0.00     0.074 A 
ATOM     13  C   UNL     1       5.890   4.987   3.404  1.00  0.00     0.049 A 
ATOM     14  N   UNL     1       6.694   3.784   6.066  1.00  0.00    -0.248 NA
ATOM     15  C   UNL     1       5.457   1.917   5.511  1.00  0.00     0.031 C 
ATOM     16  C   UNL     1       5.650   5.575   2.086  1.00  0.00     0.029 A 
ATOM     17  N   UNL     1       6.689   5.925   4.011  1.00  0.00    -0.354 N 
ATOM     18  C   UNL     1       6.847   2.806   7.054  1.00  0.00     0.074 A 
ATOM     19  C   UNL     1       6.015   1.695   6.684  1.00  0.00     0.031 C 
ATOM     20  C   UNL     1       6.211   6.785   2.002  1.00  0.00     0.029 A 
ATOM     21  C   UNL     1       6.848   7.076   3.270  1.00  0.00     0.049 A 
ATOM     22  H   UNL     1       7.108   5.787   4.891  1.00  0.00     0.167 HD
ATOM     23  C   UNL     1       7.623   2.820   8.165  1.00  0.00     0.034 A 
ATOM     24  C   UNL     1       7.420   8.252   3.576  1.00  0.00     0.034 A 
ATOM     25  C   UNL     1       8.398   3.972   8.539  1.00  0.00     0.049 A 
ATOM     26  C   UNL     1       8.139   8.334   4.886  1.00  0.00     0.074 A 
ATOM     27  C   UNL     1       9.170   4.179   9.665  1.00  0.00     0.029 A 
ATOM     28  N   UNL     1       8.467   5.138   7.782  1.00  0.00    -0.354 N 
ATOM     29  N   UNL     1       8.254   7.412   5.816  1.00  0.00    -0.248 NA
ATOM     30  C   UNL     1       8.848   9.581   5.167  1.00  0.00     0.031 C 
ATOM     31  C   UNL     1       9.633   5.500   9.630  1.00  0.00     0.029 A 
ATOM     32  C   UNL     1       9.233   6.083   8.436  1.00  0.00     0.049 A 
ATOM     33  H   UNL     1       8.032   5.270   6.909  1.00  0.00     0.167 HD
ATOM     34  C   UNL     1       9.100   7.948   6.774  1.00  0.00     0.074 A 
ATOM     35  C   UNL     1       9.463   9.273   6.300  1.00  0.00     0.031 C 
ATOM     36  C   UNL     1       9.553   7.397   7.930  1.00  0.00     0.034 A 
BRANCH  23  37
ATOM     37  C   UNL     1       7.563   1.603   9.068  1.00  0.00     0.023 A 
ATOM     38  C   UNL     1       7.967   0.323   8.634  1.00  0.00     0.031 A 
ATOM     39  C   UNL     1       6.993   1.706  10.349  1.00  0.00     0.131 A 
ATOM     40  C   UNL     1       7.715  -0.806   9.436  1.00  0.00     0.055 A 
ATOM     41  C   UNL     1       6.819   0.591  11.174  1.00  0.00     0.041 A 
ATOM     42  F   UNL     1       6.559   2.889  10.811  1.00  0.00    -0.206 F 
ATOM     43  C   UNL     1       7.163  -0.676  10.712  1.00  0.00     0.022 A 
BRANCH  40  44
ATOM     44  S   UNL     1       7.975  -2.461   8.731  1.00  0.00     0.124 S 
ATOM     45  O   UNL     1       7.080  -2.443   7.576  1.00  0.00    -0.237 OA
ATOM     46  O   UNL     1       9.402  -2.457   8.428  1.00  0.00    -0.237 OA
ATOM     47  O   UNL     1       7.571  -3.362   9.809  1.00  0.00    -0.744 OA
ENDBRANCH  40  44
ENDBRANCH  23  37
BRANCH  24  48
ATOM     48  C   UNL     1       7.336   9.398   2.623  1.00  0.00     0.023 A 
ATOM     49  C   UNL     1       8.477   9.916   1.994  1.00  0.00     0.031 A 
ATOM     50  C   UNL     1       6.090   9.975   2.300  1.00  0.00     0.131 A 
ATOM     51  C   UNL     1       8.357  10.991   1.098  1.00  0.00     0.055 A 
ATOM     52  C   UNL     1       5.971  11.015   1.376  1.00  0.00     0.041 A 
ATOM     53  F   UNL     1       4.961   9.506   2.855  1.00  0.00    -0.206 F 
ATOM     54  C   UNL     1       7.112  11.537   0.777  1.00  0.00     0.022 A 
BRANCH  51  55
ATOM     55  S   UNL     1       9.867  11.709   0.396  1.00  0.00     0.124 S 
ATOM     56  O   UNL     1      10.646  12.002   1.593  1.00  0.00    -0.237 OA
ATOM     57  O   UNL     1      10.356  10.617  -0.440  1.00  0.00    -0.237 OA
ATOM     58  O   UNL     1       9.379  12.879  -0.333  1.00  0.00    -0.744 OA
ENDBRANCH  51  55
ENDBRANCH  24  48
BRANCH  36  59
ATOM     59  C   UNL     1      10.528   8.224   8.715  1.00  0.00     0.023 A 
ATOM     60  C   UNL     1      10.149   9.446   9.289  1.00  0.00     0.031 A 
ATOM     61  C   UNL     1      11.863   7.804   8.845  1.00  0.00     0.131 A 
ATOM     62  C   UNL     1      11.120  10.257   9.884  1.00  0.00     0.055 A 
ATOM     63  C   UNL     1      12.806   8.576   9.519  1.00  0.00     0.041 A 
ATOM     64  F   UNL     1      12.271   6.643   8.308  1.00  0.00    -0.206 F 
ATOM     65  C   UNL     1      12.441   9.821  10.024  1.00  0.00     0.022 A 
BRANCH  62  66
ATOM     66  S   UNL     1      10.661  11.952  10.324  1.00  0.00     0.124 S 
ATOM     67  O   UNL     1      10.212  12.483   9.041  1.00  0.00    -0.237 OA
ATOM     68  O   UNL     1       9.620  11.743  11.326  1.00  0.00    -0.237 OA
ATOM     69  O   UNL     1      11.907  12.522  10.831  1.00  0.00    -0.744 OA
ENDBRANCH  62  66
ENDBRANCH  36  59
ENDBRANCH  10  11
ENDBRANCH   3   5
ENDBRANCH   2   3
ENDBRANCH   1   2
BRANCH   1  70
ATOM     70  C   UNL     1       3.648   0.397  -2.721  1.00  0.00     0.274 C 
BRANCH  70  71
ATOM     71  O   UNL     1       3.523   1.693  -2.090  1.00  0.00    -0.461 OA
BRANCH  71  72
ATOM     72  C   UNL     1       2.352   1.945  -1.442  1.00  0.00     0.328 C 
ATOM     73  O   UNL     1       1.275   1.524  -1.856  1.00  0.00    -0.250 OA
BRANCH  72  74
ATOM     74  C   UNL     1       2.492   2.836  -0.155  1.00  0.00     0.192 C 
ATOM     75  C   UNL     1       2.889   4.249  -0.600  1.00  0.00     0.037 C 
ATOM     76  N   UNL     1       3.133   2.449   1.517  1.00  0.00    -0.353 N 
ATOM     77  C   UNL     1       2.070   5.281   0.141  1.00  0.00     0.005 C 
ATOM     78  C   UNL     1       2.095   3.740   2.219  1.00  0.00     0.118 C 
ATOM     79  C   UNL     1       2.254   5.144   1.626  1.00  0.00     0.022 C 
BRANCH  76  80
ATOM     80  C   UNL     1       4.165   0.931   2.325  1.00  0.00     0.116 A 
ATOM     81  C   UNL     1       5.645   0.509   1.950  1.00  0.00     0.033 A 
ATOM     82  C   UNL     1       3.773  -0.245   3.362  1.00  0.00     0.292 A 
ATOM     83  C   UNL     1       6.404  -0.623   2.341  1.00  0.00     0.003 A 
ATOM     84  C   UNL     1       4.622  -1.372   3.694  1.00  0.00     0.088 A 
ATOM     85  C   UNL     1       5.891  -1.564   3.189  1.00  0.00     0.007 A 
BRANCH  82  86
ATOM     86  N   UNL     1       2.608  -0.429   4.293  1.00  0.00     0.064 N 
ATOM     87  O   UNL     1       2.668   0.107   5.411  1.00  0.00    -0.258 OA
ATOM     88  O   UNL     1       1.737  -1.247   3.955  1.00  0.00    -0.258 OA
ENDBRANCH  82  86
ENDBRANCH  76  80
ENDBRANCH  72  74
ENDBRANCH  71  72
ENDBRANCH  70  71
ENDBRANCH   1  70
TORSDOF 16
