REMARK SMILES COc1cc(C=C2C(=O)N(C)C(=S)N(C)C2=O)c(Br)cc1OCC(=O)OCCOC(=O)c1ccc(-c2c3nc(c(-c4cc(S(=O)(=O)[O-])ccc4F)c4ccc([nH]4)c(-c4cc(S(=O)(=O)[O-])ccc4F)c4nc(c(-c5cc(S(=O)(=O)[O-])ccc5F)c5ccc2[nH]5)C=C4)C=C3)cc1
REMARK SMILES IDX 27 1 26 2 24 3 25 4 23 5 22 6 21 7 3 8 4 9 5 10 20 11 18 12
REMARK SMILES IDX 19 13 2 14 1 15 6 16 7 17 8 18 16 19 9 20 10 21 14 22 17 23
REMARK SMILES IDX 11 24 12 25 15 26 13 27 28 28 29 29 30 30 31 31 32 32 33 33
REMARK SMILES IDX 94 34 34 35 93 36 35 37 36 38 37 39 87 40 38 41 92 42 86 43
REMARK SMILES IDX 88 44 39 45 91 46 85 47 84 48 40 50 72 51 52 52 71 53 53 54
REMARK SMILES IDX 56 55 70 56 89 57 54 58 55 59 69 61 90 62 57 63 41 64 42 65
REMARK SMILES IDX 50 66 43 67 49 68 51 69 48 70 44 71 45 72 46 73 47 74 73 75
REMARK SMILES IDX 74 76 82 77 75 78 81 79 83 80 80 81 76 82 77 83 78 84 79 85
REMARK SMILES IDX 58 86 59 87 67 88 60 89 66 90 68 91 65 92 61 93 62 94 63 95
REMARK SMILES IDX 64 96
REMARK H PARENT 88 49 56 60
REMARK Flexibility Score: inf
ROOT
ATOM      1  C   UNL     1      -0.735  -4.301   2.394  1.00  0.00     0.274 C 
ENDROOT
BRANCH   1   2
ATOM      2  O   UNL     1      -0.989  -3.950   1.018  1.00  0.00    -0.460 OA
BRANCH   2   3
ATOM      3  C   UNL     1      -1.632  -2.764   0.826  1.00  0.00     0.344 C 
ATOM      4  O   UNL     1      -1.964  -2.008   1.735  1.00  0.00    -0.248 OA
BRANCH   3   5
ATOM      5  C   UNL     1      -2.038  -2.514  -0.629  1.00  0.00     0.352 C 
BRANCH   5   6
ATOM      6  O   UNL     1      -1.509  -3.279  -1.694  1.00  0.00    -0.478 OA
BRANCH   6   7
ATOM      7  C   UNL     1      -0.223  -3.083  -2.112  1.00  0.00     0.163 A 
ATOM      8  C   UNL     1       0.558  -1.928  -2.040  1.00  0.00     0.161 A 
ATOM      9  C   UNL     1       1.910  -1.978  -2.435  1.00  0.00     0.059 A 
ATOM     10  C   UNL     1       2.498  -3.136  -2.954  1.00  0.00    -0.006 A 
ATOM     11  C   UNL     1       0.307  -4.197  -2.768  1.00  0.00     0.066 A 
ATOM     12  C   UNL     1       1.641  -4.223  -3.196  1.00  0.00     0.029 A 
ATOM     13  Br  UNL     1       2.201  -5.800  -4.108  1.00  0.00    -0.050 Br
BRANCH   8  14
ATOM     14  O   UNL     1      -0.019  -0.763  -1.610  1.00  0.00    -0.493 OA
ATOM     15  C   UNL     1       0.504   0.422  -2.215  1.00  0.00     0.278 C 
ENDBRANCH   8  14
BRANCH  10  16
ATOM     16  C   UNL     1       3.942  -3.189  -3.287  1.00  0.00     0.029 C 
ATOM     17  C   UNL     1       5.026  -2.878  -2.537  1.00  0.00     0.106 C 
ATOM     18  C   UNL     1       4.995  -2.245  -1.209  1.00  0.00     0.265 C 
ATOM     19  C   UNL     1       6.341  -3.345  -3.041  1.00  0.00     0.265 C 
ATOM     20  O   UNL     1       4.281  -1.284  -0.943  1.00  0.00    -0.268 OA
ATOM     21  N   UNL     1       5.933  -2.740  -0.317  1.00  0.00    -0.288 N 
ATOM     22  N   UNL     1       7.364  -3.409  -2.087  1.00  0.00    -0.288 N 
ATOM     23  O   UNL     1       6.478  -3.731  -4.200  1.00  0.00    -0.268 OA
ATOM     24  C   UNL     1       5.576  -2.559   1.083  1.00  0.00     0.156 C 
ATOM     25  C   UNL     1       7.207  -3.160  -0.707  1.00  0.00     0.185 C 
ATOM     26  C   UNL     1       8.653  -3.891  -2.588  1.00  0.00     0.156 C 
ATOM     27  S   UNL     1       8.474  -3.345   0.413  1.00  0.00    -0.040 S 
ENDBRANCH  10  16
ENDBRANCH   6   7
ENDBRANCH   5   6
ENDBRANCH   3   5
ENDBRANCH   2   3
ENDBRANCH   1   2
BRANCH   1  28
ATOM     28  C   UNL     1       0.672  -3.918   2.849  1.00  0.00     0.275 C 
BRANCH  28  29
ATOM     29  O   UNL     1       0.875  -2.495   2.781  1.00  0.00    -0.458 OA
BRANCH  29  30
ATOM     30  C   UNL     1       1.580  -2.096   1.701  1.00  0.00     0.338 C 
ATOM     31  O   UNL     1       2.075  -2.834   0.852  1.00  0.00    -0.246 OA
BRANCH  30  32
ATOM     32  C   UNL     1       1.747  -0.637   1.664  1.00  0.00     0.060 A 
ATOM     33  C   UNL     1       0.698   0.180   1.251  1.00  0.00     0.016 A 
ATOM     34  C   UNL     1       3.030  -0.108   1.810  1.00  0.00     0.016 A 
ATOM     35  C   UNL     1       0.969   1.492   0.855  1.00  0.00     0.010 A 
ATOM     36  C   UNL     1       3.296   1.208   1.433  1.00  0.00     0.010 A 
ATOM     37  C   UNL     1       2.278   2.006   0.899  1.00  0.00    -0.014 A 
BRANCH  37  38
ATOM     38  C   UNL     1       2.587   3.384   0.438  1.00  0.00     0.031 A 
ATOM     39  C   UNL     1       3.506   3.641  -0.733  1.00  0.00     0.074 A 
ATOM     40  C   UNL     1       2.065   4.416   1.125  1.00  0.00     0.049 A 
ATOM     41  N   UNL     1       3.978   4.781  -1.175  1.00  0.00    -0.248 NA
ATOM     42  C   UNL     1       3.944   2.474  -1.514  1.00  0.00     0.031 C 
ATOM     43  C   UNL     1       1.144   4.289   2.256  1.00  0.00     0.029 A 
ATOM     44  N   UNL     1       2.251   5.768   0.994  1.00  0.00    -0.354 N 
ATOM     45  C   UNL     1       4.769   4.474  -2.280  1.00  0.00     0.074 A 
ATOM     46  C   UNL     1       4.718   3.034  -2.437  1.00  0.00     0.031 C 
ATOM     47  C   UNL     1       0.850   5.511   2.720  1.00  0.00     0.029 A 
ATOM     48  C   UNL     1       1.627   6.496   1.978  1.00  0.00     0.049 A 
ATOM     49  H   UNL     1       2.777   6.175   0.269  1.00  0.00     0.167 HD
ATOM     50  C   UNL     1       5.477   5.316  -3.076  1.00  0.00     0.034 A 
ATOM     51  C   UNL     1       1.714   7.801   2.296  1.00  0.00     0.034 A 
ATOM     52  C   UNL     1       5.544   6.749  -2.878  1.00  0.00     0.049 A 
ATOM     53  C   UNL     1       2.588   8.695   1.465  1.00  0.00     0.074 A 
ATOM     54  C   UNL     1       6.220   7.693  -3.635  1.00  0.00     0.029 A 
ATOM     55  N   UNL     1       4.934   7.443  -1.841  1.00  0.00    -0.354 N 
ATOM     56  N   UNL     1       3.335   8.389   0.430  1.00  0.00    -0.248 NA
ATOM     57  C   UNL     1       2.627  10.112   1.844  1.00  0.00     0.031 C 
ATOM     58  C   UNL     1       6.085   8.939  -3.011  1.00  0.00     0.029 A 
ATOM     59  C   UNL     1       5.251   8.793  -1.916  1.00  0.00     0.049 A 
ATOM     60  H   UNL     1       4.360   7.036  -1.152  1.00  0.00     0.167 HD
ATOM     61  C   UNL     1       3.913   9.585   0.017  1.00  0.00     0.074 A 
ATOM     62  C   UNL     1       3.415  10.615   0.906  1.00  0.00     0.031 C 
ATOM     63  C   UNL     1       4.773   9.810  -1.009  1.00  0.00     0.034 A 
BRANCH  50  64
ATOM     64  C   UNL     1       6.291   4.722  -4.205  1.00  0.00     0.023 A 
ATOM     65  C   UNL     1       5.690   4.115  -5.321  1.00  0.00     0.031 A 
ATOM     66  C   UNL     1       7.696   4.816  -4.187  1.00  0.00     0.131 A 
ATOM     67  C   UNL     1       6.491   3.603  -6.358  1.00  0.00     0.055 A 
ATOM     68  C   UNL     1       8.483   4.361  -5.247  1.00  0.00     0.041 A 
ATOM     69  F   UNL     1       8.329   5.370  -3.140  1.00  0.00    -0.206 F 
ATOM     70  C   UNL     1       7.881   3.744  -6.339  1.00  0.00     0.022 A 
BRANCH  67  71
ATOM     71  S   UNL     1       5.698   2.668  -7.696  1.00  0.00     0.124 S 
ATOM     72  O   UNL     1       5.022   1.606  -6.956  1.00  0.00    -0.237 OA
ATOM     73  O   UNL     1       4.835   3.670  -8.311  1.00  0.00    -0.237 OA
ATOM     74  O   UNL     1       6.823   2.226  -8.518  1.00  0.00    -0.744 OA
ENDBRANCH  67  71
ENDBRANCH  50  64
BRANCH  51  75
ATOM     75  C   UNL     1       0.995   8.315   3.493  1.00  0.00     0.023 A 
ATOM     76  C   UNL     1      -0.037   9.254   3.366  1.00  0.00     0.031 A 
ATOM     77  C   UNL     1       1.334   7.871   4.785  1.00  0.00     0.131 A 
ATOM     78  C   UNL     1      -0.674   9.745   4.514  1.00  0.00     0.055 A 
ATOM     79  C   UNL     1       0.656   8.316   5.918  1.00  0.00     0.041 A 
ATOM     80  F   UNL     1       2.314   6.969   4.958  1.00  0.00    -0.206 F 
ATOM     81  C   UNL     1      -0.348   9.269   5.787  1.00  0.00     0.022 A 
BRANCH  78  82
ATOM     82  S   UNL     1      -1.885  11.080   4.325  1.00  0.00     0.124 S 
ATOM     83  O   UNL     1      -1.099  12.098   3.638  1.00  0.00    -0.237 OA
ATOM     84  O   UNL     1      -2.927  10.432   3.535  1.00  0.00    -0.237 OA
ATOM     85  O   UNL     1      -2.256  11.399   5.702  1.00  0.00    -0.744 OA
ENDBRANCH  78  82
ENDBRANCH  51  75
BRANCH  63  86
ATOM     86  C   UNL     1       5.186  11.242  -1.241  1.00  0.00     0.023 A 
ATOM     87  C   UNL     1       5.968  11.946  -0.308  1.00  0.00     0.031 A 
ATOM     88  C   UNL     1       4.750  11.927  -2.389  1.00  0.00     0.131 A 
ATOM     89  C   UNL     1       6.229  13.311  -0.504  1.00  0.00     0.055 A 
ATOM     90  C   UNL     1       5.068  13.267  -2.611  1.00  0.00     0.041 A 
ATOM     91  F   UNL     1       3.997  11.305  -3.311  1.00  0.00    -0.206 F 
ATOM     92  C   UNL     1       5.797  13.972  -1.657  1.00  0.00     0.022 A 
BRANCH  89  93
ATOM     93  S   UNL     1       7.044  14.240   0.823  1.00  0.00     0.124 S 
ATOM     94  O   UNL     1       6.129  14.037   1.942  1.00  0.00    -0.237 OA
ATOM     95  O   UNL     1       8.336  13.569   0.926  1.00  0.00    -0.237 OA
ATOM     96  O   UNL     1       7.095  15.606   0.304  1.00  0.00    -0.744 OA
ENDBRANCH  89  93
ENDBRANCH  63  86
ENDBRANCH  37  38
ENDBRANCH  30  32
ENDBRANCH  29  30
ENDBRANCH  28  29
ENDBRANCH   1  28
TORSDOF 18
