REMARK SMILES [NH3+][C@]1(C(=O)OCCOC(=O)c2ccc(-c3c4nc(c(-c5cc(S(=O)(=O)[O-])ccc5F)c5ccc([nH]5)c(-c5cc(S(=O)(=O)[O-])ccc5F)c5nc(c(-c6cc(S(=O)(=O)[O-])ccc6F)c6ccc3[nH]6)C=C5)C=C4)cc2)CCC[C@@H]1CCOc1ccc(CO)cc1
REMARK SMILES IDX 5 1 3 2 4 3 2 4 74 5 77 6 75 7 76 8 1 9 78 13 79 14 80 15
REMARK SMILES IDX 81 16 82 17 88 18 83 19 87 20 84 21 85 22 86 23 6 25 7 26
REMARK SMILES IDX 8 27 9 28 10 29 11 30 12 31 73 32 13 33 72 34 14 35 15 36
REMARK SMILES IDX 16 37 66 38 17 39 71 40 65 41 67 42 18 43 70 44 64 45 63 46
REMARK SMILES IDX 19 48 51 49 31 50 50 51 32 52 35 53 49 54 68 55 33 56 34 57
REMARK SMILES IDX 48 59 69 60 36 61 20 62 21 63 29 64 22 65 28 66 30 67 27 68
REMARK SMILES IDX 23 69 24 70 25 71 26 72 52 73 53 74 61 75 54 76 60 77 62 78
REMARK SMILES IDX 59 79 55 80 56 81 57 82 58 83 37 84 38 85 46 86 39 87 45 88
REMARK SMILES IDX 47 89 44 90 40 91 41 92 42 93 43 94
REMARK H PARENT 1 10 1 11 1 12 86 24 67 47 35 58
REMARK Flexibility Score: inf
ROOT
ATOM      1  O   UNL     1       1.153  -0.280  -1.207  1.00  0.00    -0.457 OA
ENDROOT
BRANCH   1   2
ATOM      2  C   UNL     1       0.232   0.202  -0.320  1.00  0.00     0.368 C 
ATOM      3  O   UNL     1      -0.145  -0.429   0.664  1.00  0.00    -0.245 OA
BRANCH   2   4
ATOM      4  C   UNL     1      -0.359   1.576  -0.745  1.00  0.00     0.195 C 
ATOM      5  C   UNL     1      -1.237   2.092   0.420  1.00  0.00     0.081 C 
ATOM      6  C   UNL     1       0.651   2.750  -0.892  1.00  0.00     0.066 C 
ATOM      7  C   UNL     1      -1.377   3.592   0.231  1.00  0.00     0.008 C 
ATOM      8  C   UNL     1      -0.184   4.017  -0.612  1.00  0.00     0.011 C 
BRANCH   4   9
ATOM      9  N   UNL     1      -1.221   1.393  -1.938  1.00  0.00    -0.343 N 
ATOM     10  H   UNL     1      -1.609   2.293  -2.218  1.00  0.00     0.345 HD
ATOM     11  H   UNL     1      -1.980   0.750  -1.713  1.00  0.00     0.345 HD
ATOM     12  H   UNL     1      -0.665   1.009  -2.703  1.00  0.00     0.345 HD
ENDBRANCH   4   9
BRANCH   6  13
ATOM     13  C   UNL     1       1.427   2.852  -2.227  1.00  0.00     0.052 C 
BRANCH  13  14
ATOM     14  C   UNL     1       2.216   4.170  -2.375  1.00  0.00     0.230 C 
BRANCH  14  15
ATOM     15  O   UNL     1       3.520   3.947  -2.945  1.00  0.00    -0.494 OA
BRANCH  15  16
ATOM     16  C   UNL     1       4.458   4.019  -1.947  1.00  0.00     0.119 A 
ATOM     17  C   UNL     1       4.982   5.244  -1.544  1.00  0.00     0.047 A 
ATOM     18  C   UNL     1       4.828   2.851  -1.300  1.00  0.00     0.047 A 
ATOM     19  C   UNL     1       5.807   5.304  -0.414  1.00  0.00     0.010 A 
ATOM     20  C   UNL     1       5.626   2.913  -0.159  1.00  0.00     0.010 A 
ATOM     21  C   UNL     1       6.118   4.140   0.305  1.00  0.00    -0.022 A 
BRANCH  21  22
ATOM     22  C   UNL     1       6.879   4.216   1.605  1.00  0.00     0.191 C 
BRANCH  22  23
ATOM     23  O   UNL     1       7.752   3.099   1.759  1.00  0.00    -0.392 OA
ATOM     24  H   UNL     1       7.232   2.281   1.766  1.00  0.00     0.211 HD
ENDBRANCH  22  23
ENDBRANCH  21  22
ENDBRANCH  15  16
ENDBRANCH  14  15
ENDBRANCH  13  14
ENDBRANCH   6  13
ENDBRANCH   2   4
ENDBRANCH   1   2
BRANCH   1  25
ATOM     25  C   UNL     1       1.610  -1.623  -0.935  1.00  0.00     0.274 C 
BRANCH  25  26
ATOM     26  C   UNL     1       2.925  -1.694  -0.146  1.00  0.00     0.275 C 
BRANCH  26  27
ATOM     27  O   UNL     1       2.833  -1.134   1.179  1.00  0.00    -0.458 OA
BRANCH  27  28
ATOM     28  C   UNL     1       3.106   0.187   1.202  1.00  0.00     0.338 C 
ATOM     29  O   UNL     1       3.361   0.876   0.228  1.00  0.00    -0.246 OA
BRANCH  28  30
ATOM     30  C   UNL     1       3.012   0.793   2.529  1.00  0.00     0.060 A 
ATOM     31  C   UNL     1       1.766   1.261   2.943  1.00  0.00     0.016 A 
ATOM     32  C   UNL     1       4.174   1.160   3.213  1.00  0.00     0.016 A 
ATOM     33  C   UNL     1       1.682   2.155   4.003  1.00  0.00     0.010 A 
ATOM     34  C   UNL     1       4.080   2.007   4.321  1.00  0.00     0.010 A 
ATOM     35  C   UNL     1       2.836   2.534   4.705  1.00  0.00    -0.014 A 
BRANCH  35  36
ATOM     36  C   UNL     1       2.713   3.443   5.869  1.00  0.00     0.031 A 
ATOM     37  C   UNL     1       3.237   4.851   5.821  1.00  0.00     0.074 A 
ATOM     38  C   UNL     1       2.098   2.982   6.974  1.00  0.00     0.049 A 
ATOM     39  N   UNL     1       3.270   5.749   6.772  1.00  0.00    -0.248 NA
ATOM     40  C   UNL     1       3.798   5.309   4.541  1.00  0.00     0.031 C 
ATOM     41  C   UNL     1       1.535   1.637   7.122  1.00  0.00     0.029 A 
ATOM     42  N   UNL     1       1.843   3.586   8.176  1.00  0.00    -0.354 N 
ATOM     43  C   UNL     1       3.874   6.873   6.218  1.00  0.00     0.074 A 
ATOM     44  C   UNL     1       4.199   6.537   4.846  1.00  0.00     0.031 C 
ATOM     45  C   UNL     1       0.993   1.520   8.342  1.00  0.00     0.029 A 
ATOM     46  C   UNL     1       1.222   2.757   9.079  1.00  0.00     0.049 A 
ATOM     47  H   UNL     1       2.080   4.520   8.374  1.00  0.00     0.167 HD
ATOM     48  C   UNL     1       4.131   8.068   6.807  1.00  0.00     0.034 A 
ATOM     49  C   UNL     1       0.909   2.951  10.373  1.00  0.00     0.034 A 
ATOM     50  C   UNL     1       3.782   8.389   8.171  1.00  0.00     0.049 A 
ATOM     51  C   UNL     1       1.237   4.267  11.009  1.00  0.00     0.074 A 
ATOM     52  C   UNL     1       3.947   9.587   8.847  1.00  0.00     0.029 A 
ATOM     53  N   UNL     1       3.204   7.505   9.074  1.00  0.00    -0.354 N 
ATOM     54  N   UNL     1       1.830   5.311  10.479  1.00  0.00    -0.248 NA
ATOM     55  C   UNL     1       0.860   4.427  12.417  1.00  0.00     0.031 C 
ATOM     56  C   UNL     1       3.517   9.412  10.169  1.00  0.00     0.029 A 
ATOM     57  C   UNL     1       3.035   8.121  10.306  1.00  0.00     0.049 A 
ATOM     58  H   UNL     1       2.950   6.577   8.869  1.00  0.00     0.167 HD
ATOM     59  C   UNL     1       1.911   6.252  11.497  1.00  0.00     0.074 A 
ATOM     60  C   UNL     1       1.280   5.660  12.662  1.00  0.00     0.031 C 
ATOM     61  C   UNL     1       2.457   7.494  11.471  1.00  0.00     0.034 A 
BRANCH  48  62
ATOM     62  C   UNL     1       4.872   9.102   5.997  1.00  0.00     0.023 A 
ATOM     63  C   UNL     1       4.274   9.773   4.916  1.00  0.00     0.031 A 
ATOM     64  C   UNL     1       6.199   9.430   6.328  1.00  0.00     0.131 A 
ATOM     65  C   UNL     1       5.017  10.713   4.182  1.00  0.00     0.055 A 
ATOM     66  C   UNL     1       6.914  10.403   5.627  1.00  0.00     0.041 A 
ATOM     67  F   UNL     1       6.823   8.806   7.339  1.00  0.00    -0.206 F 
ATOM     68  C   UNL     1       6.325  11.046   4.543  1.00  0.00     0.022 A 
BRANCH  65  69
ATOM     69  S   UNL     1       4.279  11.440   2.692  1.00  0.00     0.124 S 
ATOM     70  O   UNL     1       4.070  10.258   1.859  1.00  0.00    -0.237 OA
ATOM     71  O   UNL     1       3.075  12.076   3.213  1.00  0.00    -0.237 OA
ATOM     72  O   UNL     1       5.310  12.357   2.211  1.00  0.00    -0.744 OA
ENDBRANCH  65  69
ENDBRANCH  48  62
BRANCH  49  73
ATOM     73  C   UNL     1       0.323   1.833  11.154  1.00  0.00     0.023 A 
ATOM     74  C   UNL     1      -1.027   1.832  11.527  1.00  0.00     0.031 A 
ATOM     75  C   UNL     1       1.115   0.722  11.497  1.00  0.00     0.131 A 
ATOM     76  C   UNL     1      -1.549   0.736  12.230  1.00  0.00     0.055 A 
ATOM     77  C   UNL     1       0.585  -0.377  12.171  1.00  0.00     0.041 A 
ATOM     78  F   UNL     1       2.410   0.678  11.144  1.00  0.00    -0.206 F 
ATOM     79  C   UNL     1      -0.755  -0.372  12.544  1.00  0.00     0.022 A 
BRANCH  76  80
ATOM     80  S   UNL     1      -3.288   0.778  12.741  1.00  0.00     0.124 S 
ATOM     81  O   UNL     1      -3.316   1.948  13.613  1.00  0.00    -0.237 OA
ATOM     82  O   UNL     1      -3.977   0.915  11.462  1.00  0.00    -0.237 OA
ATOM     83  O   UNL     1      -3.477  -0.505  13.413  1.00  0.00    -0.744 OA
ENDBRANCH  76  80
ENDBRANCH  49  73
BRANCH  61  84
ATOM     84  C   UNL     1       2.391   8.269  12.758  1.00  0.00     0.023 A 
ATOM     85  C   UNL     1       3.188   7.912  13.860  1.00  0.00     0.031 A 
ATOM     86  C   UNL     1       1.480   9.327  12.907  1.00  0.00     0.131 A 
ATOM     87  C   UNL     1       3.016   8.570  15.085  1.00  0.00     0.055 A 
ATOM     88  C   UNL     1       1.345  10.009  14.117  1.00  0.00     0.041 A 
ATOM     89  F   UNL     1       0.693   9.700  11.885  1.00  0.00    -0.206 F 
ATOM     90  C   UNL     1       2.105   9.622  15.219  1.00  0.00     0.022 A 
BRANCH  87  91
ATOM     91  S   UNL     1       3.927   7.966  16.533  1.00  0.00     0.124 S 
ATOM     92  O   UNL     1       3.511   6.568  16.593  1.00  0.00    -0.237 OA
ATOM     93  O   UNL     1       5.314   8.203  16.149  1.00  0.00    -0.237 OA
ATOM     94  O   UNL     1       3.433   8.805  17.623  1.00  0.00    -0.744 OA
ENDBRANCH  87  91
ENDBRANCH  61  84
ENDBRANCH  35  36
ENDBRANCH  28  30
ENDBRANCH  27  28
ENDBRANCH  26  27
ENDBRANCH  25  26
ENDBRANCH   1  25
TORSDOF 21
