REMARK SMILES CC1(C)CC[N@H+](Cc2ccc(F)cc2/C=C/C(=O)OCCOC(=O)c2ccc(-c3c4nc(c(-c5cc(S(=O)(=O)[O-])ccc5F)c5ccc([nH]5)c(-c5cc(S(=O)(=O)[O-])ccc5F)c5nc(c(-c6cc(S(=O)(=O)[O-])ccc6F)c6ccc3[nH]6)C=C5)C=C4)cc2)C1
REMARK SMILES IDX 20 1 19 2 17 3 18 4 16 5 15 6 14 7 8 8 9 9 10 10 13 11 11 12
REMARK SMILES IDX 12 13 7 14 6 15 1 16 2 17 3 18 4 19 88 20 5 21 21 23 22 24
REMARK SMILES IDX 23 25 24 26 25 27 26 28 87 29 27 30 86 31 28 32 29 33 30 34
REMARK SMILES IDX 80 35 31 36 85 37 79 38 81 39 32 40 84 41 78 42 77 43 33 45
REMARK SMILES IDX 65 46 45 47 64 48 46 49 49 50 63 51 82 52 47 53 48 54 62 56
REMARK SMILES IDX 83 57 50 58 34 59 35 60 43 61 36 62 42 63 44 64 41 65 37 66
REMARK SMILES IDX 38 67 39 68 40 69 66 70 67 71 75 72 68 73 74 74 76 75 73 76
REMARK SMILES IDX 69 77 70 78 71 79 72 80 51 81 52 82 60 83 53 84 59 85 61 86
REMARK SMILES IDX 58 87 54 88 55 89 56 90 57 91
REMARK H PARENT 6 22 81 44 49 55
REMARK Flexibility Score: inf
ROOT
ATOM      1  C   UNL     1       1.958   7.349   2.287  1.00  0.00     0.275 C 
ENDROOT
BRANCH   1   2
ATOM      2  O   UNL     1       2.113   5.924   2.424  1.00  0.00    -0.459 OA
BRANCH   2   3
ATOM      3  C   UNL     1       2.861   5.516   3.474  1.00  0.00     0.330 C 
ATOM      4  O   UNL     1       3.477   6.240   4.243  1.00  0.00    -0.247 OA
BRANCH   3   5
ATOM      5  C   UNL     1       2.861   4.050   3.647  1.00  0.00     0.094 C 
ATOM      6  C   UNL     1       2.108   3.169   2.967  1.00  0.00     0.016 C 
BRANCH   6   7
ATOM      7  C   UNL     1       2.136   1.733   3.306  1.00  0.00    -0.014 A 
ATOM      8  C   UNL     1       2.428   0.720   2.361  1.00  0.00     0.014 A 
ATOM      9  C   UNL     1       2.528  -0.613   2.819  1.00  0.00     0.013 A 
ATOM     10  C   UNL     1       2.265  -0.951   4.146  1.00  0.00     0.040 A 
ATOM     11  C   UNL     1       1.855   1.371   4.636  1.00  0.00     0.047 A 
ATOM     12  C   UNL     1       1.915   0.044   5.039  1.00  0.00     0.123 A 
ATOM     13  F   UNL     1       1.648  -0.275   6.311  1.00  0.00    -0.207 F 
BRANCH   8  14
ATOM     14  C   UNL     1       2.645   1.009   0.880  1.00  0.00     0.299 C 
BRANCH  14  15
ATOM     15  N   UNL     1       1.581   0.596  -0.050  1.00  0.00    -0.331 N 
ATOM     16  C   UNL     1      -1.153   0.095  -1.608  1.00  0.00     0.017 C 
ATOM     17  C   UNL     1      -0.744  -0.005  -0.128  1.00  0.00     0.019 C 
ATOM     18  C   UNL     1      -2.002   0.009   0.743  1.00  0.00     0.017 C 
ATOM     19  C   UNL     1       0.099  -1.257   0.119  1.00  0.00     0.073 C 
ATOM     20  C   UNL     1       0.239   1.111   0.267  1.00  0.00     0.269 C 
ATOM     21  C   UNL     1       1.490  -0.837  -0.328  1.00  0.00     0.263 C 
ATOM     22  H   UNL     1       1.909   1.050  -0.902  1.00  0.00     0.348 HD
ENDBRANCH  14  15
ENDBRANCH   8  14
ENDBRANCH   6   7
ENDBRANCH   3   5
ENDBRANCH   2   3
ENDBRANCH   1   2
BRANCH   1  23
ATOM     23  C   UNL     1       0.568   7.807   2.740  1.00  0.00     0.275 C 
BRANCH  23  24
ATOM     24  O   UNL     1       0.367   7.616   4.152  1.00  0.00    -0.458 OA
BRANCH  24  25
ATOM     25  C   UNL     1      -0.158   6.413   4.492  1.00  0.00     0.338 C 
ATOM     26  O   UNL     1      -0.486   5.519   3.729  1.00  0.00    -0.246 OA
BRANCH  25  27
ATOM     27  C   UNL     1      -0.182   6.261   5.959  1.00  0.00     0.060 A 
ATOM     28  C   UNL     1       0.350   5.086   6.497  1.00  0.00     0.016 A 
ATOM     29  C   UNL     1      -0.785   7.209   6.790  1.00  0.00     0.016 A 
ATOM     30  C   UNL     1       0.266   4.844   7.866  1.00  0.00     0.010 A 
ATOM     31  C   UNL     1      -0.868   6.964   8.167  1.00  0.00     0.010 A 
ATOM     32  C   UNL     1      -0.358   5.772   8.711  1.00  0.00    -0.014 A 
BRANCH  32  33
ATOM     33  C   UNL     1      -0.518   5.452  10.152  1.00  0.00     0.031 A 
ATOM     34  C   UNL     1      -1.850   4.989  10.674  1.00  0.00     0.074 A 
ATOM     35  C   UNL     1       0.545   5.517  10.976  1.00  0.00     0.049 A 
ATOM     36  N   UNL     1      -2.190   4.659  11.893  1.00  0.00    -0.248 NA
ATOM     37  C   UNL     1      -2.942   4.882   9.694  1.00  0.00     0.031 C 
ATOM     38  C   UNL     1       1.898   5.906  10.575  1.00  0.00     0.029 A 
ATOM     39  N   UNL     1       0.659   5.241  12.316  1.00  0.00    -0.354 N 
ATOM     40  C   UNL     1      -3.532   4.302  11.830  1.00  0.00     0.074 A 
ATOM     41  C   UNL     1      -3.952   4.487  10.457  1.00  0.00     0.031 C 
ATOM     42  C   UNL     1       2.710   5.822  11.641  1.00  0.00     0.029 A 
ATOM     43  C   UNL     1       1.931   5.415  12.809  1.00  0.00     0.049 A 
ATOM     44  H   UNL     1      -0.098   4.947  12.872  1.00  0.00     0.167 HD
ATOM     45  C   UNL     1      -4.335   3.853  12.825  1.00  0.00     0.034 A 
ATOM     46  C   UNL     1       2.413   5.277  14.061  1.00  0.00     0.034 A 
ATOM     47  C   UNL     1      -3.907   3.666  14.188  1.00  0.00     0.049 A 
ATOM     48  C   UNL     1       1.480   4.860  15.166  1.00  0.00     0.074 A 
ATOM     49  C   UNL     1      -4.643   3.203  15.265  1.00  0.00     0.029 A 
ATOM     50  N   UNL     1      -2.632   3.938  14.665  1.00  0.00    -0.354 N 
ATOM     51  N   UNL     1       0.204   4.559  15.097  1.00  0.00    -0.248 NA
ATOM     52  C   UNL     1       2.045   4.774  16.521  1.00  0.00     0.031 C 
ATOM     53  C   UNL     1      -3.832   3.249  16.403  1.00  0.00     0.029 A 
ATOM     54  C   UNL     1      -2.571   3.684  16.026  1.00  0.00     0.049 A 
ATOM     55  H   UNL     1      -1.882   4.264  14.118  1.00  0.00     0.167 HD
ATOM     56  C   UNL     1      -0.181   4.236  16.393  1.00  0.00     0.074 A 
ATOM     57  C   UNL     1       0.995   4.375  17.227  1.00  0.00     0.031 C 
ATOM     58  C   UNL     1      -1.399   3.850  16.849  1.00  0.00     0.034 A 
BRANCH  45  59
ATOM     59  C   UNL     1      -5.774   3.568  12.485  1.00  0.00     0.023 A 
ATOM     60  C   UNL     1      -6.141   2.473  11.685  1.00  0.00     0.031 A 
ATOM     61  C   UNL     1      -6.794   4.394  12.989  1.00  0.00     0.131 A 
ATOM     62  C   UNL     1      -7.493   2.255  11.380  1.00  0.00     0.055 A 
ATOM     63  C   UNL     1      -8.141   4.138  12.730  1.00  0.00     0.041 A 
ATOM     64  F   UNL     1      -6.495   5.463  13.744  1.00  0.00    -0.206 F 
ATOM     65  C   UNL     1      -8.496   3.067  11.916  1.00  0.00     0.022 A 
BRANCH  62  66
ATOM     66  S   UNL     1      -7.924   0.936  10.213  1.00  0.00     0.124 S 
ATOM     67  O   UNL     1      -7.318   1.427   8.977  1.00  0.00    -0.237 OA
ATOM     68  O   UNL     1      -7.295  -0.236  10.811  1.00  0.00    -0.237 OA
ATOM     69  O   UNL     1      -9.385   0.932  10.224  1.00  0.00    -0.744 OA
ENDBRANCH  62  66
ENDBRANCH  45  59
BRANCH  46  70
ATOM     70  C   UNL     1       3.843   5.577  14.341  1.00  0.00     0.023 A 
ATOM     71  C   UNL     1       4.749   4.559  14.675  1.00  0.00     0.031 A 
ATOM     72  C   UNL     1       4.322   6.898  14.275  1.00  0.00     0.131 A 
ATOM     73  C   UNL     1       6.089   4.882  14.946  1.00  0.00     0.055 A 
ATOM     74  C   UNL     1       5.662   7.209  14.509  1.00  0.00     0.041 A 
ATOM     75  F   UNL     1       3.492   7.905  13.957  1.00  0.00    -0.206 F 
ATOM     76  C   UNL     1       6.553   6.197  14.852  1.00  0.00     0.022 A 
BRANCH  73  77
ATOM     77  S   UNL     1       7.224   3.558  15.445  1.00  0.00     0.124 S 
ATOM     78  O   UNL     1       6.667   3.160  16.733  1.00  0.00    -0.237 OA
ATOM     79  O   UNL     1       7.074   2.598  14.356  1.00  0.00    -0.237 OA
ATOM     80  O   UNL     1       8.522   4.227  15.505  1.00  0.00    -0.744 OA
ENDBRANCH  73  77
ENDBRANCH  46  70
BRANCH  58  81
ATOM     81  C   UNL     1      -1.525   3.531  18.314  1.00  0.00     0.023 A 
ATOM     82  C   UNL     1      -1.569   4.547  19.283  1.00  0.00     0.031 A 
ATOM     83  C   UNL     1      -1.667   2.197  18.735  1.00  0.00     0.131 A 
ATOM     84  C   UNL     1      -1.735   4.210  20.635  1.00  0.00     0.055 A 
ATOM     85  C   UNL     1      -1.869   1.871  20.076  1.00  0.00     0.041 A 
ATOM     86  F   UNL     1      -1.637   1.194  17.844  1.00  0.00    -0.206 F 
ATOM     87  C   UNL     1      -1.903   2.881  21.035  1.00  0.00     0.022 A 
BRANCH  84  88
ATOM     88  S   UNL     1      -1.728   5.533  21.876  1.00  0.00     0.124 S 
ATOM     89  O   UNL     1      -0.340   5.979  21.833  1.00  0.00    -0.237 OA
ATOM     90  O   UNL     1      -2.715   6.470  21.348  1.00  0.00    -0.237 OA
ATOM     91  O   UNL     1      -2.124   4.851  23.107  1.00  0.00    -0.744 OA
ENDBRANCH  84  88
ENDBRANCH  58  81
ENDBRANCH  32  33
ENDBRANCH  25  27
ENDBRANCH  24  25
ENDBRANCH  23  24
ENDBRANCH   1  23
TORSDOF 17
