REMARK SMILES O=C(OCCOC(=O)[C@H]1CSCN1C(=O)c1cnc2ccccn2c1=O)c1ccc(-c2c3nc(c(-c4cc(S(=O)(=O)[O-])ccc4F)c4ccc([nH]4)c(-c4cc(S(=O)(=O)[O-])ccc4F)c4nc(c(-c5cc(S(=O)(=O)[O-])ccc5F)c5ccc2[nH]5)C=C4)C=C3)cc1
REMARK SMILES IDX 4 1 3 2 2 3 1 4 27 5 28 6 89 7 29 8 88 9 30 10 31 11 32 12
REMARK SMILES IDX 82 13 33 14 87 15 81 16 83 17 34 18 86 19 80 20 79 21 35 23
REMARK SMILES IDX 67 24 47 25 66 26 48 27 51 28 65 29 84 30 49 31 50 32 64 34
REMARK SMILES IDX 85 35 52 36 36 37 37 38 45 39 38 40 44 41 46 42 43 43 39 44
REMARK SMILES IDX 40 45 41 46 42 47 68 48 69 49 77 50 70 51 76 52 78 53 75 54
REMARK SMILES IDX 71 55 72 56 73 57 74 58 53 59 54 60 62 61 55 62 61 63 63 64
REMARK SMILES IDX 60 65 56 66 57 67 58 68 59 69 5 70 6 71 7 72 8 73 9 74 10 75
REMARK SMILES IDX 13 76 11 77 12 78 14 79 15 80 16 81 17 82 25 83 18 84 24 85
REMARK SMILES IDX 26 86 19 87 23 88 20 89 22 90 21 91
REMARK H PARENT 83 22 51 33
REMARK Flexibility Score: inf
ROOT
ATOM      1  C   UNL     1       4.070  -1.451   1.158  1.00  0.00     0.275 C 
ENDROOT
BRANCH   1   2
ATOM      2  O   UNL     1       2.791  -0.833   1.402  1.00  0.00    -0.458 OA
BRANCH   2   3
ATOM      3  C   UNL     1       2.328   0.374   0.988  1.00  0.00     0.338 C 
ATOM      4  O   UNL     1       1.310   0.840   1.492  1.00  0.00    -0.246 OA
BRANCH   3   5
ATOM      5  C   UNL     1       2.929   1.114  -0.153  1.00  0.00     0.060 A 
ATOM      6  C   UNL     1       4.410   0.564  -1.080  1.00  0.00     0.016 A 
ATOM      7  C   UNL     1       2.079   2.644  -0.700  1.00  0.00     0.016 A 
ATOM      8  C   UNL     1       5.009   1.501  -2.512  1.00  0.00     0.010 A 
ATOM      9  C   UNL     1       2.763   3.624  -2.132  1.00  0.00     0.010 A 
ATOM     10  C   UNL     1       4.217   3.011  -3.026  1.00  0.00    -0.014 A 
BRANCH  10  11
ATOM     11  C   UNL     1       4.864   3.727  -4.153  1.00  0.00     0.031 A 
ATOM     12  C   UNL     1       5.913   4.762  -3.932  1.00  0.00     0.074 A 
ATOM     13  C   UNL     1       4.800   3.292  -5.419  1.00  0.00     0.049 A 
ATOM     14  N   UNL     1       6.037   5.940  -4.470  1.00  0.00    -0.248 NA
ATOM     15  C   UNL     1       6.984   4.414  -3.002  1.00  0.00     0.031 C 
ATOM     16  C   UNL     1       4.188   2.053  -5.877  1.00  0.00     0.029 A 
ATOM     17  N   UNL     1       5.310   3.864  -6.554  1.00  0.00    -0.354 N 
ATOM     18  C   UNL     1       7.010   6.587  -3.703  1.00  0.00     0.074 A 
ATOM     19  C   UNL     1       7.546   5.602  -2.800  1.00  0.00     0.031 C 
ATOM     20  C   UNL     1       4.334   1.968  -7.211  1.00  0.00     0.029 A 
ATOM     21  C   UNL     1       4.969   3.191  -7.697  1.00  0.00     0.049 A 
ATOM     22  H   UNL     1       5.866   4.676  -6.549  1.00  0.00     0.167 HD
ATOM     23  C   UNL     1       7.315   7.906  -3.792  1.00  0.00     0.034 A 
ATOM     24  C   UNL     1       5.101   3.577  -8.980  1.00  0.00     0.034 A 
ATOM     25  C   UNL     1       7.284   8.520  -5.108  1.00  0.00     0.049 A 
ATOM     26  C   UNL     1       5.712   4.931  -9.252  1.00  0.00     0.074 A 
ATOM     27  C   UNL     1       7.709   9.768  -5.525  1.00  0.00     0.029 A 
ATOM     28  N   UNL     1       6.926   7.824  -6.262  1.00  0.00    -0.354 N 
ATOM     29  N   UNL     1       6.080   5.857  -8.391  1.00  0.00    -0.248 NA
ATOM     30  C   UNL     1       5.926   5.299 -10.655  1.00  0.00     0.031 C 
ATOM     31  C   UNL     1       7.598   9.823  -6.922  1.00  0.00     0.029 A 
ATOM     32  C   UNL     1       7.186   8.580  -7.383  1.00  0.00     0.049 A 
ATOM     33  H   UNL     1       6.541   6.918  -6.274  1.00  0.00     0.167 HD
ATOM     34  C   UNL     1       6.586   6.910  -9.148  1.00  0.00     0.074 A 
ATOM     35  C   UNL     1       6.484   6.498 -10.536  1.00  0.00     0.031 C 
ATOM     36  C   UNL     1       7.088   8.107  -8.744  1.00  0.00     0.034 A 
BRANCH  23  37
ATOM     37  C   UNL     1       7.571   8.739  -2.537  1.00  0.00     0.023 A 
ATOM     38  C   UNL     1       8.356   8.366  -1.434  1.00  0.00     0.031 A 
ATOM     39  C   UNL     1       6.879   9.970  -2.402  1.00  0.00     0.131 A 
ATOM     40  C   UNL     1       8.365   9.137  -0.251  1.00  0.00     0.055 A 
ATOM     41  C   UNL     1       6.971  10.787  -1.267  1.00  0.00     0.041 A 
ATOM     42  F   UNL     1       6.026  10.393  -3.350  1.00  0.00    -0.206 F 
ATOM     43  C   UNL     1       7.698  10.358  -0.169  1.00  0.00     0.022 A 
BRANCH  40  44
ATOM     44  S   UNL     1       9.178   8.464   1.231  1.00  0.00     0.124 S 
ATOM     45  O   UNL     1       8.445   7.222   1.450  1.00  0.00    -0.237 OA
ATOM     46  O   UNL     1      10.559   8.316   0.786  1.00  0.00    -0.237 OA
ATOM     47  O   UNL     1       8.958   9.497   2.242  1.00  0.00    -0.744 OA
ENDBRANCH  40  44
ENDBRANCH  23  37
BRANCH  24  48
ATOM     48  C   UNL     1       4.579   2.698 -10.060  1.00  0.00     0.023 A 
ATOM     49  C   UNL     1       5.438   2.073 -10.975  1.00  0.00     0.031 A 
ATOM     50  C   UNL     1       3.201   2.417 -10.150  1.00  0.00     0.131 A 
ATOM     51  C   UNL     1       4.912   1.202 -11.942  1.00  0.00     0.055 A 
ATOM     52  C   UNL     1       2.689   1.516 -11.084  1.00  0.00     0.041 A 
ATOM     53  F   UNL     1       2.337   2.979  -9.290  1.00  0.00    -0.206 F 
ATOM     54  C   UNL     1       3.547   0.905 -11.991  1.00  0.00     0.022 A 
BRANCH  51  55
ATOM     55  S   UNL     1       6.039   0.476 -13.163  1.00  0.00     0.124 S 
ATOM     56  O   UNL     1       6.603   1.666 -13.791  1.00  0.00    -0.237 OA
ATOM     57  O   UNL     1       6.945  -0.293 -12.316  1.00  0.00    -0.237 OA
ATOM     58  O   UNL     1       5.155  -0.320 -14.011  1.00  0.00    -0.744 OA
ENDBRANCH  51  55
ENDBRANCH  24  48
BRANCH  36  59
ATOM     59  C   UNL     1       7.649   9.012  -9.804  1.00  0.00     0.023 A 
ATOM     60  C   UNL     1       6.819   9.711 -10.690  1.00  0.00     0.031 A 
ATOM     61  C   UNL     1       9.038   9.227  -9.870  1.00  0.00     0.131 A 
ATOM     62  C   UNL     1       7.389  10.578 -11.632  1.00  0.00     0.055 A 
ATOM     63  C   UNL     1       9.595  10.127 -10.775  1.00  0.00     0.041 A 
ATOM     64  F   UNL     1       9.869   8.581  -9.036  1.00  0.00    -0.206 F 
ATOM     65  C   UNL     1       8.769  10.805 -11.667  1.00  0.00     0.022 A 
BRANCH  62  66
ATOM     66  S   UNL     1       6.303  11.372 -12.845  1.00  0.00     0.124 S 
ATOM     67  O   UNL     1       5.735  10.221 -13.539  1.00  0.00    -0.237 OA
ATOM     68  O   UNL     1       5.384  12.124 -11.997  1.00  0.00    -0.237 OA
ATOM     69  O   UNL     1       7.219  12.187 -13.641  1.00  0.00    -0.744 OA
ENDBRANCH  62  66
ENDBRANCH  36  59
ENDBRANCH  10  11
ENDBRANCH   3   5
ENDBRANCH   2   3
ENDBRANCH   1   2
BRANCH   1  70
ATOM     70  C   UNL     1       4.047  -2.497   0.015  1.00  0.00     0.274 C 
BRANCH  70  71
ATOM     71  O   UNL     1       3.879  -1.955  -1.312  1.00  0.00    -0.461 OA
BRANCH  71  72
ATOM     72  C   UNL     1       2.674  -1.361  -1.577  1.00  0.00     0.329 C 
ATOM     73  O   UNL     1       1.640  -1.665  -1.000  1.00  0.00    -0.250 OA
BRANCH  72  74
ATOM     74  C   UNL     1       2.864  -0.175  -2.617  1.00  0.00     0.206 C 
ATOM     75  C   UNL     1       1.652  -0.464  -3.554  1.00  0.00     0.108 C 
ATOM     76  N   UNL     1       2.920   1.560  -2.160  1.00  0.00    -0.314 N 
ATOM     77  S   UNL     1       0.369   0.660  -3.086  1.00  0.00    -0.138 SA
ATOM     78  C   UNL     1       1.542   2.006  -3.072  1.00  0.00     0.191 C 
BRANCH  76  79
ATOM     79  C   UNL     1       4.104   2.608  -0.947  1.00  0.00     0.262 C 
ATOM     80  O   UNL     1       5.177   2.299  -0.300  1.00  0.00    -0.269 OA
BRANCH  79  81
ATOM     81  C   UNL     1       4.024   4.242  -0.359  1.00  0.00     0.124 A 
ATOM     82  C   UNL     1       5.129   4.968  -0.561  1.00  0.00     0.133 A 
ATOM     83  C   UNL     1       3.093   4.924   0.600  1.00  0.00     0.270 A 
ATOM     84  N   UNL     1       5.208   6.325  -0.542  1.00  0.00    -0.237 NA
ATOM     85  N   UNL     1       3.140   6.322   0.583  1.00  0.00    -0.267 N 
ATOM     86  O   UNL     1       2.375   4.294   1.377  1.00  0.00    -0.268 OA
ATOM     87  C   UNL     1       4.203   6.957  -0.038  1.00  0.00     0.139 A 
ATOM     88  C   UNL     1       2.206   7.067   1.295  1.00  0.00     0.096 A 
ATOM     89  C   UNL     1       4.159   8.434  -0.133  1.00  0.00     0.048 A 
ATOM     90  C   UNL     1       2.224   8.407   1.292  1.00  0.00     0.019 A 
ATOM     91  C   UNL     1       3.199   9.113   0.503  1.00  0.00     0.005 A 
ENDBRANCH  79  81
ENDBRANCH  76  79
ENDBRANCH  72  74
ENDBRANCH  71  72
ENDBRANCH  70  71
ENDBRANCH   1  70
TORSDOF 16
