REMARK SMILES Cc1c(N)cccc1SCc1cc(C(=O)OCCOC(=O)c2ccc(-c3c4nc(c(-c5cc(S(=O)(=O)[O-])ccc5F)c5ccc([nH]5)c(-c5cc(S(=O)(=O)[O-])ccc5F)c5nc(c(-c6cc(S(=O)(=O)[O-])ccc6F)c6ccc3[nH]6)C=C5)C=C4)cc2)no1
REMARK SMILES IDX 17 1 16 2 14 3 15 4 13 5 11 6 12 7 86 8 85 9 10 10 9 11 8 12
REMARK SMILES IDX 1 13 2 14 3 15 5 16 7 17 6 18 4 19 18 22 19 23 20 24 21 25
REMARK SMILES IDX 22 26 23 27 84 28 24 29 83 30 25 31 26 32 27 33 77 34 28 35
REMARK SMILES IDX 82 36 76 37 78 38 29 39 81 40 75 41 74 42 30 44 62 45 42 46
REMARK SMILES IDX 61 47 43 48 46 49 60 50 79 51 44 52 45 53 59 55 80 56 47 57
REMARK SMILES IDX 31 58 32 59 40 60 33 61 39 62 41 63 38 64 34 65 35 66 36 67
REMARK SMILES IDX 37 68 63 69 64 70 72 71 65 72 71 73 73 74 70 75 66 76 67 77
REMARK SMILES IDX 68 78 69 79 48 80 49 81 57 82 50 83 56 84 58 85 55 86 51 87
REMARK SMILES IDX 52 88 53 89 54 90
REMARK H PARENT 4 20 4 21 78 43 46 54
REMARK Flexibility Score: inf
ROOT
ATOM      1  C   UNL     1       2.523  -1.046   4.358  1.00  0.00     0.275 C 
ENDROOT
BRANCH   1   2
ATOM      2  O   UNL     1       2.029   0.004   3.503  1.00  0.00    -0.457 OA
BRANCH   2   3
ATOM      3  C   UNL     1       1.865   1.235   4.092  1.00  0.00     0.360 C 
ATOM      4  O   UNL     1       2.076   1.457   5.270  1.00  0.00    -0.244 OA
BRANCH   3   5
ATOM      5  C   UNL     1       1.462   2.255   3.121  1.00  0.00     0.191 A 
ATOM      6  C   UNL     1       0.766   3.284   1.284  1.00  0.00     0.147 A 
ATOM      7  C   UNL     1       0.578   2.137   2.022  1.00  0.00     0.085 A 
ATOM      8  O   UNL     1       1.580   4.112   2.000  1.00  0.00    -0.360 OA
ATOM      9  N   UNL     1       1.964   3.496   3.166  1.00  0.00    -0.072 NA
BRANCH   6  10
ATOM     10  C   UNL     1       0.415   3.825  -0.051  1.00  0.00     0.153 C 
BRANCH  10  11
ATOM     11  S   UNL     1      -0.773   2.956  -1.120  1.00  0.00    -0.118 SA
BRANCH  11  12
ATOM     12  C   UNL     1      -0.563   1.209  -0.788  1.00  0.00     0.013 A 
ATOM     13  C   UNL     1       1.970   1.085  -1.155  1.00  0.00     0.048 C 
ATOM     14  C   UNL     1       0.644   0.472  -0.780  1.00  0.00    -0.015 A 
ATOM     15  C   UNL     1       0.616  -0.876  -0.340  1.00  0.00     0.035 A 
ATOM     16  C   UNL     1      -0.611  -1.494  -0.065  1.00  0.00     0.026 A 
ATOM     17  C   UNL     1      -1.775   0.558  -0.490  1.00  0.00     0.015 A 
ATOM     18  C   UNL     1      -1.802  -0.785  -0.139  1.00  0.00     0.003 A 
BRANCH  15  19
ATOM     19  N   UNL     1       1.771  -1.652  -0.270  1.00  0.00    -0.398 N 
ATOM     20  H   UNL     1       2.648  -1.247  -0.458  1.00  0.00     0.156 HD
ATOM     21  H   UNL     1       1.710  -2.606  -0.033  1.00  0.00     0.156 HD
ENDBRANCH  15  19
ENDBRANCH  11  12
ENDBRANCH  10  11
ENDBRANCH   6  10
ENDBRANCH   3   5
ENDBRANCH   2   3
ENDBRANCH   1   2
BRANCH   1  22
ATOM     22  C   UNL     1       4.046  -1.220   4.283  1.00  0.00     0.275 C 
BRANCH  22  23
ATOM     23  O   UNL     1       4.752  -0.128   4.903  1.00  0.00    -0.458 OA
BRANCH  23  24
ATOM     24  C   UNL     1       5.195   0.819   4.042  1.00  0.00     0.338 C 
ATOM     25  O   UNL     1       5.072   0.802   2.827  1.00  0.00    -0.246 OA
BRANCH  24  26
ATOM     26  C   UNL     1       5.719   1.983   4.779  1.00  0.00     0.060 A 
ATOM     27  C   UNL     1       5.044   3.188   4.600  1.00  0.00     0.016 A 
ATOM     28  C   UNL     1       6.897   1.947   5.526  1.00  0.00     0.016 A 
ATOM     29  C   UNL     1       5.540   4.370   5.133  1.00  0.00     0.010 A 
ATOM     30  C   UNL     1       7.398   3.141   6.072  1.00  0.00     0.010 A 
ATOM     31  C   UNL     1       6.735   4.365   5.858  1.00  0.00    -0.014 A 
BRANCH  31  32
ATOM     32  C   UNL     1       7.325   5.670   6.260  1.00  0.00     0.031 A 
ATOM     33  C   UNL     1       8.555   6.172   5.551  1.00  0.00     0.074 A 
ATOM     34  C   UNL     1       6.709   6.447   7.172  1.00  0.00     0.049 A 
ATOM     35  N   UNL     1       9.268   7.244   5.779  1.00  0.00    -0.248 NA
ATOM     36  C   UNL     1       9.046   5.348   4.436  1.00  0.00     0.031 C 
ATOM     37  C   UNL     1       5.460   6.111   7.858  1.00  0.00     0.029 A 
ATOM     38  N   UNL     1       7.034   7.687   7.663  1.00  0.00    -0.354 N 
ATOM     39  C   UNL     1      10.311   7.209   4.858  1.00  0.00     0.074 A 
ATOM     40  C   UNL     1      10.147   5.996   4.085  1.00  0.00     0.031 C 
ATOM     41  C   UNL     1       5.116   7.128   8.665  1.00  0.00     0.029 A 
ATOM     42  C   UNL     1       6.149   8.159   8.605  1.00  0.00     0.049 A 
ATOM     43  H   UNL     1       7.827   8.191   7.370  1.00  0.00     0.167 HD
ATOM     44  C   UNL     1      11.310   8.109   4.676  1.00  0.00     0.034 A 
ATOM     45  C   UNL     1       6.182   9.278   9.356  1.00  0.00     0.034 A 
ATOM     46  C   UNL     1      11.442   9.325   5.441  1.00  0.00     0.049 A 
ATOM     47  C   UNL     1       7.337  10.233   9.181  1.00  0.00     0.074 A 
ATOM     48  C   UNL     1      12.425  10.297   5.361  1.00  0.00     0.029 A 
ATOM     49  N   UNL     1      10.554   9.744   6.426  1.00  0.00    -0.354 N 
ATOM     50  N   UNL     1       8.358  10.152   8.357  1.00  0.00    -0.248 NA
ATOM     51  C   UNL     1       7.347  11.426  10.036  1.00  0.00     0.031 C 
ATOM     52  C   UNL     1      12.163  11.270   6.332  1.00  0.00     0.029 A 
ATOM     53  C   UNL     1      10.977  10.946   6.972  1.00  0.00     0.049 A 
ATOM     54  H   UNL     1       9.742   9.257   6.697  1.00  0.00     0.167 HD
ATOM     55  C   UNL     1       9.117  11.298   8.581  1.00  0.00     0.074 A 
ATOM     56  C   UNL     1       8.427  12.059   9.602  1.00  0.00     0.031 C 
ATOM     57  C   UNL     1      10.278  11.688   7.995  1.00  0.00     0.034 A 
BRANCH  44  58
ATOM     58  C   UNL     1      12.373   7.764   3.658  1.00  0.00     0.023 A 
ATOM     59  C   UNL     1      12.088   7.654   2.286  1.00  0.00     0.031 A 
ATOM     60  C   UNL     1      13.686   7.490   4.081  1.00  0.00     0.131 A 
ATOM     61  C   UNL     1      13.081   7.208   1.399  1.00  0.00     0.055 A 
ATOM     62  C   UNL     1      14.690   7.125   3.182  1.00  0.00     0.041 A 
ATOM     63  F   UNL     1      14.013   7.555   5.381  1.00  0.00    -0.206 F 
ATOM     64  C   UNL     1      14.386   6.966   1.834  1.00  0.00     0.022 A 
BRANCH  61  65
ATOM     65  S   UNL     1      12.608   6.805  -0.306  1.00  0.00     0.124 S 
ATOM     66  O   UNL     1      11.604   5.765  -0.096  1.00  0.00    -0.237 OA
ATOM     67  O   UNL     1      12.113   8.081  -0.808  1.00  0.00    -0.237 OA
ATOM     68  O   UNL     1      13.857   6.340  -0.908  1.00  0.00    -0.744 OA
ENDBRANCH  61  65
ENDBRANCH  44  58
BRANCH  45  69
ATOM     69  C   UNL     1       5.130   9.534  10.383  1.00  0.00     0.023 A 
ATOM     70  C   UNL     1       4.288  10.656  10.308  1.00  0.00     0.031 A 
ATOM     71  C   UNL     1       4.989   8.680  11.493  1.00  0.00     0.131 A 
ATOM     72  C   UNL     1       3.373  10.915  11.342  1.00  0.00     0.055 A 
ATOM     73  C   UNL     1       4.040   8.911  12.489  1.00  0.00     0.041 A 
ATOM     74  F   UNL     1       5.772   7.597  11.620  1.00  0.00    -0.206 F 
ATOM     75  C   UNL     1       3.233  10.042  12.424  1.00  0.00     0.022 A 
BRANCH  72  76
ATOM     76  S   UNL     1       2.425  12.461  11.302  1.00  0.00     0.124 S 
ATOM     77  O   UNL     1       3.487  13.460  11.260  1.00  0.00    -0.237 OA
ATOM     78  O   UNL     1       1.641  12.306  10.081  1.00  0.00    -0.237 OA
ATOM     79  O   UNL     1       1.655  12.421  12.543  1.00  0.00    -0.744 OA
ENDBRANCH  72  76
ENDBRANCH  45  69
BRANCH  57  80
ATOM     80  C   UNL     1      10.838  13.024   8.415  1.00  0.00     0.023 A 
ATOM     81  C   UNL     1      11.349  13.241   9.706  1.00  0.00     0.031 A 
ATOM     82  C   UNL     1      10.840  14.101   7.511  1.00  0.00     0.131 A 
ATOM     83  C   UNL     1      11.792  14.520  10.076  1.00  0.00     0.055 A 
ATOM     84  C   UNL     1      11.333  15.357   7.867  1.00  0.00     0.041 A 
ATOM     85  F   UNL     1      10.362  13.949   6.266  1.00  0.00    -0.206 F 
ATOM     86  C   UNL     1      11.800  15.576   9.160  1.00  0.00     0.022 A 
BRANCH  83  87
ATOM     87  S   UNL     1      12.274  14.812  11.800  1.00  0.00     0.124 S 
ATOM     88  O   UNL     1      11.060  14.448  12.522  1.00  0.00    -0.237 OA
ATOM     89  O   UNL     1      13.409  13.910  11.964  1.00  0.00    -0.237 OA
ATOM     90  O   UNL     1      12.607  16.236  11.827  1.00  0.00    -0.744 OA
ENDBRANCH  83  87
ENDBRANCH  57  80
ENDBRANCH  31  32
ENDBRANCH  24  26
ENDBRANCH  23  24
ENDBRANCH  22  23
ENDBRANCH   1  22
TORSDOF 18
