REMARK SMILES Cc1nc(-c2ccc(C(F)(F)F)cc2)nc(SCC(=O)OCCOC(=O)c2ccc(-c3c4nc(c(-c5cc(S(=O)(=O)[O-])ccc5F)c5ccc([nH]5)c(-c5cc(S(=O)(=O)[O-])ccc5F)c5nc(c(-c6cc(S(=O)(=O)[O-])ccc6F)c6ccc3[nH]6)C=C5)C=C4)cc2)c1C
REMARK SMILES IDX 22 1 21 2 19 3 20 4 18 5 17 6 16 7 1 8 2 9 3 10 90 11 4 12
REMARK SMILES IDX 91 13 15 14 5 15 6 16 14 17 7 18 13 19 8 20 9 21 10 22 11 23
REMARK SMILES IDX 12 24 23 25 24 26 25 27 26 28 27 29 28 30 89 31 29 32 88 33
REMARK SMILES IDX 30 34 31 35 32 36 82 37 33 38 87 39 81 40 83 41 34 42 86 43
REMARK SMILES IDX 80 44 79 45 35 47 67 48 47 49 66 50 48 51 51 52 65 53 84 54
REMARK SMILES IDX 49 55 50 56 64 58 85 59 52 60 36 61 37 62 45 63 38 64 44 65
REMARK SMILES IDX 46 66 43 67 39 68 40 69 41 70 42 71 68 72 69 73 77 74 70 75
REMARK SMILES IDX 76 76 78 77 75 78 71 79 72 80 73 81 74 82 53 83 54 84 62 85
REMARK SMILES IDX 55 86 61 87 63 88 60 89 56 90 57 91 58 92 59 93
REMARK H PARENT 83 46 51 57
REMARK Flexibility Score: inf
ROOT
ATOM      1  C   UNL     1       5.247   3.888   1.315  1.00  0.00     0.274 C 
ENDROOT
BRANCH   1   2
ATOM      2  O   UNL     1       3.963   4.421   0.925  1.00  0.00    -0.461 OA
BRANCH   2   3
ATOM      3  C   UNL     1       3.836   4.706  -0.396  1.00  0.00     0.316 C 
ATOM      4  O   UNL     1       4.690   4.428  -1.237  1.00  0.00    -0.251 OA
BRANCH   3   5
ATOM      5  C   UNL     1       2.614   5.499  -0.787  1.00  0.00     0.199 C 
BRANCH   5   6
ATOM      6  S   UNL     1       1.296   5.758   0.423  1.00  0.00    -0.094 SA
BRANCH   6   7
ATOM      7  C   UNL     1       0.400   4.238   0.695  1.00  0.00     0.104 A 
ATOM      8  C   UNL     1      -0.062   0.525   0.188  1.00  0.00     0.067 C 
ATOM      9  C   UNL     1      -0.195   1.955   0.614  1.00  0.00     0.045 A 
ATOM     10  N   UNL     1      -0.960   2.103   1.707  1.00  0.00    -0.233 NA
ATOM     11  C   UNL     1       0.426   3.039  -0.012  1.00  0.00     0.003 A 
ATOM     12  C   UNL     1      -1.145   3.346   2.146  1.00  0.00     0.160 A 
ATOM     13  C   UNL     1       0.972   2.927  -1.392  1.00  0.00     0.049 C 
ATOM     14  N   UNL     1      -0.443   4.407   1.737  1.00  0.00    -0.221 NA
BRANCH  12  15
ATOM     15  C   UNL     1      -2.375   3.567   2.903  1.00  0.00     0.019 A 
ATOM     16  C   UNL     1      -2.627   2.891   4.105  1.00  0.00     0.012 A 
ATOM     17  C   UNL     1      -3.402   4.354   2.352  1.00  0.00     0.012 A 
ATOM     18  C   UNL     1      -3.873   2.990   4.732  1.00  0.00     0.014 A 
ATOM     19  C   UNL     1      -4.653   4.441   2.965  1.00  0.00     0.014 A 
ATOM     20  C   UNL     1      -4.904   3.752   4.159  1.00  0.00     0.056 A 
BRANCH  20  21
ATOM     21  C   UNL     1      -6.256   3.809   4.820  1.00  0.00     0.416 C 
ATOM     22  F   UNL     1      -6.779   2.575   5.065  1.00  0.00    -0.166 F 
ATOM     23  F   UNL     1      -6.208   4.432   6.033  1.00  0.00    -0.166 F 
ATOM     24  F   UNL     1      -7.199   4.480   4.102  1.00  0.00    -0.166 F 
ENDBRANCH  20  21
ENDBRANCH  12  15
ENDBRANCH   6   7
ENDBRANCH   5   6
ENDBRANCH   3   5
ENDBRANCH   2   3
ENDBRANCH   1   2
BRANCH   1  25
ATOM     25  C   UNL     1       5.259   2.362   1.367  1.00  0.00     0.275 C 
BRANCH  25  26
ATOM     26  O   UNL     1       4.895   1.807   0.091  1.00  0.00    -0.458 OA
BRANCH  26  27
ATOM     27  C   UNL     1       3.978   0.812   0.137  1.00  0.00     0.338 C 
ATOM     28  O   UNL     1       3.497   0.328   1.150  1.00  0.00    -0.246 OA
BRANCH  27  29
ATOM     29  C   UNL     1       3.560   0.376  -1.220  1.00  0.00     0.060 A 
ATOM     30  C   UNL     1       3.667   1.200  -2.344  1.00  0.00     0.016 A 
ATOM     31  C   UNL     1       2.900  -0.854  -1.331  1.00  0.00     0.016 A 
ATOM     32  C   UNL     1       3.007   0.850  -3.529  1.00  0.00     0.010 A 
ATOM     33  C   UNL     1       2.308  -1.234  -2.538  1.00  0.00     0.010 A 
ATOM     34  C   UNL     1       2.318  -0.370  -3.641  1.00  0.00    -0.014 A 
BRANCH  34  35
ATOM     35  C   UNL     1       1.615  -0.771  -4.893  1.00  0.00     0.031 A 
ATOM     36  C   UNL     1       0.135  -1.067  -4.890  1.00  0.00     0.074 A 
ATOM     37  C   UNL     1       2.304  -0.908  -6.040  1.00  0.00     0.049 A 
ATOM     38  N   UNL     1      -0.593  -1.704  -5.771  1.00  0.00    -0.248 NA
ATOM     39  C   UNL     1      -0.626  -0.584  -3.731  1.00  0.00     0.031 C 
ATOM     40  C   UNL     1       3.724  -0.602  -6.221  1.00  0.00     0.029 A 
ATOM     41  N   UNL     1       1.897  -1.352  -7.272  1.00  0.00    -0.354 N 
ATOM     42  C   UNL     1      -1.884  -1.740  -5.251  1.00  0.00     0.074 A 
ATOM     43  C   UNL     1      -1.840  -1.058  -3.974  1.00  0.00     0.031 C 
ATOM     44  C   UNL     1       4.064  -0.844  -7.495  1.00  0.00     0.029 A 
ATOM     45  C   UNL     1       2.915  -1.411  -8.192  1.00  0.00     0.049 A 
ATOM     46  H   UNL     1       0.968  -1.603  -7.477  1.00  0.00     0.167 HD
ATOM     47  C   UNL     1      -3.001  -2.291  -5.788  1.00  0.00     0.034 A 
ATOM     48  C   UNL     1       2.946  -1.923  -9.436  1.00  0.00     0.034 A 
ATOM     49  C   UNL     1      -3.045  -2.924  -7.082  1.00  0.00     0.049 A 
ATOM     50  C   UNL     1       1.723  -2.594  -9.988  1.00  0.00     0.074 A 
ATOM     51  C   UNL     1      -4.121  -3.521  -7.718  1.00  0.00     0.029 A 
ATOM     52  N   UNL     1      -1.968  -3.023  -7.951  1.00  0.00    -0.354 N 
ATOM     53  N   UNL     1       0.550  -2.760  -9.426  1.00  0.00    -0.248 NA
ATOM     54  C   UNL     1       1.843  -3.174 -11.331  1.00  0.00     0.031 C 
ATOM     55  C   UNL     1      -3.684  -4.013  -8.954  1.00  0.00     0.029 A 
ATOM     56  C   UNL     1      -2.349  -3.679  -9.110  1.00  0.00     0.049 A 
ATOM     57  H   UNL     1      -1.064  -2.677  -7.769  1.00  0.00     0.167 HD
ATOM     58  C   UNL     1      -0.207  -3.480 -10.343  1.00  0.00     0.074 A 
ATOM     59  C   UNL     1       0.636  -3.693 -11.503  1.00  0.00     0.031 C 
ATOM     60  C   UNL     1      -1.483  -3.928 -10.234  1.00  0.00     0.034 A 
BRANCH  47  61
ATOM     61  C   UNL     1      -4.260  -2.281  -4.959  1.00  0.00     0.023 A 
ATOM     62  C   UNL     1      -5.003  -1.108  -4.746  1.00  0.00     0.031 A 
ATOM     63  C   UNL     1      -4.737  -3.480  -4.398  1.00  0.00     0.131 A 
ATOM     64  C   UNL     1      -6.168  -1.155  -3.964  1.00  0.00     0.055 A 
ATOM     65  C   UNL     1      -5.923  -3.529  -3.665  1.00  0.00     0.041 A 
ATOM     66  F   UNL     1      -4.055  -4.625  -4.559  1.00  0.00    -0.206 F 
ATOM     67  C   UNL     1      -6.644  -2.360  -3.440  1.00  0.00     0.022 A 
BRANCH  64  68
ATOM     68  S   UNL     1      -7.032   0.396  -3.589  1.00  0.00     0.124 S 
ATOM     69  O   UNL     1      -6.043   1.094  -2.773  1.00  0.00    -0.237 OA
ATOM     70  O   UNL     1      -7.273   0.954  -4.915  1.00  0.00    -0.237 OA
ATOM     71  O   UNL     1      -8.229  -0.042  -2.873  1.00  0.00    -0.744 OA
ENDBRANCH  64  68
ENDBRANCH  47  61
BRANCH  48  72
ATOM     72  C   UNL     1       4.218  -1.898 -10.199  1.00  0.00     0.023 A 
ATOM     73  C   UNL     1       4.393  -1.015 -11.273  1.00  0.00     0.031 A 
ATOM     74  C   UNL     1       5.290  -2.730  -9.832  1.00  0.00     0.131 A 
ATOM     75  C   UNL     1       5.619  -0.986 -11.951  1.00  0.00     0.055 A 
ATOM     76  C   UNL     1       6.518  -2.676 -10.489  1.00  0.00     0.041 A 
ATOM     77  F   UNL     1       5.167  -3.578  -8.798  1.00  0.00    -0.206 F 
ATOM     78  C   UNL     1       6.687  -1.800 -11.558  1.00  0.00     0.022 A 
BRANCH  75  79
ATOM     79  S   UNL     1       5.810   0.144 -13.355  1.00  0.00     0.124 S 
ATOM     80  O   UNL     1       4.907  -0.447 -14.336  1.00  0.00    -0.237 OA
ATOM     81  O   UNL     1       5.390   1.419 -12.783  1.00  0.00    -0.237 OA
ATOM     82  O   UNL     1       7.232   0.049 -13.676  1.00  0.00    -0.744 OA
ENDBRANCH  75  79
ENDBRANCH  48  72
BRANCH  60  83
ATOM     83  C   UNL     1      -2.026  -4.695 -11.406  1.00  0.00     0.023 A 
ATOM     84  C   UNL     1      -1.594  -6.004 -11.678  1.00  0.00     0.031 A 
ATOM     85  C   UNL     1      -2.955  -4.102 -12.277  1.00  0.00     0.131 A 
ATOM     86  C   UNL     1      -2.055  -6.663 -12.826  1.00  0.00     0.055 A 
ATOM     87  C   UNL     1      -3.443  -4.779 -13.395  1.00  0.00     0.041 A 
ATOM     88  F   UNL     1      -3.393  -2.852 -12.059  1.00  0.00    -0.206 F 
ATOM     89  C   UNL     1      -2.985  -6.063 -13.680  1.00  0.00     0.022 A 
BRANCH  86  90
ATOM     90  S   UNL     1      -1.365  -8.291 -13.230  1.00  0.00     0.124 S 
ATOM     91  O   UNL     1       0.052  -7.986 -13.399  1.00  0.00    -0.237 OA
ATOM     92  O   UNL     1      -1.712  -9.080 -12.052  1.00  0.00    -0.237 OA
ATOM     93  O   UNL     1      -2.068  -8.667 -14.455  1.00  0.00    -0.744 OA
ENDBRANCH  86  90
ENDBRANCH  60  83
ENDBRANCH  34  35
ENDBRANCH  27  29
ENDBRANCH  26  27
ENDBRANCH  25  26
ENDBRANCH   1  25
TORSDOF 18
