REMARK SMILES O=C(COc1ccccc1/C=C1\C(=O)Nc2ccccc21)OCCOC(=O)c1ccc(-c2c3nc(c(-c4cc(S(=O)(=O)[O-])ccc4F)c4ccc([nH]4)c(-c4cc(S(=O)(=O)[O-])ccc4F)c4nc(c(-c5cc(S(=O)(=O)[O-])ccc5F)c5ccc2[nH]5)C=C4)C=C3)cc1
REMARK SMILES IDX 23 1 22 2 2 3 1 4 3 5 4 6 5 7 6 8 10 9 7 10 9 11 8 12 11 13
REMARK SMILES IDX 12 14 13 15 21 16 14 17 15 18 16 19 20 20 17 22 19 23 18 24
REMARK SMILES IDX 24 25 25 26 26 27 27 28 28 29 29 30 90 31 30 32 89 33 31 34
REMARK SMILES IDX 32 35 33 36 83 37 34 38 88 39 82 40 84 41 35 42 87 43 81 44
REMARK SMILES IDX 80 45 36 47 68 48 48 49 67 50 49 51 52 52 66 53 85 54 50 55
REMARK SMILES IDX 51 56 65 58 86 59 53 60 37 61 38 62 46 63 39 64 45 65 47 66
REMARK SMILES IDX 44 67 40 68 41 69 42 70 43 71 69 72 70 73 78 74 71 75 77 76
REMARK SMILES IDX 79 77 76 78 72 79 73 80 74 81 75 82 54 83 55 84 63 85 56 86
REMARK SMILES IDX 62 87 64 88 61 89 57 90 58 91 59 92 60 93
REMARK H PARENT 15 21 84 46 52 57
REMARK Flexibility Score: inf
ROOT
ATOM      1  C   UNL     1       4.355   1.294  -0.280  1.00  0.00     0.274 C 
ENDROOT
BRANCH   1   2
ATOM      2  O   UNL     1       2.930   1.222  -0.502  1.00  0.00    -0.460 OA
BRANCH   2   3
ATOM      3  C   UNL     1       2.165   0.145  -0.179  1.00  0.00     0.344 C 
ATOM      4  O   UNL     1       0.942   0.247  -0.132  1.00  0.00    -0.248 OA
BRANCH   3   5
ATOM      5  C   UNL     1       2.861  -1.180   0.066  1.00  0.00     0.352 C 
BRANCH   5   6
ATOM      6  O   UNL     1       3.644  -1.525  -1.071  1.00  0.00    -0.481 OA
BRANCH   6   7
ATOM      7  C   UNL     1       3.065  -2.542  -1.776  1.00  0.00     0.127 A 
ATOM      8  C   UNL     1       3.433  -3.844  -1.413  1.00  0.00     0.047 A 
ATOM      9  C   UNL     1       2.208  -2.285  -2.860  1.00  0.00     0.017 A 
ATOM     10  C   UNL     1       2.951  -4.923  -2.142  1.00  0.00     0.004 A 
ATOM     11  C   UNL     1       1.856  -3.382  -3.654  1.00  0.00     0.012 A 
ATOM     12  C   UNL     1       2.187  -4.689  -3.279  1.00  0.00     0.001 A 
BRANCH   9  13
ATOM     13  C   UNL     1       1.669  -0.929  -3.137  1.00  0.00     0.026 C 
ATOM     14  C   UNL     1       0.377  -0.615  -3.376  1.00  0.00     0.050 C 
ATOM     15  C   UNL     1      -0.782  -1.585  -3.514  1.00  0.00     0.256 C 
ATOM     16  C   UNL     1      -0.202   0.731  -3.597  1.00  0.00     0.011 A 
ATOM     17  O   UNL     1      -0.829  -2.783  -3.306  1.00  0.00    -0.269 OA
ATOM     18  N   UNL     1      -1.844  -0.829  -3.962  1.00  0.00    -0.321 N 
ATOM     19  C   UNL     1      -1.531   0.520  -3.988  1.00  0.00     0.049 A 
ATOM     20  C   UNL     1       0.246   2.029  -3.422  1.00  0.00     0.011 A 
ATOM     21  H   UNL     1      -2.715  -1.201  -4.229  1.00  0.00     0.170 HD
ATOM     22  C   UNL     1      -2.420   1.538  -4.276  1.00  0.00     0.027 A 
ATOM     23  C   UNL     1      -0.649   3.086  -3.679  1.00  0.00     0.001 A 
ATOM     24  C   UNL     1      -1.965   2.842  -4.115  1.00  0.00     0.002 A 
ENDBRANCH   9  13
ENDBRANCH   6   7
ENDBRANCH   5   6
ENDBRANCH   3   5
ENDBRANCH   2   3
ENDBRANCH   1   2
BRANCH   1  25
ATOM     25  C   UNL     1       4.683   1.845   1.109  1.00  0.00     0.275 C 
BRANCH  25  26
ATOM     26  O   UNL     1       4.210   0.955   2.135  1.00  0.00    -0.458 OA
BRANCH  26  27
ATOM     27  C   UNL     1       2.975   1.244   2.623  1.00  0.00     0.338 C 
ATOM     28  O   UNL     1       2.299   2.218   2.346  1.00  0.00    -0.246 OA
BRANCH  27  29
ATOM     29  C   UNL     1       2.481   0.080   3.391  1.00  0.00     0.060 A 
ATOM     30  C   UNL     1       1.178  -0.372   3.150  1.00  0.00     0.016 A 
ATOM     31  C   UNL     1       3.282  -0.551   4.346  1.00  0.00     0.016 A 
ATOM     32  C   UNL     1       0.652  -1.423   3.901  1.00  0.00     0.010 A 
ATOM     33  C   UNL     1       2.749  -1.594   5.110  1.00  0.00     0.010 A 
ATOM     34  C   UNL     1       1.415  -2.001   4.923  1.00  0.00    -0.014 A 
BRANCH  34  35
ATOM     35  C   UNL     1       0.730  -2.826   5.952  1.00  0.00     0.031 A 
ATOM     36  C   UNL     1       0.307  -2.145   7.228  1.00  0.00     0.074 A 
ATOM     37  C   UNL     1       0.434  -4.121   5.743  1.00  0.00     0.049 A 
ATOM     38  N   UNL     1      -0.327  -2.630   8.264  1.00  0.00    -0.248 NA
ATOM     39  C   UNL     1       0.655  -0.720   7.350  1.00  0.00     0.031 C 
ATOM     40  C   UNL     1       0.745  -4.876   4.531  1.00  0.00     0.029 A 
ATOM     41  N   UNL     1      -0.208  -5.029   6.549  1.00  0.00    -0.354 N 
ATOM     42  C   UNL     1      -0.455  -1.571   9.157  1.00  0.00     0.074 A 
ATOM     43  C   UNL     1       0.215  -0.435   8.565  1.00  0.00     0.031 C 
ATOM     44  C   UNL     1       0.286  -6.133   4.672  1.00  0.00     0.029 A 
ATOM     45  C   UNL     1      -0.324  -6.282   5.993  1.00  0.00     0.049 A 
ATOM     46  H   UNL     1      -0.553  -4.804   7.443  1.00  0.00     0.167 HD
ATOM     47  C   UNL     1      -1.088  -1.543  10.356  1.00  0.00     0.034 A 
ATOM     48  C   UNL     1      -0.855  -7.415   6.497  1.00  0.00     0.034 A 
ATOM     49  C   UNL     1      -1.740  -2.688  10.941  1.00  0.00     0.049 A 
ATOM     50  C   UNL     1      -1.476  -7.382   7.877  1.00  0.00     0.074 A 
ATOM     51  C   UNL     1      -2.418  -2.770  12.145  1.00  0.00     0.029 A 
ATOM     52  N   UNL     1      -1.784  -3.955  10.374  1.00  0.00    -0.354 N 
ATOM     53  N   UNL     1      -1.606  -6.371   8.707  1.00  0.00    -0.248 NA
ATOM     54  C   UNL     1      -2.037  -8.643   8.380  1.00  0.00     0.031 C 
ATOM     55  C   UNL     1      -2.791  -4.103  12.347  1.00  0.00     0.029 A 
ATOM     56  C   UNL     1      -2.443  -4.834  11.222  1.00  0.00     0.049 A 
ATOM     57  H   UNL     1      -1.404  -4.195   9.498  1.00  0.00     0.167 HD
ATOM     58  C   UNL     1      -2.310  -6.867   9.805  1.00  0.00     0.074 A 
ATOM     59  C   UNL     1      -2.581  -8.261   9.524  1.00  0.00     0.031 C 
ATOM     60  C   UNL     1      -2.706  -6.226  10.935  1.00  0.00     0.034 A 
BRANCH  47  61
ATOM     61  C   UNL     1      -1.041  -0.248  11.133  1.00  0.00     0.023 A 
ATOM     62  C   UNL     1      -1.614   0.939  10.640  1.00  0.00     0.031 A 
ATOM     63  C   UNL     1      -0.372  -0.190  12.368  1.00  0.00     0.131 A 
ATOM     64  C   UNL     1      -1.438   2.144  11.338  1.00  0.00     0.055 A 
ATOM     65  C   UNL     1      -0.279   0.994  13.102  1.00  0.00     0.041 A 
ATOM     66  F   UNL     1       0.222  -1.282  12.876  1.00  0.00    -0.206 F 
ATOM     67  C   UNL     1      -0.799   2.174  12.580  1.00  0.00     0.022 A 
BRANCH  64  68
ATOM     68  S   UNL     1      -1.907   3.696  10.525  1.00  0.00     0.124 S 
ATOM     69  O   UNL     1      -1.096   3.649   9.310  1.00  0.00    -0.237 OA
ATOM     70  O   UNL     1      -3.344   3.535  10.342  1.00  0.00    -0.237 OA
ATOM     71  O   UNL     1      -1.510   4.721  11.488  1.00  0.00    -0.744 OA
ENDBRANCH  64  68
ENDBRANCH  47  61
BRANCH  48  72
ATOM     72  C   UNL     1      -0.817  -8.690   5.719  1.00  0.00     0.023 A 
ATOM     73  C   UNL     1      -1.998  -9.354   5.345  1.00  0.00     0.031 A 
ATOM     74  C   UNL     1       0.408  -9.309   5.410  1.00  0.00     0.131 A 
ATOM     75  C   UNL     1      -1.930 -10.619   4.740  1.00  0.00     0.055 A 
ATOM     76  C   UNL     1       0.471 -10.538   4.751  1.00  0.00     0.041 A 
ATOM     77  F   UNL     1       1.569  -8.726   5.751  1.00  0.00    -0.206 F 
ATOM     78  C   UNL     1      -0.703 -11.208   4.426  1.00  0.00     0.022 A 
BRANCH  75  79
ATOM     79  S   UNL     1      -3.471 -11.540   4.469  1.00  0.00     0.124 S 
ATOM     80  O   UNL     1      -4.002 -11.632   5.824  1.00  0.00    -0.237 OA
ATOM     81  O   UNL     1      -4.192 -10.662   3.554  1.00  0.00    -0.237 OA
ATOM     82  O   UNL     1      -3.015 -12.802   3.889  1.00  0.00    -0.744 OA
ENDBRANCH  75  79
ENDBRANCH  48  72
BRANCH  60  83
ATOM     83  C   UNL     1      -3.541  -7.012  11.924  1.00  0.00     0.023 A 
ATOM     84  C   UNL     1      -3.044  -8.146  12.591  1.00  0.00     0.031 A 
ATOM     85  C   UNL     1      -4.869  -6.626  12.185  1.00  0.00     0.131 A 
ATOM     86  C   UNL     1      -3.891  -8.896  13.422  1.00  0.00     0.055 A 
ATOM     87  C   UNL     1      -5.681  -7.330  13.075  1.00  0.00     0.041 A 
ATOM     88  F   UNL     1      -5.403  -5.554  11.578  1.00  0.00    -0.206 F 
ATOM     89  C   UNL     1      -5.200  -8.484  13.684  1.00  0.00     0.022 A 
BRANCH  86  90
ATOM     90  S   UNL     1      -3.302 -10.492  14.052  1.00  0.00     0.124 S 
ATOM     91  O   UNL     1      -2.930 -11.185  12.822  1.00  0.00    -0.237 OA
ATOM     92  O   UNL     1      -2.197 -10.097  14.919  1.00  0.00    -0.237 OA
ATOM     93  O   UNL     1      -4.467 -11.039  14.744  1.00  0.00    -0.744 OA
ENDBRANCH  86  90
ENDBRANCH  60  83
ENDBRANCH  34  35
ENDBRANCH  27  29
ENDBRANCH  26  27
ENDBRANCH  25  26
ENDBRANCH   1  25
TORSDOF 17
