REMARK SMILES O=C(OCCOC(=O)c1ccc(-c2c(F)cccc2F)cn1)c1ccc(-c2c3nc(c(-c4cc(S(=O)(=O)[O-])ccc4F)c4ccc([nH]4)c(-c4cc(S(=O)(=O)[O-])ccc4F)c4nc(c(-c5cc(S(=O)(=O)[O-])ccc5F)c5ccc2[nH]5)C=C4)C=C3)cc1
REMARK SMILES IDX 4 1 3 2 2 3 1 4 23 5 24 6 85 7 25 8 84 9 26 10 27 11 28 12
REMARK SMILES IDX 78 13 29 14 83 15 77 16 79 17 30 18 82 19 76 20 75 21 31 23
REMARK SMILES IDX 63 24 43 25 62 26 44 27 47 28 61 29 80 30 45 31 46 32 60 34
REMARK SMILES IDX 81 35 48 36 32 37 33 38 41 39 34 40 40 41 42 42 39 43 35 44
REMARK SMILES IDX 36 45 37 46 38 47 64 48 65 49 73 50 66 51 72 52 74 53 71 54
REMARK SMILES IDX 67 55 68 56 69 57 70 58 49 59 50 60 58 61 51 62 57 63 59 64
REMARK SMILES IDX 56 65 52 66 53 67 54 68 55 69 5 70 6 71 7 72 8 73 9 74 10 75
REMARK SMILES IDX 22 76 11 77 21 78 12 79 13 80 14 81 19 82 15 83 16 84 18 85
REMARK SMILES IDX 20 86 17 87
REMARK H PARENT 79 22 47 33
REMARK Flexibility Score: inf
ROOT
ATOM      1  C   UNL     1       4.069  -0.523  -1.511  1.00  0.00     0.275 C 
ENDROOT
BRANCH   1   2
ATOM      2  O   UNL     1       2.923  -0.905  -0.730  1.00  0.00    -0.458 OA
BRANCH   2   3
ATOM      3  C   UNL     1       2.770  -0.886   0.618  1.00  0.00     0.338 C 
ATOM      4  O   UNL     1       1.893  -1.580   1.130  1.00  0.00    -0.246 OA
BRANCH   3   5
ATOM      5  C   UNL     1       3.520   0.058   1.502  1.00  0.00     0.060 A 
ATOM      6  C   UNL     1       4.880   0.353   1.396  1.00  0.00     0.016 A 
ATOM      7  C   UNL     1       2.798   0.632   2.565  1.00  0.00     0.016 A 
ATOM      8  C   UNL     1       5.493   1.239   2.285  1.00  0.00     0.010 A 
ATOM      9  C   UNL     1       3.409   1.512   3.467  1.00  0.00     0.010 A 
ATOM     10  C   UNL     1       4.768   1.811   3.334  1.00  0.00    -0.014 A 
BRANCH  10  11
ATOM     11  C   UNL     1       5.503   2.574   4.367  1.00  0.00     0.031 A 
ATOM     12  C   UNL     1       5.953   1.851   5.602  1.00  0.00     0.074 A 
ATOM     13  C   UNL     1       5.852   3.856   4.153  1.00  0.00     0.049 A 
ATOM     14  N   UNL     1       6.752   2.256   6.553  1.00  0.00    -0.248 NA
ATOM     15  C   UNL     1       5.459   0.475   5.769  1.00  0.00     0.031 C 
ATOM     16  C   UNL     1       5.518   4.626   2.957  1.00  0.00     0.029 A 
ATOM     17  N   UNL     1       6.578   4.730   4.919  1.00  0.00    -0.354 N 
ATOM     18  C   UNL     1       6.894   1.170   7.409  1.00  0.00     0.074 A 
ATOM     19  C   UNL     1       6.044   0.115   6.900  1.00  0.00     0.031 C 
ATOM     20  C   UNL     1       6.020   5.866   3.076  1.00  0.00     0.029 A 
ATOM     21  C   UNL     1       6.718   5.976   4.353  1.00  0.00     0.049 A 
ATOM     22  H   UNL     1       6.962   4.489   5.793  1.00  0.00     0.167 HD
ATOM     23  C   UNL     1       7.683   1.056   8.505  1.00  0.00     0.034 A 
ATOM     24  C   UNL     1       7.352   7.073   4.812  1.00  0.00     0.034 A 
ATOM     25  C   UNL     1       8.474   2.142   9.028  1.00  0.00     0.049 A 
ATOM     26  C   UNL     1       8.121   6.965   6.106  1.00  0.00     0.074 A 
ATOM     27  C   UNL     1       9.281   2.166  10.150  1.00  0.00     0.029 A 
ATOM     28  N   UNL     1       8.532   3.415   8.470  1.00  0.00    -0.354 N 
ATOM     29  N   UNL     1       8.283   5.918   6.884  1.00  0.00    -0.248 NA
ATOM     30  C   UNL     1       8.819   8.171   6.564  1.00  0.00     0.031 C 
ATOM     31  C   UNL     1       9.773   3.468  10.307  1.00  0.00     0.029 A 
ATOM     32  C   UNL     1       9.332   4.241   9.244  1.00  0.00     0.049 A 
ATOM     33  H   UNL     1       8.071   3.690   7.645  1.00  0.00     0.167 HD
ATOM     34  C   UNL     1       9.140   6.329   7.900  1.00  0.00     0.074 A 
ATOM     35  C   UNL     1       9.462   7.717   7.630  1.00  0.00     0.031 C 
ATOM     36  C   UNL     1       9.630   5.625   8.954  1.00  0.00     0.034 A 
BRANCH  23  37
ATOM     37  C   UNL     1       7.659  -0.273   9.218  1.00  0.00     0.023 A 
ATOM     38  C   UNL     1       8.119  -1.448   8.594  1.00  0.00     0.031 A 
ATOM     39  C   UNL     1       7.087  -0.386  10.496  1.00  0.00     0.131 A 
ATOM     40  C   UNL     1       7.918  -2.693   9.210  1.00  0.00     0.055 A 
ATOM     41  C   UNL     1       6.960  -1.620  11.137  1.00  0.00     0.041 A 
ATOM     42  F   UNL     1       6.608   0.697  11.128  1.00  0.00    -0.206 F 
ATOM     43  C   UNL     1       7.360  -2.784  10.487  1.00  0.00     0.022 A 
BRANCH  40  44
ATOM     44  S   UNL     1       8.248  -4.199   8.253  1.00  0.00     0.124 S 
ATOM     45  O   UNL     1       7.357  -4.024   7.108  1.00  0.00    -0.237 OA
ATOM     46  O   UNL     1       9.675  -4.090   7.974  1.00  0.00    -0.237 OA
ATOM     47  O   UNL     1       7.871  -5.276   9.167  1.00  0.00    -0.744 OA
ENDBRANCH  40  44
ENDBRANCH  23  37
BRANCH  24  48
ATOM     48  C   UNL     1       7.293   8.357   4.056  1.00  0.00     0.023 A 
ATOM     49  C   UNL     1       8.447   8.944   3.512  1.00  0.00     0.031 A 
ATOM     50  C   UNL     1       6.074   9.044   3.907  1.00  0.00     0.131 A 
ATOM     51  C   UNL     1       8.366  10.198   2.884  1.00  0.00     0.055 A 
ATOM     52  C   UNL     1       5.991  10.271   3.244  1.00  0.00     0.041 A 
ATOM     53  F   UNL     1       4.938   8.526   4.401  1.00  0.00    -0.206 F 
ATOM     54  C   UNL     1       7.145  10.861   2.740  1.00  0.00     0.022 A 
BRANCH  51  55
ATOM     55  S   UNL     1       9.898  10.991   2.320  1.00  0.00     0.124 S 
ATOM     56  O   UNL     1      10.683  11.031   3.548  1.00  0.00    -0.237 OA
ATOM     57  O   UNL     1      10.356  10.062   1.293  1.00  0.00    -0.237 OA
ATOM     58  O   UNL     1       9.446  12.290   1.825  1.00  0.00    -0.744 OA
ENDBRANCH  51  55
ENDBRANCH  24  48
BRANCH  36  59
ATOM     59  C   UNL     1      10.602   6.343   9.855  1.00  0.00     0.023 A 
ATOM     60  C   UNL     1      10.204   7.425  10.659  1.00  0.00     0.031 A 
ATOM     61  C   UNL     1      11.952   5.951   9.892  1.00  0.00     0.131 A 
ATOM     62  C   UNL     1      11.158   8.119  11.416  1.00  0.00     0.055 A 
ATOM     63  C   UNL     1      12.885   6.606  10.695  1.00  0.00     0.041 A 
ATOM     64  F   UNL     1      12.385   4.924   9.143  1.00  0.00    -0.206 F 
ATOM     65  C   UNL     1      12.493   7.707  11.452  1.00  0.00     0.022 A 
BRANCH  62  66
ATOM     66  S   UNL     1      10.651   9.634  12.274  1.00  0.00     0.124 S 
ATOM     67  O   UNL     1      10.144  10.450  11.174  1.00  0.00    -0.237 OA
ATOM     68  O   UNL     1       9.650   9.140  13.213  1.00  0.00    -0.237 OA
ATOM     69  O   UNL     1      11.889  10.115  12.883  1.00  0.00    -0.744 OA
ENDBRANCH  62  66
ENDBRANCH  36  59
ENDBRANCH  10  11
ENDBRANCH   3   5
ENDBRANCH   2   3
ENDBRANCH   1   2
BRANCH   1  70
ATOM     70  C   UNL     1       4.045   0.920  -2.017  1.00  0.00     0.275 C 
BRANCH  70  71
ATOM     71  O   UNL     1       3.582   1.854  -1.033  1.00  0.00    -0.457 OA
BRANCH  71  72
ATOM     72  C   UNL     1       2.254   2.149  -1.111  1.00  0.00     0.357 C 
ATOM     73  O   UNL     1       1.484   1.777  -1.982  1.00  0.00    -0.244 OA
BRANCH  72  74
ATOM     74  C   UNL     1       1.855   2.944   0.081  1.00  0.00     0.148 A 
ATOM     75  C   UNL     1       2.574   4.066   0.466  1.00  0.00     0.037 A 
ATOM     76  N   UNL     1       0.751   2.502   0.736  1.00  0.00    -0.249 NA
ATOM     77  C   UNL     1       2.135   4.777   1.586  1.00  0.00     0.013 A 
ATOM     78  C   UNL     1       0.378   3.196   1.836  1.00  0.00     0.121 A 
ATOM     79  C   UNL     1       1.016   4.343   2.308  1.00  0.00     0.006 A 
BRANCH  79  80
ATOM     80  C   UNL     1       0.512   5.068   3.479  1.00  0.00     0.055 A 
ATOM     81  C   UNL     1       0.107   6.406   3.387  1.00  0.00     0.134 A 
ATOM     82  C   UNL     1       0.372   4.450   4.729  1.00  0.00     0.134 A 
ATOM     83  F   UNL     1       0.189   7.053   2.213  1.00  0.00    -0.206 F 
ATOM     84  C   UNL     1      -0.422   7.095   4.479  1.00  0.00     0.040 A 
ATOM     85  C   UNL     1      -0.147   5.127   5.834  1.00  0.00     0.040 A 
ATOM     86  F   UNL     1       0.726   3.165   4.887  1.00  0.00    -0.206 F 
ATOM     87  C   UNL     1      -0.551   6.454   5.708  1.00  0.00     0.006 A 
ENDBRANCH  79  80
ENDBRANCH  72  74
ENDBRANCH  71  72
ENDBRANCH  70  71
ENDBRANCH   1  70
TORSDOF 15
