REMARK SMILES Cc1nc(SCc2cccc(Cl)c2)[nH]c(=O)c1CC(=O)OCCOC(=O)c1ccc(-c2c3nc(c(-c4cc(S(=O)(=O)[O-])ccc4F)c4ccc([nH]4)c(-c4cc(S(=O)(=O)[O-])ccc4F)c4nc(c(-c5cc(S(=O)(=O)[O-])ccc5F)c5ccc2[nH]5)C=C4)C=C3)cc1
REMARK SMILES IDX 22 1 21 2 19 3 20 4 18 5 17 6 1 7 2 8 3 9 4 10 15 11 14 12
REMARK SMILES IDX 16 13 5 15 6 16 7 17 8 18 13 19 9 20 11 21 10 22 12 23 23 24
REMARK SMILES IDX 24 25 25 26 26 27 27 28 28 29 89 30 29 31 88 32 30 33 31 34
REMARK SMILES IDX 32 35 82 36 33 37 87 38 81 39 83 40 34 41 86 42 80 43 79 44
REMARK SMILES IDX 35 46 67 47 47 48 66 49 48 50 51 51 65 52 84 53 49 54 50 55
REMARK SMILES IDX 64 57 85 58 52 59 36 60 37 61 45 62 38 63 44 64 46 65 43 66
REMARK SMILES IDX 39 67 40 68 41 69 42 70 68 71 69 72 77 73 70 74 76 75 78 76
REMARK SMILES IDX 75 77 71 78 72 79 73 80 74 81 53 82 54 83 62 84 55 85 61 86
REMARK SMILES IDX 63 87 60 88 56 89 57 90 58 91 59 92
REMARK H PARENT 14 14 83 45 51 56
REMARK Flexibility Score: inf
ROOT
ATOM      1  C   UNL     1       0.719  -2.958  -3.372  1.00  0.00     0.274 C 
ENDROOT
BRANCH   1   2
ATOM      2  O   UNL     1       0.239  -2.372  -2.141  1.00  0.00    -0.462 OA
BRANCH   2   3
ATOM      3  C   UNL     1       0.009  -3.260  -1.136  1.00  0.00     0.310 C 
ATOM      4  O   UNL     1       0.145  -4.476  -1.248  1.00  0.00    -0.252 OA
BRANCH   3   5
ATOM      5  C   UNL     1      -0.504  -2.651   0.162  1.00  0.00     0.166 C 
BRANCH   5   6
ATOM      6  C   UNL     1      -0.523  -1.159   0.281  1.00  0.00     0.050 A 
ATOM      7  C   UNL     1      -3.010  -0.975   0.415  1.00  0.00     0.067 C 
ATOM      8  C   UNL     1      -1.621  -0.396   0.425  1.00  0.00     0.050 A 
ATOM      9  N   UNL     1      -1.592   0.975   0.476  1.00  0.00    -0.229 NA
ATOM     10  C   UNL     1      -0.465   1.556   0.250  1.00  0.00     0.168 A 
ATOM     11  C   UNL     1       0.775  -0.444   0.309  1.00  0.00     0.255 A 
ATOM     12  N   UNL     1       0.716   0.904   0.159  1.00  0.00    -0.301 N 
ATOM     13  O   UNL     1       1.831  -1.041   0.464  1.00  0.00    -0.269 OA
ATOM     14  H   UNL     1       1.541   1.411  -0.019  1.00  0.00     0.172 HD
BRANCH  10  15
ATOM     15  S   UNL     1      -0.350   3.262  -0.036  1.00  0.00    -0.083 SA
BRANCH  15  16
ATOM     16  C   UNL     1      -2.104   3.698  -0.203  1.00  0.00     0.113 C 
BRANCH  16  17
ATOM     17  C   UNL     1      -2.747   3.434  -1.555  1.00  0.00    -0.036 A 
ATOM     18  C   UNL     1      -3.365   4.484  -2.251  1.00  0.00     0.005 A 
ATOM     19  C   UNL     1      -2.860   2.146  -2.102  1.00  0.00     0.025 A 
ATOM     20  C   UNL     1      -4.073   4.248  -3.436  1.00  0.00     0.002 A 
ATOM     21  C   UNL     1      -3.569   1.907  -3.277  1.00  0.00     0.041 A 
ATOM     22  C   UNL     1      -4.181   2.956  -3.948  1.00  0.00     0.020 A 
ATOM     23  Cl  UNL     1      -3.707   0.298  -3.876  1.00  0.00    -0.084 Cl
ENDBRANCH  16  17
ENDBRANCH  15  16
ENDBRANCH  10  15
ENDBRANCH   5   6
ENDBRANCH   3   5
ENDBRANCH   2   3
ENDBRANCH   1   2
BRANCH   1  24
ATOM     24  C   UNL     1       2.238  -2.852  -3.501  1.00  0.00     0.275 C 
BRANCH  24  25
ATOM     25  O   UNL     1       2.868  -3.391  -2.329  1.00  0.00    -0.458 OA
BRANCH  25  26
ATOM     26  C   UNL     1       3.615  -2.510  -1.619  1.00  0.00     0.338 C 
ATOM     27  O   UNL     1       3.896  -1.366  -1.935  1.00  0.00    -0.246 OA
BRANCH  26  28
ATOM     28  C   UNL     1       4.092  -3.158  -0.383  1.00  0.00     0.060 A 
ATOM     29  C   UNL     1       3.177  -3.603   0.569  1.00  0.00     0.016 A 
ATOM     30  C   UNL     1       5.456  -3.197  -0.109  1.00  0.00     0.016 A 
ATOM     31  C   UNL     1       3.605  -3.977   1.837  1.00  0.00     0.010 A 
ATOM     32  C   UNL     1       5.894  -3.681   1.128  1.00  0.00     0.010 A 
ATOM     33  C   UNL     1       4.972  -4.036   2.130  1.00  0.00    -0.014 A 
BRANCH  33  34
ATOM     34  C   UNL     1       5.427  -4.426   3.492  1.00  0.00     0.031 A 
ATOM     35  C   UNL     1       6.235  -3.462   4.321  1.00  0.00     0.074 A 
ATOM     36  C   UNL     1       5.102  -5.635   3.992  1.00  0.00     0.049 A 
ATOM     37  N   UNL     1       6.852  -3.661   5.458  1.00  0.00    -0.248 NA
ATOM     38  C   UNL     1       6.379  -2.098   3.791  1.00  0.00     0.031 C 
ATOM     39  C   UNL     1       4.277  -6.637   3.314  1.00  0.00     0.029 A 
ATOM     40  N   UNL     1       5.423  -6.228   5.188  1.00  0.00    -0.354 N 
ATOM     41  C   UNL     1       7.492  -2.462   5.759  1.00  0.00     0.074 A 
ATOM     42  C   UNL     1       7.207  -1.552   4.669  1.00  0.00     0.031 C 
ATOM     43  C   UNL     1       4.137  -7.706   4.111  1.00  0.00     0.029 A 
ATOM     44  C   UNL     1       4.932  -7.506   5.317  1.00  0.00     0.049 A 
ATOM     45  H   UNL     1       5.954  -5.781   5.886  1.00  0.00     0.167 HD
ATOM     46  C   UNL     1       8.244  -2.153   6.846  1.00  0.00     0.034 A 
ATOM     47  C   UNL     1       5.135  -8.433   6.273  1.00  0.00     0.034 A 
ATOM     48  C   UNL     1       8.494  -3.069   7.935  1.00  0.00     0.049 A 
ATOM     49  C   UNL     1       6.027  -8.089   7.437  1.00  0.00     0.074 A 
ATOM     50  C   UNL     1       9.230  -2.858   9.089  1.00  0.00     0.029 A 
ATOM     51  N   UNL     1       8.014  -4.372   8.009  1.00  0.00    -0.354 N 
ATOM     52  N   UNL     1       6.663  -6.969   7.689  1.00  0.00    -0.248 NA
ATOM     53  C   UNL     1       6.227  -9.137   8.444  1.00  0.00     0.031 C 
ATOM     54  C   UNL     1       9.253  -4.050   9.823  1.00  0.00     0.029 A 
ATOM     55  C   UNL     1       8.462  -4.983   9.172  1.00  0.00     0.049 A 
ATOM     56  H   UNL     1       7.439  -4.800   7.334  1.00  0.00     0.167 HD
ATOM     57  C   UNL     1       7.321  -7.171   8.898  1.00  0.00     0.074 A 
ATOM     58  C   UNL     1       6.983  -8.511   9.334  1.00  0.00     0.031 C 
ATOM     59  C   UNL     1       8.132  -6.327   9.587  1.00  0.00     0.034 A 
BRANCH  46  60
ATOM     60  C   UNL     1       8.898  -0.790   6.877  1.00  0.00     0.023 A 
ATOM     61  C   UNL     1       8.150   0.400   6.915  1.00  0.00     0.031 A 
ATOM     62  C   UNL     1      10.300  -0.681   6.838  1.00  0.00     0.131 A 
ATOM     63  C   UNL     1       8.803   1.642   6.842  1.00  0.00     0.055 A 
ATOM     64  C   UNL     1      10.946   0.556   6.848  1.00  0.00     0.041 A 
ATOM     65  F   UNL     1      11.069  -1.780   6.779  1.00  0.00    -0.206 F 
ATOM     66  C   UNL     1      10.197   1.728   6.835  1.00  0.00     0.022 A 
BRANCH  63  67
ATOM     67  S   UNL     1       7.803   3.139   6.613  1.00  0.00     0.124 S 
ATOM     68  O   UNL     1       7.097   2.837   5.370  1.00  0.00    -0.237 OA
ATOM     69  O   UNL     1       6.987   3.162   7.821  1.00  0.00    -0.237 OA
ATOM     70  O   UNL     1       8.799   4.204   6.512  1.00  0.00    -0.744 OA
ENDBRANCH  63  67
ENDBRANCH  46  60
BRANCH  47  71
ATOM     71  C   UNL     1       4.535  -9.793   6.146  1.00  0.00     0.023 A 
ATOM     72  C   UNL     1       3.609 -10.268   7.087  1.00  0.00     0.031 A 
ATOM     73  C   UNL     1       4.912 -10.655   5.100  1.00  0.00     0.131 A 
ATOM     74  C   UNL     1       3.127 -11.582   6.991  1.00  0.00     0.055 A 
ATOM     75  C   UNL     1       4.383 -11.940   4.974  1.00  0.00     0.041 A 
ATOM     76  F   UNL     1       5.796 -10.253   4.172  1.00  0.00    -0.206 F 
ATOM     77  C   UNL     1       3.494 -12.416   5.932  1.00  0.00     0.022 A 
BRANCH  74  78
ATOM     78  S   UNL     1       2.076 -12.221   8.325  1.00  0.00     0.124 S 
ATOM     79  O   UNL     1       2.940 -12.056   9.488  1.00  0.00    -0.237 OA
ATOM     80  O   UNL     1       0.920 -11.334   8.252  1.00  0.00    -0.237 OA
ATOM     81  O   UNL     1       1.823 -13.604   7.926  1.00  0.00    -0.744 OA
ENDBRANCH  74  78
ENDBRANCH  47  71
BRANCH  59  82
ATOM     82  C   UNL     1       8.664  -6.826  10.910  1.00  0.00     0.023 A 
ATOM     83  C   UNL     1       9.549  -7.916  10.989  1.00  0.00     0.031 A 
ATOM     84  C   UNL     1       8.245  -6.229  12.112  1.00  0.00     0.131 A 
ATOM     85  C   UNL     1       9.929  -8.420  12.242  1.00  0.00     0.055 A 
ATOM     86  C   UNL     1       8.680  -6.691  13.354  1.00  0.00     0.041 A 
ATOM     87  F   UNL     1       7.396  -5.188  12.099  1.00  0.00    -0.206 F 
ATOM     88  C   UNL     1       9.513  -7.804  13.425  1.00  0.00     0.022 A 
BRANCH  85  89
ATOM     89  S   UNL     1      10.876  -9.966  12.309  1.00  0.00     0.124 S 
ATOM     90  O   UNL     1      10.006 -10.887  11.585  1.00  0.00    -0.237 OA
ATOM     91  O   UNL     1      12.118  -9.600  11.637  1.00  0.00    -0.237 OA
ATOM     92  O   UNL     1      11.002 -10.229  13.742  1.00  0.00    -0.744 OA
ENDBRANCH  85  89
ENDBRANCH  59  82
ENDBRANCH  33  34
ENDBRANCH  26  28
ENDBRANCH  25  26
ENDBRANCH  24  25
ENDBRANCH   1  24
TORSDOF 18
