REMARK SMILES COc1ccc(/C=C/C(=O)OCCOC(=O)c2ccc(-c3c4nc(c(-c5cc(S(=O)(=O)[O-])ccc5F)c5ccc([nH]5)c(-c5cc(S(=O)(=O)[O-])ccc5F)c5nc(c(-c6cc(S(=O)(=O)[O-])ccc6F)c6ccc3[nH]6)C=C5)C=C4)cc2)cc1S(=O)(=O)Nc1ccc(F)cc1F
REMARK SMILES IDX 12 1 11 2 9 3 10 4 8 5 7 6 6 7 3 8 4 9 81 10 5 11 80 12 2 13
REMARK SMILES IDX 1 14 82 15 83 16 84 17 85 18 86 20 87 21 92 22 88 23 91 24
REMARK SMILES IDX 93 25 89 26 90 27 13 28 14 29 15 30 16 31 17 32 18 33 79 34
REMARK SMILES IDX 19 35 78 36 20 37 21 38 22 39 72 40 23 41 77 42 71 43 73 44
REMARK SMILES IDX 24 45 76 46 70 47 69 48 25 50 57 51 37 52 56 53 38 54 41 55
REMARK SMILES IDX 55 56 74 57 39 58 40 59 54 61 75 62 42 63 26 64 27 65 35 66
REMARK SMILES IDX 28 67 34 68 36 69 33 70 29 71 30 72 31 73 32 74 58 75 59 76
REMARK SMILES IDX 67 77 60 78 66 79 68 80 65 81 61 82 62 83 63 84 64 85 43 86
REMARK SMILES IDX 44 87 52 88 45 89 51 90 53 91 50 92 46 93 47 94 48 95 49 96
REMARK H PARENT 85 19 73 49 41 60
REMARK Flexibility Score: inf
ROOT
ATOM      1  C   UNL     1       3.513   7.892   6.913  1.00  0.00     0.275 C 
ENDROOT
BRANCH   1   2
ATOM      2  O   UNL     1       3.247   6.824   5.985  1.00  0.00    -0.459 OA
BRANCH   2   3
ATOM      3  C   UNL     1       2.063   6.199   6.168  1.00  0.00     0.330 C 
ATOM      4  O   UNL     1       1.277   6.398   7.084  1.00  0.00    -0.247 OA
BRANCH   3   5
ATOM      5  C   UNL     1       1.752   5.214   5.120  1.00  0.00     0.094 C 
ATOM      6  C   UNL     1       2.404   4.978   3.968  1.00  0.00     0.015 C 
BRANCH   6   7
ATOM      7  C   UNL     1       1.865   3.973   3.036  1.00  0.00    -0.024 A 
ATOM      8  C   UNL     1       0.756   1.793   1.673  1.00  0.00     0.139 A 
ATOM      9  C   UNL     1      -0.065   2.824   2.129  1.00  0.00     0.048 A 
ATOM     10  C   UNL     1       2.138   1.955   1.683  1.00  0.00     0.130 A 
ATOM     11  C   UNL     1       0.488   3.916   2.787  1.00  0.00     0.012 A 
ATOM     12  C   UNL     1       2.693   3.034   2.407  1.00  0.00     0.034 A 
BRANCH   8  13
ATOM     13  O   UNL     1       0.096   0.683   1.241  1.00  0.00    -0.495 OA
ATOM     14  C   UNL     1       0.096  -0.330   2.246  1.00  0.00     0.278 C 
ENDBRANCH   8  13
BRANCH  10  15
ATOM     15  S   UNL     1       3.299   0.943   0.799  1.00  0.00     0.265 S 
ATOM     16  O   UNL     1       4.090   1.812  -0.046  1.00  0.00    -0.201 OA
ATOM     17  O   UNL     1       3.958   0.142   1.816  1.00  0.00    -0.201 OA
BRANCH  15  18
ATOM     18  N   UNL     1       2.559  -0.200  -0.175  1.00  0.00    -0.277 N 
ATOM     19  H   UNL     1       2.934  -1.110  -0.154  1.00  0.00     0.180 HD
BRANCH  18  20
ATOM     20  C   UNL     1       1.439   0.015  -1.032  1.00  0.00     0.085 A 
ATOM     21  C   UNL     1       0.624  -1.107  -1.253  1.00  0.00     0.033 A 
ATOM     22  C   UNL     1       1.047   1.250  -1.565  1.00  0.00     0.150 A 
ATOM     23  C   UNL     1      -0.622  -0.963  -1.864  1.00  0.00     0.041 A 
ATOM     24  C   UNL     1      -0.196   1.397  -2.178  1.00  0.00     0.080 A 
ATOM     25  F   UNL     1       1.808   2.340  -1.414  1.00  0.00    -0.205 F 
ATOM     26  C   UNL     1      -1.030   0.293  -2.296  1.00  0.00     0.126 A 
ATOM     27  F   UNL     1      -2.253   0.436  -2.821  1.00  0.00    -0.207 F 
ENDBRANCH  18  20
ENDBRANCH  15  18
ENDBRANCH  10  15
ENDBRANCH   6   7
ENDBRANCH   3   5
ENDBRANCH   2   3
ENDBRANCH   1   2
BRANCH   1  28
ATOM     28  C   UNL     1       3.253   9.263   6.281  1.00  0.00     0.275 C 
BRANCH  28  29
ATOM     29  O   UNL     1       1.862   9.477   5.974  1.00  0.00    -0.458 OA
BRANCH  29  30
ATOM     30  C   UNL     1       1.480   9.078   4.738  1.00  0.00     0.338 C 
ATOM     31  O   UNL     1       2.190   8.557   3.886  1.00  0.00    -0.246 OA
BRANCH  30  32
ATOM     32  C   UNL     1       0.029   9.261   4.560  1.00  0.00     0.060 A 
ATOM     33  C   UNL     1      -0.728   8.165   4.137  1.00  0.00     0.016 A 
ATOM     34  C   UNL     1      -0.571  10.514   4.718  1.00  0.00     0.016 A 
ATOM     35  C   UNL     1      -2.087   8.319   3.859  1.00  0.00     0.010 A 
ATOM     36  C   UNL     1      -1.935  10.665   4.439  1.00  0.00     0.010 A 
ATOM     37  C   UNL     1      -2.701   9.572   3.995  1.00  0.00    -0.014 A 
BRANCH  37  38
ATOM     38  C   UNL     1      -4.135   9.742   3.639  1.00  0.00     0.031 A 
ATOM     39  C   UNL     1      -4.516  10.440   2.361  1.00  0.00     0.074 A 
ATOM     40  C   UNL     1      -5.091   9.264   4.458  1.00  0.00     0.049 A 
ATOM     41  N   UNL     1      -5.707  10.728   1.899  1.00  0.00    -0.248 NA
ATOM     42  C   UNL     1      -3.413  10.870   1.489  1.00  0.00     0.031 C 
ATOM     43  C   UNL     1      -4.845   8.548   5.711  1.00  0.00     0.029 A 
ATOM     44  N   UNL     1      -6.461   9.313   4.366  1.00  0.00    -0.354 N 
ATOM     45  C   UNL     1      -5.499  11.386   0.691  1.00  0.00     0.074 A 
ATOM     46  C   UNL     1      -4.066  11.470   0.502  1.00  0.00     0.031 C 
ATOM     47  C   UNL     1      -6.024   8.230   6.272  1.00  0.00     0.029 A 
ATOM     48  C   UNL     1      -7.107   8.757   5.447  1.00  0.00     0.049 A 
ATOM     49  H   UNL     1      -6.935   9.708   3.600  1.00  0.00     0.167 HD
ATOM     50  C   UNL     1      -6.420  11.871  -0.178  1.00  0.00     0.034 A 
ATOM     51  C   UNL     1      -8.420   8.706   5.752  1.00  0.00     0.034 A 
ATOM     52  C   UNL     1      -7.847  11.774   0.016  1.00  0.00     0.049 A 
ATOM     53  C   UNL     1      -9.420   9.305   4.791  1.00  0.00     0.074 A 
ATOM     54  C   UNL     1      -8.861  12.197  -0.827  1.00  0.00     0.029 A 
ATOM     55  N   UNL     1      -8.465  11.227   1.133  1.00  0.00    -0.354 N 
ATOM     56  N   UNL     1      -9.206   9.898   3.639  1.00  0.00    -0.248 NA
ATOM     57  C   UNL     1     -10.838   9.222   5.169  1.00  0.00     0.031 C 
ATOM     58  C   UNL     1     -10.087  11.969  -0.192  1.00  0.00     0.029 A 
ATOM     59  C   UNL     1      -9.843  11.336   1.016  1.00  0.00     0.049 A 
ATOM     60  H   UNL     1      -7.994  10.823   1.897  1.00  0.00     0.167 HD
ATOM     61  C   UNL     1     -10.466  10.227   3.143  1.00  0.00     0.074 A 
ATOM     62  C   UNL     1     -11.432   9.753   4.111  1.00  0.00     0.031 C 
ATOM     63  C   UNL     1     -10.796  10.861   1.990  1.00  0.00     0.034 A 
BRANCH  50  64
ATOM     64  C   UNL     1      -5.918  12.597  -1.401  1.00  0.00     0.023 A 
ATOM     65  C   UNL     1      -5.237  11.933  -2.435  1.00  0.00     0.031 A 
ATOM     66  C   UNL     1      -6.147  13.978  -1.540  1.00  0.00     0.131 A 
ATOM     67  C   UNL     1      -4.773  12.659  -3.544  1.00  0.00     0.055 A 
ATOM     68  C   UNL     1      -5.738  14.682  -2.674  1.00  0.00     0.041 A 
ATOM     69  F   UNL     1      -6.776  14.666  -0.575  1.00  0.00    -0.206 F 
ATOM     70  C   UNL     1      -5.039  14.024  -3.681  1.00  0.00     0.022 A 
BRANCH  67  71
ATOM     71  S   UNL     1      -3.735  11.812  -4.767  1.00  0.00     0.124 S 
ATOM     72  O   UNL     1      -2.589  11.412  -3.955  1.00  0.00    -0.237 OA
ATOM     73  O   UNL     1      -4.602  10.733  -5.225  1.00  0.00    -0.237 OA
ATOM     74  O   UNL     1      -3.456  12.851  -5.757  1.00  0.00    -0.744 OA
ENDBRANCH  67  71
ENDBRANCH  50  64
BRANCH  51  75
ATOM     75  C   UNL     1      -8.880   8.114   7.043  1.00  0.00     0.023 A 
ATOM     76  C   UNL     1      -9.732   6.999   7.070  1.00  0.00     0.031 A 
ATOM     77  C   UNL     1      -8.539   8.711   8.270  1.00  0.00     0.131 A 
ATOM     78  C   UNL     1     -10.264   6.554   8.291  1.00  0.00     0.055 A 
ATOM     79  C   UNL     1      -9.020   8.226   9.487  1.00  0.00     0.041 A 
ATOM     80  F   UNL     1      -7.730   9.782   8.303  1.00  0.00    -0.206 F 
ATOM     81  C   UNL     1      -9.904   7.152   9.500  1.00  0.00     0.022 A 
BRANCH  78  82
ATOM     82  S   UNL     1     -11.531   5.255   8.263  1.00  0.00     0.124 S 
ATOM     83  O   UNL     1     -12.521   5.825   7.356  1.00  0.00    -0.237 OA
ATOM     84  O   UNL     1     -10.779   4.112   7.757  1.00  0.00    -0.237 OA
ATOM     85  O   UNL     1     -11.947   5.157   9.661  1.00  0.00    -0.744 OA
ENDBRANCH  78  82
ENDBRANCH  51  75
BRANCH  63  86
ATOM     86  C   UNL     1     -12.267  11.027   1.694  1.00  0.00     0.023 A 
ATOM     87  C   UNL     1     -13.089  11.867   2.465  1.00  0.00     0.031 A 
ATOM     88  C   UNL     1     -12.856  10.317   0.632  1.00  0.00     0.131 A 
ATOM     89  C   UNL     1     -14.465  11.936   2.197  1.00  0.00     0.055 A 
ATOM     90  C   UNL     1     -14.215  10.434   0.334  1.00  0.00     0.041 A 
ATOM     91  F   UNL     1     -12.119   9.499  -0.136  1.00  0.00    -0.206 F 
ATOM     92  C   UNL     1     -15.030  11.236   1.127  1.00  0.00     0.022 A 
BRANCH  89  93
ATOM     93  S   UNL     1     -15.526  12.886   3.321  1.00  0.00     0.124 S 
ATOM     94  O   UNL     1     -15.288  12.222   4.598  1.00  0.00    -0.237 OA
ATOM     95  O   UNL     1     -14.986  14.236   3.194  1.00  0.00    -0.237 OA
ATOM     96  O   UNL     1     -16.866  12.701   2.766  1.00  0.00    -0.744 OA
ENDBRANCH  89  93
ENDBRANCH  63  86
ENDBRANCH  37  38
ENDBRANCH  30  32
ENDBRANCH  29  30
ENDBRANCH  28  29
ENDBRANCH   1  28
TORSDOF 19
