REMARK SMILES O=C(OCCOC(=O)c1cc(F)ccc1NS(=O)(=O)c1ccc(Cl)s1)c1ccc(-c2c3nc(c(-c4cc(S(=O)(=O)[O-])ccc4F)c4ccc([nH]4)c(-c4cc(S(=O)(=O)[O-])ccc4F)c4nc(c(-c5cc(S(=O)(=O)[O-])ccc5F)c5ccc2[nH]5)C=C4)C=C3)cc1
REMARK SMILES IDX 4 1 3 2 2 3 1 4 26 5 27 6 88 7 28 8 87 9 29 10 30 11 31 12
REMARK SMILES IDX 81 13 32 14 86 15 80 16 82 17 33 18 85 19 79 20 78 21 34 23
REMARK SMILES IDX 66 24 46 25 65 26 47 27 50 28 64 29 83 30 48 31 49 32 63 34
REMARK SMILES IDX 84 35 51 36 35 37 36 38 44 39 37 40 43 41 45 42 42 43 38 44
REMARK SMILES IDX 39 45 40 46 41 47 67 48 68 49 76 50 69 51 75 52 77 53 74 54
REMARK SMILES IDX 70 55 71 56 72 57 73 58 52 59 53 60 61 61 54 62 60 63 62 64
REMARK SMILES IDX 59 65 55 66 56 67 57 68 58 69 5 70 6 71 7 72 8 73 9 74 10 75
REMARK SMILES IDX 15 76 11 77 14 78 12 79 13 80 16 81 17 83 18 84 19 85 20 86
REMARK SMILES IDX 21 87 25 88 22 89 23 90 24 91
REMARK H PARENT 82 22 50 33 16 82
REMARK Flexibility Score: inf
ROOT
ATOM      1  C   UNL     1       4.271  -0.595  -1.695  1.00  0.00     0.275 C 
ENDROOT
BRANCH   1   2
ATOM      2  O   UNL     1       3.348  -1.133  -0.734  1.00  0.00    -0.458 OA
BRANCH   2   3
ATOM      3  C   UNL     1       3.064  -0.768   0.537  1.00  0.00     0.338 C 
ATOM      4  O   UNL     1       2.099  -1.303   1.079  1.00  0.00    -0.246 OA
BRANCH   3   5
ATOM      5  C   UNL     1       3.793   0.300   1.299  1.00  0.00     0.060 A 
ATOM      6  C   UNL     1       5.082   0.767   1.049  1.00  0.00     0.016 A 
ATOM      7  C   UNL     1       3.112   0.853   2.398  1.00  0.00     0.016 A 
ATOM      8  C   UNL     1       5.647   1.786   1.827  1.00  0.00     0.010 A 
ATOM      9  C   UNL     1       3.654   1.890   3.164  1.00  0.00     0.010 A 
ATOM     10  C   UNL     1       4.941   2.351   2.892  1.00  0.00    -0.014 A 
BRANCH  10  11
ATOM     11  C   UNL     1       5.637   3.275   3.817  1.00  0.00     0.031 A 
ATOM     12  C   UNL     1       6.075   2.749   5.154  1.00  0.00     0.074 A 
ATOM     13  C   UNL     1       5.948   4.529   3.436  1.00  0.00     0.049 A 
ATOM     14  N   UNL     1       6.793   3.336   6.074  1.00  0.00    -0.248 NA
ATOM     15  C   UNL     1       5.668   1.375   5.493  1.00  0.00     0.031 C 
ATOM     16  C   UNL     1       5.610   5.118   2.143  1.00  0.00     0.029 A 
ATOM     17  N   UNL     1       6.628   5.528   4.083  1.00  0.00    -0.354 N 
ATOM     18  C   UNL     1       6.961   2.388   7.076  1.00  0.00     0.074 A 
ATOM     19  C   UNL     1       6.199   1.221   6.695  1.00  0.00     0.031 C 
ATOM     20  C   UNL     1       6.065   6.381   2.095  1.00  0.00     0.029 A 
ATOM     21  C   UNL     1       6.747   6.685   3.347  1.00  0.00     0.049 A 
ATOM     22  H   UNL     1       6.997   5.427   4.990  1.00  0.00     0.167 HD
ATOM     23  C   UNL     1       7.724   2.465   8.190  1.00  0.00     0.034 A 
ATOM     24  C   UNL     1       7.355   7.851   3.644  1.00  0.00     0.034 A 
ATOM     25  C   UNL     1       8.472   3.633   8.560  1.00  0.00     0.049 A 
ATOM     26  C   UNL     1       8.101   7.956   4.947  1.00  0.00     0.074 A 
ATOM     27  C   UNL     1       9.274   3.829   9.668  1.00  0.00     0.029 A 
ATOM     28  N   UNL     1       8.500   4.812   7.827  1.00  0.00    -0.354 N 
ATOM     29  N   UNL     1       8.267   7.039   5.872  1.00  0.00    -0.248 NA
ATOM     30  C   UNL     1       8.755   9.238   5.243  1.00  0.00     0.031 C 
ATOM     31  C   UNL     1       9.748   5.144   9.631  1.00  0.00     0.029 A 
ATOM     32  C   UNL     1       9.281   5.751   8.475  1.00  0.00     0.049 A 
ATOM     33  H   UNL     1       8.033   4.957   6.973  1.00  0.00     0.167 HD
ATOM     34  C   UNL     1       9.065   7.624   6.848  1.00  0.00     0.074 A 
ATOM     35  C   UNL     1       9.347   8.974   6.401  1.00  0.00     0.031 C 
ATOM     36  C   UNL     1       9.531   7.092   8.005  1.00  0.00     0.034 A 
BRANCH  23  37
ATOM     37  C   UNL     1       7.766   1.247   9.069  1.00  0.00     0.023 A 
ATOM     38  C   UNL     1       8.406   0.070   8.643  1.00  0.00     0.031 A 
ATOM     39  C   UNL     1       7.120   1.242  10.315  1.00  0.00     0.131 A 
ATOM     40  C   UNL     1       8.335  -1.086   9.433  1.00  0.00     0.055 A 
ATOM     41  C   UNL     1       7.105   0.105  11.125  1.00  0.00     0.041 A 
ATOM     42  F   UNL     1       6.473   2.333  10.753  1.00  0.00    -0.206 F 
ATOM     43  C   UNL     1       7.706  -1.070  10.681  1.00  0.00     0.022 A 
BRANCH  40  44
ATOM     44  S   UNL     1       8.997  -2.637   8.768  1.00  0.00     0.124 S 
ATOM     45  O   UNL     1       8.055  -2.918   7.687  1.00  0.00    -0.237 OA
ATOM     46  O   UNL     1      10.344  -2.260   8.355  1.00  0.00    -0.237 OA
ATOM     47  O   UNL     1       8.928  -3.553   9.904  1.00  0.00    -0.744 OA
ENDBRANCH  40  44
ENDBRANCH  23  37
BRANCH  24  48
ATOM     48  C   UNL     1       7.286   9.000   2.698  1.00  0.00     0.023 A 
ATOM     49  C   UNL     1       8.418   9.443   1.996  1.00  0.00     0.031 A 
ATOM     50  C   UNL     1       6.072   9.680   2.491  1.00  0.00     0.131 A 
ATOM     51  C   UNL     1       8.318  10.550   1.136  1.00  0.00     0.055 A 
ATOM     52  C   UNL     1       5.971  10.762   1.614  1.00  0.00     0.041 A 
ATOM     53  F   UNL     1       4.959   9.292   3.135  1.00  0.00    -0.206 F 
ATOM     54  C   UNL     1       7.101  11.207   0.935  1.00  0.00     0.022 A 
BRANCH  51  55
ATOM     55  S   UNL     1       9.814  11.143   0.297  1.00  0.00     0.124 S 
ATOM     56  O   UNL     1      10.653  11.533   1.424  1.00  0.00    -0.237 OA
ATOM     57  O   UNL     1      10.238   9.958  -0.442  1.00  0.00    -0.237 OA
ATOM     58  O   UNL     1       9.327  12.246  -0.530  1.00  0.00    -0.744 OA
ENDBRANCH  51  55
ENDBRANCH  24  48
BRANCH  36  59
ATOM     59  C   UNL     1      10.398   7.964   8.865  1.00  0.00     0.023 A 
ATOM     60  C   UNL     1       9.840   8.986   9.648  1.00  0.00     0.031 A 
ATOM     61  C   UNL     1      11.777   7.714   8.965  1.00  0.00     0.131 A 
ATOM     62  C   UNL     1      10.666   9.736  10.495  1.00  0.00     0.055 A 
ATOM     63  C   UNL     1      12.586   8.437   9.838  1.00  0.00     0.041 A 
ATOM     64  F   UNL     1      12.347   6.739   8.238  1.00  0.00    -0.206 F 
ATOM     65  C   UNL     1      12.031   9.456  10.610  1.00  0.00     0.022 A 
BRANCH  62  66
ATOM     66  S   UNL     1       9.930  11.085  11.456  1.00  0.00     0.124 S 
ATOM     67  O   UNL     1       9.608  12.055  10.414  1.00  0.00    -0.237 OA
ATOM     68  O   UNL     1       8.791  10.437  12.096  1.00  0.00    -0.237 OA
ATOM     69  O   UNL     1      11.004  11.483  12.364  1.00  0.00    -0.744 OA
ENDBRANCH  62  66
ENDBRANCH  36  59
ENDBRANCH  10  11
ENDBRANCH   3   5
ENDBRANCH   2   3
ENDBRANCH   1   2
BRANCH   1  70
ATOM     70  C   UNL     1       3.781   0.667  -2.401  1.00  0.00     0.275 C 
BRANCH  70  71
ATOM     71  O   UNL     1       3.382   1.711  -1.502  1.00  0.00    -0.458 OA
BRANCH  71  72
ATOM     72  C   UNL     1       2.047   1.841  -1.276  1.00  0.00     0.340 C 
ATOM     73  O   UNL     1       1.157   1.131  -1.714  1.00  0.00    -0.246 OA
BRANCH  72  74
ATOM     74  C   UNL     1       1.833   2.914  -0.280  1.00  0.00     0.087 A 
ATOM     75  C   UNL     1       2.595   4.086  -0.396  1.00  0.00     0.057 A 
ATOM     76  C   UNL     1       0.926   2.734   0.791  1.00  0.00     0.064 A 
ATOM     77  C   UNL     1       2.490   5.061   0.580  1.00  0.00     0.124 A 
ATOM     78  C   UNL     1       0.949   3.689   1.815  1.00  0.00     0.030 A 
ATOM     79  F   UNL     1       3.170   6.205   0.442  1.00  0.00    -0.207 F 
ATOM     80  C   UNL     1       1.722   4.850   1.710  1.00  0.00     0.041 A 
BRANCH  76  81
ATOM     81  N   UNL     1      -0.140   1.771   0.665  1.00  0.00    -0.278 N 
ATOM     82  H   UNL     1      -0.353   1.465  -0.246  1.00  0.00     0.180 HD
BRANCH  81  83
ATOM     83  S   UNL     1      -1.054   1.118   1.911  1.00  0.00     0.271 S 
ATOM     84  O   UNL     1      -2.163   0.410   1.307  1.00  0.00    -0.200 OA
ATOM     85  O   UNL     1      -0.171   0.463   2.848  1.00  0.00    -0.200 OA
BRANCH  83  86
ATOM     86  C   UNL     1      -1.823   2.371   2.910  1.00  0.00     0.141 A 
ATOM     87  C   UNL     1      -1.927   2.485   4.288  1.00  0.00     0.036 A 
ATOM     88  S   UNL     1      -2.511   3.721   2.114  1.00  0.00    -0.110 S 
ATOM     89  C   UNL     1      -2.412   3.763   4.685  1.00  0.00     0.034 A 
ATOM     90  C   UNL     1      -2.707   4.533   3.589  1.00  0.00     0.094 A 
ATOM     91  Cl  UNL     1      -3.220   6.171   3.602  1.00  0.00    -0.072 Cl
ENDBRANCH  83  86
ENDBRANCH  81  83
ENDBRANCH  76  81
ENDBRANCH  72  74
ENDBRANCH  71  72
ENDBRANCH  70  71
ENDBRANCH   1  70
TORSDOF 17
