REMARK SMILES O=C(OCCOC(=O)c1ccc(-c2c3nc(c(-c4cc(S(=O)(=O)[O-])ccc4F)c4ccc([nH]4)c(-c4cc(S(=O)(=O)[O-])ccc4F)c4nc(c(-c5cc(S(=O)(=O)[O-])ccc5F)c5ccc2[nH]5)C=C4)C=C3)cc1)C1=Cc2cc(Cl)c(Cl)c(Cl)c2O[C@@H]1C(F)(F)F
REMARK SMILES IDX 5 1 4 2 3 3 2 4 1 5 72 6 73 7 84 8 74 9 83 10 75 11 82 12
REMARK SMILES IDX 76 13 80 14 77 15 78 16 81 17 79 18 85 19 86 20 87 21 88 22
REMARK SMILES IDX 6 23 7 24 8 25 9 26 10 27 71 28 11 29 70 30 12 31 13 32
REMARK SMILES IDX 14 33 64 34 15 35 69 36 63 37 65 38 16 39 68 40 62 41 61 42
REMARK SMILES IDX 17 44 49 45 29 46 48 47 30 48 33 49 47 50 66 51 31 52 32 53
REMARK SMILES IDX 46 55 67 56 34 57 18 58 19 59 27 60 20 61 26 62 28 63 25 64
REMARK SMILES IDX 21 65 22 66 23 67 24 68 50 69 51 70 59 71 52 72 58 73 60 74
REMARK SMILES IDX 57 75 53 76 54 77 55 78 56 79 35 80 36 81 44 82 37 83 43 84
REMARK SMILES IDX 45 85 42 86 38 87 39 88 40 89 41 90
REMARK H PARENT 65 43 33 54
REMARK Flexibility Score: inf
ROOT
ATOM      1  C   UNL     1       4.799  -0.875  -0.056  1.00  0.00     0.275 C 
ENDROOT
BRANCH   1   2
ATOM      2  C   UNL     1       3.871   1.104  -0.170  1.00  0.00     0.275 C 
BRANCH   2   3
ATOM      3  O   UNL     1       2.850   1.580  -1.162  1.00  0.00    -0.459 OA
BRANCH   3   4
ATOM      4  C   UNL     1       3.071   1.070  -2.375  1.00  0.00     0.338 C 
ATOM      5  O   UNL     1       2.358   1.140  -3.345  1.00  0.00    -0.246 OA
BRANCH   4   6
ATOM      6  C   UNL     1       4.092   0.085  -2.006  1.00  0.00     0.087 C 
ATOM      7  C   UNL     1       5.409   0.598  -1.768  1.00  0.00     0.027 C 
ATOM      8  C   UNL     1       2.945  -0.649  -0.670  1.00  0.00     0.316 C 
ATOM      9  C   UNL     1       6.115   0.851  -0.170  1.00  0.00     0.020 A 
ATOM     10  O   UNL     1       3.595  -0.211   1.130  1.00  0.00    -0.474 OA
ATOM     11  C   UNL     1       7.377   1.353  -0.140  1.00  0.00     0.034 A 
ATOM     12  C   UNL     1       5.230   0.643   1.299  1.00  0.00     0.148 A 
ATOM     13  C   UNL     1       7.814   1.760   1.126  1.00  0.00     0.062 A 
ATOM     14  C   UNL     1       5.718   1.086   2.499  1.00  0.00     0.103 A 
ATOM     15  Cl  UNL     1       9.426   2.434   1.105  1.00  0.00    -0.083 Cl
ATOM     16  C   UNL     1       7.023   1.679   2.373  1.00  0.00     0.082 A 
ATOM     17  Cl  UNL     1       4.820   1.040   3.946  1.00  0.00    -0.079 Cl
ATOM     18  Cl  UNL     1       7.739   2.431   3.786  1.00  0.00    -0.081 Cl
BRANCH   8  19
ATOM     19  C   UNL     1       3.018  -1.999  -1.696  1.00  0.00     0.430 C 
ATOM     20  F   UNL     1       2.019  -2.836  -1.562  1.00  0.00    -0.167 F 
ATOM     21  F   UNL     1       2.847  -1.599  -2.999  1.00  0.00    -0.167 F 
ATOM     22  F   UNL     1       4.176  -2.702  -1.735  1.00  0.00    -0.167 F 
ENDBRANCH   8  19
ENDBRANCH   4   6
ENDBRANCH   3   4
ENDBRANCH   2   3
ENDBRANCH   1   2
BRANCH   1  23
ATOM     23  O   UNL     1       3.918  -2.294   0.546  1.00  0.00    -0.458 OA
BRANCH  23  24
ATOM     24  C   UNL     1       2.822  -2.619   1.356  1.00  0.00     0.338 C 
ATOM     25  O   UNL     1       2.211  -1.911   2.138  1.00  0.00    -0.246 OA
BRANCH  24  26
ATOM     26  C   UNL     1       2.204  -3.863   0.798  1.00  0.00     0.060 A 
ATOM     27  C   UNL     1       0.918  -3.795   0.200  1.00  0.00     0.016 A 
ATOM     28  C   UNL     1       3.061  -4.912   0.489  1.00  0.00     0.016 A 
ATOM     29  C   UNL     1       0.628  -4.623  -0.913  1.00  0.00     0.010 A 
ATOM     30  C   UNL     1       2.771  -5.719  -0.608  1.00  0.00     0.010 A 
ATOM     31  C   UNL     1       1.601  -5.529  -1.376  1.00  0.00    -0.014 A 
BRANCH  31  32
ATOM     32  C   UNL     1       1.309  -6.549  -2.420  1.00  0.00     0.031 A 
ATOM     33  C   UNL     1       0.804  -7.834  -1.846  1.00  0.00     0.074 A 
ATOM     34  C   UNL     1       1.606  -6.449  -3.735  1.00  0.00     0.049 A 
ATOM     35  N   UNL     1       0.723  -9.019  -2.377  1.00  0.00    -0.248 NA
ATOM     36  C   UNL     1       0.435  -7.772  -0.420  1.00  0.00     0.031 C 
ATOM     37  C   UNL     1       2.104  -5.260  -4.428  1.00  0.00     0.029 A 
ATOM     38  N   UNL     1       1.547  -7.401  -4.735  1.00  0.00    -0.354 N 
ATOM     39  C   UNL     1       0.335  -9.843  -1.330  1.00  0.00     0.074 A 
ATOM     40  C   UNL     1       0.324  -9.049  -0.129  1.00  0.00     0.031 C 
ATOM     41  C   UNL     1       2.300  -5.554  -5.731  1.00  0.00     0.029 A 
ATOM     42  C   UNL     1       1.990  -6.965  -5.969  1.00  0.00     0.049 A 
ATOM     43  H   UNL     1       1.217  -8.316  -4.580  1.00  0.00     0.167 HD
ATOM     44  C   UNL     1      -0.022 -11.145  -1.368  1.00  0.00     0.034 A 
ATOM     45  C   UNL     1       2.142  -7.640  -7.136  1.00  0.00     0.034 A 
ATOM     46  C   UNL     1       0.024 -11.920  -2.571  1.00  0.00     0.049 A 
ATOM     47  C   UNL     1       1.810  -9.124  -7.159  1.00  0.00     0.074 A 
ATOM     48  C   UNL     1      -0.313 -13.245  -2.752  1.00  0.00     0.029 A 
ATOM     49  N   UNL     1       0.460 -11.436  -3.800  1.00  0.00    -0.354 N 
ATOM     50  N   UNL     1       1.407  -9.897  -6.173  1.00  0.00    -0.248 NA
ATOM     51  C   UNL     1       1.956  -9.829  -8.442  1.00  0.00     0.031 C 
ATOM     52  C   UNL     1       0.007 -13.588  -4.068  1.00  0.00     0.029 A 
ATOM     53  C   UNL     1       0.431 -12.448  -4.739  1.00  0.00     0.049 A 
ATOM     54  H   UNL     1       0.746 -10.510  -3.974  1.00  0.00     0.167 HD
ATOM     55  C   UNL     1       1.204 -11.161  -6.729  1.00  0.00     0.074 A 
ATOM     56  C   UNL     1       1.542 -11.052  -8.133  1.00  0.00     0.031 C 
ATOM     57  C   UNL     1       0.762 -12.303  -6.139  1.00  0.00     0.034 A 
BRANCH  44  58
ATOM     58  C   UNL     1      -0.408 -11.764  -0.049  1.00  0.00     0.023 A 
ATOM     59  C   UNL     1      -1.449 -11.228   0.735  1.00  0.00     0.031 A 
ATOM     60  C   UNL     1       0.383 -12.779   0.509  1.00  0.00     0.131 A 
ATOM     61  C   UNL     1      -1.565 -11.598   2.081  1.00  0.00     0.055 A 
ATOM     62  C   UNL     1       0.173 -13.237   1.810  1.00  0.00     0.041 A 
ATOM     63  F   UNL     1       1.414 -13.299  -0.175  1.00  0.00    -0.206 F 
ATOM     64  C   UNL     1      -0.785 -12.625   2.615  1.00  0.00     0.022 A 
BRANCH  61  65
ATOM     65  S   UNL     1      -2.558 -10.545   3.180  1.00  0.00     0.124 S 
ATOM     66  O   UNL     1      -1.879  -9.257   3.044  1.00  0.00    -0.237 OA
ATOM     67  O   UNL     1      -3.887 -10.632   2.588  1.00  0.00    -0.237 OA
ATOM     68  O   UNL     1      -2.411 -11.182   4.487  1.00  0.00    -0.744 OA
ENDBRANCH  61  65
ENDBRANCH  44  58
BRANCH  45  69
ATOM     69  C   UNL     1       2.659  -6.964  -8.376  1.00  0.00     0.023 A 
ATOM     70  C   UNL     1       1.877  -6.853  -9.544  1.00  0.00     0.031 A 
ATOM     71  C   UNL     1       3.975  -6.472  -8.434  1.00  0.00     0.131 A 
ATOM     72  C   UNL     1       2.424  -6.291 -10.716  1.00  0.00     0.055 A 
ATOM     73  C   UNL     1       4.498  -5.869  -9.584  1.00  0.00     0.041 A 
ATOM     74  F   UNL     1       4.784  -6.571  -7.367  1.00  0.00    -0.206 F 
ATOM     75  C   UNL     1       3.723  -5.781 -10.736  1.00  0.00     0.022 A 
BRANCH  72  76
ATOM     76  S   UNL     1       1.445  -6.299 -12.248  1.00  0.00     0.124 S 
ATOM     77  O   UNL     1       1.243  -7.727 -12.464  1.00  0.00    -0.237 OA
ATOM     78  O   UNL     1       0.264  -5.534 -11.862  1.00  0.00    -0.237 OA
ATOM     79  O   UNL     1       2.319  -5.640 -13.217  1.00  0.00    -0.744 OA
ENDBRANCH  72  76
ENDBRANCH  45  69
BRANCH  57  80
ATOM     80  C   UNL     1       0.522 -13.511  -7.013  1.00  0.00     0.023 A 
ATOM     81  C   UNL     1       1.565 -14.216  -7.632  1.00  0.00     0.031 A 
ATOM     82  C   UNL     1      -0.789 -14.009  -7.148  1.00  0.00     0.131 A 
ATOM     83  C   UNL     1       1.274 -15.368  -8.381  1.00  0.00     0.055 A 
ATOM     84  C   UNL     1      -1.062 -15.192  -7.831  1.00  0.00     0.041 A 
ATOM     85  F   UNL     1      -1.825 -13.370  -6.579  1.00  0.00    -0.206 F 
ATOM     86  C   UNL     1      -0.026 -15.876  -8.459  1.00  0.00     0.022 A 
BRANCH  83  87
ATOM     87  S   UNL     1       2.607 -16.156  -9.324  1.00  0.00     0.124 S 
ATOM     88  O   UNL     1       3.057 -15.065 -10.181  1.00  0.00    -0.237 OA
ATOM     89  O   UNL     1       3.534 -16.568  -8.275  1.00  0.00    -0.237 OA
ATOM     90  O   UNL     1       1.933 -17.252 -10.020  1.00  0.00    -0.744 OA
ENDBRANCH  83  87
ENDBRANCH  57  80
ENDBRANCH  31  32
ENDBRANCH  24  26
ENDBRANCH  23  24
ENDBRANCH   1  23
TORSDOF 15
