REMARK SMILES O=C(OCCOC(=O)c1ccc(-c2c3nc(c(-c4cc(S(=O)(=O)[O-])ccc4F)c4ccc([nH]4)c(-c4cc(S(=O)(=O)[O-])ccc4F)c4nc(c(-c5cc(S(=O)(=O)[O-])ccc5F)c5ccc2[nH]5)C=C4)C=C3)cc1)C1=Cc2cc(Cl)cc(C#Cc3ccccc3)c2O[C@@H]1C(F)(F)F
REMARK SMILES IDX 5 1 4 2 3 3 2 4 1 5 72 6 73 7 90 8 74 9 89 10 75 11 88 12
REMARK SMILES IDX 76 13 79 14 77 15 78 16 91 17 92 18 93 19 94 20 80 21 81 22
REMARK SMILES IDX 82 23 83 24 87 25 84 26 86 27 85 28 6 29 7 30 8 31 9 32
REMARK SMILES IDX 10 33 71 34 11 35 70 36 12 37 13 38 14 39 64 40 15 41 69 42
REMARK SMILES IDX 63 43 65 44 16 45 68 46 62 47 61 48 17 50 49 51 29 52 48 53
REMARK SMILES IDX 30 54 33 55 47 56 66 57 31 58 32 59 46 61 67 62 34 63 18 64
REMARK SMILES IDX 19 65 27 66 20 67 26 68 28 69 25 70 21 71 22 72 23 73 24 74
REMARK SMILES IDX 50 75 51 76 59 77 52 78 58 79 60 80 57 81 53 82 54 83 55 84
REMARK SMILES IDX 56 85 35 86 36 87 44 88 37 89 43 90 45 91 42 92 38 93 39 94
REMARK SMILES IDX 40 95 41 96
REMARK H PARENT 65 49 33 60
REMARK Flexibility Score: inf
ROOT
ATOM      1  C   UNL     1       4.675  -0.873   0.091  1.00  0.00     0.275 C 
ENDROOT
BRANCH   1   2
ATOM      2  C   UNL     1       3.755   0.985  -0.592  1.00  0.00     0.275 C 
BRANCH   2   3
ATOM      3  O   UNL     1       2.730   1.148  -1.687  1.00  0.00    -0.459 OA
BRANCH   3   4
ATOM      4  C   UNL     1       2.938   0.286  -2.684  1.00  0.00     0.338 C 
ATOM      5  O   UNL     1       2.221   0.055  -3.627  1.00  0.00    -0.246 OA
BRANCH   4   6
ATOM      6  C   UNL     1       3.950  -0.541  -2.029  1.00  0.00     0.087 C 
ATOM      7  C   UNL     1       5.277   0.007  -1.968  1.00  0.00     0.027 C 
ATOM      8  C   UNL     1       2.809  -0.825  -0.519  1.00  0.00     0.316 C 
ATOM      9  C   UNL     1       5.998   0.739  -0.531  1.00  0.00     0.020 A 
ATOM     10  O   UNL     1       3.485   0.128   1.053  1.00  0.00    -0.474 OA
ATOM     11  C   UNL     1       7.242   1.278  -0.688  1.00  0.00     0.032 A 
ATOM     12  C   UNL     1       5.121   0.971   0.944  1.00  0.00     0.143 A 
ATOM     13  C   UNL     1       7.673   2.059   0.383  1.00  0.00     0.043 A 
ATOM     14  C   UNL     1       5.611   1.800   1.913  1.00  0.00     0.069 A 
ATOM     15  Cl  UNL     1       9.223   2.816   0.211  1.00  0.00    -0.084 Cl
ATOM     16  C   UNL     1       6.902   2.324   1.586  1.00  0.00     0.041 A 
BRANCH   8  17
ATOM     17  C   UNL     1       2.755  -2.436  -1.025  1.00  0.00     0.430 C 
ATOM     18  F   UNL     1       1.523  -2.933  -0.924  1.00  0.00    -0.167 F 
ATOM     19  F   UNL     1       2.970  -2.533  -2.381  1.00  0.00    -0.167 F 
ATOM     20  F   UNL     1       3.674  -3.300  -0.550  1.00  0.00    -0.167 F 
ENDBRANCH   8  17
BRANCH  14  21
ATOM     21  C   UNL     1       4.959   2.300   3.068  1.00  0.00    -0.058 C 
ATOM     22  C   UNL     1       4.593   2.871   4.054  1.00  0.00    -0.062 C 
BRANCH  22  23
ATOM     23  C   UNL     1       4.296   3.548   5.278  1.00  0.00     0.025 A 
ATOM     24  C   UNL     1       4.329   4.944   5.363  1.00  0.00     0.017 A 
ATOM     25  C   UNL     1       4.030   2.784   6.413  1.00  0.00     0.017 A 
ATOM     26  C   UNL     1       4.096   5.569   6.591  1.00  0.00     0.001 A 
ATOM     27  C   UNL     1       3.800   3.408   7.636  1.00  0.00     0.001 A 
ATOM     28  C   UNL     1       3.835   4.799   7.727  1.00  0.00     0.000 A 
ENDBRANCH  22  23
ENDBRANCH  14  21
ENDBRANCH   4   6
ENDBRANCH   3   4
ENDBRANCH   2   3
ENDBRANCH   1   2
BRANCH   1  29
ATOM     29  O   UNL     1       3.854  -1.990   1.196  1.00  0.00    -0.458 OA
BRANCH  29  30
ATOM     30  C   UNL     1       2.764  -2.069   2.059  1.00  0.00     0.338 C 
ATOM     31  O   UNL     1       2.152  -1.171   2.611  1.00  0.00    -0.246 OA
BRANCH  30  32
ATOM     32  C   UNL     1       2.134  -3.413   1.844  1.00  0.00     0.060 A 
ATOM     33  C   UNL     1       0.824  -3.482   1.318  1.00  0.00     0.016 A 
ATOM     34  C   UNL     1       2.959  -4.532   1.786  1.00  0.00     0.016 A 
ATOM     35  C   UNL     1       0.444  -4.589   0.527  1.00  0.00     0.010 A 
ATOM     36  C   UNL     1       2.585  -5.617   0.990  1.00  0.00     0.010 A 
ATOM     37  C   UNL     1       1.359  -5.627   0.292  1.00  0.00    -0.014 A 
BRANCH  37  38
ATOM     38  C   UNL     1       0.948  -6.901  -0.360  1.00  0.00     0.031 A 
ATOM     39  C   UNL     1       0.448  -7.928   0.610  1.00  0.00     0.074 A 
ATOM     40  C   UNL     1       1.101  -7.202  -1.669  1.00  0.00     0.049 A 
ATOM     41  N   UNL     1       0.215  -9.198   0.446  1.00  0.00    -0.248 NA
ATOM     42  C   UNL     1       0.264  -7.446   1.991  1.00  0.00     0.031 C 
ATOM     43  C   UNL     1       1.574  -6.297  -2.718  1.00  0.00     0.029 A 
ATOM     44  N   UNL     1       0.882  -8.387  -2.343  1.00  0.00    -0.354 N 
ATOM     45  C   UNL     1      -0.120  -9.662   1.711  1.00  0.00     0.074 A 
ATOM     46  C   UNL     1       0.057  -8.572   2.638  1.00  0.00     0.031 C 
ATOM     47  C   UNL     1       1.602  -6.957  -3.896  1.00  0.00     0.029 A 
ATOM     48  C   UNL     1       1.187  -8.346  -3.690  1.00  0.00     0.049 A 
ATOM     49  H   UNL     1       0.538  -9.196  -1.899  1.00  0.00     0.167 HD
ATOM     50  C   UNL     1      -0.579 -10.879   2.071  1.00  0.00     0.034 A 
ATOM     51  C   UNL     1       1.140  -9.323  -4.629  1.00  0.00     0.034 A 
ATOM     52  C   UNL     1      -0.724 -11.957   1.140  1.00  0.00     0.049 A 
ATOM     53  C   UNL     1       0.708 -10.716  -4.194  1.00  0.00     0.074 A 
ATOM     54  C   UNL     1      -1.167 -13.242   1.374  1.00  0.00     0.029 A 
ATOM     55  N   UNL     1      -0.406 -11.873  -0.211  1.00  0.00    -0.354 N 
ATOM     56  N   UNL     1       0.359 -11.141  -2.998  1.00  0.00    -0.248 NA
ATOM     57  C   UNL     1       0.658 -11.759  -5.230  1.00  0.00     0.031 C 
ATOM     58  C   UNL     1      -1.037 -13.960   0.183  1.00  0.00     0.029 A 
ATOM     59  C   UNL     1      -0.619 -13.095  -0.819  1.00  0.00     0.049 A 
ATOM     60  H   UNL     1      -0.079 -11.064  -0.666  1.00  0.00     0.167 HD
ATOM     61  C   UNL     1       0.001 -12.480  -3.152  1.00  0.00     0.074 A 
ATOM     62  C   UNL     1       0.179 -12.795  -4.555  1.00  0.00     0.031 C 
ATOM     63  C   UNL     1      -0.447 -13.369  -2.227  1.00  0.00     0.034 A 
BRANCH  50  64
ATOM     64  C   UNL     1      -0.882 -11.070   3.534  1.00  0.00     0.023 A 
ATOM     65  C   UNL     1      -1.825 -10.259   4.196  1.00  0.00     0.031 A 
ATOM     66  C   UNL     1      -0.116 -11.956   4.305  1.00  0.00     0.131 A 
ATOM     67  C   UNL     1      -1.881 -10.259   5.596  1.00  0.00     0.055 A 
ATOM     68  C   UNL     1      -0.263 -12.035   5.690  1.00  0.00     0.041 A 
ATOM     69  F   UNL     1       0.828 -12.721   3.733  1.00  0.00    -0.206 F 
ATOM     70  C   UNL     1      -1.130 -11.165   6.346  1.00  0.00     0.022 A 
BRANCH  67  71
ATOM     71  S   UNL     1      -2.766  -8.906   6.422  1.00  0.00     0.124 S 
ATOM     72  O   UNL     1      -2.025  -7.738   5.950  1.00  0.00    -0.237 OA
ATOM     73  O   UNL     1      -4.122  -9.052   5.907  1.00  0.00    -0.237 OA
ATOM     74  O   UNL     1      -2.600  -9.207   7.843  1.00  0.00    -0.744 OA
ENDBRANCH  67  71
ENDBRANCH  50  64
BRANCH  51  75
ATOM     75  C   UNL     1       1.524  -9.075  -6.062  1.00  0.00     0.023 A 
ATOM     76  C   UNL     1       0.607  -9.265  -7.116  1.00  0.00     0.031 A 
ATOM     77  C   UNL     1       2.844  -8.738  -6.413  1.00  0.00     0.131 A 
ATOM     78  C   UNL     1       1.029  -9.164  -8.456  1.00  0.00     0.055 A 
ATOM     79  C   UNL     1       3.246  -8.583  -7.746  1.00  0.00     0.041 A 
ATOM     80  F   UNL     1       3.776  -8.566  -5.463  1.00  0.00    -0.206 F 
ATOM     81  C   UNL     1       2.339  -8.807  -8.777  1.00  0.00     0.022 A 
BRANCH  78  82
ATOM     82  S   UNL     1      -0.129  -9.608  -9.786  1.00  0.00     0.124 S 
ATOM     83  O   UNL     1      -0.434 -10.997  -9.463  1.00  0.00    -0.237 OA
ATOM     84  O   UNL     1      -1.209  -8.649  -9.584  1.00  0.00    -0.237 OA
ATOM     85  O   UNL     1       0.655  -9.410 -11.004  1.00  0.00    -0.744 OA
ENDBRANCH  78  82
ENDBRANCH  51  75
BRANCH  63  86
ATOM     86  C   UNL     1      -0.863 -14.739  -2.705  1.00  0.00     0.023 A 
ATOM     87  C   UNL     1       0.055 -15.667  -3.221  1.00  0.00     0.031 A 
ATOM     88  C   UNL     1      -2.208 -15.137  -2.576  1.00  0.00     0.131 A 
ATOM     89  C   UNL     1      -0.392 -16.933  -3.627  1.00  0.00     0.055 A 
ATOM     90  C   UNL     1      -2.631 -16.422  -2.909  1.00  0.00     0.041 A 
ATOM     91  F   UNL     1      -3.128 -14.288  -2.091  1.00  0.00    -0.206 F 
ATOM     92  C   UNL     1      -1.722 -17.326  -3.449  1.00  0.00     0.022 A 
BRANCH  89  93
ATOM     93  S   UNL     1       0.768 -18.033  -4.481  1.00  0.00     0.124 S 
ATOM     94  O   UNL     1       1.183 -17.214  -5.615  1.00  0.00    -0.237 OA
ATOM     95  O   UNL     1       1.784 -18.270  -3.461  1.00  0.00    -0.237 OA
ATOM     96  O   UNL     1      -0.050 -19.196  -4.822  1.00  0.00    -0.744 OA
ENDBRANCH  89  93
ENDBRANCH  63  86
ENDBRANCH  37  38
ENDBRANCH  30  32
ENDBRANCH  29  30
ENDBRANCH   1  29
TORSDOF 17
