REMARK SMILES CC[C@](C)(Nc1cccc(Br)c1)C(=O)OCCOC(=O)c1ccc(-c2c3nc(c(-c4cc(S(=O)(=O)[O-])ccc4F)c4ccc([nH]4)c(-c4cc(S(=O)(=O)[O-])ccc4F)c4nc(c(-c5cc(S(=O)(=O)[O-])ccc5F)c5ccc2[nH]5)C=C4)C=C3)cc1
REMARK SMILES IDX 17 1 16 2 15 3 13 4 14 5 3 6 4 7 2 8 1 9 5 10 6 12 7 13
REMARK SMILES IDX 12 14 8 15 10 16 9 17 11 18 18 19 19 20 20 21 21 22 22 23
REMARK SMILES IDX 83 24 23 25 82 26 24 27 25 28 26 29 76 30 27 31 81 32 75 33
REMARK SMILES IDX 77 34 28 35 80 36 74 37 73 38 29 40 61 41 41 42 60 43 42 44
REMARK SMILES IDX 45 45 59 46 78 47 43 48 44 49 58 51 79 52 46 53 30 54 31 55
REMARK SMILES IDX 39 56 32 57 38 58 40 59 37 60 33 61 34 62 35 63 36 64 62 65
REMARK SMILES IDX 63 66 71 67 64 68 70 69 72 70 69 71 65 72 66 73 67 74 68 75
REMARK SMILES IDX 47 76 48 77 56 78 49 79 55 80 57 81 54 82 50 83 51 84 52 85
REMARK SMILES IDX 53 86
REMARK H PARENT 5 11 77 39 45 50
REMARK Flexibility Score: inf
ROOT
ATOM      1  C   UNL     1       5.088  -2.257  -2.270  1.00  0.00     0.275 C 
ENDROOT
BRANCH   1   2
ATOM      2  C   UNL     1       4.599  -3.089  -1.084  1.00  0.00     0.274 C 
BRANCH   2   3
ATOM      3  O   UNL     1       3.209  -3.441  -1.234  1.00  0.00    -0.460 OA
BRANCH   3   4
ATOM      4  C   UNL     1       2.300  -2.539  -0.786  1.00  0.00     0.331 C 
ATOM      5  O   UNL     1       2.618  -1.544  -0.137  1.00  0.00    -0.249 OA
BRANCH   4   6
ATOM      6  C   UNL     1       0.817  -2.928  -1.040  1.00  0.00     0.132 C 
ATOM      7  C   UNL     1      -0.013  -1.641  -1.236  1.00  0.00     0.047 C 
BRANCH   6   8
ATOM      8  C   UNL     1       0.317  -3.701   0.211  1.00  0.00     0.037 C 
ATOM      9  C   UNL     1       0.541  -3.014   1.555  1.00  0.00     0.007 C 
ENDBRANCH   6   8
BRANCH   6  10
ATOM     10  N   UNL     1       0.502  -3.805  -2.206  1.00  0.00    -0.370 N 
ATOM     11  H   UNL     1      -0.349  -4.298  -2.177  1.00  0.00     0.161 HD
BRANCH  10  12
ATOM     12  C   UNL     1       1.297  -3.989  -3.321  1.00  0.00     0.036 A 
ATOM     13  C   UNL     1       2.231  -5.032  -3.343  1.00  0.00     0.026 A 
ATOM     14  C   UNL     1       1.139  -3.211  -4.471  1.00  0.00     0.041 A 
ATOM     15  C   UNL     1       3.030  -5.268  -4.463  1.00  0.00     0.003 A 
ATOM     16  C   UNL     1       1.923  -3.462  -5.601  1.00  0.00     0.020 A 
ATOM     17  C   UNL     1       2.875  -4.480  -5.598  1.00  0.00     0.016 A 
ATOM     18  Br  UNL     1       1.673  -2.432  -7.167  1.00  0.00    -0.051 Br
ENDBRANCH  10  12
ENDBRANCH   6  10
ENDBRANCH   4   6
ENDBRANCH   3   4
ENDBRANCH   2   3
ENDBRANCH   1   2
BRANCH   1  19
ATOM     19  O   UNL     1       4.503  -0.947  -2.199  1.00  0.00    -0.458 OA
BRANCH  19  20
ATOM     20  C   UNL     1       4.101  -0.407  -3.371  1.00  0.00     0.338 C 
ATOM     21  O   UNL     1       4.255  -0.868  -4.487  1.00  0.00    -0.246 OA
BRANCH  20  22
ATOM     22  C   UNL     1       3.474   0.900  -3.097  1.00  0.00     0.060 A 
ATOM     23  C   UNL     1       2.379   0.991  -2.237  1.00  0.00     0.016 A 
ATOM     24  C   UNL     1       3.948   2.038  -3.746  1.00  0.00     0.016 A 
ATOM     25  C   UNL     1       1.724   2.205  -2.050  1.00  0.00     0.010 A 
ATOM     26  C   UNL     1       3.332   3.270  -3.509  1.00  0.00     0.010 A 
ATOM     27  C   UNL     1       2.203   3.361  -2.675  1.00  0.00    -0.014 A 
BRANCH  27  28
ATOM     28  C   UNL     1       1.496   4.658  -2.506  1.00  0.00     0.031 A 
ATOM     29  C   UNL     1       0.851   5.305  -3.700  1.00  0.00     0.074 A 
ATOM     30  C   UNL     1       1.434   5.249  -1.298  1.00  0.00     0.049 A 
ATOM     31  N   UNL     1       0.370   6.513  -3.832  1.00  0.00    -0.248 NA
ATOM     32  C   UNL     1       0.749   4.478  -4.912  1.00  0.00     0.031 C 
ATOM     33  C   UNL     1       1.960   4.687  -0.052  1.00  0.00     0.029 A 
ATOM     34  N   UNL     1       0.907   6.458  -0.918  1.00  0.00    -0.354 N 
ATOM     35  C   UNL     1      -0.050   6.611  -5.154  1.00  0.00     0.074 A 
ATOM     36  C   UNL     1       0.242   5.339  -5.782  1.00  0.00     0.031 C 
ATOM     37  C   UNL     1       1.720   5.544   0.953  1.00  0.00     0.029 A 
ATOM     38  C   UNL     1       1.100   6.749   0.413  1.00  0.00     0.049 A 
ATOM     39  H   UNL     1       0.435   7.060  -1.539  1.00  0.00     0.167 HD
ATOM     40  C   UNL     1      -0.618   7.670  -5.783  1.00  0.00     0.034 A 
ATOM     41  C   UNL     1       0.854   7.877   1.108  1.00  0.00     0.034 A 
ATOM     42  C   UNL     1      -0.916   8.921  -5.127  1.00  0.00     0.049 A 
ATOM     43  C   UNL     1       0.274   9.061   0.378  1.00  0.00     0.074 A 
ATOM     44  C   UNL     1      -1.476  10.068  -5.661  1.00  0.00     0.029 A 
ATOM     45  N   UNL     1      -0.680   9.186  -3.782  1.00  0.00    -0.354 N 
ATOM     46  N   UNL     1      -0.049   9.171  -0.890  1.00  0.00    -0.248 NA
ATOM     47  C   UNL     1       0.037  10.275   1.169  1.00  0.00     0.031 C 
ATOM     48  C   UNL     1      -1.532  11.040  -4.655  1.00  0.00     0.029 A 
ATOM     49  C   UNL     1      -1.067  10.481  -3.475  1.00  0.00     0.049 A 
ATOM     50  H   UNL     1      -0.295   8.546  -3.141  1.00  0.00     0.167 HD
ATOM     51  C   UNL     1      -0.539  10.464  -1.045  1.00  0.00     0.074 A 
ATOM     52  C   UNL     1      -0.488  11.086   0.263  1.00  0.00     0.031 C 
ATOM     53  C   UNL     1      -0.992  11.083  -2.165  1.00  0.00     0.034 A 
BRANCH  40  54
ATOM     54  C   UNL     1      -0.878   7.536  -7.264  1.00  0.00     0.023 A 
ATOM     55  C   UNL     1      -1.808   6.616  -7.780  1.00  0.00     0.031 A 
ATOM     56  C   UNL     1      -0.141   8.310  -8.179  1.00  0.00     0.131 A 
ATOM     57  C   UNL     1      -1.925   6.444  -9.168  1.00  0.00     0.055 A 
ATOM     58  C   UNL     1      -0.317   8.187  -9.558  1.00  0.00     0.041 A 
ATOM     59  F   UNL     1       0.777   9.189  -7.746  1.00  0.00    -0.206 F 
ATOM     60  C   UNL     1      -1.201   7.239 -10.061  1.00  0.00     0.022 A 
BRANCH  57  61
ATOM     61  S   UNL     1      -2.932   5.069  -9.792  1.00  0.00     0.124 S 
ATOM     62  O   UNL     1      -2.274   3.918  -9.178  1.00  0.00    -0.237 OA
ATOM     63  O   UNL     1      -4.258   5.394  -9.282  1.00  0.00    -0.237 OA
ATOM     64  O   UNL     1      -2.781   5.164 -11.242  1.00  0.00    -0.744 OA
ENDBRANCH  57  61
ENDBRANCH  40  54
BRANCH  41  65
ATOM     65  C   UNL     1       1.223   7.971   2.550  1.00  0.00     0.023 A 
ATOM     66  C   UNL     1       0.245   8.134   3.542  1.00  0.00     0.031 A 
ATOM     67  C   UNL     1       2.571   7.924   2.952  1.00  0.00     0.131 A 
ATOM     68  C   UNL     1       0.629   8.275   4.886  1.00  0.00     0.055 A 
ATOM     69  C   UNL     1       2.944   8.013   4.294  1.00  0.00     0.041 A 
ATOM     70  F   UNL     1       3.546   7.771   2.043  1.00  0.00    -0.206 F 
ATOM     71  C   UNL     1       1.971   8.200   5.269  1.00  0.00     0.022 A 
BRANCH  68  72
ATOM     72  S   UNL     1      -0.648   8.625   6.125  1.00  0.00     0.124 S 
ATOM     73  O   UNL     1      -1.226   9.863   5.616  1.00  0.00    -0.237 OA
ATOM     74  O   UNL     1      -1.491   7.437   6.035  1.00  0.00    -0.237 OA
ATOM     75  O   UNL     1       0.110   8.755   7.368  1.00  0.00    -0.744 OA
ENDBRANCH  68  72
ENDBRANCH  41  65
BRANCH  53  76
ATOM     76  C   UNL     1      -1.501  12.491  -1.999  1.00  0.00     0.023 A 
ATOM     77  C   UNL     1      -0.634  13.561  -1.719  1.00  0.00     0.031 A 
ATOM     78  C   UNL     1      -2.877  12.759  -2.100  1.00  0.00     0.131 A 
ATOM     79  C   UNL     1      -1.158  14.843  -1.499  1.00  0.00     0.055 A 
ATOM     80  C   UNL     1      -3.388  14.046  -1.931  1.00  0.00     0.041 A 
ATOM     81  F   UNL     1      -3.747  11.770  -2.364  1.00  0.00    -0.206 F 
ATOM     82  C   UNL     1      -2.528  15.095  -1.617  1.00  0.00     0.022 A 
BRANCH  79  83
ATOM     83  S   UNL     1      -0.034  16.167  -0.977  1.00  0.00     0.124 S 
ATOM     84  O   UNL     1       0.507  15.633   0.268  1.00  0.00    -0.237 OA
ATOM     85  O   UNL     1       0.899  16.245  -2.096  1.00  0.00    -0.237 OA
ATOM     86  O   UNL     1      -0.914  17.324  -0.824  1.00  0.00    -0.744 OA
ENDBRANCH  79  83
ENDBRANCH  53  76
ENDBRANCH  27  28
ENDBRANCH  20  22
ENDBRANCH  19  20
ENDBRANCH   1  19
TORSDOF 17
