REMARK SMILES CC[C@@H](C)S(=O)(=O)c1cc(C(=O)OCCOC(=O)c2ccc(-c3c4nc(c(-c5cc(S(=O)(=O)[O-])ccc5F)c5ccc([nH]5)c(-c5cc(S(=O)(=O)[O-])ccc5F)c5nc(c(-c6cc(S(=O)(=O)[O-])ccc6F)c6ccc3[nH]6)C=C5)C=C4)cc2)c(C)cc1C
REMARK SMILES IDX 14 1 13 2 11 3 12 4 10 5 8 6 9 7 85 8 84 9 86 10 82 11 83 12
REMARK SMILES IDX 5 13 6 14 7 15 3 16 4 17 2 18 1 19 15 20 16 21 17 22 18 23
REMARK SMILES IDX 19 24 20 25 81 26 21 27 80 28 22 29 23 30 24 31 74 32 25 33
REMARK SMILES IDX 79 34 73 35 75 36 26 37 78 38 72 39 71 40 27 42 59 43 39 44
REMARK SMILES IDX 58 45 40 46 43 47 57 48 76 49 41 50 42 51 56 53 77 54 44 55
REMARK SMILES IDX 28 56 29 57 37 58 30 59 36 60 38 61 35 62 31 63 32 64 33 65
REMARK SMILES IDX 34 66 60 67 61 68 69 69 62 70 68 71 70 72 67 73 63 74 64 75
REMARK SMILES IDX 65 76 66 77 45 78 46 79 54 80 47 81 53 82 55 83 52 84 48 85
REMARK SMILES IDX 49 86 50 87 51 88
REMARK H PARENT 75 41 43 52
REMARK Flexibility Score: inf
ROOT
ATOM      1  C   UNL     1      -5.812  -0.219  -0.942  1.00  0.00     0.275 C 
ENDROOT
BRANCH   1   2
ATOM      2  O   UNL     1      -5.120  -1.457  -0.672  1.00  0.00    -0.458 OA
BRANCH   2   3
ATOM      3  C   UNL     1      -4.088  -1.767  -1.492  1.00  0.00     0.338 C 
ATOM      4  O   UNL     1      -3.593  -1.038  -2.338  1.00  0.00    -0.246 OA
BRANCH   3   5
ATOM      5  C   UNL     1      -3.569  -3.136  -1.231  1.00  0.00     0.064 A 
ATOM      6  C   UNL     1      -1.582  -4.562  -1.065  1.00  0.00     0.071 A 
ATOM      7  C   UNL     1      -2.162  -3.292  -1.187  1.00  0.00     0.036 A 
ATOM      8  C   UNL     1      -2.413  -5.701  -1.062  1.00  0.00    -0.032 A 
ATOM      9  C   UNL     1      -3.807  -5.528  -1.062  1.00  0.00     0.009 A 
ATOM     10  C   UNL     1      -1.894  -7.116  -1.065  1.00  0.00     0.046 C 
ATOM     11  C   UNL     1      -4.407  -4.262  -1.157  1.00  0.00    -0.036 A 
ATOM     12  C   UNL     1      -5.908  -4.240  -1.224  1.00  0.00     0.045 C 
BRANCH   6  13
ATOM     13  S   UNL     1       0.197  -4.809  -0.984  1.00  0.00     0.181 S 
ATOM     14  O   UNL     1       0.586  -5.106  -2.351  1.00  0.00    -0.223 OA
ATOM     15  O   UNL     1       0.399  -5.809   0.053  1.00  0.00    -0.223 OA
BRANCH  13  16
ATOM     16  C   UNL     1       1.096  -3.370  -0.432  1.00  0.00     0.110 C 
ATOM     17  C   UNL     1       0.560  -2.799   0.879  1.00  0.00     0.025 C 
BRANCH  16  18
ATOM     18  C   UNL     1       1.319  -2.332  -1.536  1.00  0.00     0.016 C 
ATOM     19  C   UNL     1       2.541  -1.461  -1.270  1.00  0.00     0.005 C 
ENDBRANCH  16  18
ENDBRANCH  13  16
ENDBRANCH   6  13
ENDBRANCH   3   5
ENDBRANCH   2   3
ENDBRANCH   1   2
BRANCH   1  20
ATOM     20  C   UNL     1      -5.742   0.718   0.261  1.00  0.00     0.275 C 
BRANCH  20  21
ATOM     21  O   UNL     1      -4.415   1.257   0.368  1.00  0.00    -0.458 OA
BRANCH  21  22
ATOM     22  C   UNL     1      -3.627   0.671   1.297  1.00  0.00     0.338 C 
ATOM     23  O   UNL     1      -3.942  -0.165   2.124  1.00  0.00    -0.246 OA
BRANCH  22  24
ATOM     24  C   UNL     1      -2.245   1.119   1.082  1.00  0.00     0.060 A 
ATOM     25  C   UNL     1      -1.537   0.540   0.037  1.00  0.00     0.016 A 
ATOM     26  C   UNL     1      -1.614   2.001   1.958  1.00  0.00     0.016 A 
ATOM     27  C   UNL     1      -0.175   0.781  -0.083  1.00  0.00     0.010 A 
ATOM     28  C   UNL     1      -0.246   2.282   1.795  1.00  0.00     0.010 A 
ATOM     29  C   UNL     1       0.504   1.636   0.797  1.00  0.00    -0.014 A 
BRANCH  29  30
ATOM     30  C   UNL     1       1.999   1.717   0.714  1.00  0.00     0.031 A 
ATOM     31  C   UNL     1       2.847   1.232   1.868  1.00  0.00     0.074 A 
ATOM     32  C   UNL     1       2.613   2.025  -0.450  1.00  0.00     0.049 A 
ATOM     33  N   UNL     1       4.151   1.228   1.994  1.00  0.00    -0.248 NA
ATOM     34  C   UNL     1       2.136   0.660   3.020  1.00  0.00     0.031 C 
ATOM     35  C   UNL     1       1.925   2.352  -1.700  1.00  0.00     0.029 A 
ATOM     36  N   UNL     1       3.943   2.013  -0.804  1.00  0.00    -0.354 N 
ATOM     37  C   UNL     1       4.413   0.723   3.265  1.00  0.00     0.074 A 
ATOM     38  C   UNL     1       3.131   0.405   3.857  1.00  0.00     0.031 C 
ATOM     39  C   UNL     1       2.820   2.372  -2.700  1.00  0.00     0.029 A 
ATOM     40  C   UNL     1       4.163   2.212  -2.151  1.00  0.00     0.049 A 
ATOM     41  H   UNL     1       4.670   1.875  -0.155  1.00  0.00     0.167 HD
ATOM     42  C   UNL     1       5.609   0.562   3.887  1.00  0.00     0.034 A 
ATOM     43  C   UNL     1       5.309   2.289  -2.863  1.00  0.00     0.034 A 
ATOM     44  C   UNL     1       6.887   0.841   3.275  1.00  0.00     0.049 A 
ATOM     45  C   UNL     1       6.625   2.208  -2.124  1.00  0.00     0.074 A 
ATOM     46  C   UNL     1       8.147   0.779   3.846  1.00  0.00     0.029 A 
ATOM     47  N   UNL     1       7.073   1.223   1.954  1.00  0.00    -0.354 N 
ATOM     48  N   UNL     1       6.854   1.894  -0.871  1.00  0.00    -0.248 NA
ATOM     49  C   UNL     1       7.835   2.542  -2.890  1.00  0.00     0.031 C 
ATOM     50  C   UNL     1       9.085   1.200   2.896  1.00  0.00     0.029 A 
ATOM     51  C   UNL     1       8.421   1.440   1.704  1.00  0.00     0.049 A 
ATOM     52  H   UNL     1       6.354   1.324   1.290  1.00  0.00     0.167 HD
ATOM     53  C   UNL     1       8.233   1.999  -0.700  1.00  0.00     0.074 A 
ATOM     54  C   UNL     1       8.787   2.359  -1.987  1.00  0.00     0.031 C 
ATOM     55  C   UNL     1       8.972   1.830   0.427  1.00  0.00     0.034 A 
BRANCH  42  56
ATOM     56  C   UNL     1       5.579   0.189   5.351  1.00  0.00     0.023 A 
ATOM     57  C   UNL     1       5.129  -1.058   5.813  1.00  0.00     0.031 A 
ATOM     58  C   UNL     1       5.977   1.143   6.308  1.00  0.00     0.131 A 
ATOM     59  C   UNL     1       5.027  -1.292   7.195  1.00  0.00     0.055 A 
ATOM     60  C   UNL     1       5.950   0.874   7.676  1.00  0.00     0.041 A 
ATOM     61  F   UNL     1       6.389   2.362   5.925  1.00  0.00    -0.206 F 
ATOM     62  C   UNL     1       5.458  -0.345   8.128  1.00  0.00     0.022 A 
BRANCH  59  63
ATOM     63  S   UNL     1       4.171  -2.788   7.765  1.00  0.00     0.124 S 
ATOM     64  O   UNL     1       2.887  -2.673   7.077  1.00  0.00    -0.237 OA
ATOM     65  O   UNL     1       5.054  -3.851   7.301  1.00  0.00    -0.237 OA
ATOM     66  O   UNL     1       4.108  -2.615   9.215  1.00  0.00    -0.744 OA
ENDBRANCH  59  63
ENDBRANCH  42  56
BRANCH  43  67
ATOM     67  C   UNL     1       5.290   2.555  -4.338  1.00  0.00     0.023 A 
ATOM     68  C   UNL     1       5.955   1.707  -5.243  1.00  0.00     0.031 A 
ATOM     69  C   UNL     1       4.678   3.709  -4.861  1.00  0.00     0.131 A 
ATOM     70  C   UNL     1       6.019   2.047  -6.606  1.00  0.00     0.055 A 
ATOM     71  C   UNL     1       4.673   3.998  -6.226  1.00  0.00     0.041 A 
ATOM     72  F   UNL     1       4.064   4.584  -4.047  1.00  0.00    -0.206 F 
ATOM     73  C   UNL     1       5.359   3.171  -7.106  1.00  0.00     0.022 A 
BRANCH  70  74
ATOM     74  S   UNL     1       7.084   1.071  -7.705  1.00  0.00     0.124 S 
ATOM     75  O   UNL     1       8.386   1.222  -7.064  1.00  0.00    -0.237 OA
ATOM     76  O   UNL     1       6.476  -0.252  -7.624  1.00  0.00    -0.237 OA
ATOM     77  O   UNL     1       6.944   1.741  -8.996  1.00  0.00    -0.744 OA
ENDBRANCH  70  74
ENDBRANCH  43  67
BRANCH  55  78
ATOM     78  C   UNL     1      10.466   2.031   0.313  1.00  0.00     0.023 A 
ATOM     79  C   UNL     1      11.019   3.292   0.019  1.00  0.00     0.031 A 
ATOM     80  C   UNL     1      11.348   0.952   0.496  1.00  0.00     0.131 A 
ATOM     81  C   UNL     1      12.408   3.430  -0.133  1.00  0.00     0.055 A 
ATOM     82  C   UNL     1      12.733   1.109   0.402  1.00  0.00     0.041 A 
ATOM     83  F   UNL     1      10.879  -0.274   0.777  1.00  0.00    -0.206 F 
ATOM     84  C   UNL     1      13.269   2.350   0.074  1.00  0.00     0.022 A 
BRANCH  81  85
ATOM     85  S   UNL     1      13.072   5.025  -0.690  1.00  0.00     0.124 S 
ATOM     86  O   UNL     1      12.386   5.212  -1.964  1.00  0.00    -0.237 OA
ATOM     87  O   UNL     1      12.672   5.924   0.388  1.00  0.00    -0.237 OA
ATOM     88  O   UNL     1      14.510   4.782  -0.791  1.00  0.00    -0.744 OA
ENDBRANCH  81  85
ENDBRANCH  55  78
ENDBRANCH  29  30
ENDBRANCH  22  24
ENDBRANCH  21  22
ENDBRANCH  20  21
ENDBRANCH   1  20
TORSDOF 17
