REMARK SMILES Cc1cccc(-c2cccc(C(=O)OCCOC(=O)c3ccc(-c4c5nc(c(-c6cc(S(=O)(=O)[O-])ccc6F)c6ccc([nH]6)c(-c6cc(S(=O)(=O)[O-])ccc6F)c6nc(c(-c7cc(S(=O)(=O)[O-])ccc7F)c7ccc4[nH]7)C=C6)C=C5)cc3)c2)c1
REMARK SMILES IDX 16 1 15 2 14 3 12 4 13 5 11 6 7 7 8 8 83 9 9 10 10 11 6 12
REMARK SMILES IDX 1 13 2 14 3 15 84 16 4 17 5 18 17 19 18 20 19 21 20 22 21 23
REMARK SMILES IDX 82 24 22 25 81 26 23 27 24 28 25 29 75 30 26 31 80 32 74 33
REMARK SMILES IDX 76 34 27 35 79 36 73 37 72 38 28 40 60 41 40 42 59 43 41 44
REMARK SMILES IDX 44 45 58 46 77 47 42 48 43 49 57 51 78 52 45 53 29 54 30 55
REMARK SMILES IDX 38 56 31 57 37 58 39 59 36 60 32 61 33 62 34 63 35 64 61 65
REMARK SMILES IDX 62 66 70 67 63 68 69 69 71 70 68 71 64 72 65 73 66 74 67 75
REMARK SMILES IDX 46 76 47 77 55 78 48 79 54 80 56 81 53 82 49 83 50 84 51 85
REMARK SMILES IDX 52 86
REMARK H PARENT 76 39 44 50
REMARK Flexibility Score: inf
ROOT
ATOM      1  C   UNL     1      -7.910   4.489   1.677  1.00  0.00     0.275 C 
ENDROOT
BRANCH   1   2
ATOM      2  C   UNL     1      -6.889   5.330   0.897  1.00  0.00     0.275 C 
BRANCH   2   3
ATOM      3  O   UNL     1      -5.905   4.546   0.194  1.00  0.00    -0.458 OA
BRANCH   3   4
ATOM      4  C   UNL     1      -4.815   5.281  -0.135  1.00  0.00     0.338 C 
ATOM      5  O   UNL     1      -4.729   6.494   0.021  1.00  0.00    -0.246 OA
BRANCH   4   6
ATOM      6  C   UNL     1      -3.715   4.532  -0.805  1.00  0.00     0.060 A 
ATOM      7  C   UNL     1      -2.048   2.737  -0.991  1.00  0.00    -0.018 A 
ATOM      8  C   UNL     1      -1.374   3.539  -1.937  1.00  0.00     0.009 A 
ATOM      9  C   UNL     1      -3.278   3.228  -0.487  1.00  0.00     0.024 A 
ATOM     10  C   UNL     1      -1.838   4.796  -2.310  1.00  0.00     0.002 A 
ATOM     11  C   UNL     1      -2.988   5.298  -1.724  1.00  0.00     0.016 A 
BRANCH   7  12
ATOM     12  C   UNL     1      -1.397   1.466  -0.556  1.00  0.00    -0.018 A 
ATOM     13  C   UNL     1       2.199   0.196  -0.005  1.00  0.00     0.044 C 
ATOM     14  C   UNL     1       0.700   0.221  -0.099  1.00  0.00    -0.051 A 
ATOM     15  C   UNL     1      -0.035  -0.954   0.052  1.00  0.00     0.003 A 
ATOM     16  C   UNL     1       0.011   1.411  -0.386  1.00  0.00     0.012 A 
ATOM     17  C   UNL     1      -1.427  -0.922  -0.054  1.00  0.00     0.001 A 
ATOM     18  C   UNL     1      -2.102   0.274  -0.351  1.00  0.00     0.009 A 
ENDBRANCH   7  12
ENDBRANCH   4   6
ENDBRANCH   3   4
ENDBRANCH   2   3
ENDBRANCH   1   2
BRANCH   1  19
ATOM     19  O   UNL     1      -7.570   3.100   1.942  1.00  0.00    -0.458 OA
BRANCH  19  20
ATOM     20  C   UNL     1      -6.332   2.626   2.260  1.00  0.00     0.338 C 
ATOM     21  O   UNL     1      -5.910   1.567   1.789  1.00  0.00    -0.246 OA
BRANCH  20  22
ATOM     22  C   UNL     1      -5.439   3.536   3.004  1.00  0.00     0.060 A 
ATOM     23  C   UNL     1      -4.055   3.500   2.761  1.00  0.00     0.016 A 
ATOM     24  C   UNL     1      -5.993   4.538   3.784  1.00  0.00     0.016 A 
ATOM     25  C   UNL     1      -3.247   4.547   3.174  1.00  0.00     0.010 A 
ATOM     26  C   UNL     1      -5.256   5.667   4.006  1.00  0.00     0.010 A 
ATOM     27  C   UNL     1      -3.876   5.632   3.772  1.00  0.00    -0.014 A 
BRANCH  27  28
ATOM     28  C   UNL     1      -3.162   6.653   4.512  1.00  0.00     0.031 A 
ATOM     29  C   UNL     1      -2.440   7.706   3.797  1.00  0.00     0.074 A 
ATOM     30  C   UNL     1      -3.360   6.516   5.843  1.00  0.00     0.049 A 
ATOM     31  N   UNL     1      -1.406   8.319   4.246  1.00  0.00    -0.248 NA
ATOM     32  C   UNL     1      -2.783   8.120   2.436  1.00  0.00     0.031 C 
ATOM     33  C   UNL     1      -3.085   7.361   6.984  1.00  0.00     0.029 A 
ATOM     34  N   UNL     1      -3.778   5.318   6.431  1.00  0.00    -0.354 N 
ATOM     35  C   UNL     1      -1.258   9.456   3.474  1.00  0.00     0.074 A 
ATOM     36  C   UNL     1      -1.970   9.168   2.257  1.00  0.00     0.031 C 
ATOM     37  C   UNL     1      -3.021   6.576   8.085  1.00  0.00     0.029 A 
ATOM     38  C   UNL     1      -3.139   5.185   7.651  1.00  0.00     0.049 A 
ATOM     39  H   UNL     1      -4.419   4.679   6.044  1.00  0.00     0.167 HD
ATOM     40  C   UNL     1      -0.777  10.582   4.079  1.00  0.00     0.034 A 
ATOM     41  C   UNL     1      -2.169   4.221   7.701  1.00  0.00     0.034 A 
ATOM     42  C   UNL     1      -0.450  10.266   5.473  1.00  0.00     0.049 A 
ATOM     43  C   UNL     1      -0.810   4.883   7.766  1.00  0.00     0.074 A 
ATOM     44  C   UNL     1      -1.155  10.447   6.652  1.00  0.00     0.029 A 
ATOM     45  N   UNL     1       0.522   9.310   5.738  1.00  0.00    -0.354 N 
ATOM     46  N   UNL     1      -0.527   6.052   7.250  1.00  0.00    -0.248 NA
ATOM     47  C   UNL     1       0.286   4.327   8.545  1.00  0.00     0.031 C 
ATOM     48  C   UNL     1      -0.669   9.494   7.593  1.00  0.00     0.029 A 
ATOM     49  C   UNL     1       0.328   8.748   6.985  1.00  0.00     0.049 A 
ATOM     50  H   UNL     1       1.250   9.066   5.121  1.00  0.00     0.167 HD
ATOM     51  C   UNL     1       0.698   6.465   7.705  1.00  0.00     0.074 A 
ATOM     52  C   UNL     1       1.170   5.337   8.499  1.00  0.00     0.031 C 
ATOM     53  C   UNL     1       1.228   7.703   7.447  1.00  0.00     0.034 A 
BRANCH  40  54
ATOM     54  C   UNL     1      -0.914  12.011   3.587  1.00  0.00     0.023 A 
ATOM     55  C   UNL     1      -0.770  13.056   4.528  1.00  0.00     0.031 A 
ATOM     56  C   UNL     1      -1.209  12.431   2.275  1.00  0.00     0.131 A 
ATOM     57  C   UNL     1      -0.979  14.405   4.186  1.00  0.00     0.055 A 
ATOM     58  C   UNL     1      -1.434  13.776   1.935  1.00  0.00     0.041 A 
ATOM     59  F   UNL     1      -1.260  11.580   1.246  1.00  0.00    -0.206 F 
ATOM     60  C   UNL     1      -1.327  14.772   2.892  1.00  0.00     0.022 A 
BRANCH  57  61
ATOM     61  S   UNL     1      -0.791  15.675   5.468  1.00  0.00     0.124 S 
ATOM     62  O   UNL     1      -1.838  15.311   6.418  1.00  0.00    -0.237 OA
ATOM     63  O   UNL     1       0.584  15.470   5.910  1.00  0.00    -0.237 OA
ATOM     64  O   UNL     1      -1.024  16.925   4.744  1.00  0.00    -0.744 OA
ENDBRANCH  57  61
ENDBRANCH  40  54
BRANCH  41  65
ATOM     65  C   UNL     1      -2.529   2.956   6.948  1.00  0.00     0.023 A 
ATOM     66  C   UNL     1      -3.835   2.433   7.145  1.00  0.00     0.031 A 
ATOM     67  C   UNL     1      -1.809   2.440   5.863  1.00  0.00     0.131 A 
ATOM     68  C   UNL     1      -4.442   1.596   6.194  1.00  0.00     0.055 A 
ATOM     69  C   UNL     1      -2.386   1.518   4.964  1.00  0.00     0.041 A 
ATOM     70  F   UNL     1      -0.572   2.878   5.590  1.00  0.00    -0.206 F 
ATOM     71  C   UNL     1      -3.721   1.124   5.102  1.00  0.00     0.022 A 
BRANCH  68  72
ATOM     72  S   UNL     1      -6.254   1.408   6.268  1.00  0.00     0.124 S 
ATOM     73  O   UNL     1      -6.421   0.436   7.343  1.00  0.00    -0.237 OA
ATOM     74  O   UNL     1      -6.697   2.770   6.566  1.00  0.00    -0.237 OA
ATOM     75  O   UNL     1      -6.614   0.940   4.935  1.00  0.00    -0.744 OA
ENDBRANCH  68  72
ENDBRANCH  41  65
BRANCH  53  76
ATOM     76  C   UNL     1       2.673   8.084   7.666  1.00  0.00     0.023 A 
ATOM     77  C   UNL     1       3.674   7.131   7.860  1.00  0.00     0.031 A 
ATOM     78  C   UNL     1       3.114   9.429   7.579  1.00  0.00     0.131 A 
ATOM     79  C   UNL     1       5.000   7.514   8.088  1.00  0.00     0.055 A 
ATOM     80  C   UNL     1       4.457   9.795   7.662  1.00  0.00     0.041 A 
ATOM     81  F   UNL     1       2.264  10.451   7.399  1.00  0.00    -0.206 F 
ATOM     82  C   UNL     1       5.412   8.835   7.949  1.00  0.00     0.022 A 
BRANCH  79  83
ATOM     83  S   UNL     1       6.130   6.247   8.704  1.00  0.00     0.124 S 
ATOM     84  O   UNL     1       5.498   5.878   9.969  1.00  0.00    -0.237 OA
ATOM     85  O   UNL     1       6.075   5.236   7.653  1.00  0.00    -0.237 OA
ATOM     86  O   UNL     1       7.402   6.953   8.828  1.00  0.00    -0.744 OA
ENDBRANCH  79  83
ENDBRANCH  53  76
ENDBRANCH  27  28
ENDBRANCH  20  22
ENDBRANCH  19  20
ENDBRANCH   1  19
TORSDOF 15
