REMARK SMILES Cc1c(-c2nn(-c3ccccc3)cc2/C=N/O)nnn1-c1ccc(C(=O)OCCOC(=O)c2ccc(-c3c4nc(c(-c5cc(S(=O)(=O)[O-])ccc5F)c5ccc([nH]5)c(-c5cc(S(=O)(=O)[O-])ccc5F)c5nc(c(-c6cc(S(=O)(=O)[O-])ccc6F)c6ccc3[nH]6)C=C5)C=C4)cc2)cc1
REMARK SMILES IDX 28 1 27 2 25 3 26 4 24 5 21 6 22 7 97 8 23 9 96 10 20 11
REMARK SMILES IDX 1 12 2 13 3 14 18 15 19 16 4 17 5 18 14 19 6 20 13 21 15 22
REMARK SMILES IDX 16 23 17 24 7 26 8 27 12 28 9 29 11 30 10 31 29 32 30 33
REMARK SMILES IDX 31 34 32 35 33 36 34 37 95 38 35 39 94 40 36 41 37 42 38 43
REMARK SMILES IDX 88 44 39 45 93 46 87 47 89 48 40 49 92 50 86 51 85 52 41 54
REMARK SMILES IDX 73 55 53 56 72 57 54 58 57 59 71 60 90 61 55 62 56 63 70 65
REMARK SMILES IDX 91 66 58 67 42 68 43 69 51 70 44 71 50 72 52 73 49 74 45 75
REMARK SMILES IDX 46 76 47 77 48 78 74 79 75 80 83 81 76 82 82 83 84 84 81 85
REMARK SMILES IDX 77 86 78 87 79 88 80 89 59 90 60 91 68 92 61 93 67 94 69 95
REMARK SMILES IDX 66 96 62 97 63 98 64 99 65 100
REMARK H PARENT 17 25 89 53 57 64
REMARK Flexibility Score: inf
ROOT
ATOM      1  C   UNL     1       2.683   7.782   0.585  1.00  0.00     0.275 C 
ENDROOT
BRANCH   1   2
ATOM      2  O   UNL     1       2.415   6.422   0.203  1.00  0.00    -0.458 OA
BRANCH   2   3
ATOM      3  C   UNL     1       1.103   6.083   0.130  1.00  0.00     0.338 C 
ATOM      4  O   UNL     1       0.158   6.755   0.521  1.00  0.00    -0.246 OA
BRANCH   3   5
ATOM      5  C   UNL     1       0.933   4.780  -0.560  1.00  0.00     0.060 A 
ATOM      6  C   UNL     1       0.441   2.276  -1.697  1.00  0.00     0.067 A 
ATOM      7  C   UNL     1      -0.501   3.300  -1.846  1.00  0.00     0.029 A 
ATOM      8  C   UNL     1       1.670   2.536  -1.072  1.00  0.00     0.029 A 
ATOM      9  C   UNL     1      -0.265   4.540  -1.249  1.00  0.00     0.018 A 
ATOM     10  C   UNL     1       1.922   3.793  -0.518  1.00  0.00     0.018 A 
BRANCH   6  11
ATOM     11  N   UNL     1       0.115   0.969  -2.134  1.00  0.00    -0.217 N 
ATOM     12  C   UNL     1       1.024  -0.404  -0.188  1.00  0.00     0.069 C 
ATOM     13  C   UNL     1       0.417  -0.241  -1.529  1.00  0.00     0.071 A 
ATOM     14  C   UNL     1      -0.090  -1.173  -2.412  1.00  0.00     0.137 A 
ATOM     15  N   UNL     1      -0.751  -0.551  -3.428  1.00  0.00    -0.128 NA
ATOM     16  N   UNL     1      -0.685   0.757  -3.208  1.00  0.00    -0.061 NA
BRANCH  14  17
ATOM     17  C   UNL     1      -0.057  -2.626  -2.301  1.00  0.00     0.124 A 
ATOM     18  N   UNL     1      -0.827  -3.291  -1.430  1.00  0.00    -0.165 NA
ATOM     19  C   UNL     1       0.810  -3.482  -3.020  1.00  0.00     0.044 A 
ATOM     20  N   UNL     1      -0.389  -4.566  -1.500  1.00  0.00    -0.240 N 
ATOM     21  C   UNL     1       0.597  -4.721  -2.446  1.00  0.00     0.125 A 
BRANCH  19  22
ATOM     22  C   UNL     1       1.737  -3.220  -4.092  1.00  0.00     0.166 C 
ATOM     23  N   UNL     1       1.985  -2.005  -4.450  1.00  0.00    -0.097 NA
BRANCH  23  24
ATOM     24  O   UNL     1       2.879  -2.011  -5.527  1.00  0.00    -0.411 OA
ATOM     25  H   UNL     1       3.161  -1.202  -5.907  1.00  0.00     0.330 HD
ENDBRANCH  23  24
ENDBRANCH  19  22
BRANCH  20  26
ATOM     26  C   UNL     1      -0.900  -5.554  -0.626  1.00  0.00     0.065 A 
ATOM     27  C   UNL     1      -2.239  -5.486  -0.221  1.00  0.00     0.028 A 
ATOM     28  C   UNL     1      -0.070  -6.576  -0.150  1.00  0.00     0.028 A 
ATOM     29  C   UNL     1      -2.752  -6.457   0.640  1.00  0.00     0.002 A 
ATOM     30  C   UNL     1      -0.578  -7.512   0.754  1.00  0.00     0.002 A 
ATOM     31  C   UNL     1      -1.919  -7.460   1.137  1.00  0.00     0.000 A 
ENDBRANCH  20  26
ENDBRANCH  14  17
ENDBRANCH   6  11
ENDBRANCH   3   5
ENDBRANCH   2   3
ENDBRANCH   1   2
BRANCH   1  32
ATOM     32  C   UNL     1       2.745   8.703  -0.627  1.00  0.00     0.275 C 
BRANCH  32  33
ATOM     33  O   UNL     1       1.454   8.915  -1.196  1.00  0.00    -0.458 OA
BRANCH  33  34
ATOM     34  C   UNL     1       1.148   8.086  -2.222  1.00  0.00     0.338 C 
ATOM     35  O   UNL     1       1.675   7.018  -2.481  1.00  0.00    -0.246 OA
BRANCH  34  36
ATOM     36  C   UNL     1       0.228   8.769  -3.138  1.00  0.00     0.060 A 
ATOM     37  C   UNL     1      -0.203   8.052  -4.257  1.00  0.00     0.016 A 
ATOM     38  C   UNL     1       0.047  10.157  -3.035  1.00  0.00     0.016 A 
ATOM     39  C   UNL     1      -0.658   8.757  -5.351  1.00  0.00     0.010 A 
ATOM     40  C   UNL     1      -0.395  10.859  -4.133  1.00  0.00     0.010 A 
ATOM     41  C   UNL     1      -0.672  10.157  -5.302  1.00  0.00    -0.014 A 
BRANCH  41  42
ATOM     42  C   UNL     1      -1.093  10.874  -6.487  1.00  0.00     0.031 A 
ATOM     43  C   UNL     1      -2.531  10.717  -6.778  1.00  0.00     0.074 A 
ATOM     44  C   UNL     1      -0.286  11.675  -7.206  1.00  0.00     0.049 A 
ATOM     45  N   UNL     1      -3.064  10.033  -7.732  1.00  0.00    -0.248 NA
ATOM     46  C   UNL     1      -3.492  11.221  -5.787  1.00  0.00     0.031 C 
ATOM     47  C   UNL     1       1.074  12.117  -6.895  1.00  0.00     0.029 A 
ATOM     48  N   UNL     1      -0.574  12.340  -8.356  1.00  0.00    -0.354 N 
ATOM     49  C   UNL     1      -4.434  10.204  -7.598  1.00  0.00     0.074 A 
ATOM     50  C   UNL     1      -4.638  10.760  -6.287  1.00  0.00     0.031 C 
ATOM     51  C   UNL     1       1.406  13.140  -7.718  1.00  0.00     0.029 A 
ATOM     52  C   UNL     1       0.344  13.326  -8.695  1.00  0.00     0.049 A 
ATOM     53  H   UNL     1      -1.367  12.140  -8.903  1.00  0.00     0.167 HD
ATOM     54  C   UNL     1      -5.259  10.090  -8.673  1.00  0.00     0.034 A 
ATOM     55  C   UNL     1       0.206  14.260  -9.674  1.00  0.00     0.034 A 
ATOM     56  C   UNL     1      -4.597   9.408  -9.765  1.00  0.00     0.049 A 
ATOM     57  C   UNL     1      -0.773  13.720 -10.651  1.00  0.00     0.074 A 
ATOM     58  C   UNL     1      -4.031   8.157  -9.920  1.00  0.00     0.029 A 
ATOM     59  N   UNL     1      -4.092  10.171 -10.795  1.00  0.00    -0.354 N 
ATOM     60  N   UNL     1      -0.537  12.665 -11.384  1.00  0.00    -0.248 NA
ATOM     61  C   UNL     1      -2.184  14.034 -10.470  1.00  0.00     0.031 C 
ATOM     62  C   UNL     1      -2.861   8.376 -10.707  1.00  0.00     0.029 A 
ATOM     63  C   UNL     1      -2.815   9.730 -11.049  1.00  0.00     0.049 A 
ATOM     64  H   UNL     1      -4.560  10.899 -11.264  1.00  0.00     0.167 HD
ATOM     65  C   UNL     1      -1.722  11.946 -11.375  1.00  0.00     0.074 A 
ATOM     66  C   UNL     1      -2.730  12.889 -10.893  1.00  0.00     0.031 C 
ATOM     67  C   UNL     1      -1.726  10.584 -11.488  1.00  0.00     0.034 A 
BRANCH  54  68
ATOM     68  C   UNL     1      -6.514  10.907  -8.876  1.00  0.00     0.023 A 
ATOM     69  C   UNL     1      -7.238  10.678 -10.061  1.00  0.00     0.031 A 
ATOM     70  C   UNL     1      -6.872  12.069  -8.153  1.00  0.00     0.131 A 
ATOM     71  C   UNL     1      -8.162  11.622 -10.536  1.00  0.00     0.055 A 
ATOM     72  C   UNL     1      -7.846  12.968  -8.594  1.00  0.00     0.041 A 
ATOM     73  F   UNL     1      -6.245  12.457  -7.038  1.00  0.00    -0.206 F 
ATOM     74  C   UNL     1      -8.472  12.768  -9.810  1.00  0.00     0.022 A 
BRANCH  71  75
ATOM     75  S   UNL     1      -8.805  11.417 -12.215  1.00  0.00     0.124 S 
ATOM     76  O   UNL     1      -7.573  11.300 -12.988  1.00  0.00    -0.237 OA
ATOM     77  O   UNL     1      -9.604  10.203 -12.085  1.00  0.00    -0.237 OA
ATOM     78  O   UNL     1      -9.566  12.644 -12.437  1.00  0.00    -0.744 OA
ENDBRANCH  71  75
ENDBRANCH  54  68
BRANCH  55  79
ATOM     79  C   UNL     1       0.608  15.691  -9.599  1.00  0.00     0.023 A 
ATOM     80  C   UNL     1       0.805  16.502 -10.736  1.00  0.00     0.031 A 
ATOM     81  C   UNL     1       0.577  16.351  -8.348  1.00  0.00     0.131 A 
ATOM     82  C   UNL     1       0.964  17.902 -10.592  1.00  0.00     0.055 A 
ATOM     83  C   UNL     1       0.738  17.730  -8.212  1.00  0.00     0.041 A 
ATOM     84  F   UNL     1       0.302  15.682  -7.217  1.00  0.00    -0.206 F 
ATOM     85  C   UNL     1       0.925  18.515  -9.337  1.00  0.00     0.022 A 
BRANCH  82  86
ATOM     86  S   UNL     1       1.146  18.971 -12.059  1.00  0.00     0.124 S 
ATOM     87  O   UNL     1       2.424  18.534 -12.608  1.00  0.00    -0.237 OA
ATOM     88  O   UNL     1      -0.043  18.642 -12.836  1.00  0.00    -0.237 OA
ATOM     89  O   UNL     1       1.152  20.324 -11.498  1.00  0.00    -0.744 OA
ENDBRANCH  82  86
ENDBRANCH  55  79
BRANCH  67  90
ATOM     90  C   UNL     1      -0.435   9.896 -11.894  1.00  0.00     0.023 A 
ATOM     91  C   UNL     1       0.783   9.982 -11.179  1.00  0.00     0.031 A 
ATOM     92  C   UNL     1      -0.485   9.019 -12.991  1.00  0.00     0.131 A 
ATOM     93  C   UNL     1       1.895   9.216 -11.583  1.00  0.00     0.055 A 
ATOM     94  C   UNL     1       0.610   8.245 -13.373  1.00  0.00     0.041 A 
ATOM     95  F   UNL     1      -1.620   8.870 -13.693  1.00  0.00    -0.206 F 
ATOM     96  C   UNL     1       1.807   8.345 -12.674  1.00  0.00     0.022 A 
BRANCH  93  97
ATOM     97  S   UNL     1       3.485   9.346 -10.700  1.00  0.00     0.124 S 
ATOM     98  O   UNL     1       3.723  10.783 -10.636  1.00  0.00    -0.237 OA
ATOM     99  O   UNL     1       3.198   8.687  -9.428  1.00  0.00    -0.237 OA
ATOM    100  O   UNL     1       4.415   8.615 -11.563  1.00  0.00    -0.744 OA
ENDBRANCH  93  97
ENDBRANCH  67  90
ENDBRANCH  41  42
ENDBRANCH  34  36
ENDBRANCH  33  34
ENDBRANCH  32  33
ENDBRANCH   1  32
TORSDOF 19
