REMARK SMILES C[C@H]1[C@H](C(=O)OCCOC(=O)c2ccc(-c3c4nc(c(-c5cc(S(=O)(=O)[O-])ccc5F)c5ccc([nH]5)c(-c5cc(S(=O)(=O)[O-])ccc5F)c5nc(c(-c6cc(S(=O)(=O)[O-])ccc6F)c6ccc3[nH]6)C=C5)C=C4)cc2)CCN1S(=O)(=O)N(C)Cc1ccccc1
REMARK SMILES IDX 7 1 6 2 4 3 5 4 3 5 1 6 2 7 77 8 75 9 76 10 78 11 79 12
REMARK SMILES IDX 80 13 81 14 82 15 83 16 84 17 85 18 89 19 86 20 88 21 87 22
REMARK SMILES IDX 8 23 9 24 10 25 11 26 12 27 13 28 74 29 14 30 73 31 15 32
REMARK SMILES IDX 16 33 17 34 67 35 18 36 72 37 66 38 68 39 19 40 71 41 65 42
REMARK SMILES IDX 64 43 20 45 52 46 32 47 51 48 33 49 36 50 50 51 69 52 34 53
REMARK SMILES IDX 35 54 49 56 70 57 37 58 21 59 22 60 30 61 23 62 29 63 31 64
REMARK SMILES IDX 28 65 24 66 25 67 26 68 27 69 53 70 54 71 62 72 55 73 61 74
REMARK SMILES IDX 63 75 60 76 56 77 57 78 58 79 59 80 38 81 39 82 47 83 40 84
REMARK SMILES IDX 46 85 48 86 45 87 41 88 42 89 43 90 44 91
REMARK H PARENT 68 44 36 55
REMARK Flexibility Score: inf
ROOT
ATOM      1  C   UNL     1      -0.561   3.041   3.141  1.00  0.00     0.274 C 
ENDROOT
BRANCH   1   2
ATOM      2  O   UNL     1      -0.434   1.972   2.185  1.00  0.00    -0.462 OA
BRANCH   2   3
ATOM      3  C   UNL     1      -0.945   2.164   0.947  1.00  0.00     0.310 C 
ATOM      4  O   UNL     1      -1.570   3.160   0.599  1.00  0.00    -0.252 OA
BRANCH   3   5
ATOM      5  C   UNL     1      -0.663   1.021  -0.012  1.00  0.00     0.118 C 
ATOM      6  C   UNL     1       1.592   0.045  -0.628  1.00  0.00     0.027 C 
ATOM      7  C   UNL     1       0.461   0.055   0.410  1.00  0.00     0.085 C 
ATOM      8  N   UNL     1      -0.150  -1.327   0.449  1.00  0.00    -0.185 NA
ATOM      9  C   UNL     1      -1.895   0.156  -0.230  1.00  0.00     0.034 C 
ATOM     10  C   UNL     1      -1.324  -1.230  -0.474  1.00  0.00     0.105 C 
BRANCH   8  11
ATOM     11  S   UNL     1      -0.593  -1.904   1.989  1.00  0.00     0.282 S 
ATOM     12  O   UNL     1      -1.249  -0.813   2.670  1.00  0.00    -0.195 OA
ATOM     13  O   UNL     1      -1.298  -3.155   1.800  1.00  0.00    -0.195 OA
BRANCH  11  14
ATOM     14  N   UNL     1       0.825  -2.286   2.779  1.00  0.00    -0.188 NA
ATOM     15  C   UNL     1       2.130  -1.720   2.462  1.00  0.00     0.126 C 
BRANCH  14  16
ATOM     16  C   UNL     1       0.677  -2.813   4.152  1.00  0.00     0.138 C 
BRANCH  16  17
ATOM     17  C   UNL     1       0.156  -1.871   5.222  1.00  0.00    -0.033 A 
ATOM     18  C   UNL     1       0.415  -0.492   5.222  1.00  0.00     0.005 A 
ATOM     19  C   UNL     1      -0.590  -2.402   6.287  1.00  0.00     0.005 A 
ATOM     20  C   UNL     1      -0.090   0.334   6.228  1.00  0.00     0.000 A 
ATOM     21  C   UNL     1      -1.090  -1.577   7.297  1.00  0.00     0.000 A 
ATOM     22  C   UNL     1      -0.845  -0.207   7.264  1.00  0.00     0.000 A 
ENDBRANCH  16  17
ENDBRANCH  14  16
ENDBRANCH  11  14
ENDBRANCH   8  11
ENDBRANCH   3   5
ENDBRANCH   2   3
ENDBRANCH   1   2
BRANCH   1  23
ATOM     23  C   UNL     1       0.824   3.583   3.498  1.00  0.00     0.275 C 
BRANCH  23  24
ATOM     24  O   UNL     1       1.404   4.268   2.374  1.00  0.00    -0.458 OA
BRANCH  24  25
ATOM     25  C   UNL     1       2.166   3.500   1.561  1.00  0.00     0.338 C 
ATOM     26  O   UNL     1       2.476   2.332   1.718  1.00  0.00    -0.246 OA
BRANCH  25  27
ATOM     27  C   UNL     1       2.465   4.258   0.340  1.00  0.00     0.060 A 
ATOM     28  C   UNL     1       1.797   3.911  -0.837  1.00  0.00     0.016 A 
ATOM     29  C   UNL     1       3.438   5.254   0.339  1.00  0.00     0.016 A 
ATOM     30  C   UNL     1       2.115   4.540  -2.036  1.00  0.00     0.010 A 
ATOM     31  C   UNL     1       3.739   5.904  -0.860  1.00  0.00     0.010 A 
ATOM     32  C   UNL     1       3.088   5.543  -2.055  1.00  0.00    -0.014 A 
BRANCH  32  33
ATOM     33  C   UNL     1       3.470   6.196  -3.328  1.00  0.00     0.031 A 
ATOM     34  C   UNL     1       4.822   5.919  -3.916  1.00  0.00     0.074 A 
ATOM     35  C   UNL     1       2.621   7.050  -3.929  1.00  0.00     0.049 A 
ATOM     36  N   UNL     1       5.452   6.541  -4.875  1.00  0.00    -0.248 NA
ATOM     37  C   UNL     1       5.564   4.792  -3.331  1.00  0.00     0.031 C 
ATOM     38  C   UNL     1       1.254   7.332  -3.489  1.00  0.00     0.029 A 
ATOM     39  N   UNL     1       2.793   7.857  -5.025  1.00  0.00    -0.354 N 
ATOM     40  C   UNL     1       6.684   5.906  -4.990  1.00  0.00     0.074 A 
ATOM     41  C   UNL     1       6.711   4.857  -3.992  1.00  0.00     0.031 C 
ATOM     42  C   UNL     1       0.719   8.262  -4.295  1.00  0.00     0.029 A 
ATOM     43  C   UNL     1       1.728   8.695  -5.257  1.00  0.00     0.049 A 
ATOM     44  H   UNL     1       3.600   7.838  -5.589  1.00  0.00     0.167 HD
ATOM     45  C   UNL     1       7.696   6.186  -5.848  1.00  0.00     0.034 A 
ATOM     46  C   UNL     1       1.604   9.734  -6.108  1.00  0.00     0.034 A 
ATOM     47  C   UNL     1       7.635   7.239  -6.832  1.00  0.00     0.049 A 
ATOM     48  C   UNL     1       2.775  10.090  -6.988  1.00  0.00     0.074 A 
ATOM     49  C   UNL     1       8.597   7.622  -7.750  1.00  0.00     0.029 A 
ATOM     50  N   UNL     1       6.547   8.082  -7.024  1.00  0.00    -0.354 N 
ATOM     51  N   UNL     1       3.957   9.521  -7.057  1.00  0.00    -0.248 NA
ATOM     52  C   UNL     1       2.601  11.229  -7.899  1.00  0.00     0.031 C 
ATOM     53  C   UNL     1       8.116   8.732  -8.452  1.00  0.00     0.029 A 
ATOM     54  C   UNL     1       6.824   8.998  -8.025  1.00  0.00     0.049 A 
ATOM     55  H   UNL     1       5.702   8.036  -6.520  1.00  0.00     0.167 HD
ATOM     56  C   UNL     1       4.654  10.213  -8.043  1.00  0.00     0.074 A 
ATOM     57  C   UNL     1       3.762  11.241  -8.539  1.00  0.00     0.031 C 
ATOM     58  C   UNL     1       5.914  10.011  -8.506  1.00  0.00     0.034 A 
BRANCH  45  59
ATOM     59  C   UNL     1       8.968   5.389  -5.702  1.00  0.00     0.023 A 
ATOM     60  C   UNL     1       9.012   4.005  -5.940  1.00  0.00     0.031 A 
ATOM     61  C   UNL     1      10.150   6.021  -5.276  1.00  0.00     0.131 A 
ATOM     62  C   UNL     1      10.191   3.288  -5.682  1.00  0.00     0.055 A 
ATOM     63  C   UNL     1      11.341   5.315  -5.097  1.00  0.00     0.041 A 
ATOM     64  F   UNL     1      10.164   7.337  -5.008  1.00  0.00    -0.206 F 
ATOM     65  C   UNL     1      11.362   3.937  -5.285  1.00  0.00     0.022 A 
BRANCH  62  66
ATOM     66  S   UNL     1      10.130   1.475  -5.730  1.00  0.00     0.124 S 
ATOM     67  O   UNL     1       9.106   1.187  -4.729  1.00  0.00    -0.237 OA
ATOM     68  O   UNL     1       9.763   1.208  -7.116  1.00  0.00    -0.237 OA
ATOM     69  O   UNL     1      11.486   1.077  -5.356  1.00  0.00    -0.744 OA
ENDBRANCH  62  66
ENDBRANCH  45  59
BRANCH  46  70
ATOM     70  C   UNL     1       0.359  10.554  -6.117  1.00  0.00     0.023 A 
ATOM     71  C   UNL     1      -0.466  10.607  -7.250  1.00  0.00     0.031 A 
ATOM     72  C   UNL     1      -0.007  11.323  -4.997  1.00  0.00     0.131 A 
ATOM     73  C   UNL     1      -1.596  11.440  -7.252  1.00  0.00     0.055 A 
ATOM     74  C   UNL     1      -1.161  12.109  -4.985  1.00  0.00     0.041 A 
ATOM     75  F   UNL     1       0.748  11.310  -3.887  1.00  0.00    -0.206 F 
ATOM     76  C   UNL     1      -1.957  12.179  -6.123  1.00  0.00     0.022 A 
BRANCH  73  77
ATOM     77  S   UNL     1      -2.550  11.604  -8.786  1.00  0.00     0.124 S 
ATOM     78  O   UNL     1      -1.535  12.086  -9.716  1.00  0.00    -0.237 OA
ATOM     79  O   UNL     1      -3.018  10.239  -8.999  1.00  0.00    -0.237 OA
ATOM     80  O   UNL     1      -3.589  12.571  -8.439  1.00  0.00    -0.744 OA
ENDBRANCH  73  77
ENDBRANCH  46  70
BRANCH  58  81
ATOM     81  C   UNL     1       6.371  10.872  -9.653  1.00  0.00     0.023 A 
ATOM     82  C   UNL     1       6.674  12.234  -9.487  1.00  0.00     0.031 A 
ATOM     83  C   UNL     1       6.530  10.304 -10.930  1.00  0.00     0.131 A 
ATOM     84  C   UNL     1       7.092  12.992 -10.592  1.00  0.00     0.055 A 
ATOM     85  C   UNL     1       6.990  11.051 -12.013  1.00  0.00     0.041 A 
ATOM     86  F   UNL     1       6.253   9.006 -11.138  1.00  0.00    -0.206 F 
ATOM     87  C   UNL     1       7.267  12.405 -11.849  1.00  0.00     0.022 A 
BRANCH  84  88
ATOM     88  S   UNL     1       7.366  14.772 -10.378  1.00  0.00     0.124 S 
ATOM     89  O   UNL     1       6.032  15.242 -10.018  1.00  0.00    -0.237 OA
ATOM     90  O   UNL     1       8.364  14.811  -9.314  1.00  0.00    -0.237 OA
ATOM     91  O   UNL     1       7.844  15.206 -11.690  1.00  0.00    -0.744 OA
ENDBRANCH  84  88
ENDBRANCH  58  81
ENDBRANCH  32  33
ENDBRANCH  25  27
ENDBRANCH  24  25
ENDBRANCH  23  24
ENDBRANCH   1  23
TORSDOF 18
