REMARK SMILES CCSc1cccc(-c2ccc([C@@H](C)C(=O)OCCOC(=O)c3ccc(-c4c5nc(c(-c6cc(S(=O)(=O)[O-])ccc6F)c6ccc([nH]6)c(-c6cc(S(=O)(=O)[O-])ccc6F)c6nc(c(-c7cc(S(=O)(=O)[O-])ccc7F)c7ccc4[nH]7)C=C6)C=C5)cc3)cc2)c1
REMARK SMILES IDX 18 1 17 2 15 3 16 4 13 5 14 6 12 7 9 8 10 9 87 10 11 11
REMARK SMILES IDX 86 12 8 13 4 14 5 15 88 16 6 17 7 18 3 19 2 20 1 21 19 22
REMARK SMILES IDX 20 23 21 24 22 25 23 26 24 27 85 28 25 29 84 30 26 31 27 32
REMARK SMILES IDX 28 33 78 34 29 35 83 36 77 37 79 38 30 39 82 40 76 41 75 42
REMARK SMILES IDX 31 44 63 45 43 46 62 47 44 48 47 49 61 50 80 51 45 52 46 53
REMARK SMILES IDX 60 55 81 56 48 57 32 58 33 59 41 60 34 61 40 62 42 63 39 64
REMARK SMILES IDX 35 65 36 66 37 67 38 68 64 69 65 70 73 71 66 72 72 73 74 74
REMARK SMILES IDX 71 75 67 76 68 77 69 78 70 79 49 80 50 81 58 82 51 83 57 84
REMARK SMILES IDX 59 85 56 86 52 87 53 88 54 89 55 90
REMARK H PARENT 79 43 47 54
REMARK Flexibility Score: inf
ROOT
ATOM      1  C   UNL     1       7.769   9.727  -3.921  1.00  0.00     0.274 C 
ENDROOT
BRANCH   1   2
ATOM      2  O   UNL     1       7.900   8.751  -2.870  1.00  0.00    -0.462 OA
BRANCH   2   3
ATOM      3  C   UNL     1       8.240   9.220  -1.640  1.00  0.00     0.313 C 
ATOM      4  O   UNL     1       8.512  10.394  -1.405  1.00  0.00    -0.252 OA
BRANCH   3   5
ATOM      5  C   UNL     1       8.334   8.137  -0.570  1.00  0.00     0.126 C 
ATOM      6  C   UNL     1       9.800   7.750  -0.367  1.00  0.00     0.025 C 
BRANCH   5   7
ATOM      7  C   UNL     1       7.439   6.920  -0.761  1.00  0.00    -0.034 A 
ATOM      8  C   UNL     1       5.796   4.610  -1.026  1.00  0.00    -0.018 A 
ATOM      9  C   UNL     1       6.862   4.856  -1.907  1.00  0.00     0.009 A 
ATOM     10  C   UNL     1       5.544   5.559  -0.028  1.00  0.00     0.009 A 
ATOM     11  C   UNL     1       7.672   5.987  -1.777  1.00  0.00     0.005 A 
ATOM     12  C   UNL     1       6.359   6.691   0.108  1.00  0.00     0.005 A 
BRANCH   8  13
ATOM     13  C   UNL     1       5.017   3.365  -1.132  1.00  0.00    -0.017 A 
ATOM     14  C   UNL     1       2.912   2.156  -1.401  1.00  0.00     0.008 A 
ATOM     15  C   UNL     1       3.612   0.948  -1.451  1.00  0.00     0.015 A 
ATOM     16  C   UNL     1       3.616   3.360  -1.250  1.00  0.00     0.023 A 
ATOM     17  C   UNL     1       4.995   0.930  -1.301  1.00  0.00     0.002 A 
ATOM     18  C   UNL     1       5.687   2.127  -1.140  1.00  0.00     0.009 A 
BRANCH  14  19
ATOM     19  S   UNL     1       1.143   2.163  -1.633  1.00  0.00    -0.126 SA
BRANCH  19  20
ATOM     20  C   UNL     1       0.577   1.631   0.024  1.00  0.00     0.071 C 
ATOM     21  C   UNL     1       0.726   0.134   0.242  1.00  0.00     0.016 C 
ENDBRANCH  19  20
ENDBRANCH  14  19
ENDBRANCH   8  13
ENDBRANCH   5   7
ENDBRANCH   3   5
ENDBRANCH   2   3
ENDBRANCH   1   2
BRANCH   1  22
ATOM     22  C   UNL     1       6.300  10.039  -4.210  1.00  0.00     0.275 C 
BRANCH  22  23
ATOM     23  O   UNL     1       5.689  10.720  -3.100  1.00  0.00    -0.458 OA
BRANCH  23  24
ATOM     24  C   UNL     1       4.949   9.929  -2.288  1.00  0.00     0.338 C 
ATOM     25  O   UNL     1       4.700   8.747  -2.436  1.00  0.00    -0.246 OA
BRANCH  24  26
ATOM     26  C   UNL     1       4.566  10.682  -1.085  1.00  0.00     0.060 A 
ATOM     27  C   UNL     1       5.168  10.326   0.122  1.00  0.00     0.016 A 
ATOM     28  C   UNL     1       3.564  11.651  -1.117  1.00  0.00     0.016 A 
ATOM     29  C   UNL     1       4.752  10.910   1.313  1.00  0.00     0.010 A 
ATOM     30  C   UNL     1       3.156  12.253   0.080  1.00  0.00     0.010 A 
ATOM     31  C   UNL     1       3.733  11.870   1.304  1.00  0.00    -0.014 A 
BRANCH  31  32
ATOM     32  C   UNL     1       3.242  12.408   2.598  1.00  0.00     0.031 A 
ATOM     33  C   UNL     1       1.916  11.953   3.141  1.00  0.00     0.074 A 
ATOM     34  C   UNL     1       4.015  13.249   3.309  1.00  0.00     0.049 A 
ATOM     35  N   UNL     1       1.309  12.302   4.246  1.00  0.00    -0.248 NA
ATOM     36  C   UNL     1       1.176  10.976   2.329  1.00  0.00     0.031 C 
ATOM     37  C   UNL     1       5.338  13.726   2.899  1.00  0.00     0.029 A 
ATOM     38  N   UNL     1       3.809  13.842   4.528  1.00  0.00    -0.354 N 
ATOM     39  C   UNL     1       0.110  11.598   4.260  1.00  0.00     0.074 A 
ATOM     40  C   UNL     1       0.065  10.826   3.035  1.00  0.00     0.031 C 
ATOM     41  C   UNL     1       5.829  14.527   3.858  1.00  0.00     0.029 A 
ATOM     42  C   UNL     1       4.843  14.656   4.927  1.00  0.00     0.049 A 
ATOM     43  H   UNL     1       2.997  13.700   5.066  1.00  0.00     0.167 HD
ATOM     44  C   UNL     1      -0.859  11.592   5.210  1.00  0.00     0.034 A 
ATOM     45  C   UNL     1       4.973  15.430   6.022  1.00  0.00     0.034 A 
ATOM     46  C   UNL     1      -0.800  12.370   6.425  1.00  0.00     0.049 A 
ATOM     47  C   UNL     1       3.861  15.444   7.039  1.00  0.00     0.074 A 
ATOM     48  C   UNL     1      -1.727  12.443   7.451  1.00  0.00     0.029 A 
ATOM     49  N   UNL     1       0.245  13.216   6.778  1.00  0.00    -0.354 N 
ATOM     50  N   UNL     1       2.723  14.787   7.030  1.00  0.00    -0.248 NA
ATOM     51  C   UNL     1       4.055  16.300   8.216  1.00  0.00     0.031 C 
ATOM     52  C   UNL     1      -1.270  13.373   8.393  1.00  0.00     0.029 A 
ATOM     53  C   UNL     1      -0.026  13.832   7.992  1.00  0.00     0.049 A 
ATOM     54  H   UNL     1       1.059  13.358   6.244  1.00  0.00     0.167 HD
ATOM     55  C   UNL     1       2.074  15.140   8.210  1.00  0.00     0.074 A 
ATOM     56  C   UNL     1       2.959  16.046   8.915  1.00  0.00     0.031 C 
ATOM     57  C   UNL     1       0.856  14.752   8.670  1.00  0.00     0.034 A 
BRANCH  44  58
ATOM     58  C   UNL     1      -2.088  10.759   4.933  1.00  0.00     0.023 A 
ATOM     59  C   UNL     1      -2.031   9.357   4.845  1.00  0.00     0.031 A 
ATOM     60  C   UNL     1      -3.329  11.382   4.713  1.00  0.00     0.131 A 
ATOM     61  C   UNL     1      -3.175   8.631   4.477  1.00  0.00     0.055 A 
ATOM     62  C   UNL     1      -4.480  10.649   4.419  1.00  0.00     0.041 A 
ATOM     63  F   UNL     1      -3.440  12.719   4.762  1.00  0.00    -0.206 F 
ATOM     64  C   UNL     1      -4.404   9.266   4.285  1.00  0.00     0.022 A 
BRANCH  61  65
ATOM     65  S   UNL     1      -3.004   6.860   4.119  1.00  0.00     0.124 S 
ATOM     66  O   UNL     1      -2.015   6.869   3.043  1.00  0.00    -0.237 OA
ATOM     67  O   UNL     1      -2.553   6.321   5.396  1.00  0.00    -0.237 OA
ATOM     68  O   UNL     1      -4.350   6.460   3.714  1.00  0.00    -0.744 OA
ENDBRANCH  61  65
ENDBRANCH  44  58
BRANCH  45  69
ATOM     69  C   UNL     1       6.179  16.287   6.200  1.00  0.00     0.023 A 
ATOM     70  C   UNL     1       7.078  16.070   7.255  1.00  0.00     0.031 A 
ATOM     71  C   UNL     1       6.423  17.368   5.335  1.00  0.00     0.131 A 
ATOM     72  C   UNL     1       8.159  16.946   7.442  1.00  0.00     0.055 A 
ATOM     73  C   UNL     1       7.526  18.207   5.496  1.00  0.00     0.041 A 
ATOM     74  F   UNL     1       5.593  17.618   4.309  1.00  0.00    -0.206 F 
ATOM     75  C   UNL     1       8.396  18.005   6.563  1.00  0.00     0.022 A 
BRANCH  72  76
ATOM     76  S   UNL     1       9.216  16.725   8.900  1.00  0.00     0.124 S 
ATOM     77  O   UNL     1       8.252  16.847   9.988  1.00  0.00    -0.237 OA
ATOM     78  O   UNL     1       9.766  15.392   8.677  1.00  0.00    -0.237 OA
ATOM     79  O   UNL     1      10.178  17.820   8.792  1.00  0.00    -0.744 OA
ENDBRANCH  72  76
ENDBRANCH  45  69
BRANCH  57  80
ATOM     80  C   UNL     1       0.439  15.294  10.015  1.00  0.00     0.023 A 
ATOM     81  C   UNL     1       0.172  16.662  10.208  1.00  0.00     0.031 A 
ATOM     82  C   UNL     1       0.348  14.439  11.127  1.00  0.00     0.131 A 
ATOM     83  C   UNL     1      -0.106  17.145  11.495  1.00  0.00     0.055 A 
ATOM     84  C   UNL     1       0.013  14.917  12.395  1.00  0.00     0.041 A 
ATOM     85  F   UNL     1       0.594  13.125  11.000  1.00  0.00    -0.206 F 
ATOM     86  C   UNL     1      -0.200  16.279  12.588  1.00  0.00     0.022 A 
BRANCH  83  87
ATOM     87  S   UNL     1      -0.235  18.938  11.743  1.00  0.00     0.124 S 
ATOM     88  O   UNL     1       1.046  19.410  11.229  1.00  0.00    -0.237 OA
ATOM     89  O   UNL     1      -1.408  19.279  10.945  1.00  0.00    -0.237 OA
ATOM     90  O   UNL     1      -0.409  19.072  13.189  1.00  0.00    -0.744 OA
ENDBRANCH  83  87
ENDBRANCH  57  80
ENDBRANCH  31  32
ENDBRANCH  24  26
ENDBRANCH  23  24
ENDBRANCH  22  23
ENDBRANCH   1  22
TORSDOF 18
