REMARK SMILES Cc1c(Cl)ccc2c(OCC(=O)OCCOC(=O)c3ccc(-c4c5nc(c(-c6cc(S(=O)(=O)[O-])ccc6F)c6ccc([nH]6)c(-c6cc(S(=O)(=O)[O-])ccc6F)c6nc(c(-c7cc(S(=O)(=O)[O-])ccc7F)c7ccc4[nH]7)C=C6)C=C5)cc3)ccnc12
REMARK SMILES IDX 15 1 14 2 13 3 11 4 12 5 10 6 9 7 8 8 1 9 2 10 3 11 85 12
REMARK SMILES IDX 4 13 5 14 7 15 84 16 6 17 83 18 82 19 16 20 17 21 18 22
REMARK SMILES IDX 19 23 20 24 81 25 21 26 80 27 22 28 23 29 24 30 74 31 25 32
REMARK SMILES IDX 79 33 73 34 75 35 26 36 78 37 72 38 71 39 27 41 59 42 39 43
REMARK SMILES IDX 58 44 40 45 43 46 57 47 76 48 41 49 42 50 56 52 77 53 44 54
REMARK SMILES IDX 28 55 29 56 37 57 30 58 36 59 38 60 35 61 31 62 32 63 33 64
REMARK SMILES IDX 34 65 60 66 61 67 69 68 62 69 68 70 70 71 67 72 63 73 64 74
REMARK SMILES IDX 65 75 66 76 45 77 46 78 54 79 47 80 53 81 55 82 52 83 48 84
REMARK SMILES IDX 49 85 50 86 51 87
REMARK H PARENT 75 40 43 51
REMARK Flexibility Score: inf
ROOT
ATOM      1  C   UNL     1      -5.596   2.706  -3.599  1.00  0.00     0.275 C 
ENDROOT
BRANCH   1   2
ATOM      2  C   UNL     1      -5.738   1.508  -4.533  1.00  0.00     0.274 C 
BRANCH   2   3
ATOM      3  O   UNL     1      -4.447   0.945  -4.851  1.00  0.00    -0.460 OA
BRANCH   3   4
ATOM      4  C   UNL     1      -3.919   1.324  -6.047  1.00  0.00     0.344 C 
ATOM      5  O   UNL     1      -4.472   2.066  -6.852  1.00  0.00    -0.248 OA
BRANCH   4   6
ATOM      6  C   UNL     1      -2.558   0.692  -6.332  1.00  0.00     0.352 C 
BRANCH   6   7
ATOM      7  O   UNL     1      -1.939  -0.102  -5.337  1.00  0.00    -0.481 OA
BRANCH   7   8
ATOM      8  C   UNL     1      -1.197   0.495  -4.348  1.00  0.00     0.131 A 
ATOM      9  C   UNL     1       1.306  -0.044  -0.115  1.00  0.00     0.048 C 
ATOM     10  C   UNL     1       0.624  -0.650  -1.319  1.00  0.00    -0.006 A 
ATOM     11  C   UNL     1       0.570  -2.044  -1.488  1.00  0.00     0.046 A 
ATOM     12  C   UNL     1       0.080   0.194  -2.301  1.00  0.00     0.078 A 
ATOM     13  Cl  UNL     1       1.303  -3.136  -0.364  1.00  0.00    -0.084 Cl
ATOM     14  C   UNL     1      -0.076  -2.603  -2.586  1.00  0.00     0.022 A 
ATOM     15  C   UNL     1      -0.610  -0.373  -3.399  1.00  0.00     0.043 A 
ATOM     16  N   UNL     1       0.223   1.526  -2.187  1.00  0.00    -0.256 NA
ATOM     17  C   UNL     1      -0.680  -1.774  -3.522  1.00  0.00     0.016 A 
ATOM     18  C   UNL     1      -0.293   2.325  -3.139  1.00  0.00     0.115 A 
ATOM     19  C   UNL     1      -1.004   1.862  -4.226  1.00  0.00     0.067 A 
ENDBRANCH   7   8
ENDBRANCH   6   7
ENDBRANCH   4   6
ENDBRANCH   3   4
ENDBRANCH   2   3
ENDBRANCH   1   2
BRANCH   1  20
ATOM     20  O   UNL     1      -4.730   3.682  -4.200  1.00  0.00    -0.458 OA
BRANCH  20  21
ATOM     21  C   UNL     1      -3.775   4.189  -3.391  1.00  0.00     0.338 C 
ATOM     22  O   UNL     1      -3.640   3.956  -2.194  1.00  0.00    -0.246 OA
BRANCH  21  23
ATOM     23  C   UNL     1      -2.848   5.063  -4.143  1.00  0.00     0.060 A 
ATOM     24  C   UNL     1      -2.621   4.907  -5.516  1.00  0.00     0.016 A 
ATOM     25  C   UNL     1      -2.108   6.005  -3.421  1.00  0.00     0.016 A 
ATOM     26  C   UNL     1      -1.612   5.642  -6.146  1.00  0.00     0.010 A 
ATOM     27  C   UNL     1      -1.152   6.788  -4.067  1.00  0.00     0.010 A 
ATOM     28  C   UNL     1      -0.876   6.598  -5.429  1.00  0.00    -0.014 A 
BRANCH  28  29
ATOM     29  C   UNL     1       0.159   7.440  -6.084  1.00  0.00     0.031 A 
ATOM     30  C   UNL     1       1.599   7.349  -5.660  1.00  0.00     0.074 A 
ATOM     31  C   UNL     1      -0.212   8.341  -7.013  1.00  0.00     0.049 A 
ATOM     32  N   UNL     1       2.605   8.117  -5.989  1.00  0.00    -0.248 NA
ATOM     33  C   UNL     1       1.954   6.256  -4.740  1.00  0.00     0.031 C 
ATOM     34  C   UNL     1      -1.573   8.515  -7.519  1.00  0.00     0.029 A 
ATOM     35  N   UNL     1       0.517   9.294  -7.681  1.00  0.00    -0.354 N 
ATOM     36  C   UNL     1       3.707   7.617  -5.302  1.00  0.00     0.074 A 
ATOM     37  C   UNL     1       3.241   6.491  -4.522  1.00  0.00     0.031 C 
ATOM     38  C   UNL     1      -1.582   9.506  -8.421  1.00  0.00     0.029 A 
ATOM     39  C   UNL     1      -0.245  10.085  -8.509  1.00  0.00     0.049 A 
ATOM     40  H   UNL     1       1.490   9.400  -7.578  1.00  0.00     0.167 HD
ATOM     41  C   UNL     1       4.988   8.055  -5.328  1.00  0.00     0.034 A 
ATOM     42  C   UNL     1       0.082  11.177  -9.230  1.00  0.00     0.034 A 
ATOM     43  C   UNL     1       5.444   9.170  -6.118  1.00  0.00     0.049 A 
ATOM     44  C   UNL     1       1.500  11.677  -9.205  1.00  0.00     0.074 A 
ATOM     45  C   UNL     1       6.728   9.676  -6.223  1.00  0.00     0.029 A 
ATOM     46  N   UNL     1       4.642   9.945  -6.942  1.00  0.00    -0.354 N 
ATOM     47  N   UNL     1       2.533  11.187  -8.562  1.00  0.00    -0.248 NA
ATOM     48  C   UNL     1       1.800  12.880  -9.993  1.00  0.00     0.031 C 
ATOM     49  C   UNL     1       6.696  10.778  -7.080  1.00  0.00     0.029 A 
ATOM     50  C   UNL     1       5.400  10.933  -7.547  1.00  0.00     0.049 A 
ATOM     51  H   UNL     1       3.675   9.813  -7.077  1.00  0.00     0.167 HD
ATOM     52  C   UNL     1       3.609  12.006  -8.884  1.00  0.00     0.074 A 
ATOM     53  C   UNL     1       3.105  13.018  -9.790  1.00  0.00     0.031 C 
ATOM     54  C   UNL     1       4.896  11.926  -8.463  1.00  0.00     0.034 A 
BRANCH  41  55
ATOM     55  C   UNL     1       6.010   7.330  -4.492  1.00  0.00     0.023 A 
ATOM     56  C   UNL     1       6.612   7.974  -3.396  1.00  0.00     0.031 A 
ATOM     57  C   UNL     1       6.467   6.051  -4.851  1.00  0.00     0.131 A 
ATOM     58  C   UNL     1       7.657   7.343  -2.709  1.00  0.00     0.055 A 
ATOM     59  C   UNL     1       7.490   5.415  -4.147  1.00  0.00     0.041 A 
ATOM     60  F   UNL     1       5.919   5.399  -5.890  1.00  0.00    -0.206 F 
ATOM     61  C   UNL     1       8.096   6.066  -3.076  1.00  0.00     0.022 A 
BRANCH  58  62
ATOM     62  S   UNL     1       8.513   8.167  -1.339  1.00  0.00     0.124 S 
ATOM     63  O   UNL     1       8.353   7.197  -0.257  1.00  0.00    -0.237 OA
ATOM     64  O   UNL     1       9.870   8.300  -1.861  1.00  0.00    -0.237 OA
ATOM     65  O   UNL     1       7.777   9.414  -1.165  1.00  0.00    -0.744 OA
ENDBRANCH  58  62
ENDBRANCH  41  55
BRANCH  42  66
ATOM     66  C   UNL     1      -0.970  11.832 -10.057  1.00  0.00     0.023 A 
ATOM     67  C   UNL     1      -2.086  12.444  -9.460  1.00  0.00     0.031 A 
ATOM     68  C   UNL     1      -0.930  11.740 -11.457  1.00  0.00     0.131 A 
ATOM     69  C   UNL     1      -3.150  12.877 -10.260  1.00  0.00     0.055 A 
ATOM     70  C   UNL     1      -1.965  12.230 -12.255  1.00  0.00     0.041 A 
ATOM     71  F   UNL     1       0.112  11.154 -12.066  1.00  0.00    -0.206 F 
ATOM     72  C   UNL     1      -3.090  12.788 -11.655  1.00  0.00     0.022 A 
BRANCH  69  73
ATOM     73  S   UNL     1      -4.694  13.470  -9.514  1.00  0.00     0.124 S 
ATOM     74  O   UNL     1      -4.875  14.763 -10.167  1.00  0.00    -0.237 OA
ATOM     75  O   UNL     1      -5.633  12.425  -9.913  1.00  0.00    -0.237 OA
ATOM     76  O   UNL     1      -4.389  13.523  -8.088  1.00  0.00    -0.744 OA
ENDBRANCH  69  73
ENDBRANCH  42  66
BRANCH  54  77
ATOM     77  C   UNL     1       5.883  12.942  -8.976  1.00  0.00     0.023 A 
ATOM     78  C   UNL     1       6.926  12.538  -9.829  1.00  0.00     0.031 A 
ATOM     79  C   UNL     1       5.875  14.266  -8.508  1.00  0.00     0.131 A 
ATOM     80  C   UNL     1       7.943  13.442 -10.159  1.00  0.00     0.055 A 
ATOM     81  C   UNL     1       6.871  15.174  -8.868  1.00  0.00     0.041 A 
ATOM     82  F   UNL     1       4.901  14.692  -7.687  1.00  0.00    -0.206 F 
ATOM     83  C   UNL     1       7.917  14.759  -9.689  1.00  0.00     0.022 A 
BRANCH  80  84
ATOM     84  S   UNL     1       9.361  12.928 -11.166  1.00  0.00     0.124 S 
ATOM     85  O   UNL     1       9.344  13.914 -12.244  1.00  0.00    -0.237 OA
ATOM     86  O   UNL     1      10.468  13.055 -10.222  1.00  0.00    -0.237 OA
ATOM     87  O   UNL     1       9.031  11.565 -11.570  1.00  0.00    -0.744 OA
ENDBRANCH  80  84
ENDBRANCH  54  77
ENDBRANCH  28  29
ENDBRANCH  21  23
ENDBRANCH  20  21
ENDBRANCH   1  20
TORSDOF 16
