REMARK SMILES CCCc1c(C(=O)OCCOC(=O)c2ccc(-c3c4nc(c(-c5cc(S(=O)(=O)[O-])ccc5F)c5ccc([nH]5)c(-c5cc(S(=O)(=O)[O-])ccc5F)c5nc(c(-c6cc(S(=O)(=O)[O-])ccc6F)c6ccc3[nH]6)C=C5)C=C4)cc2)nnn1-c1ccccc1[N+](=O)[O-]
REMARK SMILES IDX 10 1 9 2 8 3 6 4 7 5 5 6 4 7 79 8 77 9 78 10 3 11 2 12 1 13
REMARK SMILES IDX 80 14 81 15 85 16 82 17 84 18 83 19 86 20 87 21 88 22 11 23
REMARK SMILES IDX 12 24 13 25 14 26 15 27 76 28 16 29 75 30 17 31 18 32 19 33
REMARK SMILES IDX 69 34 20 35 74 36 68 37 70 38 21 39 73 40 67 41 66 42 22 44
REMARK SMILES IDX 54 45 34 46 53 47 35 48 38 49 52 50 71 51 36 52 37 53 51 55
REMARK SMILES IDX 72 56 39 57 23 58 24 59 32 60 25 61 31 62 33 63 30 64 26 65
REMARK SMILES IDX 27 66 28 67 29 68 55 69 56 70 64 71 57 72 63 73 65 74 62 75
REMARK SMILES IDX 58 76 59 77 60 78 61 79 40 80 41 81 49 82 42 83 48 84 50 85
REMARK SMILES IDX 47 86 43 87 44 88 45 89 46 90
REMARK H PARENT 70 43 38 54
REMARK Flexibility Score: inf
ROOT
ATOM      1  C   UNL     1       2.152  -7.238   0.031  1.00  0.00     0.275 C 
ENDROOT
BRANCH   1   2
ATOM      2  C   UNL     1       0.893  -6.740  -0.668  1.00  0.00     0.275 C 
BRANCH   2   3
ATOM      3  O   UNL     1       0.572  -5.394  -0.278  1.00  0.00    -0.457 OA
BRANCH   3   4
ATOM      4  C   UNL     1      -0.219  -5.255   0.830  1.00  0.00     0.360 C 
ATOM      5  O   UNL     1      -0.829  -6.193   1.343  1.00  0.00    -0.244 OA
BRANCH   4   6
ATOM      6  C   UNL     1      -0.225  -3.904   1.386  1.00  0.00     0.194 A 
ATOM      7  C   UNL     1       0.254  -2.697   0.858  1.00  0.00     0.080 A 
ATOM      8  N   UNL     1      -0.112  -1.782   1.836  1.00  0.00    -0.210 N 
ATOM      9  N   UNL     1      -0.658  -3.689   2.674  1.00  0.00    -0.122 NA
ATOM     10  N   UNL     1      -0.473  -2.417   2.970  1.00  0.00    -0.061 NA
BRANCH   7  11
ATOM     11  C   UNL     1       1.118  -2.487  -0.359  1.00  0.00     0.059 C 
BRANCH  11  12
ATOM     12  C   UNL     1       1.087  -1.169  -1.121  1.00  0.00     0.003 C 
ATOM     13  C   UNL     1       2.036  -0.106  -0.589  1.00  0.00     0.004 C 
ENDBRANCH  11  12
ENDBRANCH   7  11
BRANCH   8  14
ATOM     14  C   UNL     1      -0.301  -0.391   1.779  1.00  0.00     0.144 A 
ATOM     15  C   UNL     1       0.430   0.405   2.675  1.00  0.00     0.036 A 
ATOM     16  C   UNL     1      -1.207   0.212   0.896  1.00  0.00     0.294 A 
ATOM     17  C   UNL     1       0.344   1.797   2.594  1.00  0.00     0.003 A 
ATOM     18  C   UNL     1      -1.285   1.611   0.817  1.00  0.00     0.088 A 
ATOM     19  C   UNL     1      -0.493   2.398   1.653  1.00  0.00     0.007 A 
BRANCH  16  20
ATOM     20  N   UNL     1      -2.172  -0.559   0.107  1.00  0.00     0.065 N 
ATOM     21  O   UNL     1      -2.482  -0.106  -1.005  1.00  0.00    -0.258 OA
ATOM     22  O   UNL     1      -2.644  -1.589   0.600  1.00  0.00    -0.258 OA
ENDBRANCH  16  20
ENDBRANCH   8  14
ENDBRANCH   4   6
ENDBRANCH   3   4
ENDBRANCH   2   3
ENDBRANCH   1   2
BRANCH   1  23
ATOM     23  O   UNL     1       1.937  -7.392   1.432  1.00  0.00    -0.458 OA
BRANCH  23  24
ATOM     24  C   UNL     1       2.273  -6.312   2.177  1.00  0.00     0.338 C 
ATOM     25  O   UNL     1       2.471  -5.179   1.769  1.00  0.00    -0.246 OA
BRANCH  24  26
ATOM     26  C   UNL     1       2.584  -6.742   3.541  1.00  0.00     0.060 A 
ATOM     27  C   UNL     1       2.870  -5.744   4.480  1.00  0.00     0.016 A 
ATOM     28  C   UNL     1       2.914  -8.086   3.756  1.00  0.00     0.016 A 
ATOM     29  C   UNL     1       3.663  -6.066   5.561  1.00  0.00     0.010 A 
ATOM     30  C   UNL     1       3.737  -8.394   4.807  1.00  0.00     0.010 A 
ATOM     31  C   UNL     1       4.155  -7.367   5.656  1.00  0.00    -0.014 A 
BRANCH  31  32
ATOM     32  C   UNL     1       5.115  -7.682   6.692  1.00  0.00     0.031 A 
ATOM     33  C   UNL     1       4.504  -8.039   7.992  1.00  0.00     0.074 A 
ATOM     34  C   UNL     1       6.415  -7.857   6.390  1.00  0.00     0.049 A 
ATOM     35  N   UNL     1       4.641  -7.454   9.134  1.00  0.00    -0.248 NA
ATOM     36  C   UNL     1       3.472  -9.092   7.981  1.00  0.00     0.031 C 
ATOM     37  C   UNL     1       7.020  -7.872   5.054  1.00  0.00     0.029 A 
ATOM     38  N   UNL     1       7.438  -8.237   7.197  1.00  0.00    -0.354 N 
ATOM     39  C   UNL     1       3.887  -8.210  10.027  1.00  0.00     0.074 A 
ATOM     40  C   UNL     1       3.010  -9.011   9.226  1.00  0.00     0.031 C 
ATOM     41  C   UNL     1       8.217  -8.493   5.125  1.00  0.00     0.029 A 
ATOM     42  C   UNL     1       8.495  -8.827   6.514  1.00  0.00     0.049 A 
ATOM     43  H   UNL     1       7.432  -8.108   8.173  1.00  0.00     0.167 HD
ATOM     44  C   UNL     1       4.243  -8.332  11.334  1.00  0.00     0.034 A 
ATOM     45  C   UNL     1       9.439  -9.651   7.043  1.00  0.00     0.034 A 
ATOM     46  C   UNL     1       5.148  -7.269  11.722  1.00  0.00     0.049 A 
ATOM     47  C   UNL     1       9.435  -9.426   8.516  1.00  0.00     0.074 A 
ATOM     48  C   UNL     1       5.084  -5.888  11.656  1.00  0.00     0.029 A 
ATOM     49  N   UNL     1       6.485  -7.563  11.896  1.00  0.00    -0.354 N 
ATOM     50  N   UNL     1       9.760  -8.291   9.077  1.00  0.00    -0.248 NA
ATOM     51  C   UNL     1       8.602 -10.296   9.336  1.00  0.00     0.031 C 
ATOM     52  C   UNL     1       6.394  -5.479  11.269  1.00  0.00     0.029 A 
ATOM     53  C   UNL     1       7.199  -6.617  11.202  1.00  0.00     0.049 A 
ATOM     54  H   UNL     1       6.856  -8.310  12.419  1.00  0.00     0.167 HD
ATOM     55  C   UNL     1       8.848  -8.119  10.109  1.00  0.00     0.074 A 
ATOM     56  C   UNL     1       8.226  -9.431  10.283  1.00  0.00     0.031 C 
ATOM     57  C   UNL     1       8.461  -6.876  10.530  1.00  0.00     0.034 A 
BRANCH  44  58
ATOM     58  C   UNL     1       4.088  -9.613  12.138  1.00  0.00     0.023 A 
ATOM     59  C   UNL     1       4.603  -9.597  13.446  1.00  0.00     0.031 A 
ATOM     60  C   UNL     1       3.744 -10.894  11.641  1.00  0.00     0.131 A 
ATOM     61  C   UNL     1       4.893 -10.790  14.127  1.00  0.00     0.055 A 
ATOM     62  C   UNL     1       3.966 -12.076  12.354  1.00  0.00     0.041 A 
ATOM     63  F   UNL     1       3.250 -11.105  10.418  1.00  0.00    -0.206 F 
ATOM     64  C   UNL     1       4.584 -12.034  13.587  1.00  0.00     0.022 A 
BRANCH  61  65
ATOM     65  S   UNL     1       5.875 -10.683  15.641  1.00  0.00     0.124 S 
ATOM     66  O   UNL     1       6.993  -9.852  15.203  1.00  0.00    -0.237 OA
ATOM     67  O   UNL     1       4.931 -10.061  16.562  1.00  0.00    -0.237 OA
ATOM     68  O   UNL     1       6.206 -12.076  15.928  1.00  0.00    -0.744 OA
ENDBRANCH  61  65
ENDBRANCH  44  58
BRANCH  45  69
ATOM     69  C   UNL     1      10.021 -10.849   6.367  1.00  0.00     0.023 A 
ATOM     70  C   UNL     1      11.230 -11.450   6.773  1.00  0.00     0.031 A 
ATOM     71  C   UNL     1       9.270 -11.552   5.392  1.00  0.00     0.131 A 
ATOM     72  C   UNL     1      11.651 -12.671   6.189  1.00  0.00     0.055 A 
ATOM     73  C   UNL     1       9.701 -12.740   4.802  1.00  0.00     0.041 A 
ATOM     74  F   UNL     1       8.041 -11.149   5.031  1.00  0.00    -0.206 F 
ATOM     75  C   UNL     1      10.896 -13.309   5.201  1.00  0.00     0.022 A 
BRANCH  72  76
ATOM     76  S   UNL     1      13.160 -13.507   6.777  1.00  0.00     0.124 S 
ATOM     77  O   UNL     1      14.212 -12.604   6.324  1.00  0.00    -0.237 OA
ATOM     78  O   UNL     1      12.938 -13.576   8.216  1.00  0.00    -0.237 OA
ATOM     79  O   UNL     1      13.124 -14.800   6.091  1.00  0.00    -0.744 OA
ENDBRANCH  72  76
ENDBRANCH  45  69
BRANCH  57  80
ATOM     80  C   UNL     1       9.242  -5.659  10.072  1.00  0.00     0.023 A 
ATOM     81  C   UNL     1       9.462  -5.306   8.721  1.00  0.00     0.031 A 
ATOM     82  C   UNL     1       9.636  -4.735  11.057  1.00  0.00     0.131 A 
ATOM     83  C   UNL     1      10.057  -4.068   8.403  1.00  0.00     0.055 A 
ATOM     84  C   UNL     1      10.207  -3.503  10.738  1.00  0.00     0.041 A 
ATOM     85  F   UNL     1       9.427  -4.995  12.359  1.00  0.00    -0.206 F 
ATOM     86  C   UNL     1      10.423  -3.166   9.408  1.00  0.00     0.022 A 
BRANCH  83  87
ATOM     87  S   UNL     1      10.371  -3.603   6.670  1.00  0.00     0.124 S 
ATOM     88  O   UNL     1      10.987  -4.796   6.101  1.00  0.00    -0.237 OA
ATOM     89  O   UNL     1       9.034  -3.276   6.182  1.00  0.00    -0.237 OA
ATOM     90  O   UNL     1      11.270  -2.453   6.784  1.00  0.00    -0.744 OA
ENDBRANCH  83  87
ENDBRANCH  57  80
ENDBRANCH  31  32
ENDBRANCH  24  26
ENDBRANCH  23  24
ENDBRANCH   1  23
TORSDOF 18
