REMARK SMILES O=C(OCCOC(=O)C1CC[NH+]([C@@H]2CCO[C@]3(CCOC3)C2)CC1)c1ccc(-c2c3nc(c(-c4cc(S(=O)(=O)[O-])ccc4F)c4ccc([nH]4)c(-c4cc(S(=O)(=O)[O-])ccc4F)c4nc(c(-c5cc(S(=O)(=O)[O-])ccc5F)c5ccc2[nH]5)C=C4)C=C3)cc1
REMARK SMILES IDX 4 1 3 2 2 3 1 4 25 5 26 6 87 7 27 8 86 9 28 10 29 11 30 12
REMARK SMILES IDX 80 13 31 14 85 15 79 16 81 17 32 18 84 19 78 20 77 21 33 23
REMARK SMILES IDX 65 24 45 25 64 26 46 27 49 28 63 29 82 30 47 31 48 32 62 34
REMARK SMILES IDX 83 35 50 36 34 37 35 38 43 39 36 40 42 41 44 42 41 43 37 44
REMARK SMILES IDX 38 45 39 46 40 47 66 48 67 49 75 50 68 51 74 52 76 53 73 54
REMARK SMILES IDX 69 55 70 56 71 57 72 58 51 59 52 60 60 61 53 62 59 63 61 64
REMARK SMILES IDX 58 65 54 66 55 67 56 68 57 69 5 70 6 71 7 72 8 73 9 74 10 75
REMARK SMILES IDX 24 76 11 77 23 78 12 79 13 81 14 82 22 83 15 84 17 85 16 86
REMARK SMILES IDX 18 87 21 88 19 89 20 90
REMARK H PARENT 81 22 49 33 12 80
REMARK Flexibility Score: inf
ROOT
ATOM      1  C   UNL     1       5.017   2.051   0.389  1.00  0.00     0.275 C 
ENDROOT
BRANCH   1   2
ATOM      2  O   UNL     1       4.833   1.413  -0.890  1.00  0.00    -0.458 OA
BRANCH   2   3
ATOM      3  C   UNL     1       4.533   0.108  -1.071  1.00  0.00     0.338 C 
ATOM      4  O   UNL     1       3.710  -0.219  -1.925  1.00  0.00    -0.246 OA
BRANCH   3   5
ATOM      5  C   UNL     1       5.204  -0.933  -0.241  1.00  0.00     0.060 A 
ATOM      6  C   UNL     1       6.385  -0.749   0.480  1.00  0.00     0.016 A 
ATOM      7  C   UNL     1       4.583  -2.182  -0.183  1.00  0.00     0.016 A 
ATOM      8  C   UNL     1       6.828  -1.730   1.377  1.00  0.00     0.010 A 
ATOM      9  C   UNL     1       5.016  -3.155   0.715  1.00  0.00     0.010 A 
ATOM     10  C   UNL     1       6.121  -2.928   1.536  1.00  0.00    -0.014 A 
BRANCH  10  11
ATOM     11  C   UNL     1       6.561  -3.946   2.522  1.00  0.00     0.031 A 
ATOM     12  C   UNL     1       7.005  -5.302   2.047  1.00  0.00     0.074 A 
ATOM     13  C   UNL     1       6.538  -3.667   3.842  1.00  0.00     0.049 A 
ATOM     14  N   UNL     1       7.593  -6.258   2.720  1.00  0.00    -0.248 NA
ATOM     15  C   UNL     1       6.711  -5.650   0.648  1.00  0.00     0.031 C 
ATOM     16  C   UNL     1       5.977  -2.455   4.450  1.00  0.00     0.029 A 
ATOM     17  N   UNL     1       7.008  -4.380   4.916  1.00  0.00    -0.354 N 
ATOM     18  C   UNL     1       7.779  -7.289   1.808  1.00  0.00     0.074 A 
ATOM     19  C   UNL     1       7.083  -6.917   0.599  1.00  0.00     0.031 C 
ATOM     20  C   UNL     1       6.168  -2.497   5.780  1.00  0.00     0.029 A 
ATOM     21  C   UNL     1       6.890  -3.719   6.119  1.00  0.00     0.049 A 
ATOM     22  H   UNL     1       7.394  -5.282   4.835  1.00  0.00     0.167 HD
ATOM     23  C   UNL     1       8.552  -8.397   1.923  1.00  0.00     0.034 A 
ATOM     24  C   UNL     1       7.364  -4.041   7.340  1.00  0.00     0.034 A 
ATOM     25  C   UNL     1       9.240  -8.749   3.133  1.00  0.00     0.049 A 
ATOM     26  C   UNL     1       8.243  -5.265   7.460  1.00  0.00     0.074 A 
ATOM     27  C   UNL     1      10.081  -9.817   3.381  1.00  0.00     0.029 A 
ATOM     28  N   UNL     1       9.156  -8.021   4.313  1.00  0.00    -0.354 N 
ATOM     29  N   UNL     1       8.566  -6.144   6.538  1.00  0.00    -0.248 NA
ATOM     30  C   UNL     1       8.869  -5.505   8.767  1.00  0.00     0.031 C 
ATOM     31  C   UNL     1      10.482  -9.750   4.722  1.00  0.00     0.029 A 
ATOM     32  C   UNL     1       9.926  -8.616   5.295  1.00  0.00     0.049 A 
ATOM     33  H   UNL     1       8.625  -7.201   4.433  1.00  0.00     0.167 HD
ATOM     34  C   UNL     1       9.469  -7.014   7.144  1.00  0.00     0.074 A 
ATOM     35  C   UNL     1       9.652  -6.539   8.502  1.00  0.00     0.031 C 
ATOM     36  C   UNL     1      10.095  -8.106   6.634  1.00  0.00     0.034 A 
BRANCH  23  37
ATOM     37  C   UNL     1       8.706  -9.233   0.677  1.00  0.00     0.023 A 
ATOM     38  C   UNL     1       9.265  -8.668  -0.488  1.00  0.00     0.031 A 
ATOM     39  C   UNL     1       8.202 -10.538   0.597  1.00  0.00     0.131 A 
ATOM     40  C   UNL     1       9.188  -9.353  -1.707  1.00  0.00     0.055 A 
ATOM     41  C   UNL     1       8.218 -11.255  -0.604  1.00  0.00     0.041 A 
ATOM     42  F   UNL     1       7.644 -11.123   1.668  1.00  0.00    -0.206 F 
ATOM     43  C   UNL     1       8.690 -10.654  -1.770  1.00  0.00     0.022 A 
BRANCH  40  44
ATOM     44  S   UNL     1       9.576  -8.439  -3.225  1.00  0.00     0.124 S 
ATOM     45  O   UNL     1       8.520  -7.425  -3.231  1.00  0.00    -0.237 OA
ATOM     46  O   UNL     1      10.921  -7.958  -2.977  1.00  0.00    -0.237 OA
ATOM     47  O   UNL     1       9.454  -9.456  -4.274  1.00  0.00    -0.744 OA
ENDBRANCH  40  44
ENDBRANCH  23  37
BRANCH  24  48
ATOM     48  C   UNL     1       7.104  -3.171   8.525  1.00  0.00     0.023 A 
ATOM     49  C   UNL     1       8.147  -2.487   9.171  1.00  0.00     0.031 A 
ATOM     50  C   UNL     1       5.814  -3.067   9.074  1.00  0.00     0.131 A 
ATOM     51  C   UNL     1       7.899  -1.788  10.364  1.00  0.00     0.055 A 
ATOM     52  C   UNL     1       5.563  -2.333  10.236  1.00  0.00     0.041 A 
ATOM     53  F   UNL     1       4.776  -3.685   8.488  1.00  0.00    -0.206 F 
ATOM     54  C   UNL     1       6.612  -1.703  10.899  1.00  0.00     0.022 A 
BRANCH  51  55
ATOM     55  S   UNL     1       9.306  -1.081  11.268  1.00  0.00     0.124 S 
ATOM     56  O   UNL     1      10.196  -2.230  11.385  1.00  0.00    -0.237 OA
ATOM     57  O   UNL     1       9.741  -0.023  10.362  1.00  0.00    -0.237 OA
ATOM     58  O   UNL     1       8.710  -0.622  12.521  1.00  0.00    -0.744 OA
ENDBRANCH  51  55
ENDBRANCH  24  48
BRANCH  36  59
ATOM     59  C   UNL     1      11.062  -8.820   7.540  1.00  0.00     0.023 A 
ATOM     60  C   UNL     1      10.621  -9.512   8.679  1.00  0.00     0.031 A 
ATOM     61  C   UNL     1      12.440  -8.799   7.263  1.00  0.00     0.131 A 
ATOM     62  C   UNL     1      11.556 -10.106   9.537  1.00  0.00     0.055 A 
ATOM     63  C   UNL     1      13.361  -9.443   8.089  1.00  0.00     0.041 A 
ATOM     64  F   UNL     1      12.911  -8.152   6.184  1.00  0.00    -0.206 F 
ATOM     65  C   UNL     1      12.922 -10.090   9.241  1.00  0.00     0.022 A 
BRANCH  62  66
ATOM     66  S   UNL     1      10.966 -10.823  11.094  1.00  0.00     0.124 S 
ATOM     67  O   UNL     1      10.334  -9.675  11.736  1.00  0.00    -0.237 OA
ATOM     68  O   UNL     1      10.063 -11.871  10.631  1.00  0.00    -0.237 OA
ATOM     69  O   UNL     1      12.190 -11.298  11.737  1.00  0.00    -0.744 OA
ENDBRANCH  62  66
ENDBRANCH  36  59
ENDBRANCH  10  11
ENDBRANCH   3   5
ENDBRANCH   2   3
ENDBRANCH   1   2
BRANCH   1  70
ATOM     70  C   UNL     1       3.833   1.970   1.354  1.00  0.00     0.274 C 
BRANCH  70  71
ATOM     71  O   UNL     1       3.490   0.638   1.782  1.00  0.00    -0.462 OA
BRANCH  71  72
ATOM     72  C   UNL     1       2.713   0.628   2.908  1.00  0.00     0.309 C 
ATOM     73  O   UNL     1       2.515   1.625   3.599  1.00  0.00    -0.252 OA
BRANCH  72  74
ATOM     74  C   UNL     1       1.893  -0.647   3.115  1.00  0.00     0.110 C 
ATOM     75  C   UNL     1       2.547  -1.976   2.734  1.00  0.00     0.077 C 
ATOM     76  C   UNL     1       0.591  -0.417   2.368  1.00  0.00     0.077 C 
ATOM     77  C   UNL     1       1.694  -2.965   1.889  1.00  0.00     0.263 C 
ATOM     78  C   UNL     1       0.718  -0.957   0.949  1.00  0.00     0.263 C 
ATOM     79  N   UNL     1       0.630  -2.398   1.047  1.00  0.00    -0.332 N 
ATOM     80  H   UNL     1      -0.256  -2.514   1.538  1.00  0.00     0.348 HD
BRANCH  79  81
ATOM     81  C   UNL     1       0.284  -3.194  -0.149  1.00  0.00     0.189 C 
ATOM     82  C   UNL     1       0.766  -2.684  -1.509  1.00  0.00     0.093 C 
ATOM     83  C   UNL     1      -1.231  -3.461  -0.287  1.00  0.00     0.103 C 
ATOM     84  C   UNL     1      -0.022  -1.499  -2.035  1.00  0.00     0.167 C 
ATOM     85  C   UNL     1      -2.037  -2.271  -0.837  1.00  0.00     0.099 C 
ATOM     86  O   UNL     1      -1.432  -1.654  -1.977  1.00  0.00    -0.372 OA
ATOM     87  C   UNL     1      -2.486  -1.318   0.268  1.00  0.00     0.066 C 
ATOM     88  C   UNL     1      -3.423  -2.711  -1.337  1.00  0.00     0.195 C 
ATOM     89  C   UNL     1      -3.800  -1.890   0.773  1.00  0.00     0.163 C 
ATOM     90  O   UNL     1      -4.300  -2.792  -0.214  1.00  0.00    -0.378 OA
ENDBRANCH  79  81
ENDBRANCH  72  74
ENDBRANCH  71  72
ENDBRANCH  70  71
ENDBRANCH   1  70
TORSDOF 15
