REMARK SMILES COc1ccccc1[C@@H]1CN(C(=O)c2cnn3ccccc23)C[C@H]1C(=O)OCCOC(=O)c1ccc(-c2c3nc(c(-c4cc(S(=O)(=O)[O-])ccc4F)c4ccc([nH]4)c(-c4cc(S(=O)(=O)[O-])ccc4F)c4nc(c(-c5cc(S(=O)(=O)[O-])ccc5F)c5ccc2[nH]5)C=C4)C=C3)cc1
REMARK SMILES IDX 29 1 28 2 27 3 25 4 26 5 24 6 9 7 10 8 11 9 23 10 8 11 3 12
REMARK SMILES IDX 4 13 5 14 7 15 6 16 2 17 1 18 12 19 13 20 14 21 15 22 22 23
REMARK SMILES IDX 16 24 17 25 21 26 18 27 20 28 19 29 30 30 31 31 32 32 33 33
REMARK SMILES IDX 34 34 95 35 35 36 94 37 36 38 37 39 38 40 88 41 39 42 93 43
REMARK SMILES IDX 87 44 89 45 40 46 92 47 86 48 85 49 41 51 73 52 53 53 72 54
REMARK SMILES IDX 54 55 57 56 71 57 90 58 55 59 56 60 70 62 91 63 58 64 42 65
REMARK SMILES IDX 43 66 51 67 44 68 50 69 52 70 49 71 45 72 46 73 47 74 48 75
REMARK SMILES IDX 74 76 75 77 83 78 76 79 82 80 84 81 81 82 77 83 78 84 79 85
REMARK SMILES IDX 80 86 59 87 60 88 68 89 61 90 67 91 69 92 66 93 62 94 63 95
REMARK SMILES IDX 64 96 65 97
REMARK H PARENT 89 50 57 61
REMARK Flexibility Score: inf
ROOT
ATOM      1  C   UNL     1       4.396  -0.265   5.599  1.00  0.00     0.275 C 
ENDROOT
BRANCH   1   2
ATOM      2  C   UNL     1       4.972  -1.068   4.429  1.00  0.00     0.274 C 
BRANCH   2   3
ATOM      3  O   UNL     1       4.620  -0.541   3.127  1.00  0.00    -0.462 OA
BRANCH   3   4
ATOM      4  C   UNL     1       3.454  -1.006   2.606  1.00  0.00     0.311 C 
ATOM      5  O   UNL     1       2.808  -1.932   3.096  1.00  0.00    -0.252 OA
BRANCH   4   6
ATOM      6  C   UNL     1       3.044  -0.390   1.285  1.00  0.00     0.128 C 
ATOM      7  C   UNL     1       3.332   1.095   0.935  1.00  0.00     0.058 C 
ATOM      8  C   UNL     1       3.695   1.034  -0.550  1.00  0.00     0.129 C 
ATOM      9  N   UNL     1       4.364  -0.241  -0.695  1.00  0.00    -0.337 N 
ATOM     10  C   UNL     1       3.800  -1.200   0.229  1.00  0.00     0.135 C 
BRANCH   7  11
ATOM     11  C   UNL     1       2.281   2.176   1.175  1.00  0.00    -0.000 A 
ATOM     12  C   UNL     1       1.031   2.277   0.534  1.00  0.00     0.122 A 
ATOM     13  C   UNL     1       0.158   3.343   0.813  1.00  0.00     0.047 A 
ATOM     14  C   UNL     1       0.519   4.341   1.717  1.00  0.00     0.004 A 
ATOM     15  C   UNL     1       2.632   3.232   2.048  1.00  0.00     0.008 A 
ATOM     16  C   UNL     1       1.766   4.294   2.323  1.00  0.00     0.001 A 
BRANCH  12  17
ATOM     17  O   UNL     1       0.695   1.505  -0.547  1.00  0.00    -0.496 OA
ATOM     18  C   UNL     1       0.066   0.276  -0.214  1.00  0.00     0.278 C 
ENDBRANCH  12  17
ENDBRANCH   7  11
BRANCH   9  19
ATOM     19  C   UNL     1       5.218  -0.650  -1.697  1.00  0.00     0.257 C 
ATOM     20  O   UNL     1       5.504  -1.838  -1.850  1.00  0.00    -0.269 OA
BRANCH  19  21
ATOM     21  C   UNL     1       5.733   0.347  -2.610  1.00  0.00     0.085 A 
ATOM     22  C   UNL     1       5.767   0.234  -4.014  1.00  0.00     0.150 A 
ATOM     23  C   UNL     1       6.360   1.554  -2.359  1.00  0.00     0.079 A 
ATOM     24  N   UNL     1       6.287   1.302  -4.620  1.00  0.00    -0.176 NA
ATOM     25  N   UNL     1       6.623   2.138  -3.603  1.00  0.00    -0.240 N 
ATOM     26  C   UNL     1       6.742   2.288  -1.193  1.00  0.00     0.029 A 
ATOM     27  C   UNL     1       7.164   3.419  -3.721  1.00  0.00     0.113 A 
ATOM     28  C   UNL     1       7.245   3.530  -1.320  1.00  0.00     0.004 A 
ATOM     29  C   UNL     1       7.465   4.131  -2.623  1.00  0.00     0.020 A 
ENDBRANCH  19  21
ENDBRANCH   9  19
ENDBRANCH   4   6
ENDBRANCH   3   4
ENDBRANCH   2   3
ENDBRANCH   1   2
BRANCH   1  30
ATOM     30  O   UNL     1       2.969  -0.330   5.684  1.00  0.00    -0.458 OA
BRANCH  30  31
ATOM     31  C   UNL     1       2.389   0.590   4.883  1.00  0.00     0.338 C 
ATOM     32  O   UNL     1       2.948   1.219   4.004  1.00  0.00    -0.246 OA
BRANCH  31  33
ATOM     33  C   UNL     1       1.055   0.969   5.323  1.00  0.00     0.060 A 
ATOM     34  C   UNL     1       0.267   1.645   4.384  1.00  0.00     0.016 A 
ATOM     35  C   UNL     1       0.860   1.092   6.698  1.00  0.00     0.016 A 
ATOM     36  C   UNL     1      -0.582   2.631   4.828  1.00  0.00     0.010 A 
ATOM     37  C   UNL     1       0.015   2.080   7.138  1.00  0.00     0.010 A 
ATOM     38  C   UNL     1      -0.630   2.890   6.197  1.00  0.00    -0.014 A 
BRANCH  38  39
ATOM     39  C   UNL     1      -1.498   3.956   6.660  1.00  0.00     0.031 A 
ATOM     40  C   UNL     1      -2.937   3.597   6.575  1.00  0.00     0.074 A 
ATOM     41  C   UNL     1      -0.991   5.034   7.289  1.00  0.00     0.049 A 
ATOM     42  N   UNL     1      -3.907   4.244   6.021  1.00  0.00    -0.248 NA
ATOM     43  C   UNL     1      -3.313   2.244   7.034  1.00  0.00     0.031 C 
ATOM     44  C   UNL     1       0.412   5.269   7.651  1.00  0.00     0.029 A 
ATOM     45  N   UNL     1      -1.639   6.062   7.898  1.00  0.00    -0.354 N 
ATOM     46  C   UNL     1      -5.046   3.476   6.255  1.00  0.00     0.074 A 
ATOM     47  C   UNL     1      -4.589   2.183   6.668  1.00  0.00     0.031 C 
ATOM     48  C   UNL     1       0.462   6.196   8.633  1.00  0.00     0.029 A 
ATOM     49  C   UNL     1      -0.884   6.686   8.887  1.00  0.00     0.049 A 
ATOM     50  H   UNL     1      -2.554   6.338   7.662  1.00  0.00     0.167 HD
ATOM     51  C   UNL     1      -6.280   4.038   6.346  1.00  0.00     0.034 A 
ATOM     52  C   UNL     1      -1.352   7.440   9.918  1.00  0.00     0.034 A 
ATOM     53  C   UNL     1      -6.308   5.328   5.702  1.00  0.00     0.049 A 
ATOM     54  C   UNL     1      -2.742   7.837   9.570  1.00  0.00     0.074 A 
ATOM     55  C   UNL     1      -6.056   5.756   4.412  1.00  0.00     0.029 A 
ATOM     56  N   UNL     1      -6.251   6.455   6.490  1.00  0.00    -0.354 N 
ATOM     57  N   UNL     1      -3.044   8.616   8.565  1.00  0.00    -0.248 NA
ATOM     58  C   UNL     1      -3.829   6.981  10.029  1.00  0.00     0.031 C 
ATOM     59  C   UNL     1      -5.381   7.000   4.564  1.00  0.00     0.029 A 
ATOM     60  C   UNL     1      -5.325   7.300   5.928  1.00  0.00     0.049 A 
ATOM     61  H   UNL     1      -6.777   6.625   7.305  1.00  0.00     0.167 HD
ATOM     62  C   UNL     1      -4.188   8.063   8.007  1.00  0.00     0.074 A 
ATOM     63  C   UNL     1      -4.677   7.115   9.005  1.00  0.00     0.031 C 
ATOM     64  C   UNL     1      -4.474   8.204   6.679  1.00  0.00     0.034 A 
BRANCH  51  65
ATOM     65  C   UNL     1      -7.345   3.581   7.319  1.00  0.00     0.023 A 
ATOM     66  C   UNL     1      -8.561   4.286   7.311  1.00  0.00     0.031 A 
ATOM     67  C   UNL     1      -7.152   2.710   8.420  1.00  0.00     0.131 A 
ATOM     68  C   UNL     1      -9.454   4.199   8.392  1.00  0.00     0.055 A 
ATOM     69  C   UNL     1      -8.079   2.570   9.455  1.00  0.00     0.041 A 
ATOM     70  F   UNL     1      -6.025   2.017   8.618  1.00  0.00    -0.206 F 
ATOM     71  C   UNL     1      -9.224   3.343   9.464  1.00  0.00     0.022 A 
BRANCH  68  72
ATOM     72  S   UNL     1     -10.829   5.373   8.459  1.00  0.00     0.124 S 
ATOM     73  O   UNL     1     -10.136   6.646   8.292  1.00  0.00    -0.237 OA
ATOM     74  O   UNL     1     -11.652   4.933   7.338  1.00  0.00    -0.237 OA
ATOM     75  O   UNL     1     -11.403   5.144   9.783  1.00  0.00    -0.744 OA
ENDBRANCH  68  72
ENDBRANCH  51  65
BRANCH  52  76
ATOM     76  C   UNL     1      -0.792   7.482  11.302  1.00  0.00     0.023 A 
ATOM     77  C   UNL     1      -1.012   8.554  12.191  1.00  0.00     0.031 A 
ATOM     78  C   UNL     1      -0.167   6.333  11.845  1.00  0.00     0.131 A 
ATOM     79  C   UNL     1      -0.593   8.458  13.542  1.00  0.00     0.055 A 
ATOM     80  C   UNL     1       0.260   6.251  13.172  1.00  0.00     0.041 A 
ATOM     81  F   UNL     1      -0.017   5.213  11.120  1.00  0.00    -0.206 F 
ATOM     82  C   UNL     1       0.045   7.314  14.030  1.00  0.00     0.022 A 
BRANCH  79  83
ATOM     83  S   UNL     1      -0.941   9.807  14.717  1.00  0.00     0.124 S 
ATOM     84  O   UNL     1      -0.150  10.905  14.174  1.00  0.00    -0.237 OA
ATOM     85  O   UNL     1      -2.390   9.938  14.618  1.00  0.00    -0.237 OA
ATOM     86  O   UNL     1      -0.462   9.280  15.996  1.00  0.00    -0.744 OA
ENDBRANCH  79  83
ENDBRANCH  52  76
BRANCH  64  87
ATOM     87  C   UNL     1      -3.698   9.215   5.863  1.00  0.00     0.023 A 
ATOM     88  C   UNL     1      -2.303   9.170   5.640  1.00  0.00     0.031 A 
ATOM     89  C   UNL     1      -4.448  10.155   5.133  1.00  0.00     0.131 A 
ATOM     90  C   UNL     1      -1.714  10.045   4.705  1.00  0.00     0.055 A 
ATOM     91  C   UNL     1      -3.865  11.004   4.197  1.00  0.00     0.041 A 
ATOM     92  F   UNL     1      -5.782  10.219   5.280  1.00  0.00    -0.206 F 
ATOM     93  C   UNL     1      -2.493  10.953   3.979  1.00  0.00     0.022 A 
BRANCH  90  94
ATOM     94  S   UNL     1       0.083  10.005   4.399  1.00  0.00     0.124 S 
ATOM     95  O   UNL     1       0.656  10.122   5.734  1.00  0.00    -0.237 OA
ATOM     96  O   UNL     1       0.265   8.717   3.733  1.00  0.00    -0.237 OA
ATOM     97  O   UNL     1       0.308  11.168   3.537  1.00  0.00    -0.744 OA
ENDBRANCH  90  94
ENDBRANCH  64  87
ENDBRANCH  38  39
ENDBRANCH  31  33
ENDBRANCH  30  31
ENDBRANCH   1  30
TORSDOF 18
