REMARK SMILES Cc1ccc(C(=O)N2C[C@H](C(=O)OCCOC(=O)c3ccc(-c4c5nc(c(-c6cc(S(=O)(=O)[O-])ccc6F)c6ccc([nH]6)c(-c6cc(S(=O)(=O)[O-])ccc6F)c6nc(c(-c7cc(S(=O)(=O)[O-])ccc7F)c7ccc4[nH]7)C=C6)C=C5)cc3)Oc3ccccc32)o1
REMARK SMILES IDX 15 1 14 2 13 3 11 4 12 5 10 6 8 7 9 8 88 9 83 10 87 11 82 12
REMARK SMILES IDX 84 13 86 14 85 15 6 16 7 17 5 18 1 19 2 20 3 21 89 22 4 23
REMARK SMILES IDX 16 24 17 25 18 26 19 27 20 28 81 29 21 30 80 31 22 32 23 33
REMARK SMILES IDX 24 34 74 35 25 36 79 37 73 38 75 39 26 40 78 41 72 42 71 43
REMARK SMILES IDX 27 45 59 46 39 47 58 48 40 49 43 50 57 51 76 52 41 53 42 54
REMARK SMILES IDX 56 56 77 57 44 58 28 59 29 60 37 61 30 62 36 63 38 64 35 65
REMARK SMILES IDX 31 66 32 67 33 68 34 69 60 70 61 71 69 72 62 73 68 74 70 75
REMARK SMILES IDX 67 76 63 77 64 78 65 79 66 80 45 81 46 82 54 83 47 84 53 85
REMARK SMILES IDX 55 86 52 87 48 88 49 89 50 90 51 91
REMARK H PARENT 75 44 43 55
REMARK Flexibility Score: inf
ROOT
ATOM      1  C   UNL     1      -6.020  -1.688   4.909  1.00  0.00     0.275 C 
ENDROOT
BRANCH   1   2
ATOM      2  C   UNL     1      -6.953  -1.657   3.691  1.00  0.00     0.274 C 
BRANCH   2   3
ATOM      3  O   UNL     1      -6.328  -1.080   2.525  1.00  0.00    -0.459 OA
BRANCH   3   4
ATOM      4  C   UNL     1      -6.604   0.236   2.308  1.00  0.00     0.349 C 
ATOM      5  O   UNL     1      -7.346   0.906   3.021  1.00  0.00    -0.248 OA
BRANCH   4   6
ATOM      6  C   UNL     1      -5.941   0.804   1.064  1.00  0.00     0.302 C 
ATOM      7  N   UNL     1      -3.984   0.977  -0.395  1.00  0.00    -0.298 N 
ATOM      8  C   UNL     1      -4.553   0.251   0.753  1.00  0.00     0.183 C 
ATOM      9  C   UNL     1      -4.931   1.407  -1.382  1.00  0.00     0.087 A 
ATOM     10  C   UNL     1      -6.304   1.163  -1.186  1.00  0.00     0.144 A 
ATOM     11  C   UNL     1      -4.535   2.025  -2.576  1.00  0.00     0.030 A 
ATOM     12  O   UNL     1      -6.814   0.577  -0.049  1.00  0.00    -0.475 OA
ATOM     13  C   UNL     1      -7.244   1.513  -2.157  1.00  0.00     0.049 A 
ATOM     14  C   UNL     1      -5.478   2.397  -3.538  1.00  0.00     0.002 A 
ATOM     15  C   UNL     1      -6.830   2.139  -3.330  1.00  0.00     0.004 A 
BRANCH   7  16
ATOM     16  C   UNL     1      -2.646   1.401  -0.418  1.00  0.00     0.294 C 
ATOM     17  O   UNL     1      -2.354   2.545  -0.773  1.00  0.00    -0.265 OA
BRANCH  16  18
ATOM     18  C   UNL     1      -1.621   0.420  -0.093  1.00  0.00     0.192 A 
ATOM     19  C   UNL     1       1.937   0.090   0.196  1.00  0.00     0.087 C 
ATOM     20  C   UNL     1       0.489  -0.199   0.151  1.00  0.00     0.101 A 
ATOM     21  C   UNL     1      -0.261  -1.348   0.250  1.00  0.00     0.046 A 
ATOM     22  O   UNL     1      -0.325   0.869  -0.050  1.00  0.00    -0.456 OA
ATOM     23  C   UNL     1      -1.615  -0.953   0.090  1.00  0.00     0.056 A 
ENDBRANCH  16  18
ENDBRANCH   7  16
ENDBRANCH   4   6
ENDBRANCH   3   4
ENDBRANCH   2   3
ENDBRANCH   1   2
BRANCH   1  24
ATOM     24  O   UNL     1      -5.703  -0.373   5.402  1.00  0.00    -0.458 OA
BRANCH  24  25
ATOM     25  C   UNL     1      -4.625   0.199   4.814  1.00  0.00     0.338 C 
ATOM     26  O   UNL     1      -3.928  -0.300   3.945  1.00  0.00    -0.246 OA
BRANCH  25  27
ATOM     27  C   UNL     1      -4.471   1.597   5.245  1.00  0.00     0.060 A 
ATOM     28  C   UNL     1      -4.468   2.584   4.254  1.00  0.00     0.016 A 
ATOM     29  C   UNL     1      -4.207   1.928   6.575  1.00  0.00     0.016 A 
ATOM     30  C   UNL     1      -4.172   3.903   4.580  1.00  0.00     0.010 A 
ATOM     31  C   UNL     1      -3.908   3.256   6.902  1.00  0.00     0.010 A 
ATOM     32  C   UNL     1      -3.863   4.245   5.902  1.00  0.00    -0.014 A 
BRANCH  32  33
ATOM     33  C   UNL     1      -3.381   5.616   6.197  1.00  0.00     0.031 A 
ATOM     34  C   UNL     1      -1.911   5.848   6.413  1.00  0.00     0.074 A 
ATOM     35  C   UNL     1      -4.243   6.649   6.214  1.00  0.00     0.049 A 
ATOM     36  N   UNL     1      -1.280   6.949   6.728  1.00  0.00    -0.248 NA
ATOM     37  C   UNL     1      -1.037   4.676   6.256  1.00  0.00     0.031 C 
ATOM     38  C   UNL     1      -5.681   6.550   5.959  1.00  0.00     0.029 A 
ATOM     39  N   UNL     1      -4.035   7.984   6.449  1.00  0.00    -0.354 N 
ATOM     40  C   UNL     1       0.064   6.603   6.822  1.00  0.00     0.074 A 
ATOM     41  C   UNL     1       0.149   5.181   6.559  1.00  0.00     0.031 C 
ATOM     42  C   UNL     1      -6.225   7.775   6.050  1.00  0.00     0.029 A 
ATOM     43  C   UNL     1      -5.185   8.736   6.412  1.00  0.00     0.049 A 
ATOM     44  H   UNL     1      -3.146   8.368   6.627  1.00  0.00     0.167 HD
ATOM     45  C   UNL     1       1.127   7.400   7.097  1.00  0.00     0.034 A 
ATOM     46  C   UNL     1      -5.380  10.045   6.665  1.00  0.00     0.034 A 
ATOM     47  C   UNL     1       1.021   8.817   7.353  1.00  0.00     0.049 A 
ATOM     48  C   UNL     1      -4.192  10.901   7.029  1.00  0.00     0.074 A 
ATOM     49  C   UNL     1       2.026   9.720   7.653  1.00  0.00     0.029 A 
ATOM     50  N   UNL     1      -0.167   9.539   7.342  1.00  0.00    -0.354 N 
ATOM     51  N   UNL     1      -2.930  10.556   7.147  1.00  0.00    -0.248 NA
ATOM     52  C   UNL     1      -4.455  12.322   7.287  1.00  0.00     0.031 C 
ATOM     53  C   UNL     1       1.442  10.972   7.878  1.00  0.00     0.029 A 
ATOM     54  C   UNL     1       0.079  10.869   7.652  1.00  0.00     0.049 A 
ATOM     55  H   UNL     1      -1.054   9.162   7.143  1.00  0.00     0.167 HD
ATOM     56  C   UNL     1      -2.246  11.725   7.468  1.00  0.00     0.074 A 
ATOM     57  C   UNL     1      -3.234  12.785   7.512  1.00  0.00     0.031 C 
ATOM     58  C   UNL     1      -0.921  11.909   7.702  1.00  0.00     0.034 A 
BRANCH  45  59
ATOM     59  C   UNL     1       2.478   6.734   7.201  1.00  0.00     0.023 A 
ATOM     60  C   UNL     1       3.097   6.122   6.096  1.00  0.00     0.031 A 
ATOM     61  C   UNL     1       3.138   6.671   8.442  1.00  0.00     0.131 A 
ATOM     62  C   UNL     1       4.296   5.414   6.269  1.00  0.00     0.055 A 
ATOM     63  C   UNL     1       4.369   6.031   8.591  1.00  0.00     0.041 A 
ATOM     64  F   UNL     1       2.585   7.215   9.538  1.00  0.00    -0.206 F 
ATOM     65  C   UNL     1       4.949   5.384   7.504  1.00  0.00     0.022 A 
BRANCH  62  66
ATOM     66  S   UNL     1       4.923   4.410   4.893  1.00  0.00     0.124 S 
ATOM     67  O   UNL     1       3.813   3.486   4.671  1.00  0.00    -0.237 OA
ATOM     68  O   UNL     1       5.149   5.405   3.852  1.00  0.00    -0.237 OA
ATOM     69  O   UNL     1       6.132   3.795   5.440  1.00  0.00    -0.744 OA
ENDBRANCH  62  66
ENDBRANCH  45  59
BRANCH  46  70
ATOM     70  C   UNL     1      -6.754  10.622   6.634  1.00  0.00     0.023 A 
ATOM     71  C   UNL     1      -7.114  11.600   5.694  1.00  0.00     0.031 A 
ATOM     72  C   UNL     1      -7.716  10.230   7.583  1.00  0.00     0.131 A 
ATOM     73  C   UNL     1      -8.390  12.183   5.748  1.00  0.00     0.055 A 
ATOM     74  C   UNL     1      -9.000  10.778   7.601  1.00  0.00     0.041 A 
ATOM     75  F   UNL     1      -7.422   9.299   8.504  1.00  0.00    -0.206 F 
ATOM     76  C   UNL     1      -9.339  11.770   6.687  1.00  0.00     0.022 A 
BRANCH  73  77
ATOM     77  S   UNL     1      -8.771  13.552   4.620  1.00  0.00     0.124 S 
ATOM     78  O   UNL     1      -7.737  14.520   4.966  1.00  0.00    -0.237 OA
ATOM     79  O   UNL     1      -8.642  12.913   3.314  1.00  0.00    -0.237 OA
ATOM     80  O   UNL     1     -10.132  13.932   4.993  1.00  0.00    -0.744 OA
ENDBRANCH  73  77
ENDBRANCH  46  70
BRANCH  58  81
ATOM     81  C   UNL     1      -0.469  13.322   7.977  1.00  0.00     0.023 A 
ATOM     82  C   UNL     1      -0.819  13.995   9.160  1.00  0.00     0.031 A 
ATOM     83  C   UNL     1       0.310  14.008   7.029  1.00  0.00     0.131 A 
ATOM     84  C   UNL     1      -0.437  15.333   9.342  1.00  0.00     0.055 A 
ATOM     85  C   UNL     1       0.732  15.322   7.238  1.00  0.00     0.041 A 
ATOM     86  F   UNL     1       0.671  13.412   5.881  1.00  0.00    -0.206 F 
ATOM     87  C   UNL     1       0.348  15.996   8.394  1.00  0.00     0.022 A 
BRANCH  84  88
ATOM     88  S   UNL     1      -1.049  16.227  10.797  1.00  0.00     0.124 S 
ATOM     89  O   UNL     1      -2.495  16.112  10.638  1.00  0.00    -0.237 OA
ATOM     90  O   UNL     1      -0.467  15.467  11.898  1.00  0.00    -0.237 OA
ATOM     91  O   UNL     1      -0.512  17.575  10.623  1.00  0.00    -0.744 OA
ENDBRANCH  84  88
ENDBRANCH  58  81
ENDBRANCH  32  33
ENDBRANCH  25  27
ENDBRANCH  24  25
ENDBRANCH   1  24
TORSDOF 16
