REMARK SMILES O=C(OCCOC(=O)c1cc(Br)cc2c1OCC2)c1ccc(-c2c3nc(c(-c4cc(S(=O)(=O)[O-])ccc4F)c4ccc([nH]4)c(-c4cc(S(=O)(=O)[O-])ccc4F)c4nc(c(-c5cc(S(=O)(=O)[O-])ccc5F)c5ccc2[nH]5)C=C4)C=C3)cc1
REMARK SMILES IDX 3 1 2 2 1 3 19 4 20 5 81 6 21 7 80 8 22 9 23 10 24 11 74 12
REMARK SMILES IDX 25 13 79 14 73 15 75 16 26 17 78 18 72 19 71 20 27 22 59 23
REMARK SMILES IDX 39 24 58 25 40 26 43 27 57 28 76 29 41 30 42 31 56 33 77 34
REMARK SMILES IDX 44 35 28 36 29 37 37 38 30 39 36 40 38 41 35 42 31 43 32 44
REMARK SMILES IDX 33 45 34 46 60 47 61 48 69 49 62 50 68 51 70 52 67 53 63 54
REMARK SMILES IDX 64 55 65 56 66 57 45 58 46 59 54 60 47 61 53 62 55 63 52 64
REMARK SMILES IDX 48 65 49 66 50 67 51 68 4 69 5 70 6 71 7 72 8 73 9 74 10 75
REMARK SMILES IDX 15 76 11 77 14 78 16 79 12 80 13 81 18 82 17 83
REMARK H PARENT 75 21 43 32
REMARK Flexibility Score: inf
ROOT
ATOM      1  O   UNL     1       2.960   0.153  -1.101  1.00  0.00    -0.458 OA
ENDROOT
BRANCH   1   2
ATOM      2  C   UNL     1       2.904  -1.079  -0.537  1.00  0.00     0.338 C 
ATOM      3  O   UNL     1       2.103  -1.901  -0.981  1.00  0.00    -0.246 OA
BRANCH   2   4
ATOM      4  C   UNL     1       3.662  -1.440   0.701  1.00  0.00     0.060 A 
ATOM      5  C   UNL     1       4.946  -1.009   1.028  1.00  0.00     0.016 A 
ATOM      6  C   UNL     1       3.019  -2.317   1.594  1.00  0.00     0.016 A 
ATOM      7  C   UNL     1       5.537  -1.369   2.239  1.00  0.00     0.010 A 
ATOM      8  C   UNL     1       3.592  -2.665   2.821  1.00  0.00     0.010 A 
ATOM      9  C   UNL     1       4.866  -2.194   3.144  1.00  0.00    -0.014 A 
BRANCH   9  10
ATOM     10  C   UNL     1       5.606  -2.681   4.330  1.00  0.00     0.031 A 
ATOM     11  C   UNL     1       6.155  -4.077   4.301  1.00  0.00     0.074 A 
ATOM     12  C   UNL     1       5.897  -1.842   5.341  1.00  0.00     0.049 A 
ATOM     13  N   UNL     1       6.936  -4.674   5.161  1.00  0.00    -0.248 NA
ATOM     14  C   UNL     1       5.803  -4.898   3.132  1.00  0.00     0.031 C 
ATOM     15  C   UNL     1       5.481  -0.441   5.415  1.00  0.00     0.029 A 
ATOM     16  N   UNL     1       6.623  -2.031   6.488  1.00  0.00    -0.354 N 
ATOM     17  C   UNL     1       7.219  -5.915   4.606  1.00  0.00     0.074 A 
ATOM     18  C   UNL     1       6.447  -6.024   3.389  1.00  0.00     0.031 C 
ATOM     19  C   UNL     1       5.939   0.095   6.558  1.00  0.00     0.029 A 
ATOM     20  C   UNL     1       6.661  -0.925   7.306  1.00  0.00     0.049 A 
ATOM     21  H   UNL     1       7.074  -2.878   6.706  1.00  0.00     0.167 HD
ATOM     22  C   UNL     1       8.085  -6.858   5.049  1.00  0.00     0.034 A 
ATOM     23  C   UNL     1       7.209  -0.762   8.527  1.00  0.00     0.034 A 
ATOM     24  C   UNL     1       8.806  -6.747   6.291  1.00  0.00     0.049 A 
ATOM     25  C   UNL     1       8.024  -1.897   9.089  1.00  0.00     0.074 A 
ATOM     26  C   UNL     1       9.657  -7.662   6.883  1.00  0.00     0.029 A 
ATOM     27  N   UNL     1       8.744  -5.650   7.143  1.00  0.00    -0.354 N 
ATOM     28  N   UNL     1       8.286  -3.068   8.551  1.00  0.00    -0.248 NA
ATOM     29  C   UNL     1       8.652  -1.677  10.395  1.00  0.00     0.031 C 
ATOM     30  C   UNL     1      10.058  -7.145   8.120  1.00  0.00     0.029 A 
ATOM     31  C   UNL     1       9.520  -5.875   8.268  1.00  0.00     0.049 A 
ATOM     32  H   UNL     1       8.224  -4.832   6.972  1.00  0.00     0.167 HD
ATOM     33  C   UNL     1       9.147  -3.707   9.437  1.00  0.00     0.074 A 
ATOM     34  C   UNL     1       9.368  -2.783  10.533  1.00  0.00     0.031 C 
ATOM     35  C   UNL     1       9.713  -4.939   9.351  1.00  0.00     0.034 A 
BRANCH  22  36
ATOM     36  C   UNL     1       8.247  -8.084   4.186  1.00  0.00     0.023 A 
ATOM     37  C   UNL     1       8.781  -7.995   2.887  1.00  0.00     0.031 A 
ATOM     38  C   UNL     1       7.792  -9.337   4.628  1.00  0.00     0.131 A 
ATOM     39  C   UNL     1       8.771  -9.118   2.047  1.00  0.00     0.055 A 
ATOM     40  C   UNL     1       7.858 -10.470   3.813  1.00  0.00     0.041 A 
ATOM     41  F   UNL     1       7.245  -9.475   5.845  1.00  0.00    -0.206 F 
ATOM     42  C   UNL     1       8.335 -10.361   2.510  1.00  0.00     0.022 A 
BRANCH  39  43
ATOM     43  S   UNL     1       9.191  -8.896   0.295  1.00  0.00     0.124 S 
ATOM     44  O   UNL     1       8.158  -7.957  -0.138  1.00  0.00    -0.237 OA
ATOM     45  O   UNL     1      10.548  -8.366   0.359  1.00  0.00    -0.237 OA
ATOM     46  O   UNL     1       9.071 -10.243  -0.259  1.00  0.00    -0.744 OA
ENDBRANCH  39  43
ENDBRANCH  22  36
BRANCH  23  47
ATOM     47  C   UNL     1       6.975   0.486   9.311  1.00  0.00     0.023 A 
ATOM     48  C   UNL     1       8.026   1.330   9.704  1.00  0.00     0.031 A 
ATOM     49  C   UNL     1       5.677   0.808   9.751  1.00  0.00     0.131 A 
ATOM     50  C   UNL     1       7.770   2.418  10.556  1.00  0.00     0.055 A 
ATOM     51  C   UNL     1       5.419   1.923  10.550  1.00  0.00     0.041 A 
ATOM     52  F   UNL     1       4.636   0.028   9.419  1.00  0.00    -0.206 F 
ATOM     53  C   UNL     1       6.472   2.727  10.972  1.00  0.00     0.022 A 
BRANCH  50  54
ATOM     54  S   UNL     1       9.175   3.363  11.211  1.00  0.00     0.124 S 
ATOM     55  O   UNL     1       9.987   2.311  11.812  1.00  0.00    -0.237 OA
ATOM     56  O   UNL     1       9.713   3.978  10.002  1.00  0.00    -0.237 OA
ATOM     57  O   UNL     1       8.553   4.288  12.155  1.00  0.00    -0.744 OA
ENDBRANCH  50  54
ENDBRANCH  23  47
BRANCH  35  58
ATOM     58  C   UNL     1      10.660  -5.322  10.459  1.00  0.00     0.023 A 
ATOM     59  C   UNL     1      10.216  -5.490  11.781  1.00  0.00     0.031 A 
ATOM     60  C   UNL     1      12.031  -5.486  10.193  1.00  0.00     0.131 A 
ATOM     61  C   UNL     1      11.145  -5.735  12.801  1.00  0.00     0.055 A 
ATOM     62  C   UNL     1      12.940  -5.806  11.201  1.00  0.00     0.041 A 
ATOM     63  F   UNL     1      12.509  -5.334   8.947  1.00  0.00    -0.206 F 
ATOM     64  C   UNL     1      12.501  -5.914  12.517  1.00  0.00     0.022 A 
BRANCH  61  65
ATOM     65  S   UNL     1      10.571  -5.694  14.520  1.00  0.00     0.124 S 
ATOM     66  O   UNL     1      10.013  -4.349  14.620  1.00  0.00    -0.237 OA
ATOM     67  O   UNL     1       9.605  -6.788  14.553  1.00  0.00    -0.237 OA
ATOM     68  O   UNL     1      11.790  -5.920  15.294  1.00  0.00    -0.744 OA
ENDBRANCH  61  65
ENDBRANCH  35  58
ENDBRANCH   9  10
ENDBRANCH   2   4
ENDBRANCH   1   2
BRANCH   1  69
ATOM     69  C   UNL     1       3.996   1.145  -1.002  1.00  0.00     0.275 C 
BRANCH  69  70
ATOM     70  C   UNL     1       3.830   2.145   0.145  1.00  0.00     0.275 C 
BRANCH  70  71
ATOM     71  O   UNL     1       3.375   1.553   1.369  1.00  0.00    -0.458 OA
BRANCH  71  72
ATOM     72  C   UNL     1       2.036   1.615   1.579  1.00  0.00     0.342 C 
ATOM     73  O   UNL     1       1.206   2.155   0.859  1.00  0.00    -0.246 OA
BRANCH  72  74
ATOM     74  C   UNL     1       1.712   0.922   2.834  1.00  0.00     0.103 A 
ATOM     75  C   UNL     1       2.276   1.342   4.045  1.00  0.00     0.035 A 
ATOM     76  C   UNL     1       0.798  -0.121   2.852  1.00  0.00     0.137 A 
ATOM     77  C   UNL     1       1.905   0.704   5.239  1.00  0.00     0.019 A 
ATOM     78  C   UNL     1       0.479  -0.777   4.031  1.00  0.00    -0.000 A 
ATOM     79  O   UNL     1       0.131  -0.617   1.763  1.00  0.00    -0.492 OA
ATOM     80  Br  UNL     1       2.525   1.382   6.892  1.00  0.00    -0.051 Br
ATOM     81  C   UNL     1       1.026  -0.382   5.240  1.00  0.00     0.023 A 
ATOM     82  C   UNL     1      -0.527  -1.829   3.770  1.00  0.00     0.081 C 
ATOM     83  C   UNL     1      -0.566  -1.788   2.243  1.00  0.00     0.234 C 
ENDBRANCH  72  74
ENDBRANCH  71  72
ENDBRANCH  70  71
ENDBRANCH  69  70
ENDBRANCH   1  69
TORSDOF 14
