REMARK SMILES CCCC[C@H](C(=O)OCCOC(=O)c1ccc(-c2c3nc(c(-c4cc(S(=O)(=O)[O-])ccc4F)c4ccc([nH]4)c(-c4cc(S(=O)(=O)[O-])ccc4F)c4nc(c(-c5cc(S(=O)(=O)[O-])ccc5F)c5ccc2[nH]5)C=C4)C=C3)cc1)N1C(=O)/C(=C/c2cccc(Br)c2)SC1=S
REMARK SMILES IDX 9 1 8 2 6 3 7 4 5 5 4 6 3 7 2 8 1 9 77 10 78 11 90 12 79 13
REMARK SMILES IDX 80 14 89 15 91 16 81 17 82 18 83 19 88 20 84 21 86 22 85 23
REMARK SMILES IDX 87 24 10 25 11 26 12 27 13 28 14 29 15 30 76 31 16 32 75 33
REMARK SMILES IDX 17 34 18 35 19 36 69 37 20 38 74 39 68 40 70 41 21 42 73 43
REMARK SMILES IDX 67 44 66 45 22 47 54 48 34 49 53 50 35 51 38 52 52 53 71 54
REMARK SMILES IDX 36 55 37 56 51 58 72 59 39 60 23 61 24 62 32 63 25 64 31 65
REMARK SMILES IDX 33 66 30 67 26 68 27 69 28 70 29 71 55 72 56 73 64 74 57 75
REMARK SMILES IDX 63 76 65 77 62 78 58 79 59 80 60 81 61 82 40 83 41 84 49 85
REMARK SMILES IDX 42 86 48 87 50 88 47 89 43 90 44 91 45 92 46 93
REMARK H PARENT 70 46 38 57
REMARK Flexibility Score: inf
ROOT
ATOM      1  C   UNL     1       2.417  -1.231   1.434  1.00  0.00     0.274 C 
ENDROOT
BRANCH   1   2
ATOM      2  O   UNL     1       0.990  -1.027   1.395  1.00  0.00    -0.461 OA
BRANCH   2   3
ATOM      3  C   UNL     1       0.229  -2.023   1.933  1.00  0.00     0.329 C 
ATOM      4  O   UNL     1       0.694  -2.982   2.533  1.00  0.00    -0.250 OA
BRANCH   3   5
ATOM      5  C   UNL     1      -1.270  -1.781   1.683  1.00  0.00     0.202 C 
BRANCH   5   6
ATOM      6  C   UNL     1      -1.952  -3.111   1.271  1.00  0.00     0.038 C 
BRANCH   6   7
ATOM      7  C   UNL     1      -1.844  -3.474  -0.218  1.00  0.00     0.002 C 
BRANCH   7   8
ATOM      8  C   UNL     1      -0.437  -3.630  -0.796  1.00  0.00    -0.003 C 
ATOM      9  C   UNL     1       0.330  -4.824  -0.250  1.00  0.00     0.004 C 
ENDBRANCH   7   8
ENDBRANCH   6   7
ENDBRANCH   5   6
BRANCH   5  10
ATOM     10  N   UNL     1      -1.875  -1.120   2.874  1.00  0.00    -0.278 N 
ATOM     11  C   UNL     1      -2.413  -1.853   3.922  1.00  0.00     0.266 C 
ATOM     12  C   UNL     1      -1.893   0.255   3.047  1.00  0.00     0.149 C 
ATOM     13  O   UNL     1      -2.461  -3.074   3.996  1.00  0.00    -0.268 OA
ATOM     14  C   UNL     1      -2.930  -0.962   5.001  1.00  0.00     0.081 C 
ATOM     15  S   UNL     1      -2.560   0.664   4.620  1.00  0.00    -0.054 SA
ATOM     16  S   UNL     1      -1.430   1.440   1.962  1.00  0.00    -0.052 S 
ATOM     17  C   UNL     1      -3.561  -1.467   6.074  1.00  0.00     0.029 C 
BRANCH  17  18
ATOM     18  C   UNL     1      -4.161  -0.795   7.246  1.00  0.00    -0.023 A 
ATOM     19  C   UNL     1      -4.202  -1.492   8.466  1.00  0.00     0.008 A 
ATOM     20  C   UNL     1      -4.788   0.455   7.180  1.00  0.00     0.023 A 
ATOM     21  C   UNL     1      -4.821  -0.939   9.592  1.00  0.00     0.002 A 
ATOM     22  C   UNL     1      -5.394   1.010   8.312  1.00  0.00     0.018 A 
ATOM     23  C   UNL     1      -5.412   0.320   9.518  1.00  0.00     0.016 A 
ATOM     24  Br  UNL     1      -6.227   2.703   8.181  1.00  0.00    -0.051 Br
ENDBRANCH  17  18
ENDBRANCH   5  10
ENDBRANCH   3   5
ENDBRANCH   2   3
ENDBRANCH   1   2
BRANCH   1  25
ATOM     25  C   UNL     1       3.086  -0.575   2.644  1.00  0.00     0.275 C 
BRANCH  25  26
ATOM     26  O   UNL     1       2.779  -1.272   3.865  1.00  0.00    -0.458 OA
BRANCH  26  27
ATOM     27  C   UNL     1       1.895  -0.644   4.674  1.00  0.00     0.338 C 
ATOM     28  O   UNL     1       1.366   0.437   4.484  1.00  0.00    -0.246 OA
BRANCH  27  29
ATOM     29  C   UNL     1       1.511  -1.514   5.796  1.00  0.00     0.060 A 
ATOM     30  C   UNL     1       0.406  -2.331   5.605  1.00  0.00     0.016 A 
ATOM     31  C   UNL     1       2.071  -1.391   7.065  1.00  0.00     0.016 A 
ATOM     32  C   UNL     1      -0.217  -2.944   6.681  1.00  0.00     0.010 A 
ATOM     33  C   UNL     1       1.491  -2.081   8.144  1.00  0.00     0.010 A 
ATOM     34  C   UNL     1       0.307  -2.825   7.971  1.00  0.00    -0.014 A 
BRANCH  34  35
ATOM     35  C   UNL     1      -0.466  -3.412   9.103  1.00  0.00     0.031 A 
ATOM     36  C   UNL     1      -1.023  -2.522  10.186  1.00  0.00     0.074 A 
ATOM     37  C   UNL     1      -0.781  -4.725   9.094  1.00  0.00     0.049 A 
ATOM     38  N   UNL     1      -1.713  -2.849  11.250  1.00  0.00    -0.248 NA
ATOM     39  C   UNL     1      -0.773  -1.079  10.057  1.00  0.00     0.031 C 
ATOM     40  C   UNL     1      -0.347  -5.689   8.079  1.00  0.00     0.029 A 
ATOM     41  N   UNL     1      -1.567  -5.471   9.938  1.00  0.00    -0.354 N 
ATOM     42  C   UNL     1      -1.953  -1.660  11.930  1.00  0.00     0.074 A 
ATOM     43  C   UNL     1      -1.304  -0.608  11.176  1.00  0.00     0.031 C 
ATOM     44  C   UNL     1      -0.911  -6.880   8.329  1.00  0.00     0.029 A 
ATOM     45  C   UNL     1      -1.681  -6.792   9.564  1.00  0.00     0.049 A 
ATOM     46  H   UNL     1      -2.008  -5.097  10.735  1.00  0.00     0.167 HD
ATOM     47  C   UNL     1      -2.680  -1.454  13.056  1.00  0.00     0.034 A 
ATOM     48  C   UNL     1      -2.307  -7.827  10.159  1.00  0.00     0.034 A 
ATOM     49  C   UNL     1      -3.389  -2.491  13.764  1.00  0.00     0.049 A 
ATOM     50  C   UNL     1      -3.049  -7.582  11.445  1.00  0.00     0.074 A 
ATOM     51  C   UNL     1      -4.191  -2.374  14.886  1.00  0.00     0.029 A 
ATOM     52  N   UNL     1      -3.397  -3.833  13.410  1.00  0.00    -0.354 N 
ATOM     53  N   UNL     1      -3.225  -6.454  12.095  1.00  0.00    -0.248 NA
ATOM     54  C   UNL     1      -3.671  -8.750  12.081  1.00  0.00     0.031 C 
ATOM     55  C   UNL     1      -4.653  -3.650  15.233  1.00  0.00     0.029 A 
ATOM     56  C   UNL     1      -4.178  -4.557  14.300  1.00  0.00     0.049 A 
ATOM     57  H   UNL     1      -2.919  -4.216  12.640  1.00  0.00     0.167 HD
ATOM     58  C   UNL     1      -3.984  -6.779  13.214  1.00  0.00     0.074 A 
ATOM     59  C   UNL     1      -4.258  -8.200  13.133  1.00  0.00     0.031 C 
ATOM     60  C   UNL     1      -4.415  -5.978  14.222  1.00  0.00     0.034 A 
BRANCH  47  61
ATOM     61  C   UNL     1      -2.748  -0.045  13.586  1.00  0.00     0.023 A 
ATOM     62  C   UNL     1      -3.448   0.958  12.897  1.00  0.00     0.031 A 
ATOM     63  C   UNL     1      -2.107   0.305  14.786  1.00  0.00     0.131 A 
ATOM     64  C   UNL     1      -3.452   2.274  13.380  1.00  0.00     0.055 A 
ATOM     65  C   UNL     1      -2.159   1.606  15.293  1.00  0.00     0.041 A 
ATOM     66  F   UNL     1      -1.413  -0.610  15.480  1.00  0.00    -0.206 F 
ATOM     67  C   UNL     1      -2.827   2.603  14.584  1.00  0.00     0.022 A 
BRANCH  64  68
ATOM     68  S   UNL     1      -4.219   3.561  12.361  1.00  0.00     0.124 S 
ATOM     69  O   UNL     1      -3.398   3.508  11.155  1.00  0.00    -0.237 OA
ATOM     70  O   UNL     1      -5.587   3.073  12.226  1.00  0.00    -0.237 OA
ATOM     71  O   UNL     1      -4.062   4.771  13.164  1.00  0.00    -0.744 OA
ENDBRANCH  64  68
ENDBRANCH  47  61
BRANCH  48  72
ATOM     72  C   UNL     1      -2.195  -9.204   9.593  1.00  0.00     0.023 A 
ATOM     73  C   UNL     1      -3.321  -9.910   9.142  1.00  0.00     0.031 A 
ATOM     74  C   UNL     1      -0.946  -9.851   9.539  1.00  0.00     0.131 A 
ATOM     75  C   UNL     1      -3.180 -11.233   8.690  1.00  0.00     0.055 A 
ATOM     76  C   UNL     1      -0.804 -11.145   9.037  1.00  0.00     0.041 A 
ATOM     77  F   UNL     1       0.163  -9.224   9.964  1.00  0.00    -0.206 F 
ATOM     78  C   UNL     1      -1.928 -11.848   8.620  1.00  0.00     0.022 A 
BRANCH  75  79
ATOM     79  S   UNL     1      -4.673 -12.176   8.268  1.00  0.00     0.124 S 
ATOM     80  O   UNL     1      -5.420 -12.127   9.519  1.00  0.00    -0.237 OA
ATOM     81  O   UNL     1      -5.220 -11.397   7.162  1.00  0.00    -0.237 OA
ATOM     82  O   UNL     1      -4.152 -13.492   7.902  1.00  0.00    -0.744 OA
ENDBRANCH  75  79
ENDBRANCH  48  72
BRANCH  60  83
ATOM     83  C   UNL     1      -5.240  -6.638  15.296  1.00  0.00     0.023 A 
ATOM     84  C   UNL     1      -4.673  -7.570  16.182  1.00  0.00     0.031 A 
ATOM     85  C   UNL     1      -6.618  -6.380  15.396  1.00  0.00     0.131 A 
ATOM     86  C   UNL     1      -5.491  -8.261  17.087  1.00  0.00     0.055 A 
ATOM     87  C   UNL     1      -7.418  -7.029  16.338  1.00  0.00     0.041 A 
ATOM     88  F   UNL     1      -7.210  -5.501  14.572  1.00  0.00    -0.206 F 
ATOM     89  C   UNL     1      -6.858  -7.987  17.179  1.00  0.00     0.022 A 
BRANCH  86  90
ATOM     90  S   UNL     1      -4.764  -9.603  18.067  1.00  0.00     0.124 S 
ATOM     91  O   UNL     1      -4.210 -10.471  17.031  1.00  0.00    -0.237 OA
ATOM     92  O   UNL     1      -3.791  -8.895  18.891  1.00  0.00    -0.237 OA
ATOM     93  O   UNL     1      -5.906 -10.156  18.793  1.00  0.00    -0.744 OA
ENDBRANCH  86  90
ENDBRANCH  60  83
ENDBRANCH  34  35
ENDBRANCH  27  29
ENDBRANCH  26  27
ENDBRANCH  25  26
ENDBRANCH   1  25
TORSDOF 19
