REMARK SMILES Cc1nsc(N[C@H](C)c2cccs2)c1C(=O)OCCOC(=O)c1ccc(-c2c3nc(c(-c4cc(S(=O)(=O)[O-])ccc4F)c4ccc([nH]4)c(-c4cc(S(=O)(=O)[O-])ccc4F)c4nc(c(-c5cc(S(=O)(=O)[O-])ccc5F)c5ccc2[nH]5)C=C4)C=C3)cc1
REMARK SMILES IDX 18 1 17 2 15 3 16 4 14 5 1 6 2 7 3 8 4 9 5 10 6 11 7 13 8 14
REMARK SMILES IDX 9 15 10 16 13 17 11 18 12 19 19 20 20 21 21 22 22 23 23 24
REMARK SMILES IDX 24 25 85 26 25 27 84 28 26 29 27 30 28 31 78 32 29 33 83 34
REMARK SMILES IDX 77 35 79 36 30 37 82 38 76 39 75 40 31 42 63 43 43 44 62 45
REMARK SMILES IDX 44 46 47 47 61 48 80 49 45 50 46 51 60 53 81 54 48 55 32 56
REMARK SMILES IDX 33 57 41 58 34 59 40 60 42 61 39 62 35 63 36 64 37 65 38 66
REMARK SMILES IDX 64 67 65 68 73 69 66 70 72 71 74 72 71 73 67 74 68 75 69 76
REMARK SMILES IDX 70 77 49 78 50 79 58 80 51 81 57 82 59 83 56 84 52 85 53 86
REMARK SMILES IDX 54 87 55 88
REMARK H PARENT 6 12 79 41 47 52
REMARK Flexibility Score: inf
ROOT
ATOM      1  C   UNL     1       1.160  10.682   4.999  1.00  0.00     0.275 C 
ENDROOT
BRANCH   1   2
ATOM      2  O   UNL     1       1.157   9.245   5.031  1.00  0.00    -0.458 OA
BRANCH   2   3
ATOM      3  C   UNL     1       0.651   8.589   3.947  1.00  0.00     0.343 C 
ATOM      4  O   UNL     1       0.029   9.155   3.048  1.00  0.00    -0.246 OA
BRANCH   3   5
ATOM      5  C   UNL     1       0.928   7.153   3.947  1.00  0.00     0.117 A 
ATOM      6  C   UNL     1       2.026   6.789   6.351  1.00  0.00     0.069 C 
ATOM      7  C   UNL     1       1.484   6.355   5.029  1.00  0.00     0.068 A 
ATOM      8  N   UNL     1       1.504   5.039   4.820  1.00  0.00    -0.195 NA
ATOM      9  S   UNL     1       0.973   4.726   3.303  1.00  0.00    -0.018 S 
ATOM     10  C   UNL     1       0.750   6.354   2.804  1.00  0.00     0.124 A 
BRANCH  10  11
ATOM     11  N   UNL     1       0.444   6.790   1.540  1.00  0.00    -0.368 N 
ATOM     12  H   UNL     1       0.247   7.751   1.463  1.00  0.00     0.162 HD
BRANCH  11  13
ATOM     13  C   UNL     1       0.368   6.027   0.278  1.00  0.00     0.117 C 
ATOM     14  C   UNL     1       1.524   5.015   0.139  1.00  0.00     0.037 C 
BRANCH  13  15
ATOM     15  C   UNL     1       0.307   6.918  -0.981  1.00  0.00     0.027 A 
ATOM     16  C   UNL     1       0.258   8.299  -1.103  1.00  0.00     0.017 A 
ATOM     17  S   UNL     1       0.237   6.193  -2.553  1.00  0.00    -0.147 S 
ATOM     18  C   UNL     1       0.322   8.743  -2.460  1.00  0.00     0.012 A 
ATOM     19  C   UNL     1       0.384   7.695  -3.345  1.00  0.00     0.065 A 
ENDBRANCH  13  15
ENDBRANCH  11  13
ENDBRANCH  10  11
ENDBRANCH   3   5
ENDBRANCH   2   3
ENDBRANCH   1   2
BRANCH   1  20
ATOM     20  C   UNL     1       2.416  11.212   4.325  1.00  0.00     0.275 C 
BRANCH  20  21
ATOM     21  O   UNL     1       2.355  10.991   2.920  1.00  0.00    -0.458 OA
BRANCH  21  22
ATOM     22  C   UNL     1       2.979   9.875   2.476  1.00  0.00     0.338 C 
ATOM     23  O   UNL     1       3.332   8.921   3.146  1.00  0.00    -0.246 OA
BRANCH  22  24
ATOM     24  C   UNL     1       3.323  10.077   1.065  1.00  0.00     0.060 A 
ATOM     25  C   UNL     1       3.985   9.042   0.400  1.00  0.00     0.016 A 
ATOM     26  C   UNL     1       3.224  11.366   0.518  1.00  0.00     0.016 A 
ATOM     27  C   UNL     1       4.709   9.352  -0.733  1.00  0.00     0.010 A 
ATOM     28  C   UNL     1       3.958  11.676  -0.598  1.00  0.00     0.010 A 
ATOM     29  C   UNL     1       4.754  10.684  -1.160  1.00  0.00    -0.014 A 
BRANCH  29  30
ATOM     30  C   UNL     1       5.606  11.031  -2.275  1.00  0.00     0.031 A 
ATOM     31  C   UNL     1       5.074  10.579  -3.581  1.00  0.00     0.074 A 
ATOM     32  C   UNL     1       6.678  11.833  -2.138  1.00  0.00     0.049 A 
ATOM     33  N   UNL     1       5.546   9.666  -4.360  1.00  0.00    -0.248 NA
ATOM     34  C   UNL     1       3.749  11.080  -3.981  1.00  0.00     0.031 C 
ATOM     35  C   UNL     1       7.112  12.606  -0.972  1.00  0.00     0.029 A 
ATOM     36  N   UNL     1       7.565  12.206  -3.092  1.00  0.00    -0.354 N 
ATOM     37  C   UNL     1       4.686   9.614  -5.452  1.00  0.00     0.074 A 
ATOM     38  C   UNL     1       3.509  10.342  -5.064  1.00  0.00     0.031 C 
ATOM     39  C   UNL     1       8.026  13.527  -1.364  1.00  0.00     0.029 A 
ATOM     40  C   UNL     1       8.341  13.310  -2.768  1.00  0.00     0.049 A 
ATOM     41  H   UNL     1       7.652  11.730  -3.949  1.00  0.00     0.167 HD
ATOM     42  C   UNL     1       5.102   9.155  -6.664  1.00  0.00     0.034 A 
ATOM     43  C   UNL     1       9.108  14.029  -3.632  1.00  0.00     0.034 A 
ATOM     44  C   UNL     1       6.340   8.420  -6.537  1.00  0.00     0.049 A 
ATOM     45  C   UNL     1       9.351  13.149  -4.810  1.00  0.00     0.074 A 
ATOM     46  C   UNL     1       6.710   7.269  -5.865  1.00  0.00     0.029 A 
ATOM     47  N   UNL     1       7.519   9.079  -6.810  1.00  0.00    -0.354 N 
ATOM     48  N   UNL     1      10.029  12.033  -4.739  1.00  0.00    -0.248 NA
ATOM     49  C   UNL     1       8.414  13.226  -5.925  1.00  0.00     0.031 C 
ATOM     50  C   UNL     1       7.996   7.562  -5.322  1.00  0.00     0.029 A 
ATOM     51  C   UNL     1       8.374   8.834  -5.761  1.00  0.00     0.049 A 
ATOM     52  H   UNL     1       7.713   9.624  -7.607  1.00  0.00     0.167 HD
ATOM     53  C   UNL     1       9.326  11.125  -5.520  1.00  0.00     0.074 A 
ATOM     54  C   UNL     1       8.383  11.939  -6.288  1.00  0.00     0.031 C 
ATOM     55  C   UNL     1       9.359   9.781  -5.268  1.00  0.00     0.034 A 
BRANCH  42  56
ATOM     56  C   UNL     1       4.580   9.633  -8.000  1.00  0.00     0.023 A 
ATOM     57  C   UNL     1       5.133   9.051  -9.157  1.00  0.00     0.031 A 
ATOM     58  C   UNL     1       3.786  10.784  -8.216  1.00  0.00     0.131 A 
ATOM     59  C   UNL     1       4.970   9.648 -10.419  1.00  0.00     0.055 A 
ATOM     60  C   UNL     1       3.571  11.336  -9.482  1.00  0.00     0.041 A 
ATOM     61  F   UNL     1       3.250  11.498  -7.221  1.00  0.00    -0.206 F 
ATOM     62  C   UNL     1       4.190  10.788 -10.590  1.00  0.00     0.022 A 
BRANCH  59  63
ATOM     63  S   UNL     1       5.943   9.012 -11.808  1.00  0.00     0.124 S 
ATOM     64  O   UNL     1       7.291   9.005 -11.250  1.00  0.00    -0.237 OA
ATOM     65  O   UNL     1       5.329   7.708 -12.030  1.00  0.00    -0.237 OA
ATOM     66  O   UNL     1       5.711   9.998 -12.861  1.00  0.00    -0.744 OA
ENDBRANCH  59  63
ENDBRANCH  42  56
BRANCH  43  67
ATOM     67  C   UNL     1       9.227  15.517  -3.661  1.00  0.00     0.023 A 
ATOM     68  C   UNL     1      10.305  16.201  -4.264  1.00  0.00     0.031 A 
ATOM     69  C   UNL     1       8.122  16.307  -3.265  1.00  0.00     0.131 A 
ATOM     70  C   UNL     1      10.252  17.608  -4.433  1.00  0.00     0.055 A 
ATOM     71  C   UNL     1       8.076  17.693  -3.433  1.00  0.00     0.041 A 
ATOM     72  F   UNL     1       7.008  15.745  -2.770  1.00  0.00    -0.206 F 
ATOM     73  C   UNL     1       9.141  18.350  -4.024  1.00  0.00     0.022 A 
BRANCH  70  74
ATOM     74  S   UNL     1      11.612  18.499  -5.259  1.00  0.00     0.124 S 
ATOM     75  O   UNL     1      12.712  18.329  -4.317  1.00  0.00    -0.237 OA
ATOM     76  O   UNL     1      11.728  17.789  -6.527  1.00  0.00    -0.237 OA
ATOM     77  O   UNL     1      11.107  19.869  -5.370  1.00  0.00    -0.744 OA
ENDBRANCH  70  74
ENDBRANCH  43  67
BRANCH  55  78
ATOM     78  C   UNL     1      10.352   9.256  -4.246  1.00  0.00     0.023 A 
ATOM     79  C   UNL     1      10.375   9.617  -2.878  1.00  0.00     0.031 A 
ATOM     80  C   UNL     1      11.208   8.220  -4.659  1.00  0.00     0.131 A 
ATOM     81  C   UNL     1      11.237   8.944  -1.985  1.00  0.00     0.055 A 
ATOM     82  C   UNL     1      12.041   7.543  -3.770  1.00  0.00     0.041 A 
ATOM     83  F   UNL     1      11.212   7.812  -5.940  1.00  0.00    -0.206 F 
ATOM     84  C   UNL     1      12.060   7.904  -2.428  1.00  0.00     0.022 A 
BRANCH  81  85
ATOM     85  S   UNL     1      11.308   9.409  -0.222  1.00  0.00     0.124 S 
ATOM     86  O   UNL     1      11.472  10.858  -0.259  1.00  0.00    -0.237 OA
ATOM     87  O   UNL     1      10.029   8.923   0.288  1.00  0.00    -0.237 OA
ATOM     88  O   UNL     1      12.476   8.679   0.277  1.00  0.00    -0.744 OA
ENDBRANCH  81  85
ENDBRANCH  55  78
ENDBRANCH  29  30
ENDBRANCH  22  24
ENDBRANCH  21  22
ENDBRANCH  20  21
ENDBRANCH   1  20
TORSDOF 17
