REMARK SMILES O=C(Cc1cccn1-c1ccccc1F)OCCOC(=O)c1ccc(-c2c3nc(c(-c4cc(S(=O)(=O)[O-])ccc4F)c4ccc([nH]4)c(-c4cc(S(=O)(=O)[O-])ccc4F)c4nc(c(-c5cc(S(=O)(=O)[O-])ccc5F)c5ccc2[nH]5)C=C4)C=C3)cc1
REMARK SMILES IDX 18 1 17 2 16 3 2 4 1 5 3 6 4 7 5 8 8 9 6 10 7 11 9 12 10 13
REMARK SMILES IDX 14 14 11 15 13 16 15 17 12 18 19 19 20 20 21 21 22 22 23 23
REMARK SMILES IDX 84 24 24 25 83 26 25 27 26 28 27 29 77 30 28 31 82 32 76 33
REMARK SMILES IDX 78 34 29 35 81 36 75 37 74 38 30 40 62 41 42 42 61 43 43 44
REMARK SMILES IDX 46 45 60 46 79 47 44 48 45 49 59 51 80 52 47 53 31 54 32 55
REMARK SMILES IDX 40 56 33 57 39 58 41 59 38 60 34 61 35 62 36 63 37 64 63 65
REMARK SMILES IDX 64 66 72 67 65 68 71 69 73 70 70 71 66 72 67 73 68 74 69 75
REMARK SMILES IDX 48 76 49 77 57 78 50 79 56 80 58 81 55 82 51 83 52 84 53 85
REMARK SMILES IDX 54 86
REMARK H PARENT 78 39 46 50
REMARK Flexibility Score: inf
ROOT
ATOM      1  C   UNL     1       4.684   2.045  -0.070  1.00  0.00     0.275 C 
ENDROOT
BRANCH   1   2
ATOM      2  C   UNL     1       4.357   1.086  -1.203  1.00  0.00     0.274 C 
BRANCH   2   3
ATOM      3  O   UNL     1       2.983   0.665  -1.276  1.00  0.00    -0.462 OA
BRANCH   3   4
ATOM      4  C   UNL     1       2.447  -0.477  -0.775  1.00  0.00     0.311 C 
ATOM      5  O   UNL     1       1.313  -0.801  -1.126  1.00  0.00    -0.252 OA
BRANCH   4   6
ATOM      6  C   UNL     1       3.215  -1.295   0.250  1.00  0.00     0.177 C 
BRANCH   6   7
ATOM      7  C   UNL     1       3.966  -2.469  -0.308  1.00  0.00     0.034 A 
ATOM      8  C   UNL     1       5.210  -2.456  -0.925  1.00  0.00     0.024 A 
ATOM      9  N   UNL     1       3.658  -3.801  -0.041  1.00  0.00    -0.318 N 
ATOM     10  C   UNL     1       5.637  -3.780  -1.111  1.00  0.00     0.020 A 
ATOM     11  C   UNL     1       4.674  -4.585  -0.558  1.00  0.00     0.091 A 
BRANCH   9  12
ATOM     12  C   UNL     1       2.655  -4.294   0.825  1.00  0.00     0.081 A 
ATOM     13  C   UNL     1       3.036  -5.096   1.909  1.00  0.00     0.030 A 
ATOM     14  C   UNL     1       1.318  -3.949   0.653  1.00  0.00     0.147 A 
ATOM     15  C   UNL     1       2.078  -5.489   2.846  1.00  0.00     0.002 A 
ATOM     16  C   UNL     1       0.361  -4.350   1.582  1.00  0.00     0.041 A 
ATOM     17  F   UNL     1       0.914  -3.282  -0.432  1.00  0.00    -0.205 F 
ATOM     18  C   UNL     1       0.744  -5.109   2.688  1.00  0.00     0.003 A 
ENDBRANCH   9  12
ENDBRANCH   6   7
ENDBRANCH   4   6
ENDBRANCH   3   4
ENDBRANCH   2   3
ENDBRANCH   1   2
BRANCH   1  19
ATOM     19  O   UNL     1       4.463   1.449   1.198  1.00  0.00    -0.458 OA
BRANCH  19  20
ATOM     20  C   UNL     1       3.187   1.554   1.642  1.00  0.00     0.338 C 
ATOM     21  O   UNL     1       2.219   1.929   1.020  1.00  0.00    -0.246 OA
BRANCH  20  22
ATOM     22  C   UNL     1       3.174   1.273   3.077  1.00  0.00     0.060 A 
ATOM     23  C   UNL     1       1.931   1.401   3.699  1.00  0.00     0.016 A 
ATOM     24  C   UNL     1       4.387   1.315   3.777  1.00  0.00     0.016 A 
ATOM     25  C   UNL     1       1.913   1.839   4.998  1.00  0.00     0.010 A 
ATOM     26  C   UNL     1       4.372   1.821   5.048  1.00  0.00     0.010 A 
ATOM     27  C   UNL     1       3.135   2.125   5.619  1.00  0.00    -0.014 A 
BRANCH  27  28
ATOM     28  C   UNL     1       3.087   2.586   6.998  1.00  0.00     0.031 A 
ATOM     29  C   UNL     1       3.030   1.332   7.912  1.00  0.00     0.074 A 
ATOM     30  C   UNL     1       3.030   3.954   7.133  1.00  0.00     0.049 A 
ATOM     31  N   UNL     1       2.475   1.168   9.067  1.00  0.00    -0.248 NA
ATOM     32  C   UNL     1       3.591   0.025   7.427  1.00  0.00     0.031 C 
ATOM     33  C   UNL     1       3.146   4.956   6.031  1.00  0.00     0.029 A 
ATOM     34  N   UNL     1       2.860   4.798   8.203  1.00  0.00    -0.354 N 
ATOM     35  C   UNL     1       2.848  -0.109   9.547  1.00  0.00     0.074 A 
ATOM     36  C   UNL     1       3.397  -0.819   8.441  1.00  0.00     0.031 C 
ATOM     37  C   UNL     1       2.920   6.218   6.477  1.00  0.00     0.029 A 
ATOM     38  C   UNL     1       2.666   6.184   7.903  1.00  0.00     0.049 A 
ATOM     39  H   UNL     1       2.871   4.467   9.130  1.00  0.00     0.167 HD
ATOM     40  C   UNL     1       2.821  -0.437  10.870  1.00  0.00     0.034 A 
ATOM     41  C   UNL     1       2.275   7.189   8.758  1.00  0.00     0.034 A 
ATOM     42  C   UNL     1       2.298   0.659  11.616  1.00  0.00     0.049 A 
ATOM     43  C   UNL     1       2.295   6.522  10.071  1.00  0.00     0.074 A 
ATOM     44  C   UNL     1       1.035   1.188  11.667  1.00  0.00     0.029 A 
ATOM     45  N   UNL     1       3.207   1.602  12.039  1.00  0.00    -0.354 N 
ATOM     46  N   UNL     1       3.368   6.137  10.695  1.00  0.00    -0.248 NA
ATOM     47  C   UNL     1       1.012   6.122  10.662  1.00  0.00     0.031 C 
ATOM     48  C   UNL     1       1.288   2.570  11.556  1.00  0.00     0.029 A 
ATOM     49  C   UNL     1       2.646   2.829  11.788  1.00  0.00     0.049 A 
ATOM     50  H   UNL     1       4.088   1.429  12.442  1.00  0.00     0.167 HD
ATOM     51  C   UNL     1       2.887   5.176  11.547  1.00  0.00     0.074 A 
ATOM     52  C   UNL     1       1.468   5.433  11.703  1.00  0.00     0.031 C 
ATOM     53  C   UNL     1       3.512   3.974  11.642  1.00  0.00     0.034 A 
BRANCH  40  54
ATOM     54  C   UNL     1       3.416  -1.568  11.651  1.00  0.00     0.023 A 
ATOM     55  C   UNL     1       2.901  -1.768  12.954  1.00  0.00     0.031 A 
ATOM     56  C   UNL     1       4.627  -2.203  11.345  1.00  0.00     0.131 A 
ATOM     57  C   UNL     1       3.631  -2.456  13.928  1.00  0.00     0.055 A 
ATOM     58  C   UNL     1       5.333  -2.938  12.309  1.00  0.00     0.041 A 
ATOM     59  F   UNL     1       5.209  -2.061  10.146  1.00  0.00    -0.206 F 
ATOM     60  C   UNL     1       4.855  -3.038  13.616  1.00  0.00     0.022 A 
BRANCH  57  61
ATOM     61  S   UNL     1       3.006  -2.445  15.632  1.00  0.00     0.124 S 
ATOM     62  O   UNL     1       2.974  -1.020  15.943  1.00  0.00    -0.237 OA
ATOM     63  O   UNL     1       1.707  -3.094  15.484  1.00  0.00    -0.237 OA
ATOM     64  O   UNL     1       4.005  -3.221  16.365  1.00  0.00    -0.744 OA
ENDBRANCH  57  61
ENDBRANCH  40  54
BRANCH  41  65
ATOM     65  C   UNL     1       1.741   8.625   8.766  1.00  0.00     0.023 A 
ATOM     66  C   UNL     1       1.540   9.476   7.664  1.00  0.00     0.031 A 
ATOM     67  C   UNL     1       1.252   9.153  10.008  1.00  0.00     0.131 A 
ATOM     68  C   UNL     1       0.800  10.692   7.820  1.00  0.00     0.055 A 
ATOM     69  C   UNL     1       0.442  10.283  10.134  1.00  0.00     0.041 A 
ATOM     70  F   UNL     1       1.526   8.573  11.185  1.00  0.00    -0.206 F 
ATOM     71  C   UNL     1       0.193  11.053   9.027  1.00  0.00     0.022 A 
BRANCH  68  72
ATOM     72  S   UNL     1       0.564  11.865   6.445  1.00  0.00     0.124 S 
ATOM     73  O   UNL     1       1.699  12.765   6.620  1.00  0.00    -0.237 OA
ATOM     74  O   UNL     1       0.602  11.004   5.268  1.00  0.00    -0.237 OA
ATOM     75  O   UNL     1      -0.744  12.457   6.732  1.00  0.00    -0.744 OA
ENDBRANCH  68  72
ENDBRANCH  41  65
BRANCH  53  76
ATOM     76  C   UNL     1       4.984   3.956  11.245  1.00  0.00     0.023 A 
ATOM     77  C   UNL     1       5.904   4.731  11.968  1.00  0.00     0.031 A 
ATOM     78  C   UNL     1       5.509   3.262  10.139  1.00  0.00     0.131 A 
ATOM     79  C   UNL     1       7.260   4.794  11.588  1.00  0.00     0.055 A 
ATOM     80  C   UNL     1       6.854   3.334   9.744  1.00  0.00     0.041 A 
ATOM     81  F   UNL     1       4.736   2.481   9.392  1.00  0.00    -0.206 F 
ATOM     82  C   UNL     1       7.742   4.104  10.475  1.00  0.00     0.022 A 
BRANCH  79  83
ATOM     83  S   UNL     1       8.416   5.733  12.619  1.00  0.00     0.124 S 
ATOM     84  O   UNL     1       8.051   7.115  12.329  1.00  0.00    -0.237 OA
ATOM     85  O   UNL     1       8.098   5.253  13.960  1.00  0.00    -0.237 OA
ATOM     86  O   UNL     1       9.729   5.323  12.120  1.00  0.00    -0.744 OA
ENDBRANCH  79  83
ENDBRANCH  53  76
ENDBRANCH  27  28
ENDBRANCH  20  22
ENDBRANCH  19  20
ENDBRANCH   1  19
TORSDOF 16
