REMARK SMILES C[C@]([NH3+])(C(=O)OCCOC(=O)c1ccc(-c2c3nc(c(-c4cc(S(=O)(=O)[O-])ccc4F)c4ccc([nH]4)c(-c4cc(S(=O)(=O)[O-])ccc4F)c4nc(c(-c5cc(S(=O)(=O)[O-])ccc5F)c5ccc2[nH]5)C=C4)C=C3)cc1)c1ccc(F)c(Br)c1
REMARK SMILES IDX 8 1 7 2 6 3 4 4 5 5 2 6 1 7 75 8 76 9 82 10 77 11 80 12
REMARK SMILES IDX 78 13 81 14 79 15 3 16 9 20 10 21 11 22 12 23 13 24 74 25
REMARK SMILES IDX 14 26 73 27 15 28 16 29 17 30 67 31 18 32 72 33 66 34 68 35
REMARK SMILES IDX 19 36 71 37 65 38 64 39 20 41 52 42 32 43 51 44 33 45 36 46
REMARK SMILES IDX 50 47 69 48 34 49 35 50 49 52 70 53 37 54 21 55 22 56 30 57
REMARK SMILES IDX 23 58 29 59 31 60 28 61 24 62 25 63 26 64 27 65 53 66 54 67
REMARK SMILES IDX 62 68 55 69 61 70 63 71 60 72 56 73 57 74 58 75 59 76 38 77
REMARK SMILES IDX 39 78 47 79 40 80 46 81 48 82 45 83 41 84 42 85 43 86 44 87
REMARK H PARENT 3 17 3 18 3 19 68 40 36 51
REMARK Flexibility Score: inf
ROOT
ATOM      1  C   UNL     1      -3.647  -0.168  -0.328  1.00  0.00     0.275 C 
ENDROOT
BRANCH   1   2
ATOM      2  C   UNL     1      -2.973  -1.287   0.468  1.00  0.00     0.274 C 
BRANCH   2   3
ATOM      3  O   UNL     1      -1.552  -1.061   0.558  1.00  0.00    -0.457 OA
BRANCH   3   4
ATOM      4  C   UNL     1      -0.732  -1.947  -0.090  1.00  0.00     0.372 C 
ATOM      5  O   UNL     1      -1.133  -2.957  -0.656  1.00  0.00    -0.244 OA
BRANCH   4   6
ATOM      6  C   UNL     1       0.778  -1.534   0.047  1.00  0.00     0.215 C 
ATOM      7  C   UNL     1       1.397  -2.445   1.124  1.00  0.00     0.098 C 
BRANCH   6   8
ATOM      8  C   UNL     1       1.537  -1.693  -1.288  1.00  0.00     0.025 A 
ATOM      9  C   UNL     1       1.711  -2.968  -1.871  1.00  0.00     0.014 A 
ATOM     10  C   UNL     1       2.058  -0.585  -1.992  1.00  0.00     0.029 A 
ATOM     11  C   UNL     1       2.375  -3.127  -3.092  1.00  0.00     0.041 A 
ATOM     12  C   UNL     1       2.712  -0.746  -3.219  1.00  0.00     0.054 A 
ATOM     13  C   UNL     1       2.875  -2.015  -3.758  1.00  0.00     0.137 A 
ATOM     14  Br  UNL     1       3.326   0.780  -4.151  1.00  0.00    -0.048 Br
ATOM     15  F   UNL     1       3.486  -2.192  -4.938  1.00  0.00    -0.206 F 
ENDBRANCH   6   8
BRANCH   6  16
ATOM     16  N   UNL     1       0.875  -0.140   0.571  1.00  0.00    -0.340 N 
ATOM     17  H   UNL     1       0.477   0.507  -0.110  1.00  0.00     0.345 HD
ATOM     18  H   UNL     1       1.855   0.096   0.731  1.00  0.00     0.345 HD
ATOM     19  H   UNL     1       0.361  -0.070   1.448  1.00  0.00     0.345 HD
ENDBRANCH   6  16
ENDBRANCH   4   6
ENDBRANCH   3   4
ENDBRANCH   2   3
ENDBRANCH   1   2
BRANCH   1  20
ATOM     20  O   UNL     1      -3.338  -0.278  -1.728  1.00  0.00    -0.458 OA
BRANCH  20  21
ATOM     21  C   UNL     1      -2.271   0.445  -2.140  1.00  0.00     0.338 C 
ATOM     22  O   UNL     1      -1.581   1.192  -1.468  1.00  0.00    -0.246 OA
BRANCH  21  23
ATOM     23  C   UNL     1      -1.942   0.063  -3.520  1.00  0.00     0.060 A 
ATOM     24  C   UNL     1      -1.038  -0.979  -3.691  1.00  0.00     0.016 A 
ATOM     25  C   UNL     1      -2.410   0.779  -4.620  1.00  0.00     0.016 A 
ATOM     26  C   UNL     1      -0.521  -1.252  -4.952  1.00  0.00     0.010 A 
ATOM     27  C   UNL     1      -1.943   0.449  -5.902  1.00  0.00     0.010 A 
ATOM     28  C   UNL     1      -0.963  -0.547  -6.077  1.00  0.00    -0.014 A 
BRANCH  28  29
ATOM     29  C   UNL     1      -0.334  -0.817  -7.403  1.00  0.00     0.031 A 
ATOM     30  C   UNL     1       0.397   0.283  -8.128  1.00  0.00     0.074 A 
ATOM     31  C   UNL     1      -0.346  -2.060  -7.928  1.00  0.00     0.049 A 
ATOM     32  N   UNL     1       0.865   0.303  -9.351  1.00  0.00    -0.248 NA
ATOM     33  C   UNL     1       0.613   1.532  -7.384  1.00  0.00     0.031 C 
ATOM     34  C   UNL     1      -0.948  -3.240  -7.303  1.00  0.00     0.029 A 
ATOM     35  N   UNL     1       0.189  -2.546  -9.096  1.00  0.00    -0.354 N 
ATOM     36  C   UNL     1       1.373   1.584  -9.544  1.00  0.00     0.074 A 
ATOM     37  C   UNL     1       1.154   2.310  -8.310  1.00  0.00     0.031 C 
ATOM     38  C   UNL     1      -0.695  -4.318  -8.060  1.00  0.00     0.029 A 
ATOM     39  C   UNL     1      -0.001  -3.898  -9.272  1.00  0.00     0.049 A 
ATOM     40  H   UNL     1       0.664  -1.980  -9.747  1.00  0.00     0.167 HD
ATOM     41  C   UNL     1       1.957   2.105 -10.652  1.00  0.00     0.034 A 
ATOM     42  C   UNL     1       0.308  -4.704 -10.307  1.00  0.00     0.034 A 
ATOM     43  C   UNL     1       2.226   1.349 -11.852  1.00  0.00     0.049 A 
ATOM     44  C   UNL     1       0.940  -4.101 -11.533  1.00  0.00     0.074 A 
ATOM     45  C   UNL     1       2.797   1.781 -13.038  1.00  0.00     0.029 A 
ATOM     46  N   UNL     1       1.965  -0.005 -12.011  1.00  0.00    -0.354 N 
ATOM     47  N   UNL     1       1.288  -2.856 -11.754  1.00  0.00    -0.248 NA
ATOM     48  C   UNL     1       1.190  -5.008 -12.661  1.00  0.00     0.031 C 
ATOM     49  C   UNL     1       2.841   0.699 -13.927  1.00  0.00     0.029 A 
ATOM     50  C   UNL     1       2.349  -0.421 -13.278  1.00  0.00     0.049 A 
ATOM     51  H   UNL     1       1.565  -0.587 -11.325  1.00  0.00     0.167 HD
ATOM     52  C   UNL     1       1.788  -2.828 -13.051  1.00  0.00     0.074 A 
ATOM     53  C   UNL     1       1.726  -4.187 -13.551  1.00  0.00     0.031 C 
ATOM     54  C   UNL     1       2.249  -1.773 -13.769  1.00  0.00     0.034 A 
BRANCH  41  55
ATOM     55  C   UNL     1       2.267   3.582 -10.639  1.00  0.00     0.023 A 
ATOM     56  C   UNL     1       3.249   4.140  -9.804  1.00  0.00     0.031 A 
ATOM     57  C   UNL     1       1.526   4.453 -11.460  1.00  0.00     0.131 A 
ATOM     58  C   UNL     1       3.418   5.534  -9.761  1.00  0.00     0.055 A 
ATOM     59  C   UNL     1       1.748   5.831 -11.464  1.00  0.00     0.041 A 
ATOM     60  F   UNL     1       0.559   3.978 -12.262  1.00  0.00    -0.206 F 
ATOM     61  C   UNL     1       2.689   6.380 -10.601  1.00  0.00     0.022 A 
BRANCH  58  62
ATOM     62  S   UNL     1       4.511   6.242  -8.498  1.00  0.00     0.124 S 
ATOM     63  O   UNL     1       3.883   5.772  -7.266  1.00  0.00    -0.237 OA
ATOM     64  O   UNL     1       5.801   5.649  -8.827  1.00  0.00    -0.237 OA
ATOM     65  O   UNL     1       4.412   7.683  -8.727  1.00  0.00    -0.744 OA
ENDBRANCH  58  62
ENDBRANCH  41  55
BRANCH  42  66
ATOM     66  C   UNL     1      -0.054  -6.149 -10.271  1.00  0.00     0.023 A 
ATOM     67  C   UNL     1       0.933  -7.147 -10.262  1.00  0.00     0.031 A 
ATOM     68  C   UNL     1      -1.402  -6.551 -10.275  1.00  0.00     0.131 A 
ATOM     69  C   UNL     1       0.557  -8.499 -10.284  1.00  0.00     0.055 A 
ATOM     70  C   UNL     1      -1.770  -7.896 -10.249  1.00  0.00     0.041 A 
ATOM     71  F   UNL     1      -2.384  -5.636 -10.286  1.00  0.00    -0.206 F 
ATOM     72  C   UNL     1      -0.787  -8.880 -10.262  1.00  0.00     0.022 A 
BRANCH  69  73
ATOM     73  S   UNL     1       1.852  -9.765 -10.400  1.00  0.00     0.124 S 
ATOM     74  O   UNL     1       2.495  -9.419 -11.663  1.00  0.00    -0.237 OA
ATOM     75  O   UNL     1       2.632  -9.514  -9.193  1.00  0.00    -0.237 OA
ATOM     76  O   UNL     1       1.103 -11.019 -10.404  1.00  0.00    -0.744 OA
ENDBRANCH  69  73
ENDBRANCH  42  66
BRANCH  54  77
ATOM     77  C   UNL     1       2.724  -2.067 -15.167  1.00  0.00     0.023 A 
ATOM     78  C   UNL     1       1.819  -2.379 -16.196  1.00  0.00     0.031 A 
ATOM     79  C   UNL     1       4.097  -2.060 -15.465  1.00  0.00     0.131 A 
ATOM     80  C   UNL     1       2.300  -2.715 -17.469  1.00  0.00     0.055 A 
ATOM     81  C   UNL     1       4.568  -2.355 -16.745  1.00  0.00     0.041 A 
ATOM     82  F   UNL     1       5.001  -1.771 -14.516  1.00  0.00    -0.206 F 
ATOM     83  C   UNL     1       3.669  -2.695 -17.753  1.00  0.00     0.022 A 
BRANCH  80  84
ATOM     84  S   UNL     1       1.117  -3.247 -18.738  1.00  0.00     0.124 S 
ATOM     85  O   UNL     1       0.522  -4.429 -18.123  1.00  0.00    -0.237 OA
ATOM     86  O   UNL     1       0.245  -2.083 -18.860  1.00  0.00    -0.237 OA
ATOM     87  O   UNL     1       1.960  -3.512 -19.903  1.00  0.00    -0.744 OA
ENDBRANCH  80  84
ENDBRANCH  54  77
ENDBRANCH  28  29
ENDBRANCH  21  23
ENDBRANCH  20  21
ENDBRANCH   1  20
TORSDOF 16
