REMARK SMILES COc1cccc(C(=O)Nc2ccc(NC(=O)[C@@H]3[C@@H](C(=O)OCCOC(=O)c4ccc(-c5c6nc(c(-c7cc(S(=O)(=O)[O-])ccc7F)c7ccc([nH]7)c(-c7cc(S(=O)(=O)[O-])ccc7F)c7nc(c(-c8cc(S(=O)(=O)[O-])ccc8F)c8ccc5[nH]8)C=C7)C=C6)cc4)[C@@H]4C=C[C@H]3C4)cc2)c1
REMARK SMILES IDX 23 1 22 2 20 3 21 4 19 5 18 6 94 7 91 8 93 9 95 10 92 11
REMARK SMILES IDX 16 12 15 13 17 15 14 16 11 17 12 18 97 19 13 20 96 21 10 22
REMARK SMILES IDX 8 23 9 24 7 26 3 27 4 28 98 29 5 30 6 31 2 32 1 33 24 34
REMARK SMILES IDX 25 35 26 36 27 37 28 38 29 39 90 40 30 41 89 42 31 43 32 44
REMARK SMILES IDX 33 45 83 46 34 47 88 48 82 49 84 50 35 51 87 52 81 53 80 54
REMARK SMILES IDX 36 56 68 57 48 58 67 59 49 60 52 61 66 62 85 63 50 64 51 65
REMARK SMILES IDX 65 67 86 68 53 69 37 70 38 71 46 72 39 73 45 74 47 75 44 76
REMARK SMILES IDX 40 77 41 78 42 79 43 80 69 81 70 82 78 83 71 84 77 85 79 86
REMARK SMILES IDX 76 87 72 88 73 89 74 90 75 91 54 92 55 93 63 94 56 95 62 96
REMARK SMILES IDX 64 97 61 98 57 99 58 100 59 101 60 102
REMARK H PARENT 15 14 10 25 84 55 52 66
REMARK Flexibility Score: inf
ROOT
ATOM      1  C   UNL     1       7.898  -2.810  -0.239  1.00  0.00     0.274 C 
ENDROOT
BRANCH   1   2
ATOM      2  O   UNL     1       6.608  -3.435  -0.031  1.00  0.00    -0.462 OA
BRANCH   2   3
ATOM      3  C   UNL     1       5.987  -3.849  -1.165  1.00  0.00     0.310 C 
ATOM      4  O   UNL     1       6.486  -3.785  -2.284  1.00  0.00    -0.252 OA
BRANCH   3   5
ATOM      5  C   UNL     1       4.577  -4.339  -0.963  1.00  0.00     0.119 C 
ATOM      6  C   UNL     1       3.629  -3.291  -0.327  1.00  0.00     0.100 C 
ATOM      7  C   UNL     1       2.715  -4.183   0.554  1.00  0.00     0.025 C 
ATOM      8  C   UNL     1       4.358  -5.578  -0.059  1.00  0.00     0.027 C 
ATOM      9  C   UNL     1       2.081  -5.327  -0.205  1.00  0.00    -0.027 C 
ATOM     10  C   UNL     1       3.825  -4.989   1.254  1.00  0.00     0.017 C 
ATOM     11  C   UNL     1       3.059  -6.186  -0.537  1.00  0.00    -0.027 C 
BRANCH   6  12
ATOM     12  C   UNL     1       2.978  -2.439  -1.392  1.00  0.00     0.228 C 
ATOM     13  N   UNL     1       3.270  -1.109  -1.554  1.00  0.00    -0.326 N 
ATOM     14  H   UNL     1       2.915  -0.737  -2.393  1.00  0.00     0.169 HD
ATOM     15  O   UNL     1       2.141  -2.911  -2.167  1.00  0.00    -0.274 OA
BRANCH  13  16
ATOM     16  C   UNL     1       3.966  -0.158  -0.782  1.00  0.00     0.041 A 
ATOM     17  C   UNL     1       4.641   1.722   1.173  1.00  0.00     0.041 A 
ATOM     18  C   UNL     1       5.307   0.505   1.129  1.00  0.00     0.028 A 
ATOM     19  C   UNL     1       3.857   2.102   0.088  1.00  0.00     0.028 A 
ATOM     20  C   UNL     1       4.961  -0.427   0.149  1.00  0.00     0.028 A 
ATOM     21  C   UNL     1       3.528   1.165  -0.896  1.00  0.00     0.028 A 
BRANCH  17  22
ATOM     22  N   UNL     1       4.733   2.458   2.360  1.00  0.00    -0.322 N 
ATOM     23  C   UNL     1       3.788   3.239   2.995  1.00  0.00     0.255 C 
ATOM     24  O   UNL     1       4.137   3.934   3.950  1.00  0.00    -0.269 OA
ATOM     25  H   UNL     1       5.607   2.413   2.811  1.00  0.00     0.170 HD
BRANCH  23  26
ATOM     26  C   UNL     1       2.345   3.216   2.618  1.00  0.00     0.043 A 
ATOM     27  C   UNL     1       0.347   2.129   1.763  1.00  0.00     0.119 A 
ATOM     28  C   UNL     1      -0.339   3.341   1.875  1.00  0.00     0.046 A 
ATOM     29  C   UNL     1       1.673   2.053   2.196  1.00  0.00     0.060 A 
ATOM     30  C   UNL     1       0.291   4.476   2.382  1.00  0.00     0.005 A 
ATOM     31  C   UNL     1       1.635   4.417   2.743  1.00  0.00     0.014 A 
BRANCH  27  32
ATOM     32  O   UNL     1      -0.392   1.117   1.219  1.00  0.00    -0.497 OA
ATOM     33  C   UNL     1       0.282  -0.063   0.798  1.00  0.00     0.278 C 
ENDBRANCH  27  32
ENDBRANCH  23  26
ENDBRANCH  17  22
ENDBRANCH  13  16
ENDBRANCH   6  12
ENDBRANCH   3   5
ENDBRANCH   2   3
ENDBRANCH   1   2
BRANCH   1  34
ATOM     34  C   UNL     1       9.021  -3.654   0.347  1.00  0.00     0.275 C 
BRANCH  34  35
ATOM     35  O   UNL     1       8.910  -4.988  -0.162  1.00  0.00    -0.458 OA
BRANCH  35  36
ATOM     36  C   UNL     1       8.621  -5.931   0.762  1.00  0.00     0.338 C 
ATOM     37  O   UNL     1       8.624  -5.792   1.978  1.00  0.00    -0.246 OA
BRANCH  36  38
ATOM     38  C   UNL     1       8.232  -7.185   0.096  1.00  0.00     0.060 A 
ATOM     39  C   UNL     1       7.369  -7.166  -1.001  1.00  0.00     0.016 A 
ATOM     40  C   UNL     1       8.613  -8.399   0.666  1.00  0.00     0.016 A 
ATOM     41  C   UNL     1       6.783  -8.350  -1.443  1.00  0.00     0.010 A 
ATOM     42  C   UNL     1       8.122  -9.593   0.134  1.00  0.00     0.010 A 
ATOM     43  C   UNL     1       7.166  -9.583  -0.897  1.00  0.00    -0.014 A 
BRANCH  43  44
ATOM     44  C   UNL     1       6.553 -10.860  -1.361  1.00  0.00     0.031 A 
ATOM     45  C   UNL     1       5.924 -11.795  -0.360  1.00  0.00     0.074 A 
ATOM     46  C   UNL     1       6.574 -11.201  -2.666  1.00  0.00     0.049 A 
ATOM     47  N   UNL     1       5.617 -13.061  -0.483  1.00  0.00    -0.248 NA
ATOM     48  C   UNL     1       5.630 -11.233   0.967  1.00  0.00     0.031 C 
ATOM     49  C   UNL     1       7.090 -10.371  -3.756  1.00  0.00     0.029 A 
ATOM     50  N   UNL     1       6.150 -12.344  -3.297  1.00  0.00    -0.354 N 
ATOM     51  C   UNL     1       5.168 -13.468   0.770  1.00  0.00     0.074 A 
ATOM     52  C   UNL     1       5.242 -12.309   1.636  1.00  0.00     0.031 C 
ATOM     53  C   UNL     1       6.914 -11.011  -4.921  1.00  0.00     0.029 A 
ATOM     54  C   UNL     1       6.385 -12.342  -4.652  1.00  0.00     0.049 A 
ATOM     55  H   UNL     1       5.718 -13.093  -2.825  1.00  0.00     0.167 HD
ATOM     56  C   UNL     1       4.748 -14.699   1.158  1.00  0.00     0.034 A 
ATOM     57  C   UNL     1       6.256 -13.319  -5.570  1.00  0.00     0.034 A 
ATOM     58  C   UNL     1       4.627 -15.822   0.258  1.00  0.00     0.049 A 
ATOM     59  C   UNL     1       5.814 -14.682  -5.118  1.00  0.00     0.074 A 
ATOM     60  C   UNL     1       4.209 -17.113   0.534  1.00  0.00     0.029 A 
ATOM     61  N   UNL     1       4.904 -15.781  -1.103  1.00  0.00    -0.354 N 
ATOM     62  N   UNL     1       5.511 -15.092  -3.908  1.00  0.00    -0.248 NA
ATOM     63  C   UNL     1       5.721 -15.720  -6.151  1.00  0.00     0.031 C 
ATOM     64  C   UNL     1       4.276 -17.861  -0.649  1.00  0.00     0.029 A 
ATOM     65  C   UNL     1       4.678 -17.023  -1.676  1.00  0.00     0.049 A 
ATOM     66  H   UNL     1       5.216 -14.984  -1.591  1.00  0.00     0.167 HD
ATOM     67  C   UNL     1       5.191 -16.439  -4.036  1.00  0.00     0.074 A 
ATOM     68  C   UNL     1       5.314 -16.763  -5.443  1.00  0.00     0.031 C 
ATOM     69  C   UNL     1       4.833 -17.330  -3.078  1.00  0.00     0.034 A 
BRANCH  56  70
ATOM     70  C   UNL     1       4.462 -14.907   2.627  1.00  0.00     0.023 A 
ATOM     71  C   UNL     1       3.413 -14.248   3.291  1.00  0.00     0.031 A 
ATOM     72  C   UNL     1       5.286 -15.759   3.386  1.00  0.00     0.131 A 
ATOM     73  C   UNL     1       3.262 -14.395   4.680  1.00  0.00     0.055 A 
ATOM     74  C   UNL     1       5.082 -15.961   4.752  1.00  0.00     0.041 A 
ATOM     75  F   UNL     1       6.318 -16.399   2.813  1.00  0.00    -0.206 F 
ATOM     76  C   UNL     1       4.074 -15.265   5.410  1.00  0.00     0.022 A 
BRANCH  73  77
ATOM     77  S   UNL     1       2.080 -13.323   5.543  1.00  0.00     0.124 S 
ATOM     78  O   UNL     1       2.577 -11.994   5.197  1.00  0.00    -0.237 OA
ATOM     79  O   UNL     1       0.808 -13.707   4.942  1.00  0.00    -0.237 OA
ATOM     80  O   UNL     1       2.243 -13.693   6.948  1.00  0.00    -0.744 OA
ENDBRANCH  73  77
ENDBRANCH  56  70
BRANCH  57  81
ATOM     81  C   UNL     1       6.635 -13.066  -6.988  1.00  0.00     0.023 A 
ATOM     82  C   UNL     1       5.670 -13.077  -8.006  1.00  0.00     0.031 A 
ATOM     83  C   UNL     1       7.973 -12.815  -7.345  1.00  0.00     0.131 A 
ATOM     84  C   UNL     1       6.060 -12.861  -9.337  1.00  0.00     0.055 A 
ATOM     85  C   UNL     1       8.348 -12.553  -8.662  1.00  0.00     0.041 A 
ATOM     86  F   UNL     1       8.933 -12.792  -6.407  1.00  0.00    -0.206 F 
ATOM     87  C   UNL     1       7.388 -12.583  -9.669  1.00  0.00     0.022 A 
BRANCH  84  88
ATOM     88  S   UNL     1       4.809 -13.004 -10.642  1.00  0.00     0.124 S 
ATOM     89  O   UNL     1       4.358 -14.380 -10.473  1.00  0.00    -0.237 OA
ATOM     90  O   UNL     1       3.857 -11.965 -10.265  1.00  0.00    -0.237 OA
ATOM     91  O   UNL     1       5.563 -12.739 -11.866  1.00  0.00    -0.744 OA
ENDBRANCH  84  88
ENDBRANCH  57  81
BRANCH  69  92
ATOM     92  C   UNL     1       4.523 -18.727  -3.546  1.00  0.00     0.023 A 
ATOM     93  C   UNL     1       5.534 -19.587  -4.007  1.00  0.00     0.031 A 
ATOM     94  C   UNL     1       3.194 -19.184  -3.573  1.00  0.00     0.131 A 
ATOM     95  C   UNL     1       5.194 -20.844  -4.529  1.00  0.00     0.055 A 
ATOM     96  C   UNL     1       2.868 -20.454  -4.048  1.00  0.00     0.041 A 
ATOM     97  F   UNL     1       2.193 -18.398  -3.146  1.00  0.00    -0.206 F 
ATOM     98  C   UNL     1       3.869 -21.287  -4.542  1.00  0.00     0.022 A 
BRANCH  95  99
ATOM     99  S   UNL     1       6.500 -21.860  -5.273  1.00  0.00     0.124 S 
ATOM    100  O   UNL     1       6.996 -20.988  -6.333  1.00  0.00    -0.237 OA
ATOM    101  O   UNL     1       7.405 -22.077  -4.150  1.00  0.00    -0.237 OA
ATOM    102  O   UNL     1       5.787 -23.051  -5.733  1.00  0.00    -0.744 OA
ENDBRANCH  95  99
ENDBRANCH  69  92
ENDBRANCH  43  44
ENDBRANCH  36  38
ENDBRANCH  35  36
ENDBRANCH  34  35
ENDBRANCH   1  34
TORSDOF 19
