REMARK SMILES COc1cc(/C=N/c2cccc(F)c2)ccc1OCc1cccc(C(=O)OCCOC(=O)c2ccc(-c3c4nc(c(-c5cc(S(=O)(=O)[O-])ccc5F)c5ccc([nH]5)c(-c5cc(S(=O)(=O)[O-])ccc5F)c5nc(c(-c6cc(S(=O)(=O)[O-])ccc6F)c6ccc3[nH]6)C=C5)C=C4)cc2)c1
REMARK SMILES IDX 28 1 27 2 25 3 26 4 24 5 20 6 21 7 96 8 22 9 23 10 19 11
REMARK SMILES IDX 18 12 17 13 3 14 4 15 5 16 16 17 15 18 2 19 1 20 6 21 7 22
REMARK SMILES IDX 8 23 9 24 14 25 10 26 12 27 11 28 13 29 29 30 30 31 31 32
REMARK SMILES IDX 32 33 33 34 34 35 95 36 35 37 94 38 36 39 37 40 38 41 88 42
REMARK SMILES IDX 39 43 93 44 87 45 89 46 40 47 92 48 86 49 85 50 41 52 73 53
REMARK SMILES IDX 53 54 72 55 54 56 57 57 71 58 90 59 55 60 56 61 70 63 91 64
REMARK SMILES IDX 58 65 42 66 43 67 51 68 44 69 50 70 52 71 49 72 45 73 46 74
REMARK SMILES IDX 47 75 48 76 74 77 75 78 83 79 76 80 82 81 84 82 81 83 77 84
REMARK SMILES IDX 78 85 79 86 80 87 59 88 60 89 68 90 61 91 67 92 69 93 66 94
REMARK SMILES IDX 62 95 63 96 64 97 65 98
REMARK H PARENT 89 51 57 62
REMARK Flexibility Score: inf
ROOT
ATOM      1  C   UNL     1       1.376  -6.103   1.479  1.00  0.00     0.275 C 
ENDROOT
BRANCH   1   2
ATOM      2  O   UNL     1       1.509  -4.673   1.359  1.00  0.00    -0.458 OA
BRANCH   2   3
ATOM      3  C   UNL     1       0.362  -3.973   1.169  1.00  0.00     0.338 C 
ATOM      4  O   UNL     1      -0.749  -4.433   0.965  1.00  0.00    -0.246 OA
BRANCH   3   5
ATOM      5  C   UNL     1       0.619  -2.540   1.444  1.00  0.00     0.060 A 
ATOM      6  C   UNL     1       2.069  -0.596   1.498  1.00  0.00    -0.010 A 
ATOM      7  C   UNL     1       1.178   0.001   2.402  1.00  0.00     0.007 A 
ATOM      8  C   UNL     1       1.822  -1.920   1.100  1.00  0.00     0.023 A 
ATOM      9  C   UNL     1      -0.061  -0.575   2.662  1.00  0.00     0.001 A 
ATOM     10  C   UNL     1      -0.368  -1.809   2.110  1.00  0.00     0.016 A 
BRANCH   6  11
ATOM     11  C   UNL     1       3.219   0.151   0.838  1.00  0.00     0.265 C 
BRANCH  11  12
ATOM     12  O   UNL     1       3.468   1.515   1.191  1.00  0.00    -0.485 OA
BRANCH  12  13
ATOM     13  C   UNL     1       2.469   2.449   1.123  1.00  0.00     0.161 A 
ATOM     14  C   UNL     1       1.320   2.442   0.312  1.00  0.00     0.161 A 
ATOM     15  C   UNL     1       0.324   3.412   0.516  1.00  0.00     0.060 A 
ATOM     16  C   UNL     1       0.474   4.368   1.530  1.00  0.00    -0.003 A 
ATOM     17  C   UNL     1       2.628   3.451   2.090  1.00  0.00     0.051 A 
ATOM     18  C   UNL     1       1.631   4.395   2.309  1.00  0.00     0.014 A 
BRANCH  14  19
ATOM     19  O   UNL     1       1.225   1.519  -0.696  1.00  0.00    -0.493 OA
ATOM     20  C   UNL     1      -0.044   0.868  -0.796  1.00  0.00     0.278 C 
ENDBRANCH  14  19
BRANCH  16  21
ATOM     21  C   UNL     1      -0.527   5.423   1.775  1.00  0.00     0.120 C 
ATOM     22  N   UNL     1      -1.570   5.592   1.024  1.00  0.00    -0.256 NA
BRANCH  22  23
ATOM     23  C   UNL     1      -2.326   6.747   1.295  1.00  0.00     0.066 A 
ATOM     24  C   UNL     1      -3.623   6.658   1.810  1.00  0.00     0.028 A 
ATOM     25  C   UNL     1      -1.802   8.007   0.987  1.00  0.00     0.067 A 
ATOM     26  C   UNL     1      -4.384   7.815   2.022  1.00  0.00     0.005 A 
ATOM     27  C   UNL     1      -2.561   9.149   1.203  1.00  0.00     0.125 A 
ATOM     28  C   UNL     1      -3.849   9.066   1.715  1.00  0.00     0.039 A 
ATOM     29  F   UNL     1      -2.043  10.349   0.903  1.00  0.00    -0.207 F 
ENDBRANCH  22  23
ENDBRANCH  16  21
ENDBRANCH  12  13
ENDBRANCH  11  12
ENDBRANCH   6  11
ENDBRANCH   3   5
ENDBRANCH   2   3
ENDBRANCH   1   2
BRANCH   1  30
ATOM     30  C   UNL     1       1.601  -6.533   2.929  1.00  0.00     0.275 C 
BRANCH  30  31
ATOM     31  O   UNL     1       0.514  -6.069   3.751  1.00  0.00    -0.458 OA
BRANCH  31  32
ATOM     32  C   UNL     1       0.845  -5.191   4.728  1.00  0.00     0.338 C 
ATOM     33  O   UNL     1       1.960  -4.799   5.024  1.00  0.00    -0.246 OA
BRANCH  32  34
ATOM     34  C   UNL     1      -0.380  -4.701   5.382  1.00  0.00     0.060 A 
ATOM     35  C   UNL     1      -1.214  -3.858   4.660  1.00  0.00     0.016 A 
ATOM     36  C   UNL     1      -0.637  -4.940   6.728  1.00  0.00     0.016 A 
ATOM     37  C   UNL     1      -2.225  -3.143   5.296  1.00  0.00     0.010 A 
ATOM     38  C   UNL     1      -1.742  -4.324   7.337  1.00  0.00     0.010 A 
ATOM     39  C   UNL     1      -2.525  -3.379   6.644  1.00  0.00    -0.014 A 
BRANCH  39  40
ATOM     40  C   UNL     1      -3.623  -2.617   7.321  1.00  0.00     0.031 A 
ATOM     41  C   UNL     1      -3.344  -1.832   8.581  1.00  0.00     0.074 A 
ATOM     42  C   UNL     1      -4.871  -2.603   6.805  1.00  0.00     0.049 A 
ATOM     43  N   UNL     1      -4.183  -1.246   9.400  1.00  0.00    -0.248 NA
ATOM     44  C   UNL     1      -1.936  -1.709   8.982  1.00  0.00     0.031 C 
ATOM     45  C   UNL     1      -5.287  -3.275   5.572  1.00  0.00     0.029 A 
ATOM     46  N   UNL     1      -6.023  -1.994   7.247  1.00  0.00    -0.354 N 
ATOM     47  C   UNL     1      -3.411  -0.736  10.441  1.00  0.00     0.074 A 
ATOM     48  C   UNL     1      -2.039  -1.104  10.157  1.00  0.00     0.031 C 
ATOM     49  C   UNL     1      -6.579  -3.004   5.332  1.00  0.00     0.029 A 
ATOM     50  C   UNL     1      -7.117  -2.232   6.445  1.00  0.00     0.049 A 
ATOM     51  H   UNL     1      -6.062  -1.440   8.060  1.00  0.00     0.167 HD
ATOM     52  C   UNL     1      -3.807  -0.027  11.530  1.00  0.00     0.034 A 
ATOM     53  C   UNL     1      -8.419  -1.915   6.601  1.00  0.00     0.034 A 
ATOM     54  C   UNL     1      -5.174   0.372  11.779  1.00  0.00     0.049 A 
ATOM     55  C   UNL     1      -8.845  -1.172   7.840  1.00  0.00     0.074 A 
ATOM     56  C   UNL     1      -5.677   1.114  12.835  1.00  0.00     0.029 A 
ATOM     57  N   UNL     1      -6.258   0.068  10.963  1.00  0.00    -0.354 N 
ATOM     58  N   UNL     1      -8.110  -0.742   8.839  1.00  0.00    -0.248 NA
ATOM     59  C   UNL     1     -10.277  -0.880   7.974  1.00  0.00     0.031 C 
ATOM     60  C   UNL     1      -7.067   1.197  12.695  1.00  0.00     0.029 A 
ATOM     61  C   UNL     1      -7.427   0.579  11.509  1.00  0.00     0.049 A 
ATOM     62  H   UNL     1      -6.203  -0.438  10.120  1.00  0.00     0.167 HD
ATOM     63  C   UNL     1      -8.993  -0.117   9.716  1.00  0.00     0.074 A 
ATOM     64  C   UNL     1     -10.307  -0.202   9.111  1.00  0.00     0.031 C 
ATOM     65  C   UNL     1      -8.739   0.470  10.913  1.00  0.00     0.034 A 
BRANCH  52  66
ATOM     66  C   UNL     1      -2.755   0.308  12.565  1.00  0.00     0.023 A 
ATOM     67  C   UNL     1      -1.653   1.131  12.278  1.00  0.00     0.031 A 
ATOM     68  C   UNL     1      -2.842  -0.242  13.858  1.00  0.00     0.131 A 
ATOM     69  C   UNL     1      -0.643   1.311  13.237  1.00  0.00     0.055 A 
ATOM     70  C   UNL     1      -1.878   0.013  14.837  1.00  0.00     0.041 A 
ATOM     71  F   UNL     1      -3.860  -1.051  14.191  1.00  0.00    -0.206 F 
ATOM     72  C   UNL     1      -0.761   0.779  14.523  1.00  0.00     0.022 A 
BRANCH  69  73
ATOM     73  S   UNL     1       0.902   2.116  12.729  1.00  0.00     0.124 S 
ATOM     74  O   UNL     1       1.329   1.262  11.623  1.00  0.00    -0.237 OA
ATOM     75  O   UNL     1       0.456   3.455  12.366  1.00  0.00    -0.237 OA
ATOM     76  O   UNL     1       1.739   2.039  13.924  1.00  0.00    -0.744 OA
ENDBRANCH  69  73
ENDBRANCH  52  66
BRANCH  53  77
ATOM     77  C   UNL     1      -9.428  -2.363   5.597  1.00  0.00     0.023 A 
ATOM     78  C   UNL     1     -10.175  -1.438   4.851  1.00  0.00     0.031 A 
ATOM     79  C   UNL     1      -9.683  -3.732   5.392  1.00  0.00     0.131 A 
ATOM     80  C   UNL     1     -11.161  -1.892   3.959  1.00  0.00     0.055 A 
ATOM     81  C   UNL     1     -10.622  -4.179   4.462  1.00  0.00     0.041 A 
ATOM     82  F   UNL     1      -9.002  -4.661   6.083  1.00  0.00    -0.206 F 
ATOM     83  C   UNL     1     -11.376  -3.256   3.747  1.00  0.00     0.022 A 
BRANCH  80  84
ATOM     84  S   UNL     1     -12.216  -0.669   3.133  1.00  0.00     0.124 S 
ATOM     85  O   UNL     1     -12.834   0.006   4.269  1.00  0.00    -0.237 OA
ATOM     86  O   UNL     1     -11.243   0.110   2.376  1.00  0.00    -0.237 OA
ATOM     87  O   UNL     1     -13.119  -1.489   2.327  1.00  0.00    -0.744 OA
ENDBRANCH  80  84
ENDBRANCH  53  77
BRANCH  65  88
ATOM     88  C   UNL     1      -9.914   1.100  11.624  1.00  0.00     0.023 A 
ATOM     89  C   UNL     1     -10.982   0.327  12.114  1.00  0.00     0.031 A 
ATOM     90  C   UNL     1      -9.983   2.495  11.780  1.00  0.00     0.131 A 
ATOM     91  C   UNL     1     -12.103   0.958  12.674  1.00  0.00     0.055 A 
ATOM     92  C   UNL     1     -11.072   3.113  12.398  1.00  0.00     0.041 A 
ATOM     93  F   UNL     1      -8.995   3.284  11.328  1.00  0.00    -0.206 F 
ATOM     94  C   UNL     1     -12.147   2.345  12.835  1.00  0.00     0.022 A 
BRANCH  91  95
ATOM     95  S   UNL     1     -13.555  -0.049  13.086  1.00  0.00     0.124 S 
ATOM     96  O   UNL     1     -13.868  -0.669  11.802  1.00  0.00    -0.237 OA
ATOM     97  O   UNL     1     -13.034  -0.942  14.116  1.00  0.00    -0.237 OA
ATOM     98  O   UNL     1     -14.532   0.933  13.554  1.00  0.00    -0.744 OA
ENDBRANCH  91  95
ENDBRANCH  65  88
ENDBRANCH  39  40
ENDBRANCH  32  34
ENDBRANCH  31  32
ENDBRANCH  30  31
ENDBRANCH   1  30
TORSDOF 20
