REMARK SMILES COc1ccc(-c2cc(Cl)cc3c2O[C@@H](C(F)(F)F)C(C(=O)OCCOC(=O)c2ccc(-c4c5nc(c(-c6cc(S(=O)(=O)[O-])ccc6F)c6ccc([nH]6)c(-c6cc(S(=O)(=O)[O-])ccc6F)c6nc(c(-c7cc(S(=O)(=O)[O-])ccc7F)c7ccc4[nH]7)C=C6)C=C5)cc2)=C3)cc1C
REMARK SMILES IDX 25 1 24 2 23 3 21 4 22 5 20 6 7 7 8 8 13 9 9 10 12 11 14 12
REMARK SMILES IDX 10 13 11 14 92 15 15 16 6 17 3 18 4 19 94 20 5 21 93 22
REMARK SMILES IDX 95 23 2 24 1 25 16 26 17 27 18 28 19 29 26 30 27 31 28 32
REMARK SMILES IDX 29 33 30 34 91 35 31 36 90 37 32 38 33 39 34 40 84 41 35 42
REMARK SMILES IDX 89 43 83 44 85 45 36 46 88 47 82 48 81 49 37 51 69 52 49 53
REMARK SMILES IDX 68 54 50 55 53 56 67 57 86 58 51 59 52 60 66 62 87 63 54 64
REMARK SMILES IDX 38 65 39 66 47 67 40 68 46 69 48 70 45 71 41 72 42 73 43 74
REMARK SMILES IDX 44 75 70 76 71 77 79 78 72 79 78 80 80 81 77 82 73 83 74 84
REMARK SMILES IDX 75 85 76 86 55 87 56 88 64 89 57 90 63 91 65 92 62 93 58 94
REMARK SMILES IDX 59 95 60 96 61 97
REMARK H PARENT 85 50 53 61
REMARK Flexibility Score: inf
ROOT
ATOM      1  C   UNL     1      -3.769  -7.357  -1.547  1.00  0.00     0.275 C 
ENDROOT
BRANCH   1   2
ATOM      2  C   UNL     1      -2.697  -8.322  -2.152  1.00  0.00     0.275 C 
BRANCH   2   3
ATOM      3  O   UNL     1      -1.886  -8.940  -1.117  1.00  0.00    -0.459 OA
BRANCH   3   4
ATOM      4  C   UNL     1      -0.671  -9.506  -1.379  1.00  0.00     0.338 C 
ATOM      5  O   UNL     1      -0.218  -9.741  -2.485  1.00  0.00    -0.246 OA
BRANCH   4   6
ATOM      6  C   UNL     1       0.080  -9.648  -0.073  1.00  0.00     0.087 C 
ATOM      7  C   UNL     1       1.527  -7.382   3.268  1.00  0.00     0.026 A 
ATOM      8  C   UNL     1       2.725  -7.890   3.814  1.00  0.00     0.033 A 
ATOM      9  C   UNL     1       0.981  -8.235   2.201  1.00  0.00     0.135 A 
ATOM     10  C   UNL     1       3.463  -8.914   3.200  1.00  0.00     0.042 A 
ATOM     11  C   UNL     1       1.839  -9.127   1.453  1.00  0.00     0.019 A 
ATOM     12  O   UNL     1      -0.415  -8.571   2.077  1.00  0.00    -0.475 OA
ATOM     13  Cl  UNL     1       4.964  -9.384   3.903  1.00  0.00    -0.084 Cl
ATOM     14  C   UNL     1       3.075  -9.469   1.981  1.00  0.00     0.032 A 
ATOM     15  C   UNL     1       1.414  -9.585   0.089  1.00  0.00     0.027 C 
ATOM     16  C   UNL     1      -0.657  -9.783   1.230  1.00  0.00     0.316 C 
BRANCH   7  17
ATOM     17  C   UNL     1       1.464  -5.796   3.482  1.00  0.00    -0.014 A 
ATOM     18  C   UNL     1       1.567  -2.829   3.466  1.00  0.00     0.121 A 
ATOM     19  C   UNL     1       0.425  -3.561   3.849  1.00  0.00     0.047 A 
ATOM     20  C   UNL     1       2.716  -3.550   3.165  1.00  0.00    -0.008 A 
ATOM     21  C   UNL     1       0.359  -5.009   3.837  1.00  0.00     0.013 A 
ATOM     22  C   UNL     1       2.659  -4.993   3.237  1.00  0.00     0.016 A 
ATOM     23  C   UNL     1       3.934  -2.844   2.617  1.00  0.00     0.048 C 
BRANCH  18  24
ATOM     24  O   UNL     1       1.535  -1.453   3.538  1.00  0.00    -0.496 OA
ATOM     25  C   UNL     1       1.658  -0.720   2.307  1.00  0.00     0.278 C 
ENDBRANCH  18  24
ENDBRANCH   7  17
BRANCH  16  26
ATOM     26  C   UNL     1      -2.006 -10.551   1.032  1.00  0.00     0.430 C 
ATOM     27  F   UNL     1      -1.866 -11.446  -0.008  1.00  0.00    -0.167 F 
ATOM     28  F   UNL     1      -2.287 -11.347   2.097  1.00  0.00    -0.167 F 
ATOM     29  F   UNL     1      -3.106  -9.832   0.765  1.00  0.00    -0.167 F 
ENDBRANCH  16  26
ENDBRANCH   4   6
ENDBRANCH   3   4
ENDBRANCH   2   3
ENDBRANCH   1   2
BRANCH   1  30
ATOM     30  O   UNL     1      -3.419  -6.388  -0.541  1.00  0.00    -0.458 OA
BRANCH  30  31
ATOM     31  C   UNL     1      -2.145  -6.387  -0.076  1.00  0.00     0.338 C 
ATOM     32  O   UNL     1      -1.836  -6.838   0.987  1.00  0.00    -0.246 OA
BRANCH  31  33
ATOM     33  C   UNL     1      -1.221  -5.994  -1.167  1.00  0.00     0.060 A 
ATOM     34  C   UNL     1       0.019  -6.636  -1.253  1.00  0.00     0.016 A 
ATOM     35  C   UNL     1      -1.657  -5.137  -2.166  1.00  0.00     0.016 A 
ATOM     36  C   UNL     1       0.831  -6.469  -2.349  1.00  0.00     0.010 A 
ATOM     37  C   UNL     1      -0.881  -4.981  -3.279  1.00  0.00     0.010 A 
ATOM     38  C   UNL     1       0.355  -5.625  -3.338  1.00  0.00    -0.014 A 
BRANCH  38  39
ATOM     39  C   UNL     1       1.178  -5.285  -4.474  1.00  0.00     0.031 A 
ATOM     40  C   UNL     1       1.357  -6.417  -5.393  1.00  0.00     0.074 A 
ATOM     41  C   UNL     1       1.657  -4.024  -4.415  1.00  0.00     0.049 A 
ATOM     42  N   UNL     1       2.455  -7.023  -5.701  1.00  0.00    -0.248 NA
ATOM     43  C   UNL     1       0.171  -7.167  -5.864  1.00  0.00     0.031 C 
ATOM     44  C   UNL     1       2.498  -3.198  -5.253  1.00  0.00     0.029 A 
ATOM     45  N   UNL     1       1.598  -3.254  -3.268  1.00  0.00    -0.354 N 
ATOM     46  C   UNL     1       2.108  -7.662  -6.878  1.00  0.00     0.074 A 
ATOM     47  C   UNL     1       0.730  -8.042  -6.703  1.00  0.00     0.031 C 
ATOM     48  C   UNL     1       3.173  -2.324  -4.466  1.00  0.00     0.029 A 
ATOM     49  C   UNL     1       2.793  -2.585  -3.086  1.00  0.00     0.049 A 
ATOM     50  H   UNL     1       0.819  -3.191  -2.669  1.00  0.00     0.167 HD
ATOM     51  C   UNL     1       2.712  -7.237  -8.031  1.00  0.00     0.034 A 
ATOM     52  C   UNL     1       3.615  -3.027  -2.087  1.00  0.00     0.034 A 
ATOM     53  C   UNL     1       3.710  -6.205  -7.733  1.00  0.00     0.049 A 
ATOM     54  C   UNL     1       4.811  -3.770  -2.680  1.00  0.00     0.074 A 
ATOM     55  C   UNL     1       3.722  -4.832  -7.925  1.00  0.00     0.029 A 
ATOM     56  N   UNL     1       4.703  -6.466  -6.798  1.00  0.00    -0.354 N 
ATOM     57  N   UNL     1       4.775  -4.462  -3.789  1.00  0.00    -0.248 NA
ATOM     58  C   UNL     1       6.138  -3.760  -2.075  1.00  0.00     0.031 C 
ATOM     59  C   UNL     1       4.738  -4.275  -7.111  1.00  0.00     0.029 A 
ATOM     60  C   UNL     1       5.273  -5.294  -6.352  1.00  0.00     0.049 A 
ATOM     61  H   UNL     1       4.965  -7.366  -6.495  1.00  0.00     0.167 HD
ATOM     62  C   UNL     1       6.057  -4.816  -4.150  1.00  0.00     0.074 A 
ATOM     63  C   UNL     1       6.859  -4.415  -3.003  1.00  0.00     0.031 C 
ATOM     64  C   UNL     1       6.352  -5.334  -5.388  1.00  0.00     0.034 A 
BRANCH  51  65
ATOM     65  C   UNL     1       2.055  -7.383  -9.386  1.00  0.00     0.023 A 
ATOM     66  C   UNL     1       2.213  -6.358 -10.336  1.00  0.00     0.031 A 
ATOM     67  C   UNL     1       1.262  -8.470  -9.795  1.00  0.00     0.131 A 
ATOM     68  C   UNL     1       1.546  -6.370 -11.567  1.00  0.00     0.055 A 
ATOM     69  C   UNL     1       0.586  -8.487 -11.026  1.00  0.00     0.041 A 
ATOM     70  F   UNL     1       1.131  -9.564  -9.028  1.00  0.00    -0.206 F 
ATOM     71  C   UNL     1       0.718  -7.427 -11.918  1.00  0.00     0.022 A 
BRANCH  68  72
ATOM     72  S   UNL     1       1.814  -4.973 -12.691  1.00  0.00     0.124 S 
ATOM     73  O   UNL     1       1.165  -3.879 -11.976  1.00  0.00    -0.237 OA
ATOM     74  O   UNL     1       3.269  -4.910 -12.773  1.00  0.00    -0.237 OA
ATOM     75  O   UNL     1       1.145  -5.397 -13.920  1.00  0.00    -0.744 OA
ENDBRANCH  68  72
ENDBRANCH  51  65
BRANCH  52  76
ATOM     76  C   UNL     1       2.854  -3.519  -0.884  1.00  0.00     0.023 A 
ATOM     77  C   UNL     1       1.636  -2.863  -0.481  1.00  0.00     0.031 A 
ATOM     78  C   UNL     1       3.138  -4.762  -0.335  1.00  0.00     0.131 A 
ATOM     79  C   UNL     1       0.668  -3.512   0.292  1.00  0.00     0.055 A 
ATOM     80  C   UNL     1       2.185  -5.402   0.428  1.00  0.00     0.041 A 
ATOM     81  F   UNL     1       4.283  -5.417  -0.569  1.00  0.00    -0.206 F 
ATOM     82  C   UNL     1       0.949  -4.794   0.718  1.00  0.00     0.022 A 
BRANCH  79  83
ATOM     83  S   UNL     1      -1.027  -2.812   0.514  1.00  0.00     0.124 S 
ATOM     84  O   UNL     1      -0.857  -1.635   1.353  1.00  0.00    -0.237 OA
ATOM     85  O   UNL     1      -1.408  -2.521  -0.865  1.00  0.00    -0.237 OA
ATOM     86  O   UNL     1      -1.781  -3.885   1.149  1.00  0.00    -0.744 OA
ENDBRANCH  79  83
ENDBRANCH  52  76
BRANCH  64  87
ATOM     87  C   UNL     1       7.689  -5.800  -5.934  1.00  0.00     0.023 A 
ATOM     88  C   UNL     1       8.846  -5.887  -5.167  1.00  0.00     0.031 A 
ATOM     89  C   UNL     1       7.838  -6.188  -7.299  1.00  0.00     0.131 A 
ATOM     90  C   UNL     1      10.073  -6.251  -5.745  1.00  0.00     0.055 A 
ATOM     91  C   UNL     1       9.037  -6.632  -7.851  1.00  0.00     0.041 A 
ATOM     92  F   UNL     1       6.830  -6.152  -8.182  1.00  0.00    -0.206 F 
ATOM     93  C   UNL     1      10.177  -6.647  -7.074  1.00  0.00     0.022 A 
BRANCH  90  94
ATOM     94  S   UNL     1      11.551  -6.097  -4.719  1.00  0.00     0.124 S 
ATOM     95  O   UNL     1      11.553  -4.669  -4.411  1.00  0.00    -0.237 OA
ATOM     96  O   UNL     1      11.245  -6.984  -3.602  1.00  0.00    -0.237 OA
ATOM     97  O   UNL     1      12.627  -6.547  -5.598  1.00  0.00    -0.744 OA
ENDBRANCH  90  94
ENDBRANCH  64  87
ENDBRANCH  38  39
ENDBRANCH  31  33
ENDBRANCH  30  31
ENDBRANCH   1  30
TORSDOF 17
