REMARK SMILES Cc1ccccc1NC(=S)NN1C(=O)CS[C@H]1c1ccccc1C(=O)OCCOC(=O)c1ccc(-c2c3nc(c(-c4cc(S(=O)(=O)[O-])ccc4F)c4ccc([nH]4)c(-c4cc(S(=O)(=O)[O-])ccc4F)c4nc(c(-c5cc(S(=O)(=O)[O-])ccc5F)c5ccc2[nH]5)C=C4)C=C3)cc1
REMARK SMILES IDX 27 1 26 2 24 3 25 4 23 5 18 6 19 7 20 8 22 9 21 10 17 11
REMARK SMILES IDX 12 12 13 13 14 14 15 15 16 16 11 17 9 19 10 20 8 21 7 23
REMARK SMILES IDX 1 24 2 25 3 26 4 27 6 28 5 29 28 30 29 31 30 32 31 33 32 34
REMARK SMILES IDX 33 35 94 36 34 37 93 38 35 39 36 40 37 41 87 42 38 43 92 44
REMARK SMILES IDX 86 45 88 46 39 47 91 48 85 49 84 50 40 52 72 53 52 54 71 55
REMARK SMILES IDX 53 56 56 57 70 58 89 59 54 60 55 61 69 63 90 64 57 65 41 66
REMARK SMILES IDX 42 67 50 68 43 69 49 70 51 71 48 72 44 73 45 74 46 75 47 76
REMARK SMILES IDX 73 77 74 78 82 79 75 80 81 81 83 82 80 83 76 84 77 85 78 86
REMARK SMILES IDX 79 87 58 88 59 89 67 90 60 91 66 92 68 93 65 94 61 95 62 96
REMARK SMILES IDX 63 97 64 98
REMARK H PARENT 11 18 8 22 88 51 56 62
REMARK Flexibility Score: inf
ROOT
ATOM      1  C   UNL     1       0.049   2.009  -0.129  1.00  0.00     0.275 C 
ENDROOT
BRANCH   1   2
ATOM      2  O   UNL     1      -0.382   3.479   0.926  1.00  0.00    -0.458 OA
BRANCH   2   3
ATOM      3  C   UNL     1      -1.220   5.021   0.883  1.00  0.00     0.338 C 
ATOM      4  O   UNL     1      -0.203   5.744   0.776  1.00  0.00    -0.246 OA
BRANCH   3   5
ATOM      5  C   UNL     1      -3.369   5.292   0.599  1.00  0.00     0.066 A 
ATOM      6  C   UNL     1      -4.270   4.234  -0.406  1.00  0.00     0.001 A 
ATOM      7  C   UNL     1      -5.665   4.281  -0.608  1.00  0.00     0.008 A 
ATOM      8  C   UNL     1      -6.377   5.352  -0.118  1.00  0.00     0.000 A 
ATOM      9  C   UNL     1      -4.346   6.353   0.924  1.00  0.00     0.016 A 
ATOM     10  C   UNL     1      -5.727   6.383   0.554  1.00  0.00     0.001 A 
BRANCH   6  11
ATOM     11  C   UNL     1      -3.483   2.982  -1.457  1.00  0.00     0.197 C 
ATOM     12  N   UNL     1      -1.894   2.419  -1.181  1.00  0.00    -0.236 N 
ATOM     13  C   UNL     1      -2.148   1.020  -0.352  1.00  0.00     0.252 C 
ATOM     14  O   UNL     1      -1.721   0.653   0.750  1.00  0.00    -0.272 OA
ATOM     15  C   UNL     1      -3.349   0.284  -0.797  1.00  0.00     0.174 C 
ATOM     16  S   UNL     1      -4.584   1.428  -1.328  1.00  0.00    -0.120 SA
BRANCH  12  17
ATOM     17  N   UNL     1      -0.260   3.566  -1.174  1.00  0.00    -0.270 N 
ATOM     18  H   UNL     1      -0.471   4.505  -0.966  1.00  0.00     0.191 HD
BRANCH  17  19
ATOM     19  C   UNL     1       1.412   3.333  -1.438  1.00  0.00     0.189 C 
ATOM     20  S   UNL     1       2.446   4.634  -1.184  1.00  0.00    -0.039 S 
BRANCH  19  21
ATOM     21  N   UNL     1       2.124   1.899  -1.451  1.00  0.00    -0.331 N 
ATOM     22  H   UNL     1       3.098   2.013  -1.538  1.00  0.00     0.169 HD
BRANCH  21  23
ATOM     23  C   UNL     1       1.780   0.389  -1.371  1.00  0.00     0.043 A 
ATOM     24  C   UNL     1       3.645  -0.354   0.240  1.00  0.00     0.046 C 
ATOM     25  C   UNL     1       2.273  -0.456  -0.352  1.00  0.00    -0.028 A 
ATOM     26  C   UNL     1       1.522  -1.608   0.055  1.00  0.00     0.005 A 
ATOM     27  C   UNL     1       0.326  -1.959  -0.553  1.00  0.00     0.000 A 
ATOM     28  C   UNL     1       0.834  -0.265  -2.182  1.00  0.00     0.026 A 
ATOM     29  C   UNL     1       0.012  -1.314  -1.724  1.00  0.00     0.002 A 
ENDBRANCH  21  23
ENDBRANCH  19  21
ENDBRANCH  17  19
ENDBRANCH  12  17
ENDBRANCH   6  11
ENDBRANCH   3   5
ENDBRANCH   2   3
ENDBRANCH   1   2
BRANCH   1  30
ATOM     30  C   UNL     1      -0.264   1.947  -2.183  1.00  0.00     0.275 C 
BRANCH  30  31
ATOM     31  O   UNL     1      -1.109   3.377  -3.002  1.00  0.00    -0.458 OA
BRANCH  31  32
ATOM     32  C   UNL     1      -1.644   4.698  -2.520  1.00  0.00     0.338 C 
ATOM     33  O   UNL     1      -1.898   5.584  -3.332  1.00  0.00    -0.246 OA
BRANCH  32  34
ATOM     34  C   UNL     1      -2.053   4.993  -0.921  1.00  0.00     0.060 A 
ATOM     35  C   UNL     1      -1.967   6.649  -0.196  1.00  0.00     0.016 A 
ATOM     36  C   UNL     1      -2.392   3.652   0.404  1.00  0.00     0.016 A 
ATOM     37  C   UNL     1      -2.048   6.771   1.639  1.00  0.00     0.010 A 
ATOM     38  C   UNL     1      -2.552   3.927   2.056  1.00  0.00     0.010 A 
ATOM     39  C   UNL     1      -2.302   5.378   2.725  1.00  0.00    -0.014 A 
BRANCH  39  40
ATOM     40  C   UNL     1      -1.404   4.750   3.850  1.00  0.00     0.031 A 
ATOM     41  C   UNL     1      -2.067   3.474   4.620  1.00  0.00     0.074 A 
ATOM     42  C   UNL     1      -0.065   5.034   3.760  1.00  0.00     0.049 A 
ATOM     43  N   UNL     1      -2.279   3.390   5.899  1.00  0.00    -0.248 NA
ATOM     44  C   UNL     1      -2.784   2.244   4.006  1.00  0.00     0.031 C 
ATOM     45  C   UNL     1       1.154   4.488   4.366  1.00  0.00     0.029 A 
ATOM     46  N   UNL     1       0.455   6.138   3.077  1.00  0.00    -0.354 N 
ATOM     47  C   UNL     1      -2.496   2.022   6.128  1.00  0.00     0.074 A 
ATOM     48  C   UNL     1      -3.260   1.568   5.039  1.00  0.00     0.031 C 
ATOM     49  C   UNL     1       2.111   5.452   4.385  1.00  0.00     0.029 A 
ATOM     50  C   UNL     1       1.594   6.635   3.707  1.00  0.00     0.049 A 
ATOM     51  H   UNL     1       0.066   6.516   2.256  1.00  0.00     0.167 HD
ATOM     52  C   UNL     1      -1.559   1.272   6.790  1.00  0.00     0.034 A 
ATOM     53  C   UNL     1       1.445   7.894   4.205  1.00  0.00     0.034 A 
ATOM     54  C   UNL     1      -0.472   2.148   7.230  1.00  0.00     0.049 A 
ATOM     55  C   UNL     1       0.896   7.733   5.631  1.00  0.00     0.074 A 
ATOM     56  C   UNL     1       0.890   2.233   7.027  1.00  0.00     0.029 A 
ATOM     57  N   UNL     1      -0.837   3.361   7.782  1.00  0.00    -0.354 N 
ATOM     58  N   UNL     1       0.478   6.592   6.131  1.00  0.00    -0.248 NA
ATOM     59  C   UNL     1       0.924   8.776   6.648  1.00  0.00     0.031 C 
ATOM     60  C   UNL     1       1.290   3.571   7.379  1.00  0.00     0.029 A 
ATOM     61  C   UNL     1       0.171   4.285   7.776  1.00  0.00     0.049 A 
ATOM     62  H   UNL     1      -1.735   3.542   8.144  1.00  0.00     0.167 HD
ATOM     63  C   UNL     1       0.238   6.694   7.468  1.00  0.00     0.074 A 
ATOM     64  C   UNL     1       0.530   8.094   7.741  1.00  0.00     0.031 C 
ATOM     65  C   UNL     1      -0.144   5.631   8.252  1.00  0.00     0.034 A 
BRANCH  52  66
ATOM     66  C   UNL     1      -1.496  -0.252   6.895  1.00  0.00     0.023 A 
ATOM     67  C   UNL     1      -0.595  -0.758   7.850  1.00  0.00     0.031 A 
ATOM     68  C   UNL     1      -2.230  -1.249   6.201  1.00  0.00     0.131 A 
ATOM     69  C   UNL     1      -0.463  -2.136   8.103  1.00  0.00     0.055 A 
ATOM     70  C   UNL     1      -2.114  -2.626   6.469  1.00  0.00     0.041 A 
ATOM     71  F   UNL     1      -3.088  -0.982   5.212  1.00  0.00    -0.206 F 
ATOM     72  C   UNL     1      -1.229  -3.079   7.429  1.00  0.00     0.022 A 
BRANCH  69  73
ATOM     73  S   UNL     1       0.726  -2.660   9.359  1.00  0.00     0.124 S 
ATOM     74  O   UNL     1       1.994  -2.256   8.760  1.00  0.00    -0.237 OA
ATOM     75  O   UNL     1       0.289  -1.905  10.528  1.00  0.00    -0.237 OA
ATOM     76  O   UNL     1       0.514  -4.105   9.444  1.00  0.00    -0.744 OA
ENDBRANCH  69  73
ENDBRANCH  52  66
BRANCH  53  77
ATOM     77  C   UNL     1       1.006   8.821   3.071  1.00  0.00     0.023 A 
ATOM     78  C   UNL     1       1.834   8.864   1.904  1.00  0.00     0.031 A 
ATOM     79  C   UNL     1      -0.294   9.316   2.913  1.00  0.00     0.131 A 
ATOM     80  C   UNL     1       1.313   9.204   0.636  1.00  0.00     0.055 A 
ATOM     81  C   UNL     1      -0.795   9.706   1.645  1.00  0.00     0.041 A 
ATOM     82  F   UNL     1      -1.174   9.260   3.924  1.00  0.00    -0.206 F 
ATOM     83  C   UNL     1      -0.017   9.583   0.496  1.00  0.00     0.022 A 
BRANCH  80  84
ATOM     84  S   UNL     1       2.300   9.013  -0.887  1.00  0.00     0.124 S 
ATOM     85  O   UNL     1       2.635  10.402  -1.195  1.00  0.00    -0.237 OA
ATOM     86  O   UNL     1       3.425   8.184  -0.471  1.00  0.00    -0.237 OA
ATOM     87  O   UNL     1       1.358   8.390  -1.815  1.00  0.00    -0.744 OA
ENDBRANCH  80  84
ENDBRANCH  53  77
BRANCH  65  88
ATOM     88  C   UNL     1      -0.849   5.774   9.596  1.00  0.00     0.023 A 
ATOM     89  C   UNL     1      -1.256   7.017  10.076  1.00  0.00     0.031 A 
ATOM     90  C   UNL     1      -1.209   4.674  10.425  1.00  0.00     0.131 A 
ATOM     91  C   UNL     1      -1.781   7.165  11.366  1.00  0.00     0.055 A 
ATOM     92  C   UNL     1      -1.877   4.809  11.642  1.00  0.00     0.041 A 
ATOM     93  F   UNL     1      -0.943   3.399  10.112  1.00  0.00    -0.206 F 
ATOM     94  C   UNL     1      -2.120   6.069  12.149  1.00  0.00     0.022 A 
BRANCH  91  95
ATOM     95  S   UNL     1      -1.849   8.839  12.032  1.00  0.00     0.124 S 
ATOM     96  O   UNL     1      -0.444   9.235  11.980  1.00  0.00    -0.237 OA
ATOM     97  O   UNL     1      -2.731   9.516  11.087  1.00  0.00    -0.237 OA
ATOM     98  O   UNL     1      -2.394   8.651  13.374  1.00  0.00    -0.744 OA
ENDBRANCH  91  95
ENDBRANCH  65  88
ENDBRANCH  39  40
ENDBRANCH  32  34
ENDBRANCH  31  32
ENDBRANCH  30  31
ENDBRANCH   1  30
TORSDOF 19
