REMARK SMILES Cc1ccccc1/[NH+]=C1\S[C@@H](CC(=O)Nc2ccc(C(=O)OCCOC(=O)c3ccc(-c4c5nc(c(-c6cc(S(=O)(=O)[O-])ccc6F)c6ccc([nH]6)c(-c6cc(S(=O)(=O)[O-])ccc6F)c6nc(c(-c7cc(S(=O)(=O)[O-])ccc7F)c7ccc4[nH]7)C=C6)C=C5)cc3)cc2)C(=O)N1C
REMARK SMILES IDX 23 1 22 2 20 3 21 4 19 5 16 6 17 7 92 8 18 9 91 10 15 11
REMARK SMILES IDX 13 12 14 13 12 15 11 16 8 17 9 18 10 20 95 21 93 22 96 23
REMARK SMILES IDX 94 24 7 25 1 26 2 27 3 28 4 29 6 30 5 31 24 32 25 33 26 34
REMARK SMILES IDX 27 35 28 36 29 37 90 38 30 39 89 40 31 41 32 42 33 43 83 44
REMARK SMILES IDX 34 45 88 46 82 47 84 48 35 49 87 50 81 51 80 52 36 54 68 55
REMARK SMILES IDX 48 56 67 57 49 58 52 59 66 60 85 61 50 62 51 63 65 65 86 66
REMARK SMILES IDX 53 67 37 68 38 69 46 70 39 71 45 72 47 73 44 74 40 75 41 76
REMARK SMILES IDX 42 77 43 78 69 79 70 80 78 81 71 82 77 83 79 84 76 85 72 86
REMARK SMILES IDX 73 87 74 88 75 89 54 90 55 91 63 92 56 93 62 94 64 95 61 96
REMARK SMILES IDX 57 97 58 98 59 99 60 100
REMARK H PARENT 15 14 8 19 84 53 52 64
REMARK Flexibility Score: inf
ROOT
ATOM      1  C   UNL     1       2.972   7.406  -2.178  1.00  0.00     0.275 C 
ENDROOT
BRANCH   1   2
ATOM      2  O   UNL     1       4.034   7.125  -1.257  1.00  0.00    -0.458 OA
BRANCH   2   3
ATOM      3  C   UNL     1       4.446   5.836  -1.274  1.00  0.00     0.338 C 
ATOM      4  O   UNL     1       3.920   4.901  -1.859  1.00  0.00    -0.246 OA
BRANCH   3   5
ATOM      5  C   UNL     1       5.575   5.624  -0.357  1.00  0.00     0.060 A 
ATOM      6  C   UNL     1       7.156   4.207   1.396  1.00  0.00     0.041 A 
ATOM      7  C   UNL     1       6.118   4.995   1.894  1.00  0.00     0.027 A 
ATOM      8  C   UNL     1       7.564   4.317   0.073  1.00  0.00     0.027 A 
ATOM      9  C   UNL     1       5.305   5.696   1.007  1.00  0.00     0.018 A 
ATOM     10  C   UNL     1       6.745   5.005  -0.815  1.00  0.00     0.018 A 
BRANCH   6  11
ATOM     11  N   UNL     1       7.516   3.067   2.124  1.00  0.00    -0.326 N 
ATOM     12  C   UNL     1       6.783   1.893   2.070  1.00  0.00     0.226 C 
ATOM     13  O   UNL     1       6.866   1.087   2.999  1.00  0.00    -0.275 OA
ATOM     14  H   UNL     1       8.318   3.100   2.695  1.00  0.00     0.169 HD
BRANCH  12  15
ATOM     15  C   UNL     1       5.923   1.591   0.845  1.00  0.00     0.128 C 
BRANCH  15  16
ATOM     16  C   UNL     1       4.431   1.536   1.114  1.00  0.00     0.183 C 
ATOM     17  N   UNL     1       0.913   1.780   0.253  1.00  0.00    -0.234 N 
ATOM     18  C   UNL     1       2.165   2.050   0.179  1.00  0.00     0.319 C 
ATOM     19  H   UNL     1       0.363   2.517   0.605  1.00  0.00     0.313 HD
ATOM     20  S   UNL     1       3.524   1.190  -0.447  1.00  0.00    -0.022 SA
ATOM     21  N   UNL     1       2.644   3.132   0.851  1.00  0.00    -0.193 N 
ATOM     22  C   UNL     1       3.738   2.802   1.619  1.00  0.00     0.324 C 
ATOM     23  C   UNL     1       1.847   4.322   1.077  1.00  0.00     0.301 C 
ATOM     24  O   UNL     1       3.997   3.321   2.701  1.00  0.00    -0.245 OA
BRANCH  17  25
ATOM     25  C   UNL     1       0.186   0.630  -0.076  1.00  0.00     0.128 A 
ATOM     26  C   UNL     1       1.891  -1.229   0.522  1.00  0.00     0.049 C 
ATOM     27  C   UNL     1       0.542  -0.724   0.106  1.00  0.00    -0.004 A 
ATOM     28  C   UNL     1      -0.432  -1.728  -0.084  1.00  0.00     0.008 A 
ATOM     29  C   UNL     1      -1.761  -1.415  -0.345  1.00  0.00     0.001 A 
ATOM     30  C   UNL     1      -1.166   0.911  -0.357  1.00  0.00     0.052 A 
ATOM     31  C   UNL     1      -2.133  -0.089  -0.470  1.00  0.00     0.004 A 
ENDBRANCH  17  25
ENDBRANCH  15  16
ENDBRANCH  12  15
ENDBRANCH   6  11
ENDBRANCH   3   5
ENDBRANCH   2   3
ENDBRANCH   1   2
BRANCH   1  32
ATOM     32  C   UNL     1       3.106   8.805  -2.798  1.00  0.00     0.275 C 
BRANCH  32  33
ATOM     33  O   UNL     1       4.440   9.343  -3.005  1.00  0.00    -0.458 OA
BRANCH  33  34
ATOM     34  C   UNL     1       5.560   8.602  -3.272  1.00  0.00     0.338 C 
ATOM     35  O   UNL     1       6.588   8.756  -2.658  1.00  0.00    -0.246 OA
BRANCH  34  36
ATOM     36  C   UNL     1       5.348   7.456  -4.191  1.00  0.00     0.060 A 
ATOM     37  C   UNL     1       6.109   6.303  -3.972  1.00  0.00     0.016 A 
ATOM     38  C   UNL     1       4.285   7.447  -5.084  1.00  0.00     0.016 A 
ATOM     39  C   UNL     1       5.692   5.087  -4.495  1.00  0.00     0.010 A 
ATOM     40  C   UNL     1       3.792   6.238  -5.507  1.00  0.00     0.010 A 
ATOM     41  C   UNL     1       4.501   5.066  -5.218  1.00  0.00    -0.014 A 
BRANCH  41  42
ATOM     42  C   UNL     1       4.127   3.937  -6.047  1.00  0.00     0.031 A 
ATOM     43  C   UNL     1       3.462   2.753  -5.463  1.00  0.00     0.074 A 
ATOM     44  C   UNL     1       4.479   4.139  -7.339  1.00  0.00     0.049 A 
ATOM     45  N   UNL     1       3.736   1.538  -5.788  1.00  0.00    -0.248 NA
ATOM     46  C   UNL     1       2.443   2.830  -4.406  1.00  0.00     0.031 C 
ATOM     47  C   UNL     1       4.238   3.349  -8.529  1.00  0.00     0.029 A 
ATOM     48  N   UNL     1       5.323   5.148  -7.830  1.00  0.00    -0.354 N 
ATOM     49  C   UNL     1       2.685   0.763  -5.328  1.00  0.00     0.074 A 
ATOM     50  C   UNL     1       2.023   1.558  -4.325  1.00  0.00     0.031 C 
ATOM     51  C   UNL     1       5.195   3.658  -9.432  1.00  0.00     0.029 A 
ATOM     52  C   UNL     1       6.142   4.552  -8.772  1.00  0.00     0.049 A 
ATOM     53  H   UNL     1       5.330   6.094  -7.556  1.00  0.00     0.167 HD
ATOM     54  C   UNL     1       2.308  -0.335  -6.043  1.00  0.00     0.034 A 
ATOM     55  C   UNL     1       7.462   4.291  -8.518  1.00  0.00     0.034 A 
ATOM     56  C   UNL     1       3.100  -0.414  -7.261  1.00  0.00     0.049 A 
ATOM     57  C   UNL     1       7.702   2.800  -8.607  1.00  0.00     0.074 A 
ATOM     58  C   UNL     1       2.841   0.063  -8.536  1.00  0.00     0.029 A 
ATOM     59  N   UNL     1       4.461  -0.657  -7.190  1.00  0.00    -0.354 N 
ATOM     60  N   UNL     1       6.843   1.897  -8.211  1.00  0.00    -0.248 NA
ATOM     61  C   UNL     1       8.875   2.230  -9.256  1.00  0.00     0.031 C 
ATOM     62  C   UNL     1       4.075   0.152  -9.221  1.00  0.00     0.029 A 
ATOM     63  C   UNL     1       5.075  -0.265  -8.361  1.00  0.00     0.049 A 
ATOM     64  H   UNL     1       4.923  -1.051  -6.415  1.00  0.00     0.167 HD
ATOM     65  C   UNL     1       7.258   0.664  -8.658  1.00  0.00     0.074 A 
ATOM     66  C   UNL     1       8.547   0.928  -9.280  1.00  0.00     0.031 C 
ATOM     67  C   UNL     1       6.496  -0.469  -8.549  1.00  0.00     0.034 A 
BRANCH  54  68
ATOM     68  C   UNL     1       1.007  -1.081  -5.886  1.00  0.00     0.023 A 
ATOM     69  C   UNL     1       0.355  -1.562  -7.044  1.00  0.00     0.031 A 
ATOM     70  C   UNL     1       0.375  -1.367  -4.665  1.00  0.00     0.131 A 
ATOM     71  C   UNL     1      -0.880  -2.224  -6.984  1.00  0.00     0.055 A 
ATOM     72  C   UNL     1      -0.868  -2.023  -4.601  1.00  0.00     0.041 A 
ATOM     73  F   UNL     1       0.952  -1.048  -3.497  1.00  0.00    -0.206 F 
ATOM     74  C   UNL     1      -1.507  -2.448  -5.764  1.00  0.00     0.022 A 
BRANCH  71  75
ATOM     75  S   UNL     1      -1.642  -2.773  -8.538  1.00  0.00     0.124 S 
ATOM     76  O   UNL     1      -1.838  -1.513  -9.248  1.00  0.00    -0.237 OA
ATOM     77  O   UNL     1      -0.629  -3.668  -9.085  1.00  0.00    -0.237 OA
ATOM     78  O   UNL     1      -2.872  -3.431  -8.099  1.00  0.00    -0.744 OA
ENDBRANCH  71  75
ENDBRANCH  54  68
BRANCH  55  79
ATOM     79  C   UNL     1       8.190   5.230  -7.598  1.00  0.00     0.023 A 
ATOM     80  C   UNL     1       8.003   6.617  -7.793  1.00  0.00     0.031 A 
ATOM     81  C   UNL     1       8.860   4.845  -6.427  1.00  0.00     0.131 A 
ATOM     82  C   UNL     1       8.297   7.543  -6.780  1.00  0.00     0.055 A 
ATOM     83  C   UNL     1       9.235   5.785  -5.447  1.00  0.00     0.041 A 
ATOM     84  F   UNL     1       9.093   3.552  -6.161  1.00  0.00    -0.206 F 
ATOM     85  C   UNL     1       8.918   7.137  -5.602  1.00  0.00     0.022 A 
BRANCH  82  86
ATOM     86  S   UNL     1       7.580   9.210  -6.929  1.00  0.00     0.124 S 
ATOM     87  O   UNL     1       8.508   9.863  -7.843  1.00  0.00    -0.237 OA
ATOM     88  O   UNL     1       6.249   8.924  -7.461  1.00  0.00    -0.237 OA
ATOM     89  O   UNL     1       7.583   9.711  -5.560  1.00  0.00    -0.744 OA
ENDBRANCH  82  86
ENDBRANCH  55  79
BRANCH  67  90
ATOM     90  C   UNL     1       6.971  -1.890  -8.753  1.00  0.00     0.023 A 
ATOM     91  C   UNL     1       8.321  -2.216  -8.874  1.00  0.00     0.031 A 
ATOM     92  C   UNL     1       6.074  -2.992  -8.751  1.00  0.00     0.131 A 
ATOM     93  C   UNL     1       8.731  -3.535  -9.111  1.00  0.00     0.055 A 
ATOM     94  C   UNL     1       6.495  -4.318  -8.868  1.00  0.00     0.041 A 
ATOM     95  F   UNL     1       4.749  -2.842  -8.618  1.00  0.00    -0.206 F 
ATOM     96  C   UNL     1       7.833  -4.597  -9.078  1.00  0.00     0.022 A 
BRANCH  93  97
ATOM     97  S   UNL     1      10.459  -3.792  -9.567  1.00  0.00     0.124 S 
ATOM     98  O   UNL     1      10.549  -3.042 -10.818  1.00  0.00    -0.237 OA
ATOM     99  O   UNL     1      11.172  -3.212  -8.433  1.00  0.00    -0.237 OA
ATOM    100  O   UNL     1      10.568  -5.242  -9.700  1.00  0.00    -0.744 OA
ENDBRANCH  93  97
ENDBRANCH  67  90
ENDBRANCH  41  42
ENDBRANCH  34  36
ENDBRANCH  33  34
ENDBRANCH  32  33
ENDBRANCH   1  32
TORSDOF 18
