REMARK SMILES Cc1cc2c(c(C)c1Br)C=C(C(=O)OCCOC(=O)c1ccc(-c3c4nc(c(-c5cc(S(=O)(=O)[O-])ccc5F)c5ccc([nH]5)c(-c5cc(S(=O)(=O)[O-])ccc5F)c5nc(c(-c6cc(S(=O)(=O)[O-])ccc6F)c6ccc3[nH]6)C=C5)C=C4)cc1)[C@@H](C(F)(F)F)O2
REMARK SMILES IDX 16 1 15 2 14 3 12 4 13 5 11 6 1 7 2 8 3 9 8 10 4 11 6 12
REMARK SMILES IDX 9 13 5 14 88 15 7 16 10 17 83 18 84 19 85 20 86 21 87 22
REMARK SMILES IDX 17 23 18 24 19 25 20 26 21 27 82 28 22 29 81 30 23 31 24 32
REMARK SMILES IDX 25 33 75 34 26 35 80 36 74 37 76 38 27 39 79 40 73 41 72 42
REMARK SMILES IDX 28 44 60 45 40 46 59 47 41 48 44 49 58 50 77 51 42 52 43 53
REMARK SMILES IDX 57 55 78 56 45 57 29 58 30 59 38 60 31 61 37 62 39 63 36 64
REMARK SMILES IDX 32 65 33 66 34 67 35 68 61 69 62 70 70 71 63 72 69 73 71 74
REMARK SMILES IDX 68 75 64 76 65 77 66 78 67 79 46 80 47 81 55 82 48 83 54 84
REMARK SMILES IDX 56 85 53 86 49 87 50 88 51 89 52 90
REMARK H PARENT 76 43 44 54
REMARK Flexibility Score: inf
ROOT
ATOM      1  C   UNL     1       0.215  -9.566   4.168  1.00  0.00     0.275 C 
ENDROOT
BRANCH   1   2
ATOM      2  C   UNL     1      -0.060  -9.431   2.671  1.00  0.00     0.275 C 
BRANCH   2   3
ATOM      3  O   UNL     1       0.360  -8.142   2.176  1.00  0.00    -0.459 OA
BRANCH   3   4
ATOM      4  C   UNL     1      -0.635  -7.254   1.944  1.00  0.00     0.338 C 
ATOM      5  O   UNL     1      -1.832  -7.449   2.092  1.00  0.00    -0.246 OA
BRANCH   4   6
ATOM      6  C   UNL     1      -0.081  -5.968   1.481  1.00  0.00     0.087 C 
ATOM      7  C   UNL     1       1.206   0.125  -0.326  1.00  0.00     0.046 C 
ATOM      8  C   UNL     1       0.740  -1.113   0.394  1.00  0.00    -0.033 A 
ATOM      9  C   UNL     1       1.235  -2.342  -0.070  1.00  0.00     0.051 A 
ATOM     10  C   UNL     1      -0.198  -1.109   1.448  1.00  0.00     0.024 A 
ATOM     11  C   UNL     1       0.816  -3.546   0.487  1.00  0.00     0.128 A 
ATOM     12  C   UNL     1      -0.614  -2.322   2.049  1.00  0.00    -0.026 A 
ATOM     13  Br  UNL     1      -0.926   0.563   2.031  1.00  0.00    -0.050 Br
ATOM     14  C   UNL     1      -0.108  -3.549   1.535  1.00  0.00     0.021 A 
ATOM     15  O   UNL     1       1.381  -4.669  -0.054  1.00  0.00    -0.475 OA
ATOM     16  C   UNL     1      -1.566  -2.350   3.226  1.00  0.00     0.046 C 
ATOM     17  C   UNL     1      -0.543  -4.846   2.044  1.00  0.00     0.027 C 
ATOM     18  C   UNL     1       0.870  -5.972   0.325  1.00  0.00     0.316 C 
BRANCH  18  19
ATOM     19  C   UNL     1       0.246  -6.641  -0.911  1.00  0.00     0.430 C 
ATOM     20  F   UNL     1       1.099  -6.622  -1.965  1.00  0.00    -0.167 F 
ATOM     21  F   UNL     1      -0.041  -7.946  -0.680  1.00  0.00    -0.167 F 
ATOM     22  F   UNL     1      -0.897  -6.039  -1.305  1.00  0.00    -0.167 F 
ENDBRANCH  18  19
ENDBRANCH   4   6
ENDBRANCH   3   4
ENDBRANCH   2   3
ENDBRANCH   1   2
BRANCH   1  23
ATOM     23  O   UNL     1      -0.609  -8.650   4.909  1.00  0.00    -0.458 OA
BRANCH  23  24
ATOM     24  C   UNL     1       0.039  -7.599   5.463  1.00  0.00     0.338 C 
ATOM     25  O   UNL     1       1.237  -7.380   5.449  1.00  0.00    -0.246 OA
BRANCH  24  26
ATOM     26  C   UNL     1      -0.939  -6.676   6.063  1.00  0.00     0.060 A 
ATOM     27  C   UNL     1      -1.830  -6.018   5.226  1.00  0.00     0.016 A 
ATOM     28  C   UNL     1      -0.881  -6.346   7.415  1.00  0.00     0.016 A 
ATOM     29  C   UNL     1      -2.563  -4.936   5.702  1.00  0.00     0.010 A 
ATOM     30  C   UNL     1      -1.732  -5.350   7.920  1.00  0.00     0.010 A 
ATOM     31  C   UNL     1      -2.555  -4.598   7.063  1.00  0.00    -0.014 A 
BRANCH  31  32
ATOM     32  C   UNL     1      -3.388  -3.454   7.552  1.00  0.00     0.031 A 
ATOM     33  C   UNL     1      -2.763  -2.325   8.340  1.00  0.00     0.074 A 
ATOM     34  C   UNL     1      -4.701  -3.386   7.237  1.00  0.00     0.049 A 
ATOM     35  N   UNL     1      -3.347  -1.330   8.960  1.00  0.00    -0.248 NA
ATOM     36  C   UNL     1      -1.296  -2.319   8.461  1.00  0.00     0.031 C 
ATOM     37  C   UNL     1      -5.432  -4.372   6.436  1.00  0.00     0.029 A 
ATOM     38  N   UNL     1      -5.651  -2.431   7.513  1.00  0.00    -0.354 N 
ATOM     39  C   UNL     1      -2.330  -0.613   9.583  1.00  0.00     0.074 A 
ATOM     40  C   UNL     1      -1.091  -1.295   9.279  1.00  0.00     0.031 C 
ATOM     41  C   UNL     1      -6.672  -3.922   6.199  1.00  0.00     0.029 A 
ATOM     42  C   UNL     1      -6.878  -2.685   6.940  1.00  0.00     0.049 A 
ATOM     43  H   UNL     1      -5.472  -1.639   8.070  1.00  0.00     0.167 HD
ATOM     44  C   UNL     1      -2.422   0.512  10.335  1.00  0.00     0.034 A 
ATOM     45  C   UNL     1      -8.054  -2.031   7.027  1.00  0.00     0.034 A 
ATOM     46  C   UNL     1      -3.656   1.217  10.584  1.00  0.00     0.049 A 
ATOM     47  C   UNL     1      -8.144  -0.822   7.917  1.00  0.00     0.074 A 
ATOM     48  C   UNL     1      -3.858   2.355  11.347  1.00  0.00     0.029 A 
ATOM     49  N   UNL     1      -4.891   0.870  10.055  1.00  0.00    -0.354 N 
ATOM     50  N   UNL     1      -7.191  -0.236   8.602  1.00  0.00    -0.248 NA
ATOM     51  C   UNL     1      -9.469  -0.208   8.075  1.00  0.00     0.031 C 
ATOM     52  C   UNL     1      -5.220   2.666  11.320  1.00  0.00     0.029 A 
ATOM     53  C   UNL     1      -5.859   1.763  10.487  1.00  0.00     0.049 A 
ATOM     54  H   UNL     1      -5.056   0.103   9.460  1.00  0.00     0.167 HD
ATOM     55  C   UNL     1      -7.801   0.822   9.266  1.00  0.00     0.074 A 
ATOM     56  C   UNL     1      -9.200   0.802   8.892  1.00  0.00     0.031 C 
ATOM     57  C   UNL     1      -7.250   1.727  10.111  1.00  0.00     0.034 A 
BRANCH  44  58
ATOM     58  C   UNL     1      -1.166   1.037  10.983  1.00  0.00     0.023 A 
ATOM     59  C   UNL     1      -0.128   1.617  10.236  1.00  0.00     0.031 A 
ATOM     60  C   UNL     1      -1.026   0.989  12.383  1.00  0.00     0.131 A 
ATOM     61  C   UNL     1       1.020   2.094  10.889  1.00  0.00     0.055 A 
ATOM     62  C   UNL     1       0.089   1.523  13.032  1.00  0.00     0.041 A 
ATOM     63  F   UNL     1      -1.981   0.431  13.145  1.00  0.00    -0.206 F 
ATOM     64  C   UNL     1       1.123   2.074  12.283  1.00  0.00     0.022 A 
BRANCH  61  65
ATOM     65  S   UNL     1       2.414   2.678   9.889  1.00  0.00     0.124 S 
ATOM     66  O   UNL     1       2.814   1.454   9.200  1.00  0.00    -0.237 OA
ATOM     67  O   UNL     1       1.801   3.707   9.057  1.00  0.00    -0.237 OA
ATOM     68  O   UNL     1       3.368   3.167  10.882  1.00  0.00    -0.744 OA
ENDBRANCH  61  65
ENDBRANCH  44  58
BRANCH  45  69
ATOM     69  C   UNL     1      -9.253  -2.542   6.301  1.00  0.00     0.023 A 
ATOM     70  C   UNL     1      -9.850  -1.794   5.274  1.00  0.00     0.031 A 
ATOM     71  C   UNL     1      -9.818  -3.790   6.621  1.00  0.00     0.131 A 
ATOM     72  C   UNL     1     -10.981  -2.297   4.610  1.00  0.00     0.055 A 
ATOM     73  C   UNL     1     -10.910  -4.308   5.924  1.00  0.00     0.041 A 
ATOM     74  F   UNL     1      -9.290  -4.544   7.599  1.00  0.00    -0.206 F 
ATOM     75  C   UNL     1     -11.502  -3.557   4.915  1.00  0.00     0.022 A 
BRANCH  72  76
ATOM     76  S   UNL     1     -11.796  -1.260   3.364  1.00  0.00     0.124 S 
ATOM     77  O   UNL     1     -12.227  -0.120   4.165  1.00  0.00    -0.237 OA
ATOM     78  O   UNL     1     -10.713  -1.010   2.420  1.00  0.00    -0.237 OA
ATOM     79  O   UNL     1     -12.871  -2.114   2.863  1.00  0.00    -0.744 OA
ENDBRANCH  72  76
ENDBRANCH  45  69
BRANCH  57  80
ATOM     80  C   UNL     1      -8.149   2.797  10.663  1.00  0.00     0.023 A 
ATOM     81  C   UNL     1      -9.095   2.516  11.663  1.00  0.00     0.031 A 
ATOM     82  C   UNL     1      -8.015   4.125  10.222  1.00  0.00     0.131 A 
ATOM     83  C   UNL     1      -9.888   3.551  12.178  1.00  0.00     0.055 A 
ATOM     84  C   UNL     1      -8.778   5.157  10.767  1.00  0.00     0.041 A 
ATOM     85  F   UNL     1      -7.122   4.441   9.271  1.00  0.00    -0.206 F 
ATOM     86  C   UNL     1      -9.723   4.872  11.749  1.00  0.00     0.022 A 
BRANCH  83  87
ATOM     87  S   UNL     1     -11.157   3.150  13.409  1.00  0.00     0.124 S 
ATOM     88  O   UNL     1     -12.086   2.337  12.631  1.00  0.00    -0.237 OA
ATOM     89  O   UNL     1     -10.394   2.442  14.432  1.00  0.00    -0.237 OA
ATOM     90  O   UNL     1     -11.667   4.458  13.816  1.00  0.00    -0.744 OA
ENDBRANCH  83  87
ENDBRANCH  57  80
ENDBRANCH  31  32
ENDBRANCH  24  26
ENDBRANCH  23  24
ENDBRANCH   1  23
TORSDOF 15
