REMARK SMILES C[C@H](CNC(=O)Cn1cccc1C(=O)OCCOC(=O)c1ccc(-c2c3nc(c(-c4cc(S(=O)(=O)[O-])ccc4F)c4ccc([nH]4)c(-c4cc(S(=O)(=O)[O-])ccc4F)c4nc(c(-c5cc(S(=O)(=O)[O-])ccc5F)c5ccc2[nH]5)C=C4)C=C3)cc1)[NH+](C)C
REMARK SMILES IDX 16 1 15 2 13 3 14 4 12 5 8 6 9 7 10 8 11 9 7 10 5 11 4 12
REMARK SMILES IDX 6 14 3 15 2 16 1 17 84 18 85 19 86 20 17 22 18 23 19 24
REMARK SMILES IDX 20 25 21 26 22 27 83 28 23 29 82 30 24 31 25 32 26 33 76 34
REMARK SMILES IDX 27 35 81 36 75 37 77 38 28 39 80 40 74 41 73 42 29 44 61 45
REMARK SMILES IDX 41 46 60 47 42 48 45 49 59 50 78 51 43 52 44 53 58 55 79 56
REMARK SMILES IDX 46 57 30 58 31 59 39 60 32 61 38 62 40 63 37 64 33 65 34 66
REMARK SMILES IDX 35 67 36 68 62 69 63 70 71 71 64 72 70 73 72 74 69 75 65 76
REMARK SMILES IDX 66 77 67 78 68 79 47 80 48 81 56 82 49 83 55 84 57 85 54 86
REMARK SMILES IDX 50 87 51 88 52 89 53 90
REMARK H PARENT 4 13 84 21 77 43 45 54
REMARK Flexibility Score: inf
ROOT
ATOM      1  C   UNL     1       5.672  -1.300   2.238  1.00  0.00     0.275 C 
ENDROOT
BRANCH   1   2
ATOM      2  O   UNL     1       5.027  -1.390   0.952  1.00  0.00    -0.457 OA
BRANCH   2   3
ATOM      3  C   UNL     1       4.884  -2.630   0.418  1.00  0.00     0.355 C 
ATOM      4  O   UNL     1       5.479  -3.625   0.824  1.00  0.00    -0.244 OA
BRANCH   3   5
ATOM      5  C   UNL     1       3.851  -2.649  -0.609  1.00  0.00     0.128 A 
ATOM      6  N   UNL     1       3.293  -1.609  -1.338  1.00  0.00    -0.333 N 
ATOM      7  C   UNL     1       2.354  -2.121  -2.214  1.00  0.00     0.087 A 
ATOM      8  C   UNL     1       2.189  -3.457  -1.951  1.00  0.00     0.020 A 
ATOM      9  C   UNL     1       3.131  -3.790  -0.960  1.00  0.00     0.035 A 
BRANCH   6  10
ATOM     10  C   UNL     1       3.720  -0.215  -1.403  1.00  0.00     0.222 C 
BRANCH  10  11
ATOM     11  C   UNL     1       3.450   0.662  -0.201  1.00  0.00     0.240 C 
ATOM     12  N   UNL     1       2.205   0.902   0.279  1.00  0.00    -0.349 N 
ATOM     13  H   UNL     1       2.189   1.515   1.049  1.00  0.00     0.163 HD
ATOM     14  O   UNL     1       4.372   1.312   0.313  1.00  0.00    -0.273 OA
BRANCH  12  15
ATOM     15  C   UNL     1       0.885   0.430  -0.122  1.00  0.00     0.180 C 
BRANCH  15  16
ATOM     16  C   UNL     1       0.165  -0.441   0.951  1.00  0.00     0.199 C 
ATOM     17  C   UNL     1       0.475   0.039   2.378  1.00  0.00     0.077 C 
BRANCH  16  18
ATOM     18  N   UNL     1      -1.288  -0.527   0.642  1.00  0.00    -0.336 N 
ATOM     19  C   UNL     1      -1.899  -1.733   1.208  1.00  0.00     0.332 C 
ATOM     20  C   UNL     1      -2.061   0.637   1.095  1.00  0.00     0.332 C 
ATOM     21  H   UNL     1      -1.326  -0.557  -0.377  1.00  0.00     0.347 HD
ENDBRANCH  16  18
ENDBRANCH  15  16
ENDBRANCH  12  15
ENDBRANCH  10  11
ENDBRANCH   6  10
ENDBRANCH   3   5
ENDBRANCH   2   3
ENDBRANCH   1   2
BRANCH   1  22
ATOM     22  C   UNL     1       4.669  -1.024   3.366  1.00  0.00     0.275 C 
BRANCH  22  23
ATOM     23  O   UNL     1       3.960  -2.171   3.871  1.00  0.00    -0.458 OA
BRANCH  23  24
ATOM     24  C   UNL     1       2.895  -2.513   3.118  1.00  0.00     0.338 C 
ATOM     25  O   UNL     1       2.752  -2.306   1.926  1.00  0.00    -0.246 OA
BRANCH  24  26
ATOM     26  C   UNL     1       1.717  -2.892   3.895  1.00  0.00     0.060 A 
ATOM     27  C   UNL     1       0.716  -3.570   3.191  1.00  0.00     0.016 A 
ATOM     28  C   UNL     1       1.457  -2.269   5.122  1.00  0.00     0.016 A 
ATOM     29  C   UNL     1      -0.574  -3.554   3.680  1.00  0.00     0.010 A 
ATOM     30  C   UNL     1       0.152  -2.233   5.601  1.00  0.00     0.010 A 
ATOM     31  C   UNL     1      -0.865  -2.853   4.863  1.00  0.00    -0.014 A 
BRANCH  31  32
ATOM     32  C   UNL     1      -2.197  -3.109   5.448  1.00  0.00     0.031 A 
ATOM     33  C   UNL     1      -2.180  -4.561   6.007  1.00  0.00     0.074 A 
ATOM     34  C   UNL     1      -3.171  -2.146   5.315  1.00  0.00     0.049 A 
ATOM     35  N   UNL     1      -3.109  -5.465   6.043  1.00  0.00    -0.248 NA
ATOM     36  C   UNL     1      -0.872  -5.146   6.455  1.00  0.00     0.031 C 
ATOM     37  C   UNL     1      -2.984  -0.786   4.749  1.00  0.00     0.029 A 
ATOM     38  N   UNL     1      -4.519  -2.101   5.616  1.00  0.00    -0.354 N 
ATOM     39  C   UNL     1      -2.582  -6.578   6.744  1.00  0.00     0.074 A 
ATOM     40  C   UNL     1      -1.168  -6.404   6.777  1.00  0.00     0.031 C 
ATOM     41  C   UNL     1      -4.159  -0.108   4.665  1.00  0.00     0.029 A 
ATOM     42  C   UNL     1      -5.233  -0.928   5.197  1.00  0.00     0.049 A 
ATOM     43  H   UNL     1      -4.968  -2.836   6.093  1.00  0.00     0.167 HD
ATOM     44  C   UNL     1      -3.356  -7.472   7.425  1.00  0.00     0.034 A 
ATOM     45  C   UNL     1      -6.589  -0.674   5.255  1.00  0.00     0.034 A 
ATOM     46  C   UNL     1      -4.725  -7.126   7.252  1.00  0.00     0.049 A 
ATOM     47  C   UNL     1      -7.098  -1.825   6.015  1.00  0.00     0.074 A 
ATOM     48  C   UNL     1      -5.560  -7.192   6.171  1.00  0.00     0.029 A 
ATOM     49  N   UNL     1      -5.266  -6.285   8.199  1.00  0.00    -0.354 N 
ATOM     50  N   UNL     1      -6.946  -1.993   7.292  1.00  0.00    -0.248 NA
ATOM     51  C   UNL     1      -7.767  -2.909   5.283  1.00  0.00     0.031 C 
ATOM     52  C   UNL     1      -6.287  -5.991   6.275  1.00  0.00     0.029 A 
ATOM     53  C   UNL     1      -6.069  -5.400   7.528  1.00  0.00     0.049 A 
ATOM     54  H   UNL     1      -5.107  -6.314   9.170  1.00  0.00     0.167 HD
ATOM     55  C   UNL     1      -7.212  -3.328   7.446  1.00  0.00     0.074 A 
ATOM     56  C   UNL     1      -8.013  -3.722   6.306  1.00  0.00     0.031 C 
ATOM     57  C   UNL     1      -6.336  -4.110   8.127  1.00  0.00     0.034 A 
BRANCH  44  58
ATOM     58  C   UNL     1      -3.049  -8.498   8.485  1.00  0.00     0.023 A 
ATOM     59  C   UNL     1      -4.129  -9.339   8.853  1.00  0.00     0.031 A 
ATOM     60  C   UNL     1      -1.949  -8.487   9.352  1.00  0.00     0.131 A 
ATOM     61  C   UNL     1      -4.172  -9.974  10.098  1.00  0.00     0.055 A 
ATOM     62  C   UNL     1      -1.958  -9.194  10.564  1.00  0.00     0.041 A 
ATOM     63  F   UNL     1      -0.868  -7.733   9.117  1.00  0.00    -0.206 F 
ATOM     64  C   UNL     1      -3.088  -9.904  10.964  1.00  0.00     0.022 A 
BRANCH  61  65
ATOM     65  S   UNL     1      -5.748 -10.705  10.624  1.00  0.00     0.124 S 
ATOM     66  O   UNL     1      -6.662  -9.574  10.512  1.00  0.00    -0.237 OA
ATOM     67  O   UNL     1      -5.930 -11.772   9.644  1.00  0.00    -0.237 OA
ATOM     68  O   UNL     1      -5.474 -11.153  11.987  1.00  0.00    -0.744 OA
ENDBRANCH  61  65
ENDBRANCH  44  58
BRANCH  45  69
ATOM     69  C   UNL     1      -7.692   0.301   4.795  1.00  0.00     0.023 A 
ATOM     70  C   UNL     1      -7.548   1.543   4.147  1.00  0.00     0.031 A 
ATOM     71  C   UNL     1      -9.067  -0.093   4.974  1.00  0.00     0.131 A 
ATOM     72  C   UNL     1      -8.704   2.242   3.658  1.00  0.00     0.055 A 
ATOM     73  C   UNL     1     -10.174   0.537   4.405  1.00  0.00     0.041 A 
ATOM     74  F   UNL     1      -9.425  -1.133   5.738  1.00  0.00    -0.206 F 
ATOM     75  C   UNL     1      -9.995   1.710   3.724  1.00  0.00     0.022 A 
BRANCH  72  76
ATOM     76  S   UNL     1      -8.593   3.898   2.902  1.00  0.00     0.124 S 
ATOM     77  O   UNL     1      -8.720   4.770   4.064  1.00  0.00    -0.237 OA
ATOM     78  O   UNL     1      -7.287   3.874   2.254  1.00  0.00    -0.237 OA
ATOM     79  O   UNL     1      -9.732   3.926   1.983  1.00  0.00    -0.744 OA
ENDBRANCH  72  76
ENDBRANCH  45  69
BRANCH  57  80
ATOM     80  C   UNL     1      -5.483  -3.369   9.155  1.00  0.00     0.023 A 
ATOM     81  C   UNL     1      -6.105  -2.619  10.172  1.00  0.00     0.031 A 
ATOM     82  C   UNL     1      -4.081  -3.272   9.099  1.00  0.00     0.131 A 
ATOM     83  C   UNL     1      -5.352  -1.808  11.046  1.00  0.00     0.055 A 
ATOM     84  C   UNL     1      -3.326  -2.467   9.966  1.00  0.00     0.041 A 
ATOM     85  F   UNL     1      -3.385  -3.950   8.190  1.00  0.00    -0.206 F 
ATOM     86  C   UNL     1      -3.963  -1.725  10.947  1.00  0.00     0.022 A 
BRANCH  83  87
ATOM     87  S   UNL     1      -6.207  -0.875  12.345  1.00  0.00     0.124 S 
ATOM     88  O   UNL     1      -6.904   0.159  11.589  1.00  0.00    -0.237 OA
ATOM     89  O   UNL     1      -7.050  -1.894  12.962  1.00  0.00    -0.237 OA
ATOM     90  O   UNL     1      -5.117  -0.391  13.192  1.00  0.00    -0.744 OA
ENDBRANCH  83  87
ENDBRANCH  57  80
ENDBRANCH  31  32
ENDBRANCH  24  26
ENDBRANCH  23  24
ENDBRANCH  22  23
ENDBRANCH   1  22
TORSDOF 19
