REMARK SMILES CC1(C)O[C@](C)(C(C)(C)O)CC[C@H]1C(=O)OCCOC(=O)c1ccc(-c2c3nc(c(-c4cc(S(=O)(=O)[O-])ccc4F)c4ccc([nH]4)c(-c4cc(S(=O)(=O)[O-])ccc4F)c4nc(c(-c5cc(S(=O)(=O)[O-])ccc5F)c5ccc2[nH]5)C=C4)C=C3)cc1
REMARK SMILES IDX 18 1 17 2 16 3 14 4 15 5 13 6 1 7 2 8 3 9 4 10 5 11 12 12
REMARK SMILES IDX 6 13 11 14 7 15 8 16 9 17 10 18 19 20 20 21 21 22 22 23
REMARK SMILES IDX 23 24 84 25 24 26 83 27 25 28 26 29 27 30 77 31 28 32 82 33
REMARK SMILES IDX 76 34 78 35 29 36 81 37 75 38 74 39 30 41 62 42 42 43 61 44
REMARK SMILES IDX 43 45 46 46 60 47 79 48 44 49 45 50 59 52 80 53 47 54 31 55
REMARK SMILES IDX 32 56 40 57 33 58 39 59 41 60 38 61 34 62 35 63 36 64 37 65
REMARK SMILES IDX 63 66 64 67 72 68 65 69 71 70 73 71 70 72 66 73 67 74 68 75
REMARK SMILES IDX 69 76 48 77 49 78 57 79 50 80 56 81 58 82 55 83 51 84 52 85
REMARK SMILES IDX 53 86 54 87
REMARK H PARENT 10 19 78 40 46 51
REMARK Flexibility Score: inf
ROOT
ATOM      1  C   UNL     1      -1.492  -2.958   1.607  1.00  0.00     0.275 C 
ENDROOT
BRANCH   1   2
ATOM      2  C   UNL     1      -0.956  -2.726   0.197  1.00  0.00     0.274 C 
BRANCH   2   3
ATOM      3  O   UNL     1      -0.327  -1.434   0.077  1.00  0.00    -0.462 OA
BRANCH   3   4
ATOM      4  C   UNL     1      -1.108  -0.446  -0.417  1.00  0.00     0.311 C 
ATOM      5  O   UNL     1      -2.279  -0.600  -0.751  1.00  0.00    -0.252 OA
BRANCH   4   6
ATOM      6  C   UNL     1      -0.398   0.883  -0.616  1.00  0.00     0.131 C 
ATOM      7  C   UNL     1       2.002   0.130   0.117  1.00  0.00     0.043 C 
ATOM      8  C   UNL     1       0.897   1.194   0.171  1.00  0.00     0.077 C 
ATOM      9  C   UNL     1       0.560   1.425   1.658  1.00  0.00     0.043 C 
ATOM     10  O   UNL     1       1.448   2.467  -0.236  1.00  0.00    -0.366 OA
ATOM     11  C   UNL     1       1.585   2.804  -1.628  1.00  0.00     0.094 C 
ATOM     12  C   UNL     1      -0.239   1.099  -2.121  1.00  0.00     0.021 C 
ATOM     13  C   UNL     1       2.739   2.011  -2.281  1.00  0.00     0.045 C 
ATOM     14  C   UNL     1       0.275   2.507  -2.386  1.00  0.00     0.039 C 
BRANCH  11  15
ATOM     15  C   UNL     1       1.927   4.355  -1.682  1.00  0.00     0.088 C 
ATOM     16  C   UNL     1       0.818   5.234  -1.075  1.00  0.00     0.045 C 
ATOM     17  C   UNL     1       3.237   4.678  -0.940  1.00  0.00     0.045 C 
BRANCH  15  18
ATOM     18  O   UNL     1       2.099   4.763  -3.051  1.00  0.00    -0.387 OA
ATOM     19  H   UNL     1       1.289   4.573  -3.549  1.00  0.00     0.211 HD
ENDBRANCH  15  18
ENDBRANCH  11  15
ENDBRANCH   4   6
ENDBRANCH   3   4
ENDBRANCH   2   3
ENDBRANCH   1   2
BRANCH   1  20
ATOM     20  O   UNL     1      -2.474  -1.961   1.934  1.00  0.00    -0.458 OA
BRANCH  20  21
ATOM     21  C   UNL     1      -2.163  -1.148   2.970  1.00  0.00     0.338 C 
ATOM     22  O   UNL     1      -1.192  -1.214   3.701  1.00  0.00    -0.246 OA
BRANCH  21  23
ATOM     23  C   UNL     1      -3.202  -0.115   3.091  1.00  0.00     0.060 A 
ATOM     24  C   UNL     1      -3.197   0.975   2.217  1.00  0.00     0.016 A 
ATOM     25  C   UNL     1      -4.128  -0.188   4.129  1.00  0.00     0.016 A 
ATOM     26  C   UNL     1      -4.113   2.010   2.387  1.00  0.00     0.010 A 
ATOM     27  C   UNL     1      -5.071   0.832   4.275  1.00  0.00     0.010 A 
ATOM     28  C   UNL     1      -5.061   1.945   3.415  1.00  0.00    -0.014 A 
BRANCH  28  29
ATOM     29  C   UNL     1      -6.022   3.056   3.620  1.00  0.00     0.031 A 
ATOM     30  C   UNL     1      -5.898   3.932   4.833  1.00  0.00     0.074 A 
ATOM     31  C   UNL     1      -7.006   3.264   2.726  1.00  0.00     0.049 A 
ATOM     32  N   UNL     1      -6.713   4.851   5.280  1.00  0.00    -0.248 NA
ATOM     33  C   UNL     1      -4.698   3.735   5.658  1.00  0.00     0.031 C 
ATOM     34  C   UNL     1      -7.196   2.506   1.488  1.00  0.00     0.029 A 
ATOM     35  N   UNL     1      -8.039   4.166   2.727  1.00  0.00    -0.354 N 
ATOM     36  C   UNL     1      -6.141   5.325   6.455  1.00  0.00     0.074 A 
ATOM     37  C   UNL     1      -4.920   4.574   6.659  1.00  0.00     0.031 C 
ATOM     38  C   UNL     1      -8.282   2.973   0.852  1.00  0.00     0.029 A 
ATOM     39  C   UNL     1      -8.899   4.016   1.664  1.00  0.00     0.049 A 
ATOM     40  H   UNL     1      -8.154   4.855   3.422  1.00  0.00     0.167 HD
ATOM     41  C   UNL     1      -6.598   6.297   7.285  1.00  0.00     0.034 A 
ATOM     42  C   UNL     1     -10.073   4.620   1.399  1.00  0.00     0.034 A 
ATOM     43  C   UNL     1      -7.819   7.034   7.059  1.00  0.00     0.049 A 
ATOM     44  C   UNL     1     -10.596   5.648   2.367  1.00  0.00     0.074 A 
ATOM     45  C   UNL     1      -8.373   8.047   7.823  1.00  0.00     0.029 A 
ATOM     46  N   UNL     1      -8.682   6.832   5.988  1.00  0.00    -0.354 N 
ATOM     47  N   UNL     1     -10.065   6.069   3.492  1.00  0.00    -0.248 NA
ATOM     48  C   UNL     1     -11.878   6.279   2.031  1.00  0.00     0.031 C 
ATOM     49  C   UNL     1      -9.597   8.413   7.249  1.00  0.00     0.029 A 
ATOM     50  C   UNL     1      -9.777   7.678   6.088  1.00  0.00     0.049 A 
ATOM     51  H   UNL     1      -8.538   6.182   5.263  1.00  0.00     0.167 HD
ATOM     52  C   UNL     1     -10.944   7.023   3.993  1.00  0.00     0.074 A 
ATOM     53  C   UNL     1     -12.029   7.129   3.037  1.00  0.00     0.031 C 
ATOM     54  C   UNL     1     -10.863   7.749   5.138  1.00  0.00     0.034 A 
BRANCH  41  55
ATOM     55  C   UNL     1      -5.803   6.558   8.542  1.00  0.00     0.023 A 
ATOM     56  C   UNL     1      -4.489   7.056   8.502  1.00  0.00     0.031 A 
ATOM     57  C   UNL     1      -6.353   6.254   9.801  1.00  0.00     0.131 A 
ATOM     58  C   UNL     1      -3.744   7.162   9.688  1.00  0.00     0.055 A 
ATOM     59  C   UNL     1      -5.633   6.434  10.983  1.00  0.00     0.041 A 
ATOM     60  F   UNL     1      -7.596   5.755   9.901  1.00  0.00    -0.206 F 
ATOM     61  C   UNL     1      -4.314   6.875  10.930  1.00  0.00     0.022 A 
BRANCH  58  62
ATOM     62  S   UNL     1      -1.972   7.533   9.570  1.00  0.00     0.124 S 
ATOM     63  O   UNL     1      -1.497   6.447   8.715  1.00  0.00    -0.237 OA
ATOM     64  O   UNL     1      -1.968   8.864   8.974  1.00  0.00    -0.237 OA
ATOM     65  O   UNL     1      -1.514   7.469  10.956  1.00  0.00    -0.744 OA
ENDBRANCH  58  62
ENDBRANCH  41  55
BRANCH  42  66
ATOM     66  C   UNL     1     -10.864   4.223   0.201  1.00  0.00     0.023 A 
ATOM     67  C   UNL     1     -11.075   5.116  -0.861  1.00  0.00     0.031 A 
ATOM     68  C   UNL     1     -11.436   2.941   0.111  1.00  0.00     0.131 A 
ATOM     69  C   UNL     1     -11.862   4.724  -1.955  1.00  0.00     0.055 A 
ATOM     70  C   UNL     1     -12.180   2.541  -0.999  1.00  0.00     0.041 A 
ATOM     71  F   UNL     1     -11.262   2.049   1.100  1.00  0.00    -0.206 F 
ATOM     72  C   UNL     1     -12.404   3.439  -2.038  1.00  0.00     0.022 A 
BRANCH  69  73
ATOM     73  S   UNL     1     -12.214   5.941  -3.253  1.00  0.00     0.124 S 
ATOM     74  O   UNL     1     -12.905   6.985  -2.503  1.00  0.00    -0.237 OA
ATOM     75  O   UNL     1     -10.876   6.274  -3.730  1.00  0.00    -0.237 OA
ATOM     76  O   UNL     1     -13.044   5.199  -4.200  1.00  0.00    -0.744 OA
ENDBRANCH  69  73
ENDBRANCH  42  66
BRANCH  54  77
ATOM     77  C   UNL     1     -11.974   8.737   5.390  1.00  0.00     0.023 A 
ATOM     78  C   UNL     1     -13.282   8.316   5.685  1.00  0.00     0.031 A 
ATOM     79  C   UNL     1     -11.724  10.118   5.304  1.00  0.00     0.131 A 
ATOM     80  C   UNL     1     -14.305   9.265   5.830  1.00  0.00     0.055 A 
ATOM     81  C   UNL     1     -12.735  11.060   5.503  1.00  0.00     0.041 A 
ATOM     82  F   UNL     1     -10.493  10.573   5.022  1.00  0.00    -0.206 F 
ATOM     83  C   UNL     1     -14.036  10.635   5.755  1.00  0.00     0.022 A 
BRANCH  80  84
ATOM     84  S   UNL     1     -16.012   8.685   6.030  1.00  0.00     0.124 S 
ATOM     85  O   UNL     1     -16.210   7.901   4.815  1.00  0.00    -0.237 OA
ATOM     86  O   UNL     1     -15.940   7.926   7.274  1.00  0.00    -0.237 OA
ATOM     87  O   UNL     1     -16.788   9.921   6.104  1.00  0.00    -0.744 OA
ENDBRANCH  80  84
ENDBRANCH  54  77
ENDBRANCH  28  29
ENDBRANCH  21  23
ENDBRANCH  20  21
ENDBRANCH   1  20
TORSDOF 16
