REMARK SMILES O=C(CNC(=O)c1cc(-c2ccc(Cl)cc2)n[nH]1)OCCOC(=O)c1ccc(-c2c3nc(c(-c4cc(S(=O)(=O)[O-])ccc4F)c4ccc([nH]4)c(-c4cc(S(=O)(=O)[O-])ccc4F)c4nc(c(-c5cc(S(=O)(=O)[O-])ccc5F)c5ccc2[nH]5)C=C4)C=C3)cc1
REMARK SMILES IDX 20 1 19 2 2 3 1 4 3 5 4 6 5 7 6 9 7 10 8 11 18 12 9 13 17 14
REMARK SMILES IDX 10 16 11 17 16 18 12 19 15 20 13 21 14 22 21 23 22 24 23 25
REMARK SMILES IDX 24 26 25 27 26 28 87 29 27 30 86 31 28 32 29 33 30 34 80 35
REMARK SMILES IDX 31 36 85 37 79 38 81 39 32 40 84 41 78 42 77 43 33 45 65 46
REMARK SMILES IDX 45 47 64 48 46 49 49 50 63 51 82 52 47 53 48 54 62 56 83 57
REMARK SMILES IDX 50 58 34 59 35 60 43 61 36 62 42 63 44 64 41 65 37 66 38 67
REMARK SMILES IDX 39 68 40 69 66 70 67 71 75 72 68 73 74 74 76 75 73 76 69 77
REMARK SMILES IDX 70 78 71 79 72 80 51 81 52 82 60 83 53 84 59 85 61 86 58 87
REMARK SMILES IDX 54 88 55 89 56 90 57 91
REMARK H PARENT 4 8 18 15 81 44 49 55
REMARK Flexibility Score: inf
ROOT
ATOM      1  C   UNL     1       4.335  -1.038   0.071  1.00  0.00     0.274 C 
ENDROOT
BRANCH   1   2
ATOM      2  O   UNL     1       3.145  -0.517   0.697  1.00  0.00    -0.461 OA
BRANCH   2   3
ATOM      3  C   UNL     1       2.786   0.787   0.757  1.00  0.00     0.325 C 
ATOM      4  O   UNL     1       1.775   1.109   1.380  1.00  0.00    -0.250 OA
BRANCH   3   5
ATOM      5  C   UNL     1       3.647   1.849   0.072  1.00  0.00     0.239 C 
BRANCH   5   6
ATOM      6  N   UNL     1       4.851   2.232   0.792  1.00  0.00    -0.340 N 
ATOM      7  C   UNL     1       6.168   2.123   0.431  1.00  0.00     0.269 C 
ATOM      8  H   UNL     1       4.696   2.631   1.678  1.00  0.00     0.164 HD
ATOM      9  O   UNL     1       7.020   2.316   1.296  1.00  0.00    -0.268 OA
BRANCH   7  10
ATOM     10  C   UNL     1       6.529   1.663  -0.883  1.00  0.00     0.123 A 
ATOM     11  C   UNL     1       6.058   1.881  -2.164  1.00  0.00     0.064 A 
ATOM     12  N   UNL     1       7.597   0.826  -1.059  1.00  0.00    -0.272 N 
ATOM     13  C   UNL     1       6.776   0.982  -3.003  1.00  0.00     0.093 A 
ATOM     14  N   UNL     1       7.679   0.295  -2.287  1.00  0.00    -0.175 NA
ATOM     15  H   UNL     1       8.248   0.631  -0.347  1.00  0.00     0.190 HD
BRANCH  13  16
ATOM     16  C   UNL     1       6.598   0.732  -4.433  1.00  0.00     0.002 A 
ATOM     17  C   UNL     1       6.392   1.786  -5.333  1.00  0.00     0.012 A 
ATOM     18  C   UNL     1       6.631  -0.584  -4.923  1.00  0.00     0.012 A 
ATOM     19  C   UNL     1       6.234   1.528  -6.700  1.00  0.00     0.021 A 
ATOM     20  C   UNL     1       6.466  -0.842  -6.287  1.00  0.00     0.021 A 
ATOM     21  C   UNL     1       6.274   0.217  -7.170  1.00  0.00     0.041 A 
ATOM     22  Cl  UNL     1       6.098  -0.100  -8.852  1.00  0.00    -0.084 Cl
ENDBRANCH  13  16
ENDBRANCH   7  10
ENDBRANCH   5   6
ENDBRANCH   3   5
ENDBRANCH   2   3
ENDBRANCH   1   2
BRANCH   1  23
ATOM     23  C   UNL     1       4.067  -1.553  -1.343  1.00  0.00     0.275 C 
BRANCH  23  24
ATOM     24  O   UNL     1       3.626  -0.483  -2.195  1.00  0.00    -0.458 OA
BRANCH  24  25
ATOM     25  C   UNL     1       2.293  -0.428  -2.446  1.00  0.00     0.338 C 
ATOM     26  O   UNL     1       1.456  -1.251  -2.122  1.00  0.00    -0.246 OA
BRANCH  25  27
ATOM     27  C   UNL     1       1.981   0.917  -2.982  1.00  0.00     0.060 A 
ATOM     28  C   UNL     1       0.892   1.609  -2.442  1.00  0.00     0.016 A 
ATOM     29  C   UNL     1       2.790   1.528  -3.946  1.00  0.00     0.016 A 
ATOM     30  C   UNL     1       0.615   2.914  -2.861  1.00  0.00     0.010 A 
ATOM     31  C   UNL     1       2.522   2.839  -4.351  1.00  0.00     0.010 A 
ATOM     32  C   UNL     1       1.426   3.541  -3.819  1.00  0.00    -0.014 A 
BRANCH  32  33
ATOM     33  C   UNL     1       1.087   4.898  -4.326  1.00  0.00     0.031 A 
ATOM     34  C   UNL     1       0.469   5.043  -5.691  1.00  0.00     0.074 A 
ATOM     35  C   UNL     1       1.338   5.995  -3.584  1.00  0.00     0.049 A 
ATOM     36  N   UNL     1       0.129   6.131  -6.333  1.00  0.00    -0.248 NA
ATOM     37  C   UNL     1       0.209   3.799  -6.431  1.00  0.00     0.031 C 
ATOM     38  C   UNL     1       1.926   5.995  -2.244  1.00  0.00     0.029 A 
ATOM     39  N   UNL     1       1.141   7.327  -3.860  1.00  0.00    -0.354 N 
ATOM     40  C   UNL     1      -0.387   5.706  -7.552  1.00  0.00     0.074 A 
ATOM     41  C   UNL     1      -0.275   4.262  -7.575  1.00  0.00     0.031 C 
ATOM     42  C   UNL     1       2.050   7.265  -1.821  1.00  0.00     0.029 A 
ATOM     43  C   UNL     1       1.582   8.172  -2.867  1.00  0.00     0.049 A 
ATOM     44  H   UNL     1       0.722   7.647  -4.691  1.00  0.00     0.167 HD
ATOM     45  C   UNL     1      -0.918   6.447  -8.555  1.00  0.00     0.034 A 
ATOM     46  C   UNL     1       1.625   9.521  -2.816  1.00  0.00     0.034 A 
ATOM     47  C   UNL     1      -1.037   7.883  -8.529  1.00  0.00     0.049 A 
ATOM     48  C   UNL     1       1.100  10.324  -3.985  1.00  0.00     0.074 A 
ATOM     49  C   UNL     1      -1.629   8.713  -9.466  1.00  0.00     0.029 A 
ATOM     50  N   UNL     1      -0.539   8.705  -7.529  1.00  0.00    -0.354 N 
ATOM     51  N   UNL     1       0.555   9.900  -5.102  1.00  0.00    -0.248 NA
ATOM     52  C   UNL     1       1.194  11.788  -3.883  1.00  0.00     0.031 C 
ATOM     53  C   UNL     1      -1.424  10.039  -9.069  1.00  0.00     0.029 A 
ATOM     54  C   UNL     1      -0.764  10.034  -7.851  1.00  0.00     0.049 A 
ATOM     55  H   UNL     1      -0.091   8.391  -6.710  1.00  0.00     0.167 HD
ATOM     56  C   UNL     1       0.218  11.048  -5.818  1.00  0.00     0.074 A 
ATOM     57  C   UNL     1       0.604  12.179  -5.003  1.00  0.00     0.031 C 
ATOM     58  C   UNL     1      -0.362  11.157  -7.040  1.00  0.00     0.034 A 
BRANCH  45  59
ATOM     59  C   UNL     1      -1.385   5.717  -9.787  1.00  0.00     0.023 A 
ATOM     60  C   UNL     1      -2.501   4.865  -9.761  1.00  0.00     0.031 A 
ATOM     61  C   UNL     1      -0.707   5.889 -11.006  1.00  0.00     0.131 A 
ATOM     62  C   UNL     1      -2.878   4.177 -10.924  1.00  0.00     0.055 A 
ATOM     63  C   UNL     1      -1.126   5.251 -12.174  1.00  0.00     0.041 A 
ATOM     64  F   UNL     1       0.377   6.677 -11.079  1.00  0.00    -0.206 F 
ATOM     65  C   UNL     1      -2.212   4.382 -12.136  1.00  0.00     0.022 A 
BRANCH  62  66
ATOM     66  S   UNL     1      -4.194   2.935 -10.809  1.00  0.00     0.124 S 
ATOM     67  O   UNL     1      -3.621   1.985  -9.859  1.00  0.00    -0.237 OA
ATOM     68  O   UNL     1      -5.326   3.718 -10.326  1.00  0.00    -0.237 OA
ATOM     69  O   UNL     1      -4.319   2.440 -12.179  1.00  0.00    -0.744 OA
ENDBRANCH  62  66
ENDBRANCH  45  59
BRANCH  46  70
ATOM     70  C   UNL     1       2.238  10.224  -1.650  1.00  0.00     0.023 A 
ATOM     71  C   UNL     1       1.485  11.097  -0.850  1.00  0.00     0.031 A 
ATOM     72  C   UNL     1       3.616  10.112  -1.388  1.00  0.00     0.131 A 
ATOM     73  C   UNL     1       2.123  11.874   0.131  1.00  0.00     0.055 A 
ATOM     74  C   UNL     1       4.235  10.844  -0.373  1.00  0.00     0.041 A 
ATOM     75  F   UNL     1       4.384   9.294  -2.125  1.00  0.00    -0.206 F 
ATOM     76  C   UNL     1       3.491  11.745   0.381  1.00  0.00     0.022 A 
BRANCH  73  77
ATOM     77  S   UNL     1       1.159  13.148   0.992  1.00  0.00     0.124 S 
ATOM     78  O   UNL     1       0.643  13.934  -0.123  1.00  0.00    -0.237 OA
ATOM     79  O   UNL     1       0.182  12.345   1.719  1.00  0.00    -0.237 OA
ATOM     80  O   UNL     1       2.154  13.821   1.824  1.00  0.00    -0.744 OA
ENDBRANCH  73  77
ENDBRANCH  46  70
BRANCH  58  81
ATOM     81  C   UNL     1      -0.639  12.549  -7.553  1.00  0.00     0.023 A 
ATOM     82  C   UNL     1       0.402  13.422  -7.915  1.00  0.00     0.031 A 
ATOM     83  C   UNL     1      -1.962  13.008  -7.681  1.00  0.00     0.131 A 
ATOM     84  C   UNL     1       0.105  14.724  -8.346  1.00  0.00     0.055 A 
ATOM     85  C   UNL     1      -2.254  14.286  -8.161  1.00  0.00     0.041 A 
ATOM     86  F   UNL     1      -2.995  12.217  -7.348  1.00  0.00    -0.206 F 
ATOM     87  C   UNL     1      -1.217  15.156  -8.486  1.00  0.00     0.022 A 
BRANCH  84  88
ATOM     88  S   UNL     1       1.473  15.873  -8.659  1.00  0.00     0.124 S 
ATOM     89  O   UNL     1       2.114  15.947  -7.350  1.00  0.00    -0.237 OA
ATOM     90  O   UNL     1       2.228  15.185  -9.701  1.00  0.00    -0.237 OA
ATOM     91  O   UNL     1       0.800  17.098  -9.090  1.00  0.00    -0.744 OA
ENDBRANCH  84  88
ENDBRANCH  58  81
ENDBRANCH  32  33
ENDBRANCH  25  27
ENDBRANCH  24  25
ENDBRANCH  23  24
ENDBRANCH   1  23
TORSDOF 17
