REMARK SMILES Cc1c(Cl)cccc1NC(=O)NCc1cn([C@@H]2C[NH2+][C@H](C(=O)OCCOC(=O)c3ccc(-c4c5nc(c(-c6cc(S(=O)(=O)[O-])ccc6F)c6ccc([nH]6)c(-c6cc(S(=O)(=O)[O-])ccc6F)c6nc(c(-c7cc(S(=O)(=O)[O-])ccc7F)c7ccc4[nH]7)C=C6)C=C5)cc3)C2)nn1
REMARK SMILES IDX 24 1 23 2 21 3 22 4 20 5 17 6 18 7 92 8 19 9 16 12 14 13
REMARK SMILES IDX 15 14 94 15 93 16 13 17 12 18 9 19 10 20 11 22 8 24 1 25
REMARK SMILES IDX 2 26 3 27 4 28 5 29 7 30 6 31 25 32 26 33 27 34 28 35 29 36
REMARK SMILES IDX 30 37 91 38 31 39 90 40 32 41 33 42 34 43 84 44 35 45 89 46
REMARK SMILES IDX 83 47 85 48 36 49 88 50 82 51 81 52 37 54 69 55 49 56 68 57
REMARK SMILES IDX 50 58 53 59 67 60 86 61 51 62 52 63 66 65 87 66 54 67 38 68
REMARK SMILES IDX 39 69 47 70 40 71 46 72 48 73 45 74 41 75 42 76 43 77 44 78
REMARK SMILES IDX 70 79 71 80 79 81 72 82 78 83 80 84 77 85 73 86 74 87 75 88
REMARK SMILES IDX 76 89 55 90 56 91 64 92 57 93 63 94 65 95 62 96 58 97 59 98
REMARK SMILES IDX 60 99 61 100
REMARK H PARENT 19 10 19 11 9 21 12 23 85 53 53 64
REMARK Flexibility Score: inf
ROOT
ATOM      1  C   UNL     1      -2.944  -7.365  -0.172  1.00  0.00     0.274 C 
ENDROOT
BRANCH   1   2
ATOM      2  O   UNL     1      -3.136  -6.583   1.018  1.00  0.00    -0.458 OA
BRANCH   2   3
ATOM      3  C   UNL     1      -4.416  -6.213   1.301  1.00  0.00     0.365 C 
ATOM      4  O   UNL     1      -5.338  -6.254   0.490  1.00  0.00    -0.245 OA
BRANCH   3   5
ATOM      5  C   UNL     1      -4.614  -5.817   2.778  1.00  0.00     0.295 C 
ATOM      6  C   UNL     1      -4.768  -3.506   3.543  1.00  0.00     0.170 C 
ATOM      7  C   UNL     1      -3.317  -3.961   3.418  1.00  0.00     0.289 C 
ATOM      8  C   UNL     1      -5.582  -4.645   2.928  1.00  0.00     0.110 C 
ATOM      9  N   UNL     1      -3.354  -5.417   3.451  1.00  0.00    -0.333 N 
ATOM     10  H   UNL     1      -3.348  -5.748   4.416  1.00  0.00     0.347 HD
ATOM     11  H   UNL     1      -2.541  -5.819   2.985  1.00  0.00     0.347 HD
BRANCH   6  12
ATOM     12  N   UNL     1      -4.983  -2.239   2.883  1.00  0.00    -0.243 N 
ATOM     13  C   UNL     1      -4.940  -0.628   1.448  1.00  0.00     0.102 A 
ATOM     14  C   UNL     1      -4.820  -1.993   1.559  1.00  0.00     0.137 A 
ATOM     15  N   UNL     1      -5.248  -0.105   2.673  1.00  0.00    -0.134 NA
ATOM     16  N   UNL     1      -5.272  -1.109   3.552  1.00  0.00    -0.067 NA
BRANCH  13  17
ATOM     17  C   UNL     1      -4.700   0.110   0.197  1.00  0.00     0.178 C 
BRANCH  17  18
ATOM     18  N   UNL     1      -4.463   1.516   0.319  1.00  0.00    -0.332 N 
ATOM     19  N   UNL     1      -2.263   2.065  -0.502  1.00  0.00    -0.308 N 
ATOM     20  C   UNL     1      -3.532   2.348  -0.152  1.00  0.00     0.319 C 
ATOM     21  H   UNL     1      -1.806   2.864  -0.851  1.00  0.00     0.171 HD
ATOM     22  O   UNL     1      -3.841   3.547  -0.185  1.00  0.00    -0.248 OA
ATOM     23  H   UNL     1      -5.138   1.971   0.873  1.00  0.00     0.165 HD
BRANCH  19  24
ATOM     24  C   UNL     1      -1.403   0.948  -0.509  1.00  0.00     0.047 A 
ATOM     25  C   UNL     1       0.569   2.420   0.229  1.00  0.00     0.048 C 
ATOM     26  C   UNL     1      -0.068   1.081  -0.058  1.00  0.00    -0.009 A 
ATOM     27  C   UNL     1       0.722  -0.086   0.072  1.00  0.00     0.046 A 
ATOM     28  Cl  UNL     1       2.360  -0.029   0.633  1.00  0.00    -0.084 Cl
ATOM     29  C   UNL     1       0.220  -1.342  -0.267  1.00  0.00     0.021 A 
ATOM     30  C   UNL     1      -1.789  -0.281  -1.044  1.00  0.00     0.026 A 
ATOM     31  C   UNL     1      -1.026  -1.435  -0.865  1.00  0.00     0.004 A 
ENDBRANCH  19  24
ENDBRANCH  17  18
ENDBRANCH  13  17
ENDBRANCH   6  12
ENDBRANCH   3   5
ENDBRANCH   2   3
ENDBRANCH   1   2
BRANCH   1  32
ATOM     32  C   UNL     1      -2.927  -8.850   0.171  1.00  0.00     0.275 C 
BRANCH  32  33
ATOM     33  O   UNL     1      -4.218  -9.327   0.550  1.00  0.00    -0.458 OA
BRANCH  33  34
ATOM     34  C   UNL     1      -4.432  -9.365   1.888  1.00  0.00     0.338 C 
ATOM     35  O   UNL     1      -3.852  -8.721   2.740  1.00  0.00    -0.246 OA
BRANCH  34  36
ATOM     36  C   UNL     1      -5.374 -10.443   2.210  1.00  0.00     0.060 A 
ATOM     37  C   UNL     1      -5.918 -10.475   3.497  1.00  0.00     0.016 A 
ATOM     38  C   UNL     1      -5.524 -11.512   1.321  1.00  0.00     0.016 A 
ATOM     39  C   UNL     1      -6.537 -11.633   3.930  1.00  0.00     0.010 A 
ATOM     40  C   UNL     1      -6.130 -12.670   1.756  1.00  0.00     0.010 A 
ATOM     41  C   UNL     1      -6.589 -12.738   3.072  1.00  0.00    -0.014 A 
BRANCH  41  42
ATOM     42  C   UNL     1      -7.262 -13.941   3.530  1.00  0.00     0.031 A 
ATOM     43  C   UNL     1      -8.733 -13.800   3.645  1.00  0.00     0.074 A 
ATOM     44  C   UNL     1      -6.633 -15.124   3.669  1.00  0.00     0.049 A 
ATOM     45  N   UNL     1      -9.465 -13.940   4.698  1.00  0.00    -0.248 NA
ATOM     46  C   UNL     1      -9.467 -13.313   2.465  1.00  0.00     0.031 C 
ATOM     47  C   UNL     1      -5.245 -15.438   3.320  1.00  0.00     0.029 A 
ATOM     48  N   UNL     1      -7.142 -16.332   4.044  1.00  0.00    -0.354 N 
ATOM     49  C   UNL     1     -10.777 -13.787   4.265  1.00  0.00     0.074 A 
ATOM     50  C   UNL     1     -10.706 -13.225   2.944  1.00  0.00     0.031 C 
ATOM     51  C   UNL     1      -5.085 -16.779   3.294  1.00  0.00     0.029 A 
ATOM     52  C   UNL     1      -6.315 -17.410   3.746  1.00  0.00     0.049 A 
ATOM     53  H   UNL     1      -8.016 -16.433   4.485  1.00  0.00     0.167 HD
ATOM     54  C   UNL     1     -11.810 -14.369   4.931  1.00  0.00     0.034 A 
ATOM     55  C   UNL     1      -6.629 -18.730   3.806  1.00  0.00     0.034 A 
ATOM     56  C   UNL     1     -11.443 -14.687   6.291  1.00  0.00     0.049 A 
ATOM     57  C   UNL     1      -7.778 -18.867   4.730  1.00  0.00     0.074 A 
ATOM     58  C   UNL     1     -10.997 -13.946   7.369  1.00  0.00     0.029 A 
ATOM     59  N   UNL     1     -11.147 -15.996   6.592  1.00  0.00    -0.354 N 
ATOM     60  N   UNL     1      -7.707 -18.600   6.005  1.00  0.00    -0.248 NA
ATOM     61  C   UNL     1      -9.125 -18.885   4.182  1.00  0.00     0.031 C 
ATOM     62  C   UNL     1     -10.044 -14.780   8.025  1.00  0.00     0.029 A 
ATOM     63  C   UNL     1     -10.003 -16.004   7.353  1.00  0.00     0.049 A 
ATOM     64  H   UNL     1     -11.663 -16.786   6.312  1.00  0.00     0.167 HD
ATOM     65  C   UNL     1      -8.911 -17.985   6.309  1.00  0.00     0.074 A 
ATOM     66  C   UNL     1      -9.790 -18.315   5.192  1.00  0.00     0.031 C 
ATOM     67  C   UNL     1      -8.987 -17.041   7.294  1.00  0.00     0.034 A 
BRANCH  54  68
ATOM     68  C   UNL     1     -13.017 -14.970   4.246  1.00  0.00     0.023 A 
ATOM     69  C   UNL     1     -14.033 -15.504   5.061  1.00  0.00     0.031 A 
ATOM     70  C   UNL     1     -13.095 -15.302   2.872  1.00  0.00     0.131 A 
ATOM     71  C   UNL     1     -15.001 -16.374   4.529  1.00  0.00     0.055 A 
ATOM     72  C   UNL     1     -14.102 -16.108   2.336  1.00  0.00     0.041 A 
ATOM     73  F   UNL     1     -12.154 -14.953   1.986  1.00  0.00    -0.206 F 
ATOM     74  C   UNL     1     -15.047 -16.674   3.170  1.00  0.00     0.022 A 
BRANCH  71  75
ATOM     75  S   UNL     1     -16.090 -17.255   5.676  1.00  0.00     0.124 S 
ATOM     76  O   UNL     1     -15.128 -17.855   6.595  1.00  0.00    -0.237 OA
ATOM     77  O   UNL     1     -16.903 -16.168   6.211  1.00  0.00    -0.237 OA
ATOM     78  O   UNL     1     -16.799 -18.198   4.813  1.00  0.00    -0.744 OA
ENDBRANCH  71  75
ENDBRANCH  54  68
BRANCH  55  79
ATOM     79  C   UNL     1      -6.177 -19.799   2.877  1.00  0.00     0.023 A 
ATOM     80  C   UNL     1      -6.191 -21.168   3.214  1.00  0.00     0.031 A 
ATOM     81  C   UNL     1      -5.933 -19.480   1.521  1.00  0.00     0.131 A 
ATOM     82  C   UNL     1      -5.964 -22.146   2.217  1.00  0.00     0.055 A 
ATOM     83  C   UNL     1      -5.699 -20.449   0.545  1.00  0.00     0.041 A 
ATOM     84  F   UNL     1      -5.997 -18.213   1.083  1.00  0.00    -0.206 F 
ATOM     85  C   UNL     1      -5.721 -21.790   0.888  1.00  0.00     0.022 A 
BRANCH  82  86
ATOM     86  S   UNL     1      -6.071 -23.919   2.624  1.00  0.00     0.124 S 
ATOM     87  O   UNL     1      -4.955 -24.096   3.546  1.00  0.00    -0.237 OA
ATOM     88  O   UNL     1      -7.409 -24.027   3.195  1.00  0.00    -0.237 OA
ATOM     89  O   UNL     1      -5.906 -24.578   1.328  1.00  0.00    -0.744 OA
ENDBRANCH  82  86
ENDBRANCH  55  79
BRANCH  67  90
ATOM     90  C   UNL     1      -7.819 -16.927   8.258  1.00  0.00     0.023 A 
ATOM     91  C   UNL     1      -6.482 -16.662   7.879  1.00  0.00     0.031 A 
ATOM     92  C   UNL     1      -8.101 -16.999   9.633  1.00  0.00     0.131 A 
ATOM     93  C   UNL     1      -5.485 -16.504   8.862  1.00  0.00     0.055 A 
ATOM     94  C   UNL     1      -7.116 -16.818  10.604  1.00  0.00     0.041 A 
ATOM     95  F   UNL     1      -9.355 -17.217  10.062  1.00  0.00    -0.206 F 
ATOM     96  C   UNL     1      -5.801 -16.578  10.222  1.00  0.00     0.022 A 
BRANCH  93  97
ATOM     97  S   UNL     1      -3.750 -16.212   8.385  1.00  0.00     0.124 S 
ATOM     98  O   UNL     1      -3.486 -17.254   7.400  1.00  0.00    -0.237 OA
ATOM     99  O   UNL     1      -3.788 -14.844   7.875  1.00  0.00    -0.237 OA
ATOM    100  O   UNL     1      -3.020 -16.368   9.645  1.00  0.00    -0.744 OA
ENDBRANCH  93  97
ENDBRANCH  67  90
ENDBRANCH  41  42
ENDBRANCH  34  36
ENDBRANCH  33  34
ENDBRANCH  32  33
ENDBRANCH   1  32
TORSDOF 18
