REMARK SMILES CN(CCCC(=O)OCCOC(=O)c1ccc(-c2c3nc(c(-c4cc(S(=O)(=O)[O-])ccc4F)c4ccc([nH]4)c(-c4cc(S(=O)(=O)[O-])ccc4F)c4nc(c(-c5cc(S(=O)(=O)[O-])ccc5F)c5ccc2[nH]5)C=C4)C=C3)cc1)C(=O)c1c[nH]nc1-c1ccccc1
REMARK SMILES IDX 8 1 6 2 7 3 5 4 4 5 3 6 2 7 1 8 77 9 78 10 79 11 80 12 83 13
REMARK SMILES IDX 81 14 82 15 84 17 85 18 89 19 86 20 88 21 87 22 9 23 10 24
REMARK SMILES IDX 11 25 12 26 13 27 14 28 15 29 76 30 16 31 75 32 17 33 18 34
REMARK SMILES IDX 19 35 69 36 20 37 74 38 68 39 70 40 21 41 73 42 67 43 66 44
REMARK SMILES IDX 22 46 54 47 34 48 53 49 35 50 38 51 52 52 71 53 36 54 37 55
REMARK SMILES IDX 51 57 72 58 39 59 23 60 24 61 32 62 25 63 31 64 33 65 30 66
REMARK SMILES IDX 26 67 27 68 28 69 29 70 55 71 56 72 64 73 57 74 63 75 65 76
REMARK SMILES IDX 62 77 58 78 59 79 60 80 61 81 40 82 41 83 49 84 42 85 48 86
REMARK SMILES IDX 50 87 47 88 43 89 44 90 45 91 46 92
REMARK H PARENT 81 16 70 45 38 56
REMARK Flexibility Score: inf
ROOT
ATOM      1  O   UNL     1      -0.125   3.714   2.952  1.00  0.00    -0.462 OA
ENDROOT
BRANCH   1   2
ATOM      2  C   UNL     1      -0.967   2.778   3.461  1.00  0.00     0.305 C 
ATOM      3  O   UNL     1      -1.217   2.647   4.652  1.00  0.00    -0.252 OA
BRANCH   2   4
ATOM      4  C   UNL     1      -1.679   1.984   2.386  1.00  0.00     0.124 C 
BRANCH   4   5
ATOM      5  C   UNL     1      -0.891   1.735   1.112  1.00  0.00     0.033 C 
BRANCH   5   6
ATOM      6  C   UNL     1       0.565   1.312   1.317  1.00  0.00     0.120 C 
BRANCH   6   7
ATOM      7  N   UNL     1       0.793  -0.126   1.445  1.00  0.00    -0.342 N 
ATOM      8  C   UNL     1       1.056  -0.834   0.204  1.00  0.00     0.147 C 
BRANCH   7   9
ATOM      9  C   UNL     1       1.194  -0.773   2.626  1.00  0.00     0.257 C 
ATOM     10  O   UNL     1       1.871  -1.800   2.590  1.00  0.00    -0.269 OA
BRANCH   9  11
ATOM     11  C   UNL     1       0.751  -0.249   3.905  1.00  0.00     0.085 A 
ATOM     12  C   UNL     1      -0.524  -0.368   4.425  1.00  0.00     0.119 A 
ATOM     13  C   UNL     1       1.528   0.201   5.015  1.00  0.00     0.105 A 
ATOM     14  N   UNL     1      -0.479   0.138   5.691  1.00  0.00    -0.284 N 
ATOM     15  N   UNL     1       0.756   0.474   6.080  1.00  0.00    -0.175 NA
ATOM     16  H   UNL     1      -1.275   0.244   6.261  1.00  0.00     0.189 HD
BRANCH  13  17
ATOM     17  C   UNL     1       2.974   0.275   5.146  1.00  0.00     0.003 A 
ATOM     18  C   UNL     1       3.583  -0.454   6.178  1.00  0.00     0.010 A 
ATOM     19  C   UNL     1       3.762   1.034   4.277  1.00  0.00     0.010 A 
ATOM     20  C   UNL     1       4.966  -0.452   6.326  1.00  0.00     0.001 A 
ATOM     21  C   UNL     1       5.151   1.042   4.434  1.00  0.00     0.001 A 
ATOM     22  C   UNL     1       5.751   0.293   5.449  1.00  0.00     0.000 A 
ENDBRANCH  13  17
ENDBRANCH   9  11
ENDBRANCH   7   9
ENDBRANCH   6   7
ENDBRANCH   5   6
ENDBRANCH   4   5
ENDBRANCH   2   4
ENDBRANCH   1   2
BRANCH   1  23
ATOM     23  C   UNL     1       0.460   4.601   3.922  1.00  0.00     0.274 C 
BRANCH  23  24
ATOM     24  C   UNL     1      -0.374   5.878   4.062  1.00  0.00     0.275 C 
BRANCH  24  25
ATOM     25  O   UNL     1      -1.627   5.636   4.731  1.00  0.00    -0.458 OA
BRANCH  25  26
ATOM     26  C   UNL     1      -2.655   5.270   3.931  1.00  0.00     0.338 C 
ATOM     27  O   UNL     1      -2.648   5.201   2.706  1.00  0.00    -0.246 OA
BRANCH  26  28
ATOM     28  C   UNL     1      -3.780   4.801   4.752  1.00  0.00     0.060 A 
ATOM     29  C   UNL     1      -4.124   3.445   4.718  1.00  0.00     0.016 A 
ATOM     30  C   UNL     1      -4.544   5.703   5.489  1.00  0.00     0.016 A 
ATOM     31  C   UNL     1      -5.222   2.974   5.418  1.00  0.00     0.010 A 
ATOM     32  C   UNL     1      -5.662   5.235   6.183  1.00  0.00     0.010 A 
ATOM     33  C   UNL     1      -6.008   3.872   6.138  1.00  0.00    -0.014 A 
BRANCH  33  34
ATOM     34  C   UNL     1      -7.274   3.390   6.724  1.00  0.00     0.031 A 
ATOM     35  C   UNL     1      -8.553   3.706   6.010  1.00  0.00     0.074 A 
ATOM     36  C   UNL     1      -7.259   2.625   7.829  1.00  0.00     0.049 A 
ATOM     37  N   UNL     1      -9.785   3.531   6.402  1.00  0.00    -0.248 NA
ATOM     38  C   UNL     1      -8.421   4.297   4.668  1.00  0.00     0.031 C 
ATOM     39  C   UNL     1      -6.054   2.156   8.516  1.00  0.00     0.029 A 
ATOM     40  N   UNL     1      -8.289   2.107   8.568  1.00  0.00    -0.354 N 
ATOM     41  C   UNL     1     -10.579   4.011   5.367  1.00  0.00     0.074 A 
ATOM     42  C   UNL     1      -9.687   4.497   4.336  1.00  0.00     0.031 C 
ATOM     43  C   UNL     1      -6.418   1.429   9.586  1.00  0.00     0.029 A 
ATOM     44  C   UNL     1      -7.872   1.444   9.699  1.00  0.00     0.049 A 
ATOM     45  H   UNL     1      -9.236   2.200   8.314  1.00  0.00     0.167 HD
ATOM     46  C   UNL     1     -11.931   4.044   5.297  1.00  0.00     0.034 A 
ATOM     47  C   UNL     1      -8.591   0.959  10.729  1.00  0.00     0.034 A 
ATOM     48  C   UNL     1     -12.785   3.557   6.350  1.00  0.00     0.049 A 
ATOM     49  C   UNL     1     -10.093   1.123  10.687  1.00  0.00     0.074 A 
ATOM     50  C   UNL     1     -14.165   3.587   6.431  1.00  0.00     0.029 A 
ATOM     51  N   UNL     1     -12.332   2.945   7.514  1.00  0.00    -0.354 N 
ATOM     52  N   UNL     1     -10.840   1.657   9.746  1.00  0.00    -0.248 NA
ATOM     53  C   UNL     1     -10.846   0.626  11.844  1.00  0.00     0.031 C 
ATOM     54  C   UNL     1     -14.543   3.046   7.665  1.00  0.00     0.029 A 
ATOM     55  C   UNL     1     -13.403   2.609   8.324  1.00  0.00     0.049 A 
ATOM     56  H   UNL     1     -11.387   2.774   7.730  1.00  0.00     0.167 HD
ATOM     57  C   UNL     1     -12.154   1.528  10.187  1.00  0.00     0.074 A 
ATOM     58  C   UNL     1     -12.095   0.852  11.467  1.00  0.00     0.031 C 
ATOM     59  C   UNL     1     -13.308   1.930   9.594  1.00  0.00     0.034 A 
BRANCH  46  60
ATOM     60  C   UNL     1     -12.545   4.692   4.083  1.00  0.00     0.023 A 
ATOM     61  C   UNL     1     -12.412   4.139   2.797  1.00  0.00     0.031 A 
ATOM     62  C   UNL     1     -13.239   5.909   4.209  1.00  0.00     0.131 A 
ATOM     63  C   UNL     1     -12.915   4.830   1.684  1.00  0.00     0.055 A 
ATOM     64  C   UNL     1     -13.800   6.555   3.106  1.00  0.00     0.041 A 
ATOM     65  F   UNL     1     -13.369   6.499   5.407  1.00  0.00    -0.206 F 
ATOM     66  C   UNL     1     -13.629   6.022   1.832  1.00  0.00     0.022 A 
BRANCH  63  67
ATOM     67  S   UNL     1     -12.515   4.216   0.024  1.00  0.00     0.124 S 
ATOM     68  O   UNL     1     -11.057   4.309   0.019  1.00  0.00    -0.237 OA
ATOM     69  O   UNL     1     -13.068   2.867   0.044  1.00  0.00    -0.237 OA
ATOM     70  O   UNL     1     -13.196   5.156  -0.863  1.00  0.00    -0.744 OA
ENDBRANCH  63  67
ENDBRANCH  46  60
BRANCH  47  71
ATOM     71  C   UNL     1      -7.921   0.351  11.916  1.00  0.00     0.023 A 
ATOM     72  C   UNL     1      -8.195  -0.970  12.305  1.00  0.00     0.031 A 
ATOM     73  C   UNL     1      -7.059   1.109  12.731  1.00  0.00     0.131 A 
ATOM     74  C   UNL     1      -7.664  -1.472  13.504  1.00  0.00     0.055 A 
ATOM     75  C   UNL     1      -6.481   0.584  13.887  1.00  0.00     0.041 A 
ATOM     76  F   UNL     1      -6.766   2.381  12.414  1.00  0.00    -0.206 F 
ATOM     77  C   UNL     1      -6.797  -0.709  14.290  1.00  0.00     0.022 A 
BRANCH  74  78
ATOM     78  S   UNL     1      -8.224  -3.096  14.086  1.00  0.00     0.124 S 
ATOM     79  O   UNL     1      -9.671  -2.919  14.108  1.00  0.00    -0.237 OA
ATOM     80  O   UNL     1      -7.701  -3.983  13.052  1.00  0.00    -0.237 OA
ATOM     81  O   UNL     1      -7.590  -3.225  15.396  1.00  0.00    -0.744 OA
ENDBRANCH  74  78
ENDBRANCH  47  71
BRANCH  59  82
ATOM     82  C   UNL     1     -14.591   1.583  10.305  1.00  0.00     0.023 A 
ATOM     83  C   UNL     1     -14.940   2.173  11.531  1.00  0.00     0.031 A 
ATOM     84  C   UNL     1     -15.468   0.634   9.749  1.00  0.00     0.131 A 
ATOM     85  C   UNL     1     -16.108   1.765  12.192  1.00  0.00     0.055 A 
ATOM     86  C   UNL     1     -16.658   0.278  10.381  1.00  0.00     0.041 A 
ATOM     87  F   UNL     1     -15.180   0.041   8.579  1.00  0.00    -0.206 F 
ATOM     88  C   UNL     1     -16.977   0.834  11.617  1.00  0.00     0.022 A 
BRANCH  85  89
ATOM     89  S   UNL     1     -16.429   2.401  13.859  1.00  0.00     0.124 S 
ATOM     90  O   UNL     1     -15.245   1.958  14.587  1.00  0.00    -0.237 OA
ATOM     91  O   UNL     1     -16.535   3.838  13.630  1.00  0.00    -0.237 OA
ATOM     92  O   UNL     1     -17.677   1.742  14.243  1.00  0.00    -0.744 OA
ENDBRANCH  85  89
ENDBRANCH  59  82
ENDBRANCH  33  34
ENDBRANCH  26  28
ENDBRANCH  25  26
ENDBRANCH  24  25
ENDBRANCH  23  24
ENDBRANCH   1  23
TORSDOF 20
