REMARK SMILES [NH3+][C@H](Cc1cnc2ccccc2c1)C(=O)OCCOC(=O)c1ccc(-c2c3nc(c(-c4cc(S(=O)(=O)[O-])ccc4F)c4ccc([nH]4)c(-c4cc(S(=O)(=O)[O-])ccc4F)c4nc(c(-c5cc(S(=O)(=O)[O-])ccc5F)c5ccc2[nH]5)C=C4)C=C3)cc1
REMARK SMILES IDX 18 1 17 2 16 3 14 4 15 5 2 6 1 7 3 11 4 12 5 13 13 14 6 15
REMARK SMILES IDX 12 16 7 17 11 18 8 19 10 20 9 21 19 22 20 23 21 24 22 25
REMARK SMILES IDX 23 26 84 27 24 28 83 29 25 30 26 31 27 32 77 33 28 34 82 35
REMARK SMILES IDX 76 36 78 37 29 38 81 39 75 40 74 41 30 43 62 44 42 45 61 46
REMARK SMILES IDX 43 47 46 48 60 49 79 50 44 51 45 52 59 54 80 55 47 56 31 57
REMARK SMILES IDX 32 58 40 59 33 60 39 61 41 62 38 63 34 64 35 65 36 66 37 67
REMARK SMILES IDX 63 68 64 69 72 70 65 71 71 72 73 73 70 74 66 75 67 76 68 77
REMARK SMILES IDX 69 78 48 79 49 80 57 81 50 82 56 83 58 84 55 85 51 86 52 87
REMARK SMILES IDX 53 88 54 89
REMARK H PARENT 1 8 1 9 1 10 78 42 46 53
REMARK Flexibility Score: inf
ROOT
ATOM      1  C   UNL     1      -3.656   0.419   0.189  1.00  0.00     0.275 C 
ENDROOT
BRANCH   1   2
ATOM      2  C   UNL     1      -3.182  -0.113  -1.170  1.00  0.00     0.274 C 
BRANCH   2   3
ATOM      3  O   UNL     1      -1.754  -0.301  -1.219  1.00  0.00    -0.458 OA
BRANCH   3   4
ATOM      4  C   UNL     1      -1.042   0.756  -1.704  1.00  0.00     0.365 C 
ATOM      5  O   UNL     1      -1.548   1.781  -2.150  1.00  0.00    -0.245 OA
BRANCH   4   6
ATOM      6  C   UNL     1       0.476   0.509  -1.678  1.00  0.00     0.296 C 
BRANCH   6   7
ATOM      7  N   UNL     1       0.893  -0.047  -2.989  1.00  0.00    -0.346 N 
ATOM      8  H   UNL     1       0.515   0.531  -3.739  1.00  0.00     0.345 HD
ATOM      9  H   UNL     1       0.538  -0.999  -3.082  1.00  0.00     0.345 HD
ATOM     10  H   UNL     1       1.911  -0.057  -3.046  1.00  0.00     0.345 HD
ENDBRANCH   6   7
BRANCH   6  11
ATOM     11  C   UNL     1       0.960  -0.243  -0.404  1.00  0.00     0.114 C 
BRANCH  11  12
ATOM     12  C   UNL     1       1.832  -1.436  -0.692  1.00  0.00    -0.022 A 
ATOM     13  C   UNL     1       1.278  -2.698  -0.854  1.00  0.00     0.115 A 
ATOM     14  C   UNL     1       3.195  -1.289  -0.949  1.00  0.00     0.016 A 
ATOM     15  N   UNL     1       1.962  -3.772  -1.304  1.00  0.00    -0.256 NA
ATOM     16  C   UNL     1       3.929  -2.373  -1.438  1.00  0.00     0.000 A 
ATOM     17  C   UNL     1       3.260  -3.603  -1.615  1.00  0.00     0.070 A 
ATOM     18  C   UNL     1       5.282  -2.240  -1.792  1.00  0.00     0.010 A 
ATOM     19  C   UNL     1       3.973  -4.661  -2.160  1.00  0.00     0.029 A 
ATOM     20  C   UNL     1       5.970  -3.317  -2.345  1.00  0.00     0.001 A 
ATOM     21  C   UNL     1       5.313  -4.528  -2.534  1.00  0.00     0.002 A 
ENDBRANCH  11  12
ENDBRANCH   6  11
ENDBRANCH   4   6
ENDBRANCH   3   4
ENDBRANCH   2   3
ENDBRANCH   1   2
BRANCH   1  22
ATOM     22  O   UNL     1      -3.246   1.779   0.429  1.00  0.00    -0.458 OA
BRANCH  22  23
ATOM     23  C   UNL     1      -2.060   1.912   1.069  1.00  0.00     0.338 C 
ATOM     24  O   UNL     1      -1.347   1.010   1.474  1.00  0.00    -0.246 OA
BRANCH  23  25
ATOM     25  C   UNL     1      -1.637   3.322   1.090  1.00  0.00     0.060 A 
ATOM     26  C   UNL     1      -0.394   3.632   0.528  1.00  0.00     0.016 A 
ATOM     27  C   UNL     1      -2.389   4.308   1.730  1.00  0.00     0.016 A 
ATOM     28  C   UNL     1       0.110   4.926   0.610  1.00  0.00     0.010 A 
ATOM     29  C   UNL     1      -1.879   5.609   1.816  1.00  0.00     0.010 A 
ATOM     30  C   UNL     1      -0.621   5.920   1.269  1.00  0.00    -0.014 A 
BRANCH  30  31
ATOM     31  C   UNL     1      -0.017   7.262   1.449  1.00  0.00     0.031 A 
ATOM     32  C   UNL     1       0.543   7.649   2.788  1.00  0.00     0.074 A 
ATOM     33  C   UNL     1       0.071   8.106   0.405  1.00  0.00     0.049 A 
ATOM     34  N   UNL     1       1.062   8.785   3.175  1.00  0.00    -0.248 NA
ATOM     35  C   UNL     1       0.512   6.612   3.829  1.00  0.00     0.031 C 
ATOM     36  C   UNL     1      -0.383   7.813  -0.955  1.00  0.00     0.029 A 
ATOM     37  N   UNL     1       0.575   9.379   0.324  1.00  0.00    -0.354 N 
ATOM     38  C   UNL     1       1.406   8.609   4.511  1.00  0.00     0.074 A 
ATOM     39  C   UNL     1       1.009   7.262   4.870  1.00  0.00     0.031 C 
ATOM     40  C   UNL     1      -0.133   8.877  -1.736  1.00  0.00     0.029 A 
ATOM     41  C   UNL     1       0.450   9.941  -0.924  1.00  0.00     0.049 A 
ATOM     42  H   UNL     1       0.987   9.845   1.087  1.00  0.00     0.167 HD
ATOM     43  C   UNL     1       2.001   9.489   5.355  1.00  0.00     0.034 A 
ATOM     44  C   UNL     1       0.746  11.183  -1.354  1.00  0.00     0.034 A 
ATOM     45  C   UNL     1       2.383  10.829   4.978  1.00  0.00     0.049 A 
ATOM     46  C   UNL     1       1.329  12.172  -0.379  1.00  0.00     0.074 A 
ATOM     47  C   UNL     1       2.986  11.807   5.750  1.00  0.00     0.029 A 
ATOM     48  N   UNL     1       2.189  11.385   3.719  1.00  0.00    -0.354 N 
ATOM     49  N   UNL     1       1.621  12.006   0.891  1.00  0.00    -0.248 NA
ATOM     50  C   UNL     1       1.620  13.515  -0.895  1.00  0.00     0.031 C 
ATOM     51  C   UNL     1       3.101  12.970   4.977  1.00  0.00     0.029 A 
ATOM     52  C   UNL     1       2.634  12.699   3.701  1.00  0.00     0.049 A 
ATOM     53  H   UNL     1       1.793  10.915   2.950  1.00  0.00     0.167 HD
ATOM     54  C   UNL     1       2.150  13.220   1.320  1.00  0.00     0.074 A 
ATOM     55  C   UNL     1       2.147  14.102   0.170  1.00  0.00     0.031 C 
ATOM     56  C   UNL     1       2.604  13.572   2.550  1.00  0.00     0.034 A 
BRANCH  43  57
ATOM     57  C   UNL     1       2.204   9.038   6.782  1.00  0.00     0.023 A 
ATOM     58  C   UNL     1       3.051   7.963   7.108  1.00  0.00     0.031 A 
ATOM     59  C   UNL     1       1.489   9.651   7.826  1.00  0.00     0.131 A 
ATOM     60  C   UNL     1       3.097   7.482   8.426  1.00  0.00     0.055 A 
ATOM     61  C   UNL     1       1.601   9.219   9.149  1.00  0.00     0.041 A 
ATOM     62  F   UNL     1       0.648  10.666   7.574  1.00  0.00    -0.206 F 
ATOM     63  C   UNL     1       2.394   8.117   9.453  1.00  0.00     0.022 A 
BRANCH  60  64
ATOM     64  S   UNL     1       3.954   5.915   8.747  1.00  0.00     0.124 S 
ATOM     65  O   UNL     1       3.264   5.007   7.834  1.00  0.00    -0.237 OA
ATOM     66  O   UNL     1       5.335   6.236   8.408  1.00  0.00    -0.237 OA
ATOM     67  O   UNL     1       3.699   5.670  10.166  1.00  0.00    -0.744 OA
ENDBRANCH  60  64
ENDBRANCH  43  57
BRANCH  44  68
ATOM     68  C   UNL     1       0.450  11.577  -2.759  1.00  0.00     0.023 A 
ATOM     69  C   UNL     1       1.480  11.883  -3.662  1.00  0.00     0.031 A 
ATOM     70  C   UNL     1      -0.878  11.678  -3.211  1.00  0.00     0.131 A 
ATOM     71  C   UNL     1       1.165  12.303  -4.964  1.00  0.00     0.055 A 
ATOM     72  C   UNL     1      -1.185  12.053  -4.519  1.00  0.00     0.041 A 
ATOM     73  F   UNL     1      -1.899  11.396  -2.386  1.00  0.00    -0.206 F 
ATOM     74  C   UNL     1      -0.160  12.377  -5.402  1.00  0.00     0.022 A 
BRANCH  71  75
ATOM     75  S   UNL     1       2.513  12.806  -6.067  1.00  0.00     0.124 S 
ATOM     76  O   UNL     1       3.096  13.924  -5.335  1.00  0.00    -0.237 OA
ATOM     77  O   UNL     1       3.321  11.592  -6.133  1.00  0.00    -0.237 OA
ATOM     78  O   UNL     1       1.825  13.161  -7.306  1.00  0.00    -0.744 OA
ENDBRANCH  71  75
ENDBRANCH  44  68
BRANCH  56  79
ATOM     79  C   UNL     1       3.168  14.964   2.693  1.00  0.00     0.023 A 
ATOM     80  C   UNL     1       2.350  16.105   2.617  1.00  0.00     0.031 A 
ATOM     81  C   UNL     1       4.549  15.148   2.885  1.00  0.00     0.131 A 
ATOM     82  C   UNL     1       2.928  17.382   2.681  1.00  0.00     0.055 A 
ATOM     83  C   UNL     1       5.110  16.420   3.001  1.00  0.00     0.041 A 
ATOM     84  F   UNL     1       5.374  14.092   2.962  1.00  0.00    -0.206 F 
ATOM     85  C   UNL     1       4.300  17.546   2.886  1.00  0.00     0.022 A 
BRANCH  82  86
ATOM     86  S   UNL     1       1.872  18.832   2.408  1.00  0.00     0.124 S 
ATOM     87  O   UNL     1       1.343  18.575   1.072  1.00  0.00    -0.237 OA
ATOM     88  O   UNL     1       0.914  18.732   3.504  1.00  0.00    -0.237 OA
ATOM     89  O   UNL     1       2.802  19.956   2.500  1.00  0.00    -0.744 OA
ENDBRANCH  82  86
ENDBRANCH  56  79
ENDBRANCH  30  31
ENDBRANCH  23  25
ENDBRANCH  22  23
ENDBRANCH   1  22
TORSDOF 17
