REMARK SMILES Cn1nc(N2CCC(CC(=O)OCCOC(=O)c3ccc(-c4c5nc(c(-c6cc(S(=O)(=O)[O-])ccc6F)c6ccc([nH]6)c(-c6cc(S(=O)(=O)[O-])ccc6F)c6nc(c(-c7cc(S(=O)(=O)[O-])ccc7F)c7ccc4[nH]7)C=C6)C=C5)cc3)CC2)c(=O)n(C)c1=O
REMARK SMILES IDX 14 1 13 2 12 3 10 4 11 5 9 6 8 7 5 8 6 9 82 10 7 11 81 12
REMARK SMILES IDX 4 13 1 14 2 15 3 16 87 17 85 18 88 19 83 20 86 21 84 22
REMARK SMILES IDX 15 23 16 24 17 25 18 26 19 27 80 28 20 29 79 30 21 31 22 32
REMARK SMILES IDX 23 33 73 34 24 35 78 36 72 37 74 38 25 39 77 40 71 41 70 42
REMARK SMILES IDX 26 44 58 45 38 46 57 47 39 48 42 49 56 50 75 51 40 52 41 53
REMARK SMILES IDX 55 55 76 56 43 57 27 58 28 59 36 60 29 61 35 62 37 63 34 64
REMARK SMILES IDX 30 65 31 66 32 67 33 68 59 69 60 70 68 71 61 72 67 73 69 74
REMARK SMILES IDX 66 75 62 76 63 77 64 78 65 79 44 80 45 81 53 82 46 83 52 84
REMARK SMILES IDX 54 85 51 86 47 87 48 88 49 89 50 90
REMARK H PARENT 74 43 42 54
REMARK Flexibility Score: inf
ROOT
ATOM      1  C   UNL     1       7.862  -8.013   1.826  1.00  0.00     0.275 C 
ENDROOT
BRANCH   1   2
ATOM      2  C   UNL     1       8.104  -6.552   1.445  1.00  0.00     0.274 C 
BRANCH   2   3
ATOM      3  O   UNL     1       6.972  -6.000   0.746  1.00  0.00    -0.462 OA
BRANCH   3   4
ATOM      4  C   UNL     1       7.079  -5.896  -0.602  1.00  0.00     0.306 C 
ATOM      5  O   UNL     1       8.080  -6.191  -1.244  1.00  0.00    -0.252 OA
BRANCH   4   6
ATOM      6  C   UNL     1       5.848  -5.293  -1.250  1.00  0.00     0.126 C 
BRANCH   6   7
ATOM      7  C   UNL     1       4.490  -5.680  -0.635  1.00  0.00     0.003 C 
ATOM      8  N   UNL     1       1.806  -4.887   0.067  1.00  0.00    -0.351 N 
ATOM      9  C   UNL     1       2.770  -5.083   1.133  1.00  0.00     0.118 C 
ATOM     10  C   UNL     1       1.972  -5.753  -1.093  1.00  0.00     0.118 C 
ATOM     11  C   UNL     1       4.178  -4.830   0.612  1.00  0.00     0.026 C 
ATOM     12  C   UNL     1       3.366  -5.519  -1.686  1.00  0.00     0.026 C 
BRANCH   8  13
ATOM     13  C   UNL     1       0.951  -3.798   0.046  1.00  0.00     0.215 A 
ATOM     14  C   UNL     1       1.106  -0.214   0.214  1.00  0.00     0.180 C 
ATOM     15  N   UNL     1       0.522  -1.540   0.157  1.00  0.00    -0.216 N 
ATOM     16  N   UNL     1       1.402  -2.585   0.199  1.00  0.00    -0.145 NA
ATOM     17  C   UNL     1      -0.862  -1.656   0.066  1.00  0.00     0.346 A 
ATOM     18  N   UNL     1      -1.361  -2.936  -0.048  1.00  0.00    -0.259 N 
ATOM     19  O   UNL     1      -1.594  -0.662   0.084  1.00  0.00    -0.246 OA
ATOM     20  C   UNL     1      -0.552  -4.050  -0.121  1.00  0.00     0.299 A 
ATOM     21  C   UNL     1      -2.790  -3.154  -0.109  1.00  0.00     0.159 C 
ATOM     22  O   UNL     1      -0.961  -5.198  -0.262  1.00  0.00    -0.265 OA
ENDBRANCH   8  13
ENDBRANCH   6   7
ENDBRANCH   4   6
ENDBRANCH   3   4
ENDBRANCH   2   3
ENDBRANCH   1   2
BRANCH   1  23
ATOM     23  O   UNL     1       7.868  -8.859   0.664  1.00  0.00    -0.458 OA
BRANCH  23  24
ATOM     24  C   UNL     1       6.648  -9.129   0.141  1.00  0.00     0.338 C 
ATOM     25  O   UNL     1       5.565  -8.791   0.584  1.00  0.00    -0.246 OA
BRANCH  24  26
ATOM     26  C   UNL     1       6.819  -9.810  -1.151  1.00  0.00     0.060 A 
ATOM     27  C   UNL     1       6.471  -9.122  -2.316  1.00  0.00     0.016 A 
ATOM     28  C   UNL     1       7.256 -11.135  -1.207  1.00  0.00     0.016 A 
ATOM     29  C   UNL     1       6.556  -9.761  -3.550  1.00  0.00     0.010 A 
ATOM     30  C   UNL     1       7.340 -11.774  -2.447  1.00  0.00     0.010 A 
ATOM     31  C   UNL     1       6.980 -11.094  -3.624  1.00  0.00    -0.014 A 
BRANCH  31  32
ATOM     32  C   UNL     1       6.987 -11.793  -4.932  1.00  0.00     0.031 A 
ATOM     33  C   UNL     1       5.891 -12.767  -5.259  1.00  0.00     0.074 A 
ATOM     34  C   UNL     1       7.944 -11.519  -5.838  1.00  0.00     0.049 A 
ATOM     35  N   UNL     1       5.746 -13.525  -6.314  1.00  0.00    -0.248 NA
ATOM     36  C   UNL     1       4.812 -12.900  -4.267  1.00  0.00     0.031 C 
ATOM     37  C   UNL     1       9.018 -10.540  -5.659  1.00  0.00     0.029 A 
ATOM     38  N   UNL     1       8.161 -12.028  -7.092  1.00  0.00    -0.354 N 
ATOM     39  C   UNL     1       4.563 -14.227  -6.117  1.00  0.00     0.074 A 
ATOM     40  C   UNL     1       4.044 -13.823  -4.826  1.00  0.00     0.031 C 
ATOM     41  C   UNL     1       9.769 -10.508  -6.772  1.00  0.00     0.029 A 
ATOM     42  C   UNL     1       9.262 -11.496  -7.721  1.00  0.00     0.049 A 
ATOM     43  H   UNL     1       7.584 -12.711  -7.504  1.00  0.00     0.167 HD
ATOM     44  C   UNL     1       3.962 -15.118  -6.941  1.00  0.00     0.034 A 
ATOM     45  C   UNL     1       9.811 -11.789  -8.917  1.00  0.00     0.034 A 
ATOM     46  C   UNL     1       4.491 -15.517  -8.221  1.00  0.00     0.049 A 
ATOM     47  C   UNL     1       9.186 -12.864  -9.766  1.00  0.00     0.074 A 
ATOM     48  C   UNL     1       3.973 -16.431  -9.122  1.00  0.00     0.029 A 
ATOM     49  N   UNL     1       5.660 -15.023  -8.784  1.00  0.00    -0.354 N 
ATOM     50  N   UNL     1       8.105 -13.572  -9.535  1.00  0.00    -0.248 NA
ATOM     51  C   UNL     1       9.862 -13.190 -11.029  1.00  0.00     0.031 C 
ATOM     52  C   UNL     1       4.854 -16.528 -10.204  1.00  0.00     0.029 A 
ATOM     53  C   UNL     1       5.892 -15.631 -10.008  1.00  0.00     0.049 A 
ATOM     54  H   UNL     1       6.240 -14.341  -8.374  1.00  0.00     0.167 HD
ATOM     55  C   UNL     1       7.965 -14.418 -10.630  1.00  0.00     0.074 A 
ATOM     56  C   UNL     1       9.067 -14.128 -11.526  1.00  0.00     0.031 C 
ATOM     57  C   UNL     1       7.008 -15.347 -10.876  1.00  0.00     0.034 A 
BRANCH  44  58
ATOM     58  C   UNL     1       2.686 -15.755  -6.460  1.00  0.00     0.023 A 
ATOM     59  C   UNL     1       1.493 -15.021  -6.354  1.00  0.00     0.031 A 
ATOM     60  C   UNL     1       2.663 -17.115  -6.104  1.00  0.00     0.131 A 
ATOM     61  C   UNL     1       0.335 -15.640  -5.861  1.00  0.00     0.055 A 
ATOM     62  C   UNL     1       1.494 -17.740  -5.671  1.00  0.00     0.041 A 
ATOM     63  F   UNL     1       3.781 -17.855  -6.168  1.00  0.00    -0.206 F 
ATOM     64  C   UNL     1       0.322 -17.000  -5.540  1.00  0.00     0.022 A 
BRANCH  61  65
ATOM     65  S   UNL     1      -1.139 -14.626  -5.568  1.00  0.00     0.124 S 
ATOM     66  O   UNL     1      -0.678 -13.742  -4.500  1.00  0.00    -0.237 OA
ATOM     67  O   UNL     1      -1.358 -13.999  -6.866  1.00  0.00    -0.237 OA
ATOM     68  O   UNL     1      -2.152 -15.601  -5.169  1.00  0.00    -0.744 OA
ENDBRANCH  61  65
ENDBRANCH  44  58
BRANCH  45  69
ATOM     69  C   UNL     1      11.045 -11.087  -9.364  1.00  0.00     0.023 A 
ATOM     70  C   UNL     1      11.018 -10.199 -10.450  1.00  0.00     0.031 A 
ATOM     71  C   UNL     1      12.274 -11.308  -8.717  1.00  0.00     0.131 A 
ATOM     72  C   UNL     1      12.204  -9.578 -10.871  1.00  0.00     0.055 A 
ATOM     73  C   UNL     1      13.443 -10.659  -9.116  1.00  0.00     0.041 A 
ATOM     74  F   UNL     1      12.349 -12.148  -7.673  1.00  0.00    -0.206 F 
ATOM     75  C   UNL     1      13.413  -9.792 -10.204  1.00  0.00     0.022 A 
BRANCH  72  76
ATOM     76  S   UNL     1      12.154  -8.501 -12.330  1.00  0.00     0.124 S 
ATOM     77  O   UNL     1      11.807  -9.447 -13.385  1.00  0.00    -0.237 OA
ATOM     78  O   UNL     1      11.121  -7.538 -11.965  1.00  0.00    -0.237 OA
ATOM     79  O   UNL     1      13.510  -7.959 -12.399  1.00  0.00    -0.744 OA
ENDBRANCH  72  76
ENDBRANCH  45  69
BRANCH  57  80
ATOM     80  C   UNL     1       7.099 -16.103 -12.174  1.00  0.00     0.023 A 
ATOM     81  C   UNL     1       8.068 -17.100 -12.373  1.00  0.00     0.031 A 
ATOM     82  C   UNL     1       6.183 -15.844 -13.208  1.00  0.00     0.131 A 
ATOM     83  C   UNL     1       8.117 -17.787 -13.596  1.00  0.00     0.055 A 
ATOM     84  C   UNL     1       6.211 -16.558 -14.406  1.00  0.00     0.041 A 
ATOM     85  F   UNL     1       5.237 -14.902 -13.062  1.00  0.00    -0.206 F 
ATOM     86  C   UNL     1       7.185 -17.533 -14.607  1.00  0.00     0.022 A 
BRANCH  83  87
ATOM     87  S   UNL     1       9.436 -19.003 -13.863  1.00  0.00     0.124 S 
ATOM     88  O   UNL     1      10.628 -18.160 -13.862  1.00  0.00    -0.237 OA
ATOM     89  O   UNL     1       9.284 -19.893 -12.717  1.00  0.00    -0.237 OA
ATOM     90  O   UNL     1       9.097 -19.597 -15.155  1.00  0.00    -0.744 OA
ENDBRANCH  83  87
ENDBRANCH  57  80
ENDBRANCH  31  32
ENDBRANCH  24  26
ENDBRANCH  23  24
ENDBRANCH   1  23
TORSDOF 16
