REMARK SMILES COc1ccc([C@H](C)[N@H+]2CC[C@H](C(=O)OCCOC(=O)c3ccc(-c4c5nc(c(-c6cc(S(=O)(=O)[O-])ccc6F)c6ccc([nH]6)c(-c6cc(S(=O)(=O)[O-])ccc6F)c6nc(c(-c7cc(S(=O)(=O)[O-])ccc7F)c7ccc4[nH]7)C=C6)C=C5)cc3)[C@@H]2C)cc1
REMARK SMILES IDX 16 1 15 2 13 3 14 4 12 5 9 6 10 7 84 8 11 10 85 11 7 12 8 13
REMARK SMILES IDX 6 14 3 15 4 16 87 17 5 18 86 19 2 20 1 21 17 22 18 23 19 24
REMARK SMILES IDX 20 25 21 26 22 27 83 28 23 29 82 30 24 31 25 32 26 33 76 34
REMARK SMILES IDX 27 35 81 36 75 37 77 38 28 39 80 40 74 41 73 42 29 44 61 45
REMARK SMILES IDX 41 46 60 47 42 48 45 49 59 50 78 51 43 52 44 53 58 55 79 56
REMARK SMILES IDX 46 57 30 58 31 59 39 60 32 61 38 62 40 63 37 64 33 65 34 66
REMARK SMILES IDX 35 67 36 68 62 69 63 70 71 71 64 72 70 73 72 74 69 75 65 76
REMARK SMILES IDX 66 77 67 78 68 79 47 80 48 81 56 82 49 83 55 84 57 85 54 86
REMARK SMILES IDX 50 87 51 88 52 89 53 90
REMARK H PARENT 9 9 77 43 45 54
REMARK Flexibility Score: inf
ROOT
ATOM      1  C   UNL     1      -2.610  -0.867   8.226  1.00  0.00     0.274 C 
ENDROOT
BRANCH   1   2
ATOM      2  O   UNL     1      -1.976  -0.070   7.214  1.00  0.00    -0.462 OA
BRANCH   2   3
ATOM      3  C   UNL     1      -1.474   1.135   7.607  1.00  0.00     0.315 C 
ATOM      4  O   UNL     1      -1.735   1.686   8.665  1.00  0.00    -0.252 OA
BRANCH   3   5
ATOM      5  C   UNL     1      -0.586   1.693   6.514  1.00  0.00     0.162 C 
ATOM      6  N   UNL     1       0.924   3.581   6.320  1.00  0.00    -0.326 N 
ATOM      7  C   UNL     1      -0.431   4.045   6.020  1.00  0.00     0.264 C 
ATOM      8  C   UNL     1       0.780   2.250   6.947  1.00  0.00     0.196 C 
ATOM      9  H   UNL     1       1.353   4.261   6.947  1.00  0.00     0.348 HD
ATOM     10  C   UNL     1      -1.280   2.814   5.757  1.00  0.00     0.083 C 
ATOM     11  C   UNL     1       1.067   2.369   8.441  1.00  0.00     0.076 C 
BRANCH   6  12
ATOM     12  C   UNL     1       1.904   3.590   5.205  1.00  0.00     0.212 C 
ATOM     13  C   UNL     1       1.409   2.856   3.943  1.00  0.00     0.081 C 
BRANCH  12  14
ATOM     14  C   UNL     1       2.481   4.971   4.865  1.00  0.00     0.009 A 
ATOM     15  C   UNL     1       3.669   7.456   4.176  1.00  0.00     0.118 A 
ATOM     16  C   UNL     1       2.745   7.370   5.218  1.00  0.00     0.047 A 
ATOM     17  C   UNL     1       4.041   6.293   3.511  1.00  0.00     0.047 A 
ATOM     18  C   UNL     1       2.159   6.143   5.562  1.00  0.00     0.013 A 
ATOM     19  C   UNL     1       3.464   5.069   3.861  1.00  0.00     0.013 A 
BRANCH  15  20
ATOM     20  O   UNL     1       4.158   8.708   3.923  1.00  0.00    -0.497 OA
ATOM     21  C   UNL     1       4.868   8.872   2.701  1.00  0.00     0.278 C 
ENDBRANCH  15  20
ENDBRANCH  12  14
ENDBRANCH   6  12
ENDBRANCH   3   5
ENDBRANCH   2   3
ENDBRANCH   1   2
BRANCH   1  22
ATOM     22  C   UNL     1      -1.818  -2.161   8.431  1.00  0.00     0.275 C 
BRANCH  22  23
ATOM     23  O   UNL     1      -0.452  -1.898   8.807  1.00  0.00    -0.458 OA
BRANCH  23  24
ATOM     24  C   UNL     1       0.427  -1.837   7.770  1.00  0.00     0.338 C 
ATOM     25  O   UNL     1       0.158  -1.976   6.592  1.00  0.00    -0.246 OA
BRANCH  24  26
ATOM     26  C   UNL     1       1.777  -1.446   8.248  1.00  0.00     0.060 A 
ATOM     27  C   UNL     1       2.591  -0.733   7.361  1.00  0.00     0.016 A 
ATOM     28  C   UNL     1       2.255  -1.766   9.523  1.00  0.00     0.016 A 
ATOM     29  C   UNL     1       3.849  -0.285   7.759  1.00  0.00     0.010 A 
ATOM     30  C   UNL     1       3.541  -1.360   9.907  1.00  0.00     0.010 A 
ATOM     31  C   UNL     1       4.342  -0.614   9.027  1.00  0.00    -0.014 A 
BRANCH  31  32
ATOM     32  C   UNL     1       5.762  -0.310   9.333  1.00  0.00     0.031 A 
ATOM     33  C   UNL     1       6.811  -1.280   8.868  1.00  0.00     0.074 A 
ATOM     34  C   UNL     1       6.116   0.844   9.928  1.00  0.00     0.049 A 
ATOM     35  N   UNL     1       8.113  -1.183   8.914  1.00  0.00    -0.248 NA
ATOM     36  C   UNL     1       6.316  -2.521   8.253  1.00  0.00     0.031 C 
ATOM     37  C   UNL     1       5.189   1.886  10.366  1.00  0.00     0.029 A 
ATOM     38  N   UNL     1       7.356   1.339  10.251  1.00  0.00    -0.354 N 
ATOM     39  C   UNL     1       8.598  -2.333   8.300  1.00  0.00     0.074 A 
ATOM     40  C   UNL     1       7.447  -3.132   7.935  1.00  0.00     0.031 C 
ATOM     41  C   UNL     1       5.894   2.899  10.901  1.00  0.00     0.029 A 
ATOM     42  C   UNL     1       7.319   2.571  10.865  1.00  0.00     0.049 A 
ATOM     43  H   UNL     1       8.193   0.859  10.060  1.00  0.00     0.167 HD
ATOM     44  C   UNL     1       9.884  -2.686   8.057  1.00  0.00     0.034 A 
ATOM     45  C   UNL     1       8.321   3.335  11.348  1.00  0.00     0.034 A 
ATOM     46  C   UNL     1      11.021  -1.913   8.493  1.00  0.00     0.049 A 
ATOM     47  C   UNL     1       9.747   2.854  11.184  1.00  0.00     0.074 A 
ATOM     48  C   UNL     1      12.367  -2.198   8.345  1.00  0.00     0.029 A 
ATOM     49  N   UNL     1      10.946  -0.713   9.191  1.00  0.00    -0.354 N 
ATOM     50  N   UNL     1      10.195   1.771  10.588  1.00  0.00    -0.248 NA
ATOM     51  C   UNL     1      10.803   3.708  11.744  1.00  0.00     0.031 C 
ATOM     52  C   UNL     1      13.100  -1.218   9.022  1.00  0.00     0.029 A 
ATOM     53  C   UNL     1      12.219  -0.266   9.511  1.00  0.00     0.049 A 
ATOM     54  H   UNL     1      10.110  -0.248   9.424  1.00  0.00     0.167 HD
ATOM     55  C   UNL     1      11.585   1.839  10.667  1.00  0.00     0.074 A 
ATOM     56  C   UNL     1      11.899   3.075  11.354  1.00  0.00     0.031 C 
ATOM     57  C   UNL     1      12.519   0.966  10.206  1.00  0.00     0.034 A 
BRANCH  44  58
ATOM     58  C   UNL     1      10.107  -4.002   7.353  1.00  0.00     0.023 A 
ATOM     59  C   UNL     1       9.655  -4.221   6.038  1.00  0.00     0.031 A 
ATOM     60  C   UNL     1      10.723  -5.072   8.024  1.00  0.00     0.131 A 
ATOM     61  C   UNL     1       9.755  -5.499   5.468  1.00  0.00     0.055 A 
ATOM     62  C   UNL     1      10.896  -6.319   7.420  1.00  0.00     0.041 A 
ATOM     63  F   UNL     1      11.147  -4.932   9.290  1.00  0.00    -0.206 F 
ATOM     64  C   UNL     1      10.395  -6.543   6.140  1.00  0.00     0.022 A 
BRANCH  61  65
ATOM     65  S   UNL     1       8.892  -5.822   3.905  1.00  0.00     0.124 S 
ATOM     66  O   UNL     1       7.512  -5.496   4.257  1.00  0.00    -0.237 OA
ATOM     67  O   UNL     1       9.551  -4.904   2.984  1.00  0.00    -0.237 OA
ATOM     68  O   UNL     1       9.145  -7.241   3.660  1.00  0.00    -0.744 OA
ENDBRANCH  61  65
ENDBRANCH  44  58
BRANCH  45  69
ATOM     69  C   UNL     1       8.033   4.613  12.068  1.00  0.00     0.023 A 
ATOM     70  C   UNL     1       8.530   5.846  11.611  1.00  0.00     0.031 A 
ATOM     71  C   UNL     1       7.324   4.604  13.284  1.00  0.00     0.131 A 
ATOM     72  C   UNL     1       8.362   7.003  12.391  1.00  0.00     0.055 A 
ATOM     73  C   UNL     1       7.105   5.768  14.024  1.00  0.00     0.041 A 
ATOM     74  F   UNL     1       6.836   3.455  13.777  1.00  0.00    -0.206 F 
ATOM     75  C   UNL     1       7.639   6.975  13.586  1.00  0.00     0.022 A 
BRANCH  72  76
ATOM     76  S   UNL     1       9.199   8.532  11.881  1.00  0.00     0.124 S 
ATOM     77  O   UNL     1      10.594   8.110  11.852  1.00  0.00    -0.237 OA
ATOM     78  O   UNL     1       8.582   8.799  10.586  1.00  0.00    -0.237 OA
ATOM     79  O   UNL     1       8.855   9.479  12.940  1.00  0.00    -0.744 OA
ENDBRANCH  72  76
ENDBRANCH  45  69
BRANCH  57  80
ATOM     80  C   UNL     1      13.972   1.349  10.383  1.00  0.00     0.023 A 
ATOM     81  C   UNL     1      14.560   1.488  11.653  1.00  0.00     0.031 A 
ATOM     82  C   UNL     1      14.777   1.596   9.255  1.00  0.00     0.131 A 
ATOM     83  C   UNL     1      15.888   1.930  11.765  1.00  0.00     0.055 A 
ATOM     84  C   UNL     1      16.119   1.963   9.373  1.00  0.00     0.041 A 
ATOM     85  F   UNL     1      14.273   1.482   8.016  1.00  0.00    -0.206 F 
ATOM     86  C   UNL     1      16.676   2.150  10.633  1.00  0.00     0.022 A 
BRANCH  83  87
ATOM     87  S   UNL     1      16.537   2.331  13.412  1.00  0.00     0.124 S 
ATOM     88  O   UNL     1      15.570   3.313  13.889  1.00  0.00    -0.237 OA
ATOM     89  O   UNL     1      16.512   1.034  14.080  1.00  0.00    -0.237 OA
ATOM     90  O   UNL     1      17.872   2.859  13.135  1.00  0.00    -0.744 OA
ENDBRANCH  83  87
ENDBRANCH  57  80
ENDBRANCH  31  32
ENDBRANCH  24  26
ENDBRANCH  23  24
ENDBRANCH  22  23
ENDBRANCH   1  22
TORSDOF 17
