REMARK SMILES C=CCN(CC(=O)OCCOC(=O)c1ccc(-c2c3nc(c(-c4cc(S(=O)(=O)[O-])ccc4F)c4ccc([nH]4)c(-c4cc(S(=O)(=O)[O-])ccc4F)c4nc(c(-c5cc(S(=O)(=O)[O-])ccc5F)c5ccc2[nH]5)C=C4)C=C3)cc1)c1nc2ccccc2s1
REMARK SMILES IDX 9 1 8 2 6 3 7 4 5 5 4 6 3 7 2 8 1 9 77 10 78 11 85 12 79 13
REMARK SMILES IDX 84 14 80 15 83 16 81 17 82 18 10 19 11 20 12 21 13 22 14 23
REMARK SMILES IDX 15 24 76 25 16 26 75 27 17 28 18 29 19 30 69 31 20 32 74 33
REMARK SMILES IDX 68 34 70 35 21 36 73 37 67 38 66 39 22 41 54 42 34 43 53 44
REMARK SMILES IDX 35 45 38 46 52 47 71 48 36 49 37 50 51 52 72 53 39 54 23 55
REMARK SMILES IDX 24 56 32 57 25 58 31 59 33 60 30 61 26 62 27 63 28 64 29 65
REMARK SMILES IDX 55 66 56 67 64 68 57 69 63 70 65 71 62 72 58 73 59 74 60 75
REMARK SMILES IDX 61 76 40 77 41 78 49 79 42 80 48 81 50 82 47 83 43 84 44 85
REMARK SMILES IDX 45 86 46 87
REMARK H PARENT 70 40 38 51
REMARK Flexibility Score: inf
ROOT
ATOM      1  C   UNL     1      -5.671   1.433   1.569  1.00  0.00     0.274 C 
ENDROOT
BRANCH   1   2
ATOM      2  O   UNL     1      -4.243   1.363   1.398  1.00  0.00    -0.461 OA
BRANCH   2   3
ATOM      3  C   UNL     1      -3.637   2.563   1.185  1.00  0.00     0.325 C 
ATOM      4  O   UNL     1      -4.246   3.610   0.965  1.00  0.00    -0.250 OA
BRANCH   3   5
ATOM      5  C   UNL     1      -2.118   2.529   1.213  1.00  0.00     0.241 C 
BRANCH   5   6
ATOM      6  N   UNL     1      -1.489   1.224   1.430  1.00  0.00    -0.333 N 
BRANCH   6   7
ATOM      7  C   UNL     1      -1.137   0.430   0.269  1.00  0.00     0.146 C 
BRANCH   7   8
ATOM      8  C   UNL     1       0.236   0.803  -0.214  1.00  0.00    -0.014 C 
ATOM      9  C   UNL     1       1.219  -0.078  -0.447  1.00  0.00     0.006 C 
ENDBRANCH   7   8
ENDBRANCH   6   7
BRANCH   6  10
ATOM     10  C   UNL     1      -1.160   0.854   2.703  1.00  0.00     0.187 A 
ATOM     11  N   UNL     1      -1.903   1.124   3.756  1.00  0.00    -0.220 NA
ATOM     12  S   UNL     1       0.320   0.038   3.081  1.00  0.00    -0.097 S 
ATOM     13  C   UNL     1      -1.297   0.659   4.922  1.00  0.00     0.084 A 
ATOM     14  C   UNL     1      -0.032   0.103   4.753  1.00  0.00     0.056 A 
ATOM     15  C   UNL     1      -1.830   0.708   6.229  1.00  0.00     0.030 A 
ATOM     16  C   UNL     1       0.750  -0.326   5.838  1.00  0.00     0.021 A 
ATOM     17  C   UNL     1      -1.067   0.271   7.319  1.00  0.00     0.002 A 
ATOM     18  C   UNL     1       0.217  -0.221   7.124  1.00  0.00     0.002 A 
ENDBRANCH   6  10
ENDBRANCH   5   6
ENDBRANCH   3   5
ENDBRANCH   2   3
ENDBRANCH   1   2
BRANCH   1  19
ATOM     19  C   UNL     1      -6.034   1.553   3.049  1.00  0.00     0.275 C 
BRANCH  19  20
ATOM     20  O   UNL     1      -5.296   2.628   3.650  1.00  0.00    -0.458 OA
BRANCH  20  21
ATOM     21  C   UNL     1      -5.082   2.489   4.981  1.00  0.00     0.338 C 
ATOM     22  O   UNL     1      -5.603   1.652   5.702  1.00  0.00    -0.246 OA
BRANCH  21  23
ATOM     23  C   UNL     1      -4.103   3.493   5.477  1.00  0.00     0.060 A 
ATOM     24  C   UNL     1      -3.215   4.161   4.626  1.00  0.00     0.016 A 
ATOM     25  C   UNL     1      -4.009   3.696   6.858  1.00  0.00     0.016 A 
ATOM     26  C   UNL     1      -2.209   4.979   5.151  1.00  0.00     0.010 A 
ATOM     27  C   UNL     1      -3.034   4.551   7.380  1.00  0.00     0.010 A 
ATOM     28  C   UNL     1      -2.113   5.186   6.533  1.00  0.00    -0.014 A 
BRANCH  28  29
ATOM     29  C   UNL     1      -1.065   6.062   7.119  1.00  0.00     0.031 A 
ATOM     30  C   UNL     1       0.014   5.479   7.990  1.00  0.00     0.074 A 
ATOM     31  C   UNL     1      -1.118   7.392   6.921  1.00  0.00     0.049 A 
ATOM     32  N   UNL     1       0.896   6.086   8.744  1.00  0.00    -0.248 NA
ATOM     33  C   UNL     1       0.097   4.013   8.025  1.00  0.00     0.031 C 
ATOM     34  C   UNL     1      -2.090   8.082   6.071  1.00  0.00     0.029 A 
ATOM     35  N   UNL     1      -0.347   8.403   7.437  1.00  0.00    -0.354 N 
ATOM     36  C   UNL     1       1.628   5.077   9.363  1.00  0.00     0.074 A 
ATOM     37  C   UNL     1       1.059   3.820   8.917  1.00  0.00     0.031 C 
ATOM     38  C   UNL     1      -1.856   9.402   6.123  1.00  0.00     0.029 A 
ATOM     39  C   UNL     1      -0.763   9.657   7.057  1.00  0.00     0.049 A 
ATOM     40  H   UNL     1       0.428   8.246   8.023  1.00  0.00     0.167 HD
ATOM     41  C   UNL     1       2.679   5.191  10.216  1.00  0.00     0.034 A 
ATOM     42  C   UNL     1      -0.340  10.875   7.444  1.00  0.00     0.034 A 
ATOM     43  C   UNL     1       3.232   6.455  10.652  1.00  0.00     0.049 A 
ATOM     44  C   UNL     1       0.770  10.983   8.455  1.00  0.00     0.074 A 
ATOM     45  C   UNL     1       4.296   6.686  11.509  1.00  0.00     0.029 A 
ATOM     46  N   UNL     1       2.762   7.707  10.269  1.00  0.00    -0.354 N 
ATOM     47  N   UNL     1       1.431  10.026   9.063  1.00  0.00    -0.248 NA
ATOM     48  C   UNL     1       1.188  12.339   8.829  1.00  0.00     0.031 C 
ATOM     49  C   UNL     1       4.430   8.069  11.690  1.00  0.00     0.029 A 
ATOM     50  C   UNL     1       3.498   8.708  10.889  1.00  0.00     0.049 A 
ATOM     51  H   UNL     1       2.014   7.861   9.647  1.00  0.00     0.167 HD
ATOM     52  C   UNL     1       2.367  10.667   9.869  1.00  0.00     0.074 A 
ATOM     53  C   UNL     1       2.187  12.090   9.663  1.00  0.00     0.031 C 
ATOM     54  C   UNL     1       3.300  10.126  10.694  1.00  0.00     0.034 A 
BRANCH  41  55
ATOM     55  C   UNL     1       3.259   3.910  10.772  1.00  0.00     0.023 A 
ATOM     56  C   UNL     1       3.856   2.942   9.944  1.00  0.00     0.031 A 
ATOM     57  C   UNL     1       3.177   3.633  12.149  1.00  0.00     0.131 A 
ATOM     58  C   UNL     1       4.273   1.715  10.486  1.00  0.00     0.055 A 
ATOM     59  C   UNL     1       3.672   2.446  12.695  1.00  0.00     0.041 A 
ATOM     60  F   UNL     1       2.598   4.505  12.989  1.00  0.00    -0.206 F 
ATOM     61  C   UNL     1       4.210   1.472  11.860  1.00  0.00     0.022 A 
BRANCH  58  62
ATOM     62  S   UNL     1       4.761   0.384   9.353  1.00  0.00     0.124 S 
ATOM     63  O   UNL     1       3.545   0.205   8.562  1.00  0.00    -0.237 OA
ATOM     64  O   UNL     1       5.900   0.964   8.653  1.00  0.00    -0.237 OA
ATOM     65  O   UNL     1       5.078  -0.728  10.247  1.00  0.00    -0.744 OA
ENDBRANCH  58  62
ENDBRANCH  41  55
BRANCH  42  66
ATOM     66  C   UNL     1      -0.989  12.097   6.896  1.00  0.00     0.023 A 
ATOM     67  C   UNL     1      -0.282  12.965   6.051  1.00  0.00     0.031 A 
ATOM     68  C   UNL     1      -2.316  12.423   7.225  1.00  0.00     0.131 A 
ATOM     69  C   UNL     1      -0.896  14.138   5.587  1.00  0.00     0.055 A 
ATOM     70  C   UNL     1      -2.938  13.567   6.723  1.00  0.00     0.041 A 
ATOM     71  F   UNL     1      -3.034  11.620   8.027  1.00  0.00    -0.206 F 
ATOM     72  C   UNL     1      -2.223  14.437   5.906  1.00  0.00     0.022 A 
BRANCH  69  73
ATOM     73  S   UNL     1       0.088  15.297   4.600  1.00  0.00     0.124 S 
ATOM     74  O   UNL     1       1.153  15.651   5.531  1.00  0.00    -0.237 OA
ATOM     75  O   UNL     1       0.478  14.472   3.462  1.00  0.00    -0.237 OA
ATOM     76  O   UNL     1      -0.857  16.369   4.294  1.00  0.00    -0.744 OA
ENDBRANCH  69  73
ENDBRANCH  42  66
BRANCH  54  77
ATOM     77  C   UNL     1       4.232  11.091  11.387  1.00  0.00     0.023 A 
ATOM     78  C   UNL     1       3.779  11.985  12.375  1.00  0.00     0.031 A 
ATOM     79  C   UNL     1       5.587  11.149  11.015  1.00  0.00     0.131 A 
ATOM     80  C   UNL     1       4.659  12.939  12.911  1.00  0.00     0.055 A 
ATOM     81  C   UNL     1       6.470  12.063  11.591  1.00  0.00     0.041 A 
ATOM     82  F   UNL     1       6.072  10.323  10.075  1.00  0.00    -0.206 F 
ATOM     83  C   UNL     1       6.004  12.976  12.533  1.00  0.00     0.022 A 
BRANCH  80  84
ATOM     84  S   UNL     1       3.998  14.205  14.031  1.00  0.00     0.124 S 
ATOM     85  O   UNL     1       2.949  14.813  13.220  1.00  0.00    -0.237 OA
ATOM     86  O   UNL     1       3.546  13.409  15.167  1.00  0.00    -0.237 OA
ATOM     87  O   UNL     1       5.152  15.063  14.297  1.00  0.00    -0.744 OA
ENDBRANCH  80  84
ENDBRANCH  54  77
ENDBRANCH  28  29
ENDBRANCH  21  23
ENDBRANCH  20  21
ENDBRANCH  19  20
ENDBRANCH   1  19
TORSDOF 18
