REMARK SMILES COC(=O)[C@H]1CCN(S(=O)(=O)N2CCC[C@H](C(=O)OCCOC(=O)c3ccc(-c4c5nc(c(-c6cc(S(=O)(=O)[O-])ccc6F)c6ccc([nH]6)c(-c6cc(S(=O)(=O)[O-])ccc6F)c6nc(c(-c7cc(S(=O)(=O)[O-])ccc7F)c7ccc4[nH]7)C=C6)C=C5)cc3)C2)C1
REMARK SMILES IDX 20 1 19 2 17 3 18 4 16 5 12 6 13 7 88 8 14 9 15 10 9 11
REMARK SMILES IDX 10 12 11 13 8 14 5 15 6 16 89 17 7 18 3 19 4 20 2 21 1 22
REMARK SMILES IDX 21 23 22 24 23 25 24 26 25 27 26 28 87 29 27 30 86 31 28 32
REMARK SMILES IDX 29 33 30 34 80 35 31 36 85 37 79 38 81 39 32 40 84 41 78 42
REMARK SMILES IDX 77 43 33 45 65 46 45 47 64 48 46 49 49 50 63 51 82 52 47 53
REMARK SMILES IDX 48 54 62 56 83 57 50 58 34 59 35 60 43 61 36 62 42 63 44 64
REMARK SMILES IDX 41 65 37 66 38 67 39 68 40 69 66 70 67 71 75 72 68 73 74 74
REMARK SMILES IDX 76 75 73 76 69 77 70 78 71 79 72 80 51 81 52 82 60 83 53 84
REMARK SMILES IDX 59 85 61 86 58 87 54 88 55 89 56 90 57 91
REMARK H PARENT 81 44 49 55
REMARK Flexibility Score: inf
ROOT
ATOM      1  C   UNL     1      -5.118  -9.531   1.569  1.00  0.00     0.274 C 
ENDROOT
BRANCH   1   2
ATOM      2  O   UNL     1      -3.684  -9.472   1.485  1.00  0.00    -0.462 OA
BRANCH   2   3
ATOM      3  C   UNL     1      -3.112  -8.404   2.089  1.00  0.00     0.310 C 
ATOM      4  O   UNL     1      -3.739  -7.478   2.597  1.00  0.00    -0.252 OA
BRANCH   3   5
ATOM      5  C   UNL     1      -1.597  -8.436   2.091  1.00  0.00     0.114 C 
ATOM      6  N   UNL     1      -1.291  -7.703  -0.215  1.00  0.00    -0.188 NA
ATOM      7  C   UNL     1      -0.480  -8.886  -0.578  1.00  0.00     0.103 C 
ATOM      8  C   UNL     1      -1.138  -7.314   1.195  1.00  0.00     0.118 C 
ATOM      9  C   UNL     1      -0.890 -10.079   0.286  1.00  0.00     0.018 C 
ATOM     10  C   UNL     1      -0.891  -9.750   1.773  1.00  0.00     0.018 C 
BRANCH   6  11
ATOM     11  S   UNL     1      -1.376  -6.454  -1.332  1.00  0.00     0.282 S 
ATOM     12  O   UNL     1      -2.397  -5.515  -0.924  1.00  0.00    -0.195 OA
ATOM     13  O   UNL     1      -1.394  -7.046  -2.648  1.00  0.00    -0.195 OA
BRANCH  11  14
ATOM     14  N   UNL     1       0.135  -5.709  -1.099  1.00  0.00    -0.188 NA
ATOM     15  C   UNL     1       0.969  -3.571  -1.882  1.00  0.00     0.116 C 
ATOM     16  C   UNL     1       0.161  -3.374  -0.616  1.00  0.00     0.033 C 
ATOM     17  C   UNL     1       0.635  -4.998  -2.310  1.00  0.00     0.118 C 
ATOM     18  C   UNL     1       0.250  -4.740   0.031  1.00  0.00     0.104 C 
BRANCH  15  19
ATOM     19  C   UNL     1       0.591  -2.641  -3.003  1.00  0.00     0.310 C 
ATOM     20  O   UNL     1      -0.183  -1.700  -2.926  1.00  0.00    -0.252 OA
BRANCH  19  21
ATOM     21  O   UNL     1       1.241  -3.036  -4.136  1.00  0.00    -0.469 OA
ATOM     22  C   UNL     1       0.777  -2.429  -5.340  1.00  0.00     0.282 C 
ENDBRANCH  19  21
ENDBRANCH  15  19
ENDBRANCH  11  14
ENDBRANCH   6  11
ENDBRANCH   3   5
ENDBRANCH   2   3
ENDBRANCH   1   2
BRANCH   1  23
ATOM     23  C   UNL     1      -5.553 -10.398   2.753  1.00  0.00     0.275 C 
BRANCH  23  24
ATOM     24  O   UNL     1      -5.216  -9.792   4.019  1.00  0.00    -0.458 OA
BRANCH  24  25
ATOM     25  C   UNL     1      -4.013 -10.160   4.517  1.00  0.00     0.338 C 
ATOM     26  O   UNL     1      -3.232 -10.961   4.030  1.00  0.00    -0.246 OA
BRANCH  25  27
ATOM     27  C   UNL     1      -3.673  -9.384   5.717  1.00  0.00     0.060 A 
ATOM     28  C   UNL     1      -2.737  -8.358   5.599  1.00  0.00     0.016 A 
ATOM     29  C   UNL     1      -4.101  -9.795   6.974  1.00  0.00     0.016 A 
ATOM     30  C   UNL     1      -2.138  -7.809   6.722  1.00  0.00     0.010 A 
ATOM     31  C   UNL     1      -3.562  -9.181   8.111  1.00  0.00     0.010 A 
ATOM     32  C   UNL     1      -2.544  -8.215   7.994  1.00  0.00    -0.014 A 
BRANCH  32  33
ATOM     33  C   UNL     1      -1.845  -7.671   9.185  1.00  0.00     0.031 A 
ATOM     34  C   UNL     1      -1.064  -8.598  10.076  1.00  0.00     0.074 A 
ATOM     35  C   UNL     1      -1.869  -6.348   9.434  1.00  0.00     0.049 A 
ATOM     36  N   UNL     1      -0.478  -8.351  11.219  1.00  0.00    -0.248 NA
ATOM     37  C   UNL     1      -0.939  -9.991   9.623  1.00  0.00     0.031 C 
ATOM     38  C   UNL     1      -2.529  -5.341   8.597  1.00  0.00     0.029 A 
ATOM     39  N   UNL     1      -1.319  -5.617  10.456  1.00  0.00    -0.354 N 
ATOM     40  C   UNL     1       0.055  -9.565  11.641  1.00  0.00     0.074 A 
ATOM     41  C   UNL     1      -0.314 -10.552  10.647  1.00  0.00     0.031 C 
ATOM     42  C   UNL     1      -2.321  -4.126   9.125  1.00  0.00     0.029 A 
ATOM     43  C   UNL     1      -1.592  -4.272  10.379  1.00  0.00     0.049 A 
ATOM     44  H   UNL     1      -0.780  -6.018  11.175  1.00  0.00     0.167 HD
ATOM     45  C   UNL     1       0.788  -9.826  12.752  1.00  0.00     0.034 A 
ATOM     46  C   UNL     1      -1.321  -3.274  11.242  1.00  0.00     0.034 A 
ATOM     47  C   UNL     1       1.148  -8.820  13.723  1.00  0.00     0.049 A 
ATOM     48  C   UNL     1      -0.591  -3.606  12.517  1.00  0.00     0.074 A 
ATOM     49  C   UNL     1       1.879  -8.967  14.889  1.00  0.00     0.029 A 
ATOM     50  N   UNL     1       0.800  -7.476  13.644  1.00  0.00    -0.354 N 
ATOM     51  N   UNL     1      -0.129  -4.765  12.930  1.00  0.00    -0.248 NA
ATOM     52  C   UNL     1      -0.344  -2.494  13.441  1.00  0.00     0.031 C 
ATOM     53  C   UNL     1       1.905  -7.734  15.551  1.00  0.00     0.029 A 
ATOM     54  C   UNL     1       1.275  -6.792  14.754  1.00  0.00     0.049 A 
ATOM     55  H   UNL     1       0.290  -7.069  12.907  1.00  0.00     0.167 HD
ATOM     56  C   UNL     1       0.500  -4.510  14.146  1.00  0.00     0.074 A 
ATOM     57  C   UNL     1       0.370  -3.087  14.386  1.00  0.00     0.031 C 
ATOM     58  C   UNL     1       1.132  -5.372  14.984  1.00  0.00     0.034 A 
BRANCH  45  59
ATOM     59  C   UNL     1       1.187 -11.264  12.997  1.00  0.00     0.023 A 
ATOM     60  C   UNL     1       2.005 -11.975  12.101  1.00  0.00     0.031 A 
ATOM     61  C   UNL     1       0.694 -11.954  14.120  1.00  0.00     0.131 A 
ATOM     62  C   UNL     1       2.230 -13.347  12.293  1.00  0.00     0.055 A 
ATOM     63  C   UNL     1       1.001 -13.296  14.356  1.00  0.00     0.041 A 
ATOM     64  F   UNL     1      -0.113 -11.341  15.000  1.00  0.00    -0.206 F 
ATOM     65  C   UNL     1       1.757 -14.006  13.429  1.00  0.00     0.022 A 
BRANCH  62  66
ATOM     66  S   UNL     1       2.998 -14.293  10.949  1.00  0.00     0.124 S 
ATOM     67  O   UNL     1       2.080 -14.032   9.842  1.00  0.00    -0.237 OA
ATOM     68  O   UNL     1       4.316 -13.679  10.843  1.00  0.00    -0.237 OA
ATOM     69  O   UNL     1       2.987 -15.667  11.447  1.00  0.00    -0.744 OA
ENDBRANCH  62  66
ENDBRANCH  45  59
BRANCH  46  70
ATOM     70  C   UNL     1      -1.772  -1.881  10.958  1.00  0.00     0.023 A 
ATOM     71  C   UNL     1      -0.844  -0.838  10.822  1.00  0.00     0.031 A 
ATOM     72  C   UNL     1      -3.140  -1.561  10.868  1.00  0.00     0.131 A 
ATOM     73  C   UNL     1      -1.293   0.481  10.655  1.00  0.00     0.055 A 
ATOM     74  C   UNL     1      -3.580  -0.257  10.637  1.00  0.00     0.041 A 
ATOM     75  F   UNL     1      -4.072  -2.519  10.993  1.00  0.00    -0.206 F 
ATOM     76  C   UNL     1      -2.654   0.776  10.545  1.00  0.00     0.022 A 
BRANCH  73  77
ATOM     77  S   UNL     1      -0.072   1.821  10.688  1.00  0.00     0.124 S 
ATOM     78  O   UNL     1       0.547   1.626  11.994  1.00  0.00    -0.237 OA
ATOM     79  O   UNL     1       0.758   1.502   9.531  1.00  0.00    -0.237 OA
ATOM     80  O   UNL     1      -0.886   3.027  10.555  1.00  0.00    -0.744 OA
ENDBRANCH  73  77
ENDBRANCH  46  70
BRANCH  58  81
ATOM     81  C   UNL     1       1.787  -4.774  16.208  1.00  0.00     0.023 A 
ATOM     82  C   UNL     1       1.043  -4.138  17.217  1.00  0.00     0.031 A 
ATOM     83  C   UNL     1       3.187  -4.811  16.345  1.00  0.00     0.131 A 
ATOM     84  C   UNL     1       1.705  -3.496  18.274  1.00  0.00     0.055 A 
ATOM     85  C   UNL     1       3.834  -4.239  17.441  1.00  0.00     0.041 A 
ATOM     86  F   UNL     1       3.951  -5.399  15.411  1.00  0.00    -0.206 F 
ATOM     87  C   UNL     1       3.094  -3.560  18.404  1.00  0.00     0.022 A 
BRANCH  84  88
ATOM     88  S   UNL     1       0.735  -2.461  19.405  1.00  0.00     0.124 S 
ATOM     89  O   UNL     1       0.098  -1.524  18.486  1.00  0.00    -0.237 OA
ATOM     90  O   UNL     1      -0.148  -3.434  20.038  1.00  0.00    -0.237 OA
ATOM     91  O   UNL     1       1.746  -1.876  20.286  1.00  0.00    -0.744 OA
ENDBRANCH  84  88
ENDBRANCH  58  81
ENDBRANCH  32  33
ENDBRANCH  25  27
ENDBRANCH  24  25
ENDBRANCH  23  24
ENDBRANCH   1  23
TORSDOF 18
