REMARK SMILES CC(C)C[C@@H](NC(=O)Cn1nc(O)ccc1=O)C(=O)OCCOC(=O)c1ccc(-c2c3nc(c(-c4cc(S(=O)(=O)[O-])ccc4F)c4ccc([nH]4)c(-c4cc(S(=O)(=O)[O-])ccc4F)c4nc(c(-c5cc(S(=O)(=O)[O-])ccc5F)c5ccc2[nH]5)C=C4)C=C3)cc1
REMARK SMILES IDX 21 1 20 2 18 3 19 4 5 5 4 6 2 7 1 8 3 9 6 10 7 11 8 13 9 14
REMARK SMILES IDX 10 15 11 16 16 17 12 18 15 19 17 20 14 21 13 22 22 24 23 25
REMARK SMILES IDX 24 26 25 27 26 28 27 29 88 30 28 31 87 32 29 33 30 34 31 35
REMARK SMILES IDX 81 36 32 37 86 38 80 39 82 40 33 41 85 42 79 43 78 44 34 46
REMARK SMILES IDX 66 47 46 48 65 49 47 50 50 51 64 52 83 53 48 54 49 55 63 57
REMARK SMILES IDX 84 58 51 59 35 60 36 61 44 62 37 63 43 64 45 65 42 66 38 67
REMARK SMILES IDX 39 68 40 69 41 70 67 71 68 72 76 73 69 74 75 75 77 76 74 77
REMARK SMILES IDX 70 78 71 79 72 80 73 81 52 82 53 83 61 84 54 85 60 86 62 87
REMARK SMILES IDX 59 88 55 89 56 90 57 91 58 92
REMARK H PARENT 6 12 13 23 82 45 50 56
REMARK Flexibility Score: inf
ROOT
ATOM      1  C   UNL     1      -5.183   0.072  -1.695  1.00  0.00     0.274 C 
ENDROOT
BRANCH   1   2
ATOM      2  O   UNL     1      -3.790  -0.224  -1.473  1.00  0.00    -0.461 OA
BRANCH   2   3
ATOM      3  C   UNL     1      -2.880   0.272  -2.334  1.00  0.00     0.328 C 
ATOM      4  O   UNL     1      -3.139   1.068  -3.229  1.00  0.00    -0.250 OA
BRANCH   3   5
ATOM      5  C   UNL     1      -1.502  -0.405  -2.165  1.00  0.00     0.192 C 
BRANCH   5   6
ATOM      6  C   UNL     1      -1.153  -1.039  -0.805  1.00  0.00     0.040 C 
BRANCH   6   7
ATOM      7  C   UNL     1       0.374  -1.125  -0.544  1.00  0.00    -0.015 C 
ATOM      8  C   UNL     1       0.990   0.238  -0.209  1.00  0.00     0.007 C 
ATOM      9  C   UNL     1       0.669  -2.101   0.598  1.00  0.00     0.007 C 
ENDBRANCH   6   7
ENDBRANCH   5   6
BRANCH   5  10
ATOM     10  N   UNL     1      -1.157  -1.318  -3.268  1.00  0.00    -0.341 N 
ATOM     11  C   UNL     1      -1.628  -2.567  -3.570  1.00  0.00     0.242 C 
ATOM     12  H   UNL     1      -0.477  -0.973  -3.891  1.00  0.00     0.164 HD
ATOM     13  O   UNL     1      -0.885  -3.298  -4.233  1.00  0.00    -0.273 OA
BRANCH  11  14
ATOM     14  C   UNL     1      -3.034  -3.025  -3.160  1.00  0.00     0.248 C 
BRANCH  14  15
ATOM     15  N   UNL     1      -3.161  -4.044  -2.114  1.00  0.00    -0.217 N 
ATOM     16  N   UNL     1      -2.792  -5.340  -2.437  1.00  0.00    -0.131 NA
ATOM     17  C   UNL     1      -3.793  -3.726  -0.917  1.00  0.00     0.267 A 
ATOM     18  C   UNL     1      -3.094  -6.237  -1.569  1.00  0.00     0.229 A 
ATOM     19  C   UNL     1      -4.094  -4.831   0.015  1.00  0.00     0.079 A 
ATOM     20  O   UNL     1      -4.181  -2.611  -0.600  1.00  0.00    -0.268 OA
ATOM     21  C   UNL     1      -3.788  -6.087  -0.302  1.00  0.00     0.075 A 
BRANCH  18  22
ATOM     22  O   UNL     1      -2.758  -7.511  -1.796  1.00  0.00    -0.492 OA
ATOM     23  H   UNL     1      -2.303  -7.742  -2.582  1.00  0.00     0.295 HD
ENDBRANCH  18  22
ENDBRANCH  14  15
ENDBRANCH  11  14
ENDBRANCH   5  10
ENDBRANCH   3   5
ENDBRANCH   2   3
ENDBRANCH   1   2
BRANCH   1  24
ATOM     24  C   UNL     1      -5.939  -0.066  -0.368  1.00  0.00     0.275 C 
BRANCH  24  25
ATOM     25  O   UNL     1      -5.605   1.046   0.471  1.00  0.00    -0.458 OA
BRANCH  25  26
ATOM     26  C   UNL     1      -4.404   0.953   1.106  1.00  0.00     0.338 C 
ATOM     27  O   UNL     1      -3.806  -0.043   1.439  1.00  0.00    -0.246 OA
BRANCH  26  28
ATOM     28  C   UNL     1      -3.828   2.310   1.036  1.00  0.00     0.060 A 
ATOM     29  C   UNL     1      -4.636   3.424   1.270  1.00  0.00     0.016 A 
ATOM     30  C   UNL     1      -2.508   2.458   0.594  1.00  0.00     0.016 A 
ATOM     31  C   UNL     1      -4.134   4.689   1.010  1.00  0.00     0.010 A 
ATOM     32  C   UNL     1      -2.004   3.727   0.332  1.00  0.00     0.010 A 
ATOM     33  C   UNL     1      -2.824   4.842   0.528  1.00  0.00    -0.014 A 
BRANCH  33  34
ATOM     34  C   UNL     1      -2.297   6.207   0.369  1.00  0.00     0.031 A 
ATOM     35  C   UNL     1      -2.334   6.898  -0.952  1.00  0.00     0.074 A 
ATOM     36  C   UNL     1      -1.862   6.821   1.482  1.00  0.00     0.049 A 
ATOM     37  N   UNL     1      -2.148   8.163  -1.210  1.00  0.00    -0.248 NA
ATOM     38  C   UNL     1      -2.617   6.070  -2.135  1.00  0.00     0.031 C 
ATOM     39  C   UNL     1      -1.773   6.180   2.796  1.00  0.00     0.029 A 
ATOM     40  N   UNL     1      -1.450   8.105   1.700  1.00  0.00    -0.354 N 
ATOM     41  C   UNL     1      -2.324   8.299  -2.580  1.00  0.00     0.074 A 
ATOM     42  C   UNL     1      -2.577   6.974  -3.107  1.00  0.00     0.031 C 
ATOM     43  C   UNL     1      -1.369   7.088   3.694  1.00  0.00     0.029 A 
ATOM     44  C   UNL     1      -1.162   8.365   3.018  1.00  0.00     0.049 A 
ATOM     45  H   UNL     1      -1.368   8.777   0.985  1.00  0.00     0.167 HD
ATOM     46  C   UNL     1      -2.296   9.439  -3.309  1.00  0.00     0.034 A 
ATOM     47  C   UNL     1      -0.801   9.515   3.618  1.00  0.00     0.034 A 
ATOM     48  C   UNL     1      -2.011  10.733  -2.737  1.00  0.00     0.049 A 
ATOM     49  C   UNL     1      -0.772  10.767   2.784  1.00  0.00     0.074 A 
ATOM     50  C   UNL     1      -1.991  11.963  -3.369  1.00  0.00     0.029 A 
ATOM     51  N   UNL     1      -1.687  10.963  -1.405  1.00  0.00    -0.354 N 
ATOM     52  N   UNL     1      -1.058  10.910   1.509  1.00  0.00    -0.248 NA
ATOM     53  C   UNL     1      -0.401  12.013   3.460  1.00  0.00     0.031 C 
ATOM     54  C   UNL     1      -1.590  12.923  -2.438  1.00  0.00     0.029 A 
ATOM     55  C   UNL     1      -1.429  12.309  -1.204  1.00  0.00     0.049 A 
ATOM     56  H   UNL     1      -1.647  10.271  -0.707  1.00  0.00     0.167 HD
ATOM     57  C   UNL     1      -0.911  12.264   1.232  1.00  0.00     0.074 A 
ATOM     58  C   UNL     1      -0.546  12.900   2.483  1.00  0.00     0.031 C 
ATOM     59  C   UNL     1      -1.057  12.919   0.052  1.00  0.00     0.034 A 
BRANCH  46  60
ATOM     60  C   UNL     1      -2.596   9.367  -4.786  1.00  0.00     0.023 A 
ATOM     61  C   UNL     1      -1.625   9.754  -5.729  1.00  0.00     0.031 A 
ATOM     62  C   UNL     1      -3.885   9.050  -5.252  1.00  0.00     0.131 A 
ATOM     63  C   UNL     1      -1.969   9.848  -7.084  1.00  0.00     0.055 A 
ATOM     64  C   UNL     1      -4.212   9.111  -6.608  1.00  0.00     0.041 A 
ATOM     65  F   UNL     1      -4.849   8.680  -4.393  1.00  0.00    -0.206 F 
ATOM     66  C   UNL     1      -3.254   9.523  -7.529  1.00  0.00     0.022 A 
BRANCH  63  67
ATOM     67  S   UNL     1      -0.782  10.453  -8.315  1.00  0.00     0.124 S 
ATOM     68  O   UNL     1      -0.721   9.332  -9.251  1.00  0.00    -0.237 OA
ATOM     69  O   UNL     1      -1.449  11.650  -8.820  1.00  0.00    -0.237 OA
ATOM     70  O   UNL     1       0.435  10.685  -7.545  1.00  0.00    -0.744 OA
ENDBRANCH  63  67
ENDBRANCH  46  60
BRANCH  47  71
ATOM     71  C   UNL     1      -0.552   9.505   5.087  1.00  0.00     0.023 A 
ATOM     72  C   UNL     1       0.467   8.702   5.634  1.00  0.00     0.031 A 
ATOM     73  C   UNL     1      -1.422  10.162   5.971  1.00  0.00     0.131 A 
ATOM     74  C   UNL     1       0.539   8.514   7.020  1.00  0.00     0.055 A 
ATOM     75  C   UNL     1      -1.302  10.028   7.356  1.00  0.00     0.041 A 
ATOM     76  F   UNL     1      -2.424  10.918   5.498  1.00  0.00    -0.206 F 
ATOM     77  C   UNL     1      -0.330   9.184   7.885  1.00  0.00     0.022 A 
BRANCH  74  78
ATOM     78  S   UNL     1       1.654   7.269   7.730  1.00  0.00     0.124 S 
ATOM     79  O   UNL     1       2.545   8.089   8.544  1.00  0.00    -0.237 OA
ATOM     80  O   UNL     1       0.724   6.420   8.471  1.00  0.00    -0.237 OA
ATOM     81  O   UNL     1       2.263   6.644   6.560  1.00  0.00    -0.744 OA
ENDBRANCH  74  78
ENDBRANCH  47  71
BRANCH  59  82
ATOM     82  C   UNL     1      -0.793  14.405   0.032  1.00  0.00     0.023 A 
ATOM     83  C   UNL     1      -1.827  15.302  -0.297  1.00  0.00     0.031 A 
ATOM     84  C   UNL     1       0.507  14.913   0.192  1.00  0.00     0.131 A 
ATOM     85  C   UNL     1      -1.533  16.657  -0.495  1.00  0.00     0.055 A 
ATOM     86  C   UNL     1       0.785  16.272   0.041  1.00  0.00     0.041 A 
ATOM     87  F   UNL     1       1.527  14.094   0.495  1.00  0.00    -0.206 F 
ATOM     88  C   UNL     1      -0.235  17.147  -0.319  1.00  0.00     0.022 A 
BRANCH  85  89
ATOM     89  S   UNL     1      -2.803  17.815  -1.075  1.00  0.00     0.124 S 
ATOM     90  O   UNL     1      -2.868  18.769   0.029  1.00  0.00    -0.237 OA
ATOM     91  O   UNL     1      -2.212  18.327  -2.308  1.00  0.00    -0.237 OA
ATOM     92  O   UNL     1      -3.988  16.982  -1.247  1.00  0.00    -0.744 OA
ENDBRANCH  85  89
ENDBRANCH  59  82
ENDBRANCH  33  34
ENDBRANCH  26  28
ENDBRANCH  25  26
ENDBRANCH  24  25
ENDBRANCH   1  24
TORSDOF 20
