REMARK SMILES CC1=C(C(=O)OCCOC(=O)c2ccc(-c3c4nc(c(-c5cc(S(=O)(=O)[O-])ccc5F)c5ccc([nH]5)c(-c5cc(S(=O)(=O)[O-])ccc5F)c5nc(c(-c6cc(S(=O)(=O)[O-])ccc6F)c6ccc3[nH]6)C=C5)C=C4)cc2)[C@H](c2ccc(Cl)cc2)n2ncnc2N1
REMARK SMILES IDX 8 1 7 2 6 3 4 4 5 5 3 6 1 7 2 8 88 9 75 10 87 11 83 13 86 14
REMARK SMILES IDX 84 15 85 16 76 17 77 18 82 19 78 20 81 21 79 22 80 23 9 24
REMARK SMILES IDX 10 25 11 26 12 27 13 28 74 29 14 30 73 31 15 32 16 33 17 34
REMARK SMILES IDX 67 35 18 36 72 37 66 38 68 39 19 40 71 41 65 42 64 43 20 45
REMARK SMILES IDX 52 46 32 47 51 48 33 49 36 50 50 51 69 52 34 53 35 54 49 56
REMARK SMILES IDX 70 57 37 58 21 59 22 60 30 61 23 62 29 63 31 64 28 65 24 66
REMARK SMILES IDX 25 67 26 68 27 69 53 70 54 71 62 72 55 73 61 74 63 75 60 76
REMARK SMILES IDX 56 77 57 78 58 79 59 80 38 81 39 82 47 83 40 84 46 85 48 86
REMARK SMILES IDX 45 87 41 88 42 89 43 90 44 91
REMARK H PARENT 88 12 68 44 36 55
REMARK Flexibility Score: inf
ROOT
ATOM      1  C   UNL     1       1.833   2.707  -2.939  1.00  0.00     0.275 C 
ENDROOT
BRANCH   1   2
ATOM      2  C   UNL     1       0.673   2.735  -1.958  1.00  0.00     0.275 C 
BRANCH   2   3
ATOM      3  O   UNL     1       0.498   1.439  -1.360  1.00  0.00    -0.459 OA
BRANCH   3   4
ATOM      4  C   UNL     1      -0.398   0.614  -1.959  1.00  0.00     0.338 C 
ATOM      5  O   UNL     1      -1.164   0.979  -2.839  1.00  0.00    -0.246 OA
BRANCH   4   6
ATOM      6  C   UNL     1      -0.250  -0.803  -1.518  1.00  0.00     0.085 C 
ATOM      7  C   UNL     1       0.643  -0.198   0.792  1.00  0.00     0.065 C 
ATOM      8  C   UNL     1       0.257  -1.159  -0.306  1.00  0.00     0.028 C 
ATOM      9  N   UNL     1       0.509  -2.494  -0.017  1.00  0.00    -0.328 N 
ATOM     10  C   UNL     1      -0.524  -1.869  -2.605  1.00  0.00     0.181 C 
ATOM     11  C   UNL     1       0.433  -3.476  -0.929  1.00  0.00     0.226 A 
ATOM     12  H   UNL     1       0.756  -2.733   0.906  1.00  0.00     0.169 HD
ATOM     13  N   UNL     1       0.017  -3.181  -2.199  1.00  0.00    -0.219 N 
ATOM     14  N   UNL     1       0.699  -4.754  -0.834  1.00  0.00    -0.200 NA
ATOM     15  N   UNL     1       0.046  -4.283  -2.984  1.00  0.00    -0.157 NA
ATOM     16  C   UNL     1       0.472  -5.202  -2.109  1.00  0.00     0.248 A 
BRANCH  10  17
ATOM     17  C   UNL     1      -2.004  -2.002  -3.010  1.00  0.00    -0.018 A 
ATOM     18  C   UNL     1      -2.880  -2.926  -2.411  1.00  0.00     0.008 A 
ATOM     19  C   UNL     1      -2.527  -1.169  -4.018  1.00  0.00     0.008 A 
ATOM     20  C   UNL     1      -4.228  -2.986  -2.780  1.00  0.00     0.021 A 
ATOM     21  C   UNL     1      -3.885  -1.186  -4.346  1.00  0.00     0.021 A 
ATOM     22  C   UNL     1      -4.731  -2.095  -3.723  1.00  0.00     0.041 A 
ATOM     23  Cl  UNL     1      -6.407  -2.113  -4.113  1.00  0.00    -0.084 Cl
ENDBRANCH  10  17
ENDBRANCH   4   6
ENDBRANCH   3   4
ENDBRANCH   2   3
ENDBRANCH   1   2
BRANCH   1  24
ATOM     24  O   UNL     1       1.529   1.909  -4.084  1.00  0.00    -0.458 OA
BRANCH  24  25
ATOM     25  C   UNL     1       1.998   0.641  -4.019  1.00  0.00     0.338 C 
ATOM     26  O   UNL     1       2.139  -0.044  -3.022  1.00  0.00    -0.246 OA
BRANCH  25  27
ATOM     27  C   UNL     1       2.541   0.262  -5.322  1.00  0.00     0.060 A 
ATOM     28  C   UNL     1       2.951  -1.065  -5.497  1.00  0.00     0.016 A 
ATOM     29  C   UNL     1       2.888   1.275  -6.225  1.00  0.00     0.016 A 
ATOM     30  C   UNL     1       3.824  -1.354  -6.526  1.00  0.00     0.010 A 
ATOM     31  C   UNL     1       3.780   0.991  -7.226  1.00  0.00     0.010 A 
ATOM     32  C   UNL     1       4.277  -0.307  -7.333  1.00  0.00    -0.014 A 
BRANCH  32  33
ATOM     33  C   UNL     1       5.190  -0.596  -8.418  1.00  0.00     0.031 A 
ATOM     34  C   UNL     1       4.528  -1.229  -9.580  1.00  0.00     0.074 A 
ATOM     35  C   UNL     1       6.452  -0.129  -8.429  1.00  0.00     0.049 A 
ATOM     36  N   UNL     1       4.750  -2.400 -10.072  1.00  0.00    -0.248 NA
ATOM     37  C   UNL     1       3.356  -0.549 -10.161  1.00  0.00     0.031 C 
ATOM     38  C   UNL     1       7.088   0.749  -7.444  1.00  0.00     0.029 A 
ATOM     39  N   UNL     1       7.391  -0.228  -9.407  1.00  0.00    -0.354 N 
ATOM     40  C   UNL     1       3.913  -2.502 -11.176  1.00  0.00     0.074 A 
ATOM     41  C   UNL     1       2.935  -1.460 -11.038  1.00  0.00     0.031 C 
ATOM     42  C   UNL     1       8.207   1.281  -7.985  1.00  0.00     0.029 A 
ATOM     43  C   UNL     1       8.417   0.705  -9.305  1.00  0.00     0.049 A 
ATOM     44  H   UNL     1       7.348  -0.902 -10.123  1.00  0.00     0.167 HD
ATOM     45  C   UNL     1       4.257  -3.262 -12.250  1.00  0.00     0.034 A 
ATOM     46  C   UNL     1       9.319   1.038 -10.268  1.00  0.00     0.034 A 
ATOM     47  C   UNL     1       5.298  -4.204 -11.905  1.00  0.00     0.049 A 
ATOM     48  C   UNL     1       9.344  -0.077 -11.250  1.00  0.00     0.074 A 
ATOM     49  C   UNL     1       5.413  -5.197 -10.949  1.00  0.00     0.029 A 
ATOM     50  N   UNL     1       6.587  -3.935 -12.314  1.00  0.00    -0.354 N 
ATOM     51  N   UNL     1       9.793  -1.268 -10.965  1.00  0.00    -0.248 NA
ATOM     52  C   UNL     1       8.422  -0.028 -12.378  1.00  0.00     0.031 C 
ATOM     53  C   UNL     1       6.755  -5.100 -10.478  1.00  0.00     0.029 A 
ATOM     54  C   UNL     1       7.410  -4.121 -11.229  1.00  0.00     0.049 A 
ATOM     55  H   UNL     1       6.866  -3.659 -13.217  1.00  0.00     0.167 HD
ATOM     56  C   UNL     1       8.886  -2.143 -11.544  1.00  0.00     0.074 A 
ATOM     57  C   UNL     1       8.136  -1.329 -12.499  1.00  0.00     0.031 C 
ATOM     58  C   UNL     1       8.625  -3.364 -10.985  1.00  0.00     0.034 A 
BRANCH  45  59
ATOM     59  C   UNL     1       3.918  -2.909 -13.680  1.00  0.00     0.023 A 
ATOM     60  C   UNL     1       4.311  -3.820 -14.675  1.00  0.00     0.031 A 
ATOM     61  C   UNL     1       3.498  -1.638 -14.142  1.00  0.00     0.131 A 
ATOM     62  C   UNL     1       4.370  -3.433 -16.024  1.00  0.00     0.055 A 
ATOM     63  C   UNL     1       3.485  -1.284 -15.493  1.00  0.00     0.041 A 
ATOM     64  F   UNL     1       3.174  -0.632 -13.322  1.00  0.00    -0.206 F 
ATOM     65  C   UNL     1       3.955  -2.172 -16.442  1.00  0.00     0.022 A 
BRANCH  62  66
ATOM     66  S   UNL     1       5.182  -4.547 -17.197  1.00  0.00     0.124 S 
ATOM     67  O   UNL     1       6.468  -4.771 -16.544  1.00  0.00    -0.237 OA
ATOM     68  O   UNL     1       4.263  -5.679 -17.219  1.00  0.00    -0.237 OA
ATOM     69  O   UNL     1       5.235  -3.761 -18.427  1.00  0.00    -0.744 OA
ENDBRANCH  62  66
ENDBRANCH  45  59
BRANCH  46  70
ATOM     70  C   UNL     1       9.942   2.369 -10.510  1.00  0.00     0.023 A 
ATOM     71  C   UNL     1      11.119   2.538 -11.270  1.00  0.00     0.031 A 
ATOM     72  C   UNL     1       9.238   3.548 -10.168  1.00  0.00     0.131 A 
ATOM     73  C   UNL     1      11.547   3.835 -11.644  1.00  0.00     0.055 A 
ATOM     74  C   UNL     1       9.672   4.825 -10.528  1.00  0.00     0.041 A 
ATOM     75  F   UNL     1       8.052   3.495  -9.542  1.00  0.00    -0.206 F 
ATOM     76  C   UNL     1      10.826   4.974 -11.277  1.00  0.00     0.022 A 
BRANCH  73  77
ATOM     77  S   UNL     1      13.005   4.058 -12.716  1.00  0.00     0.124 S 
ATOM     78  O   UNL     1      14.104   3.708 -11.825  1.00  0.00    -0.237 OA
ATOM     79  O   UNL     1      12.735   3.134 -13.811  1.00  0.00    -0.237 OA
ATOM     80  O   UNL     1      12.942   5.473 -13.086  1.00  0.00    -0.744 OA
ENDBRANCH  73  77
ENDBRANCH  46  70
BRANCH  58  81
ATOM     81  C   UNL     1       9.536  -3.852  -9.871  1.00  0.00     0.023 A 
ATOM     82  C   UNL     1       9.822  -3.128  -8.689  1.00  0.00     0.031 A 
ATOM     83  C   UNL     1      10.052  -5.156  -9.969  1.00  0.00     0.131 A 
ATOM     84  C   UNL     1      10.618  -3.701  -7.679  1.00  0.00     0.055 A 
ATOM     85  C   UNL     1      10.818  -5.731  -8.955  1.00  0.00     0.041 A 
ATOM     86  F   UNL     1       9.794  -5.912 -11.049  1.00  0.00    -0.206 F 
ATOM     87  C   UNL     1      11.113  -5.002  -7.809  1.00  0.00     0.022 A 
BRANCH  84  88
ATOM     88  S   UNL     1      11.050  -2.749  -6.186  1.00  0.00     0.124 S 
ATOM     89  O   UNL     1      11.458  -1.452  -6.712  1.00  0.00    -0.237 OA
ATOM     90  O   UNL     1       9.803  -2.768  -5.427  1.00  0.00    -0.237 OA
ATOM     91  O   UNL     1      12.135  -3.531  -5.588  1.00  0.00    -0.744 OA
ENDBRANCH  84  88
ENDBRANCH  58  81
ENDBRANCH  32  33
ENDBRANCH  25  27
ENDBRANCH  24  25
ENDBRANCH   1  24
TORSDOF 15
