REMARK SMILES O=C(OCCOC(=O)C1(n2cnc3ccccc32)CC[NH+](Cc2cccc3nonc23)CC1)c1ccc(-c2c3nc(c(-c4cc(S(=O)(=O)[O-])ccc4F)c4ccc([nH]4)c(-c4cc(S(=O)(=O)[O-])ccc4F)c4nc(c(-c5cc(S(=O)(=O)[O-])ccc5F)c5ccc2[nH]5)C=C4)C=C3)cc1
REMARK SMILES IDX 4 1 3 2 2 3 1 4 34 5 35 6 96 7 36 8 95 9 37 10 38 11 39 12
REMARK SMILES IDX 89 13 40 14 94 15 88 16 90 17 41 18 93 19 87 20 86 21 42 23
REMARK SMILES IDX 74 24 54 25 73 26 55 27 58 28 72 29 91 30 56 31 57 32 71 34
REMARK SMILES IDX 92 35 59 36 43 37 44 38 52 39 45 40 51 41 53 42 50 43 46 44
REMARK SMILES IDX 47 45 48 46 49 47 75 48 76 49 84 50 77 51 83 52 85 53 82 54
REMARK SMILES IDX 78 55 79 56 80 57 81 58 60 59 61 60 69 61 62 62 68 63 70 64
REMARK SMILES IDX 67 65 63 66 64 67 65 68 66 69 5 70 6 71 7 72 8 73 9 74 19 75
REMARK SMILES IDX 33 76 20 77 32 78 21 79 10 81 11 82 18 83 12 84 13 85 17 86
REMARK SMILES IDX 14 87 16 88 15 89 22 90 23 91 24 92 31 93 25 94 27 95 30 96
REMARK SMILES IDX 26 97 28 98 29 99
REMARK H PARENT 90 22 58 33 21 80
REMARK Flexibility Score: inf
ROOT
ATOM      1  C   UNL     1       3.548  -2.060   0.587  1.00  0.00     0.275 C 
ENDROOT
BRANCH   1   2
ATOM      2  O   UNL     1       3.487  -0.788   1.266  1.00  0.00    -0.458 OA
BRANCH   2   3
ATOM      3  C   UNL     1       4.471   0.149   1.200  1.00  0.00     0.338 C 
ATOM      4  O   UNL     1       4.417   1.199   1.824  1.00  0.00    -0.246 OA
BRANCH   3   5
ATOM      5  C   UNL     1       5.465  -0.062   0.137  1.00  0.00     0.060 A 
ATOM      6  C   UNL     1       5.090   0.459  -1.081  1.00  0.00     0.016 A 
ATOM      7  C   UNL     1       6.537  -0.948   0.224  1.00  0.00     0.016 A 
ATOM      8  C   UNL     1       5.571  -0.119  -2.235  1.00  0.00     0.010 A 
ATOM      9  C   UNL     1       7.055  -1.498  -0.957  1.00  0.00     0.010 A 
ATOM     10  C   UNL     1       6.474  -1.177  -2.187  1.00  0.00    -0.014 A 
BRANCH  10  11
ATOM     11  C   UNL     1       6.680  -1.865  -3.481  1.00  0.00     0.031 A 
ATOM     12  C   UNL     1       6.867  -0.969  -4.669  1.00  0.00     0.074 A 
ATOM     13  C   UNL     1       6.634  -3.207  -3.631  1.00  0.00     0.049 A 
ATOM     14  N   UNL     1       6.263  -1.009  -5.819  1.00  0.00    -0.248 NA
ATOM     15  C   UNL     1       7.713   0.223  -4.476  1.00  0.00     0.031 C 
ATOM     16  C   UNL     1       6.568  -4.195  -2.552  1.00  0.00     0.029 A 
ATOM     17  N   UNL     1       6.781  -3.980  -4.758  1.00  0.00    -0.354 N 
ATOM     18  C   UNL     1       6.793   0.055  -6.551  1.00  0.00     0.074 A 
ATOM     19  C   UNL     1       7.508   0.881  -5.613  1.00  0.00     0.031 C 
ATOM     20  C   UNL     1       6.984  -5.384  -3.028  1.00  0.00     0.029 A 
ATOM     21  C   UNL     1       7.230  -5.259  -4.455  1.00  0.00     0.049 A 
ATOM     22  H   UNL     1       6.591  -3.665  -5.672  1.00  0.00     0.167 HD
ATOM     23  C   UNL     1       6.859   0.068  -7.912  1.00  0.00     0.034 A 
ATOM     24  C   UNL     1       7.934  -6.100  -5.250  1.00  0.00     0.034 A 
ATOM     25  C   UNL     1       5.961  -0.848  -8.547  1.00  0.00     0.049 A 
ATOM     26  C   UNL     1       7.735  -5.775  -6.677  1.00  0.00     0.074 A 
ATOM     27  C   UNL     1       4.729  -0.804  -9.157  1.00  0.00     0.029 A 
ATOM     28  N   UNL     1       6.320  -2.160  -8.455  1.00  0.00    -0.354 N 
ATOM     29  N   UNL     1       6.638  -6.014  -7.336  1.00  0.00    -0.248 NA
ATOM     30  C   UNL     1       8.702  -4.920  -7.362  1.00  0.00     0.031 C 
ATOM     31  C   UNL     1       4.339  -2.155  -9.392  1.00  0.00     0.029 A 
ATOM     32  C   UNL     1       5.341  -2.997  -8.920  1.00  0.00     0.049 A 
ATOM     33  H   UNL     1       7.183  -2.470  -8.096  1.00  0.00     0.167 HD
ATOM     34  C   UNL     1       6.591  -5.009  -8.277  1.00  0.00     0.074 A 
ATOM     35  C   UNL     1       7.952  -4.504  -8.385  1.00  0.00     0.031 C 
ATOM     36  C   UNL     1       5.415  -4.414  -8.620  1.00  0.00     0.034 A 
BRANCH  23  37
ATOM     37  C   UNL     1       8.069   0.613  -8.648  1.00  0.00     0.023 A 
ATOM     38  C   UNL     1       9.298   0.828  -7.993  1.00  0.00     0.031 A 
ATOM     39  C   UNL     1       8.112   0.685 -10.053  1.00  0.00     0.131 A 
ATOM     40  C   UNL     1      10.470   1.148  -8.683  1.00  0.00     0.055 A 
ATOM     41  C   UNL     1       9.304   0.930 -10.755  1.00  0.00     0.041 A 
ATOM     42  F   UNL     1       7.012   0.473 -10.792  1.00  0.00    -0.206 F 
ATOM     43  C   UNL     1      10.492   1.171 -10.070  1.00  0.00     0.022 A 
BRANCH  40  44
ATOM     44  S   UNL     1      11.979   1.535  -7.753  1.00  0.00     0.124 S 
ATOM     45  O   UNL     1      12.866   0.450  -8.155  1.00  0.00    -0.237 OA
ATOM     46  O   UNL     1      12.315   2.860  -8.268  1.00  0.00    -0.237 OA
ATOM     47  O   UNL     1      11.535   1.512  -6.361  1.00  0.00    -0.744 OA
ENDBRANCH  40  44
ENDBRANCH  23  37
BRANCH  24  48
ATOM     48  C   UNL     1       9.112  -6.874  -4.796  1.00  0.00     0.023 A 
ATOM     49  C   UNL     1       9.903  -6.378  -3.743  1.00  0.00     0.031 A 
ATOM     50  C   UNL     1       9.634  -7.934  -5.550  1.00  0.00     0.131 A 
ATOM     51  C   UNL     1      11.170  -6.904  -3.485  1.00  0.00     0.055 A 
ATOM     52  C   UNL     1      10.903  -8.465  -5.292  1.00  0.00     0.041 A 
ATOM     53  F   UNL     1       8.949  -8.430  -6.592  1.00  0.00    -0.206 F 
ATOM     54  C   UNL     1      11.682  -7.944  -4.260  1.00  0.00     0.022 A 
BRANCH  51  55
ATOM     55  S   UNL     1      12.187  -6.188  -2.168  1.00  0.00     0.124 S 
ATOM     56  O   UNL     1      12.702  -7.376  -1.492  1.00  0.00    -0.237 OA
ATOM     57  O   UNL     1      13.164  -5.422  -2.933  1.00  0.00    -0.237 OA
ATOM     58  O   UNL     1      11.233  -5.402  -1.389  1.00  0.00    -0.744 OA
ENDBRANCH  51  55
ENDBRANCH  24  48
BRANCH  36  59
ATOM     59  C   UNL     1       4.136  -5.184  -8.462  1.00  0.00     0.023 A 
ATOM     60  C   UNL     1       3.278  -5.246  -9.575  1.00  0.00     0.031 A 
ATOM     61  C   UNL     1       3.673  -5.725  -7.249  1.00  0.00     0.131 A 
ATOM     62  C   UNL     1       1.990  -5.774  -9.446  1.00  0.00     0.055 A 
ATOM     63  C   UNL     1       2.419  -6.334  -7.148  1.00  0.00     0.041 A 
ATOM     64  F   UNL     1       4.371  -5.591  -6.111  1.00  0.00    -0.206 F 
ATOM     65  C   UNL     1       1.562  -6.343  -8.244  1.00  0.00     0.022 A 
BRANCH  62  66
ATOM     66  S   UNL     1       0.782  -5.563 -10.778  1.00  0.00     0.124 S 
ATOM     67  O   UNL     1       0.504  -6.942 -11.167  1.00  0.00    -0.237 OA
ATOM     68  O   UNL     1      -0.307  -4.870 -10.093  1.00  0.00    -0.237 OA
ATOM     69  O   UNL     1       1.491  -4.762 -11.772  1.00  0.00    -0.744 OA
ENDBRANCH  62  66
ENDBRANCH  36  59
ENDBRANCH  10  11
ENDBRANCH   3   5
ENDBRANCH   2   3
ENDBRANCH   1   2
BRANCH   1  70
ATOM     70  C   UNL     1       2.818  -2.145  -0.767  1.00  0.00     0.274 C 
BRANCH  70  71
ATOM     71  O   UNL     1       2.871  -0.995  -1.645  1.00  0.00    -0.460 OA
BRANCH  71  72
ATOM     72  C   UNL     1       1.856  -0.103  -1.526  1.00  0.00     0.332 C 
ATOM     73  O   UNL     1       1.061  -0.153  -0.587  1.00  0.00    -0.249 OA
BRANCH  72  74
ATOM     74  C   UNL     1       1.650   0.875  -2.735  1.00  0.00     0.154 C 
ATOM     75  C   UNL     1       2.755   1.476  -3.648  1.00  0.00     0.102 C 
ATOM     76  C   UNL     1       0.974   2.136  -2.111  1.00  0.00     0.102 C 
ATOM     77  C   UNL     1       3.592   2.674  -3.184  1.00  0.00     0.265 C 
ATOM     78  C   UNL     1       1.988   2.978  -1.306  1.00  0.00     0.265 C 
ATOM     79  N   UNL     1       3.027   3.520  -2.159  1.00  0.00    -0.331 N 
ATOM     80  H   UNL     1       2.416   4.110  -2.725  1.00  0.00     0.348 HD
BRANCH  74  81
ATOM     81  N   UNL     1       0.784   0.097  -3.664  1.00  0.00    -0.313 N 
ATOM     82  C   UNL     1      -0.531   0.333  -3.954  1.00  0.00     0.201 A 
ATOM     83  C   UNL     1       1.211  -0.933  -4.498  1.00  0.00     0.069 A 
ATOM     84  N   UNL     1      -0.962  -0.410  -4.947  1.00  0.00    -0.237 NA
ATOM     85  C   UNL     1       0.113  -1.182  -5.321  1.00  0.00     0.088 A 
ATOM     86  C   UNL     1       2.425  -1.625  -4.661  1.00  0.00     0.028 A 
ATOM     87  C   UNL     1       0.231  -2.111  -6.367  1.00  0.00     0.030 A 
ATOM     88  C   UNL     1       2.530  -2.532  -5.717  1.00  0.00     0.002 A 
ATOM     89  C   UNL     1       1.453  -2.764  -6.565  1.00  0.00     0.002 A 
ENDBRANCH  74  81
BRANCH  79  90
ATOM     90  C   UNL     1       3.951   4.505  -1.569  1.00  0.00     0.301 C 
BRANCH  90  91
ATOM     91  C   UNL     1       4.888   4.063  -0.468  1.00  0.00     0.038 A 
ATOM     92  C   UNL     1       6.135   3.421  -0.718  1.00  0.00     0.012 A 
ATOM     93  C   UNL     1       4.692   4.327   0.912  1.00  0.00     0.144 A 
ATOM     94  C   UNL     1       7.049   3.002   0.295  1.00  0.00     0.003 A 
ATOM     95  C   UNL     1       5.644   3.921   1.949  1.00  0.00     0.135 A 
ATOM     96  N   UNL     1       3.686   4.978   1.515  1.00  0.00    -0.049 NA
ATOM     97  C   UNL     1       6.831   3.225   1.664  1.00  0.00     0.034 A 
ATOM     98  N   UNL     1       5.179   4.334   3.135  1.00  0.00    -0.050 NA
ATOM     99  O   UNL     1       3.972   4.954   2.868  1.00  0.00    -0.243 OA
ENDBRANCH  90  91
ENDBRANCH  79  90
ENDBRANCH  72  74
ENDBRANCH  71  72
ENDBRANCH  70  71
ENDBRANCH   1  70
TORSDOF 17
