REMARK SMILES C[NH2+][C@]1(C(=O)OCCOC(=O)c2ccc(-c3c4nc(c(-c5cc(S(=O)(=O)[O-])ccc5F)c5ccc([nH]5)c(-c5cc(S(=O)(=O)[O-])ccc5F)c5nc(c(-c6cc(S(=O)(=O)[O-])ccc6F)c6ccc3[nH]6)C=C5)C=C4)cc2)CC[C@@H](OCCCc2ccccc2)C1
REMARK SMILES IDX 7 1 6 2 4 3 5 4 3 5 75 6 88 7 76 8 77 9 2 10 1 11 78 14
REMARK SMILES IDX 79 15 80 16 81 17 82 18 83 19 87 20 84 21 86 22 85 23 8 24
REMARK SMILES IDX 9 25 10 26 11 27 12 28 13 29 74 30 14 31 73 32 15 33 16 34
REMARK SMILES IDX 17 35 67 36 18 37 72 38 66 39 68 40 19 41 71 42 65 43 64 44
REMARK SMILES IDX 20 46 52 47 32 48 51 49 33 50 36 51 50 52 69 53 34 54 35 55
REMARK SMILES IDX 49 57 70 58 37 59 21 60 22 61 30 62 23 63 29 64 31 65 28 66
REMARK SMILES IDX 24 67 25 68 26 69 27 70 53 71 54 72 62 73 55 74 61 75 63 76
REMARK SMILES IDX 60 77 56 78 57 79 58 80 59 81 38 82 39 83 47 84 40 85 46 86
REMARK SMILES IDX 48 87 45 88 41 89 42 90 43 91 44 92
REMARK H PARENT 2 12 2 13 68 45 36 56
REMARK Flexibility Score: inf
ROOT
ATOM      1  C   UNL     1       2.892   2.260  -1.233  1.00  0.00     0.274 C 
ENDROOT
BRANCH   1   2
ATOM      2  O   UNL     1       1.190   1.908  -1.374  1.00  0.00    -0.457 OA
BRANCH   2   3
ATOM      3  C   UNL     1      -0.332   0.974  -0.722  1.00  0.00     0.368 C 
ATOM      4  O   UNL     1      -0.334  -0.232  -0.318  1.00  0.00    -0.245 OA
BRANCH   3   5
ATOM      5  C   UNL     1      -1.868   1.679  -0.226  1.00  0.00     0.196 C 
ATOM      6  C   UNL     1      -2.713   2.938  -0.571  1.00  0.00     0.084 C 
ATOM      7  C   UNL     1      -2.821   0.530  -0.777  1.00  0.00     0.113 C 
ATOM      8  C   UNL     1      -4.146   2.479  -0.830  1.00  0.00     0.039 C 
ATOM      9  C   UNL     1      -3.949   1.167  -1.564  1.00  0.00     0.125 C 
BRANCH   5  10
ATOM     10  N   UNL     1      -1.953   1.447   1.280  1.00  0.00    -0.334 N 
ATOM     11  C   UNL     1      -1.853   2.589   2.175  1.00  0.00     0.331 C 
ATOM     12  H   UNL     1      -2.852   1.001   1.464  1.00  0.00     0.347 HD
ATOM     13  H   UNL     1      -1.120   0.897   1.491  1.00  0.00     0.347 HD
ENDBRANCH   5  10
BRANCH   9  14
ATOM     14  O   UNL     1      -3.713   1.554  -2.914  1.00  0.00    -0.378 OA
BRANCH  14  15
ATOM     15  C   UNL     1      -2.814   0.843  -3.738  1.00  0.00     0.161 C 
BRANCH  15  16
ATOM     16  C   UNL     1      -1.980   1.884  -4.493  1.00  0.00     0.033 C 
BRANCH  16  17
ATOM     17  C   UNL     1      -1.167   2.894  -3.646  1.00  0.00     0.038 C 
BRANCH  17  18
ATOM     18  C   UNL     1      -0.274   2.346  -2.549  1.00  0.00    -0.048 A 
ATOM     19  C   UNL     1       0.525   0.761  -2.811  1.00  0.00     0.004 A 
ATOM     20  C   UNL     1      -0.056   3.237  -0.980  1.00  0.00     0.004 A 
ATOM     21  C   UNL     1       1.512  -0.009  -1.538  1.00  0.00     0.000 A 
ATOM     22  C   UNL     1       0.827   2.419   0.387  1.00  0.00     0.000 A 
ATOM     23  C   UNL     1       1.629   0.773   0.098  1.00  0.00     0.000 A 
ENDBRANCH  17  18
ENDBRANCH  16  17
ENDBRANCH  15  16
ENDBRANCH  14  15
ENDBRANCH   9  14
ENDBRANCH   3   5
ENDBRANCH   2   3
ENDBRANCH   1   2
BRANCH   1  24
ATOM     24  C   UNL     1       3.533   2.825   0.164  1.00  0.00     0.275 C 
BRANCH  24  25
ATOM     25  O   UNL     1       3.354   2.024   1.409  1.00  0.00    -0.458 OA
BRANCH  25  26
ATOM     26  C   UNL     1       3.005   2.655   2.578  1.00  0.00     0.338 C 
ATOM     27  O   UNL     1       3.191   3.849   2.776  1.00  0.00    -0.246 OA
BRANCH  26  28
ATOM     28  C   UNL     1       2.229   1.812   3.595  1.00  0.00     0.060 A 
ATOM     29  C   UNL     1       1.185   0.934   3.268  1.00  0.00     0.016 A 
ATOM     30  C   UNL     1       2.385   2.069   4.959  1.00  0.00     0.016 A 
ATOM     31  C   UNL     1       0.330   0.349   4.221  1.00  0.00     0.010 A 
ATOM     32  C   UNL     1       1.571   1.429   5.932  1.00  0.00     0.010 A 
ATOM     33  C   UNL     1       0.524   0.556   5.581  1.00  0.00    -0.014 A 
BRANCH  33  34
ATOM     34  C   UNL     1      -0.347  -0.104   6.616  1.00  0.00     0.031 A 
ATOM     35  C   UNL     1      -1.033   0.726   7.676  1.00  0.00     0.074 A 
ATOM     36  C   UNL     1      -0.508  -1.447   6.658  1.00  0.00     0.049 A 
ATOM     37  N   UNL     1      -1.535   0.362   8.831  1.00  0.00    -0.248 NA
ATOM     38  C   UNL     1      -1.156   2.164   7.397  1.00  0.00     0.031 C 
ATOM     39  C   UNL     1      -0.021  -2.401   5.660  1.00  0.00     0.029 A 
ATOM     40  N   UNL     1      -1.108  -2.253   7.605  1.00  0.00    -0.354 N 
ATOM     41  C   UNL     1      -1.972   1.532   9.448  1.00  0.00     0.074 A 
ATOM     42  C   UNL     1      -1.671   2.616   8.533  1.00  0.00     0.031 C 
ATOM     43  C   UNL     1      -0.324  -3.648   6.049  1.00  0.00     0.029 A 
ATOM     44  C   UNL     1      -0.932  -3.602   7.373  1.00  0.00     0.049 A 
ATOM     45  H   UNL     1      -1.613  -1.899   8.373  1.00  0.00     0.167 HD
ATOM     46  C   UNL     1      -2.554   1.687  10.666  1.00  0.00     0.034 A 
ATOM     47  C   UNL     1      -1.155  -4.682   8.152  1.00  0.00     0.034 A 
ATOM     48  C   UNL     1      -2.878   0.591  11.554  1.00  0.00     0.049 A 
ATOM     49  C   UNL     1      -1.700  -4.487   9.546  1.00  0.00     0.074 A 
ATOM     50  C   UNL     1      -3.475   0.640  12.803  1.00  0.00     0.029 A 
ATOM     51  N   UNL     1      -2.638  -0.752  11.290  1.00  0.00    -0.354 N 
ATOM     52  N   UNL     1      -2.028  -3.372  10.156  1.00  0.00    -0.248 NA
ATOM     53  C   UNL     1      -1.896  -5.696  10.358  1.00  0.00     0.031 C 
ATOM     54  C   UNL     1      -3.517  -0.656  13.327  1.00  0.00     0.029 A 
ATOM     55  C   UNL     1      -3.039  -1.532  12.367  1.00  0.00     0.049 A 
ATOM     56  H   UNL     1      -2.240  -1.100  10.459  1.00  0.00     0.167 HD
ATOM     57  C   UNL     1      -2.502  -3.752  11.411  1.00  0.00     0.074 A 
ATOM     58  C   UNL     1      -2.429  -5.197  11.463  1.00  0.00     0.031 C 
ATOM     59  C   UNL     1      -2.960  -2.973  12.424  1.00  0.00     0.034 A 
BRANCH  46  60
ATOM     60  C   UNL     1      -2.813   3.099  11.151  1.00  0.00     0.023 A 
ATOM     61  C   UNL     1      -3.697   3.971  10.493  1.00  0.00     0.031 A 
ATOM     62  C   UNL     1      -2.147   3.584  12.293  1.00  0.00     0.131 A 
ATOM     63  C   UNL     1      -3.831   5.298  10.934  1.00  0.00     0.055 A 
ATOM     64  C   UNL     1      -2.353   4.877  12.779  1.00  0.00     0.041 A 
ATOM     65  F   UNL     1      -1.274   2.808  12.957  1.00  0.00    -0.206 F 
ATOM     66  C   UNL     1      -3.187   5.748  12.089  1.00  0.00     0.022 A 
BRANCH  63  67
ATOM     67  S   UNL     1      -4.736   6.472   9.888  1.00  0.00     0.124 S 
ATOM     68  O   UNL     1      -3.998   6.374   8.630  1.00  0.00    -0.237 OA
ATOM     69  O   UNL     1      -6.084   5.917   9.883  1.00  0.00    -0.237 OA
ATOM     70  O   UNL     1      -4.586   7.745  10.591  1.00  0.00    -0.744 OA
ENDBRANCH  63  67
ENDBRANCH  46  60
BRANCH  47  71
ATOM     71  C   UNL     1      -0.783  -6.052   7.676  1.00  0.00     0.023 A 
ATOM     72  C   UNL     1      -1.751  -7.059   7.534  1.00  0.00     0.031 A 
ATOM     73  C   UNL     1       0.557  -6.389   7.407  1.00  0.00     0.131 A 
ATOM     74  C   UNL     1      -1.361  -8.360   7.174  1.00  0.00     0.055 A 
ATOM     75  C   UNL     1       0.930  -7.666   6.982  1.00  0.00     0.041 A 
ATOM     76  F   UNL     1       1.530  -5.473   7.541  1.00  0.00    -0.206 F 
ATOM     77  C   UNL     1      -0.032  -8.665   6.876  1.00  0.00     0.022 A 
BRANCH  74  78
ATOM     78  S   UNL     1      -2.607  -9.679   7.199  1.00  0.00     0.124 S 
ATOM     79  O   UNL     1      -3.065  -9.627   8.582  1.00  0.00    -0.237 OA
ATOM     80  O   UNL     1      -3.556  -9.220   6.190  1.00  0.00    -0.237 OA
ATOM     81  O   UNL     1      -1.846 -10.873   6.838  1.00  0.00    -0.744 OA
ENDBRANCH  74  78
ENDBRANCH  47  71
BRANCH  59  82
ATOM     82  C   UNL     1      -3.483  -3.677  13.656  1.00  0.00     0.023 A 
ATOM     83  C   UNL     1      -2.647  -4.437  14.493  1.00  0.00     0.031 A 
ATOM     84  C   UNL     1      -4.849  -3.599  13.985  1.00  0.00     0.131 A 
ATOM     85  C   UNL     1      -3.195  -5.138  15.580  1.00  0.00     0.055 A 
ATOM     86  C   UNL     1      -5.375  -4.241  15.107  1.00  0.00     0.041 A 
ATOM     87  F   UNL     1      -5.698  -2.896  13.219  1.00  0.00    -0.206 F 
ATOM     88  C   UNL     1      -4.550  -5.028  15.904  1.00  0.00     0.022 A 
BRANCH  85  89
ATOM     89  S   UNL     1      -2.134  -6.284  16.503  1.00  0.00     0.124 S 
ATOM     90  O   UNL     1      -1.690  -7.197  15.455  1.00  0.00    -0.237 OA
ATOM     91  O   UNL     1      -1.114  -5.396  17.050  1.00  0.00    -0.237 OA
ATOM     92  O   UNL     1      -3.039  -6.869  17.492  1.00  0.00    -0.744 OA
ENDBRANCH  85  89
ENDBRANCH  59  82
ENDBRANCH  33  34
ENDBRANCH  26  28
ENDBRANCH  25  26
ENDBRANCH  24  25
ENDBRANCH   1  24
TORSDOF 20
