REMARK SMILES CC(C)Cc1ccc(S(=O)(=O)Nc2cnc(N3CCCC3)c(C(=O)OCCOC(=O)c3ccc(-c4c5nc(c(-c6cc(S(=O)(=O)[O-])ccc6F)c6ccc([nH]6)c(-c6cc(S(=O)(=O)[O-])ccc6F)c6nc(c(-c7cc(S(=O)(=O)[O-])ccc7F)c7ccc4[nH]7)C=C6)C=C5)cc3)c2)cc1
REMARK SMILES IDX 26 1 25 2 23 3 24 4 22 5 13 6 14 7 94 8 15 9 16 10 12 11
REMARK SMILES IDX 9 13 10 14 11 15 8 16 5 17 6 18 96 19 7 20 95 21 4 22 2 23
REMARK SMILES IDX 1 24 3 25 17 26 18 27 21 28 19 29 20 30 27 31 28 32 29 33
REMARK SMILES IDX 30 34 31 35 32 36 93 37 33 38 92 39 34 40 35 41 36 42 86 43
REMARK SMILES IDX 37 44 91 45 85 46 87 47 38 48 90 49 84 50 83 51 39 53 71 54
REMARK SMILES IDX 51 55 70 56 52 57 55 58 69 59 88 60 53 61 54 62 68 64 89 65
REMARK SMILES IDX 56 66 40 67 41 68 49 69 42 70 48 71 50 72 47 73 43 74 44 75
REMARK SMILES IDX 45 76 46 77 72 78 73 79 81 80 74 81 80 82 82 83 79 84 75 85
REMARK SMILES IDX 76 86 77 87 78 88 57 89 58 90 66 91 59 92 65 93 67 94 64 95
REMARK SMILES IDX 60 96 61 97 62 98 63 99
REMARK H PARENT 12 12 87 52 55 63
REMARK Flexibility Score: inf
ROOT
ATOM      1  C   UNL     1      -4.715  -4.280   0.633  1.00  0.00     0.275 C 
ENDROOT
BRANCH   1   2
ATOM      2  O   UNL     1      -4.654  -4.620  -0.769  1.00  0.00    -0.458 OA
BRANCH   2   3
ATOM      3  C   UNL     1      -3.408  -4.874  -1.233  1.00  0.00     0.342 C 
ATOM      4  O   UNL     1      -2.376  -4.710  -0.600  1.00  0.00    -0.246 OA
BRANCH   3   5
ATOM      5  C   UNL     1      -3.424  -5.225  -2.662  1.00  0.00     0.104 A 
ATOM      6  C   UNL     1      -3.350  -4.072  -4.753  1.00  0.00     0.068 A 
ATOM      7  C   UNL     1      -2.712  -5.199  -5.258  1.00  0.00     0.140 A 
ATOM      8  C   UNL     1      -3.834  -4.147  -3.467  1.00  0.00     0.048 A 
ATOM      9  N   UNL     1      -2.442  -6.313  -4.537  1.00  0.00    -0.236 NA
ATOM     10  C   UNL     1      -2.747  -6.330  -3.220  1.00  0.00     0.143 A 
BRANCH   6  11
ATOM     11  N   UNL     1      -3.432  -2.893  -5.546  1.00  0.00    -0.278 N 
ATOM     12  H   UNL     1      -3.683  -2.996  -6.492  1.00  0.00     0.180 HD
BRANCH  11  13
ATOM     13  S   UNL     1      -3.129  -1.330  -4.984  1.00  0.00     0.261 S 
ATOM     14  O   UNL     1      -4.428  -0.711  -4.807  1.00  0.00    -0.201 OA
ATOM     15  O   UNL     1      -2.180  -0.776  -5.928  1.00  0.00    -0.201 OA
BRANCH  13  16
ATOM     16  C   UNL     1      -2.326  -1.281  -3.393  1.00  0.00     0.087 A 
ATOM     17  C   UNL     1      -1.330  -1.151  -0.759  1.00  0.00    -0.048 A 
ATOM     18  C   UNL     1      -2.146  -0.130  -1.253  1.00  0.00     0.005 A 
ATOM     19  C   UNL     1      -0.984  -2.207  -1.615  1.00  0.00     0.005 A 
ATOM     20  C   UNL     1      -2.650  -0.201  -2.554  1.00  0.00     0.022 A 
ATOM     21  C   UNL     1      -1.444  -2.256  -2.938  1.00  0.00     0.022 A 
BRANCH  17  22
ATOM     22  C   UNL     1      -0.842  -1.116   0.674  1.00  0.00     0.038 C 
BRANCH  22  23
ATOM     23  C   UNL     1       0.693  -1.147   0.817  1.00  0.00    -0.013 C 
ATOM     24  C   UNL     1       1.349   0.060   0.142  1.00  0.00     0.008 C 
ATOM     25  C   UNL     1       1.089  -1.194   2.295  1.00  0.00     0.008 C 
ENDBRANCH  22  23
ENDBRANCH  17  22
ENDBRANCH  13  16
ENDBRANCH  11  13
ENDBRANCH   6  11
BRANCH  10  26
ATOM     26  N   UNL     1      -2.283  -7.437  -2.544  1.00  0.00    -0.356 N 
ATOM     27  C   UNL     1      -3.445  -8.910  -2.038  1.00  0.00     0.118 C 
ATOM     28  C   UNL     1      -0.841  -7.239  -1.395  1.00  0.00     0.118 C 
ATOM     29  C   UNL     1      -2.556  -9.655  -0.130  1.00  0.00     0.023 C 
ATOM     30  C   UNL     1      -0.959  -8.461   0.117  1.00  0.00     0.023 C 
ENDBRANCH  10  26
ENDBRANCH   3   5
ENDBRANCH   2   3
ENDBRANCH   1   2
BRANCH   1  31
ATOM     31  C   UNL     1      -5.521  -5.345   1.364  1.00  0.00     0.275 C 
BRANCH  31  32
ATOM     32  O   UNL     1      -4.835  -6.600   1.211  1.00  0.00    -0.458 OA
BRANCH  32  33
ATOM     33  C   UNL     1      -5.369  -7.419   0.283  1.00  0.00     0.338 C 
ATOM     34  O   UNL     1      -6.456  -7.334  -0.261  1.00  0.00    -0.246 OA
BRANCH  33  35
ATOM     35  C   UNL     1      -4.378  -8.417  -0.112  1.00  0.00     0.060 A 
ATOM     36  C   UNL     1      -2.809  -7.933  -0.632  1.00  0.00     0.016 A 
ATOM     37  C   UNL     1      -4.837  -9.969  -0.500  1.00  0.00     0.016 A 
ATOM     38  C   UNL     1      -1.693  -9.245  -1.682  1.00  0.00     0.010 A 
ATOM     39  C   UNL     1      -3.871 -11.103  -1.328  1.00  0.00     0.010 A 
ATOM     40  C   UNL     1      -2.315 -10.844  -1.961  1.00  0.00    -0.014 A 
BRANCH  40  41
ATOM     41  C   UNL     1      -1.495 -11.992  -2.510  1.00  0.00     0.031 A 
ATOM     42  C   UNL     1      -2.144 -13.093  -3.328  1.00  0.00     0.074 A 
ATOM     43  C   UNL     1      -0.195 -12.154  -2.159  1.00  0.00     0.049 A 
ATOM     44  N   UNL     1      -1.673 -14.272  -3.659  1.00  0.00    -0.248 NA
ATOM     45  C   UNL     1      -3.495 -12.836  -3.850  1.00  0.00     0.031 C 
ATOM     46  C   UNL     1       0.638 -11.178  -1.473  1.00  0.00     0.029 A 
ATOM     47  N   UNL     1       0.668 -13.224  -2.291  1.00  0.00    -0.354 N 
ATOM     48  C   UNL     1      -2.668 -14.896  -4.410  1.00  0.00     0.074 A 
ATOM     49  C   UNL     1      -3.801 -13.995  -4.417  1.00  0.00     0.031 C 
ATOM     50  C   UNL     1       1.829 -11.687  -1.161  1.00  0.00     0.029 A 
ATOM     51  C   UNL     1       1.869 -13.052  -1.626  1.00  0.00     0.049 A 
ATOM     52  H   UNL     1       0.450 -14.033  -2.808  1.00  0.00     0.167 HD
ATOM     53  C   UNL     1      -2.625 -16.083  -5.069  1.00  0.00     0.034 A 
ATOM     54  C   UNL     1       2.919 -13.860  -1.393  1.00  0.00     0.034 A 
ATOM     55  C   UNL     1      -1.466 -16.948  -5.092  1.00  0.00     0.049 A 
ATOM     56  C   UNL     1       2.922 -15.194  -2.058  1.00  0.00     0.074 A 
ATOM     57  C   UNL     1      -1.291 -18.139  -5.779  1.00  0.00     0.029 A 
ATOM     58  N   UNL     1      -0.282 -16.720  -4.398  1.00  0.00    -0.354 N 
ATOM     59  N   UNL     1       1.978 -15.736  -2.788  1.00  0.00    -0.248 NA
ATOM     60  C   UNL     1       4.142 -15.991  -1.932  1.00  0.00     0.031 C 
ATOM     61  C   UNL     1      -0.041 -18.668  -5.436  1.00  0.00     0.029 A 
ATOM     62  C   UNL     1       0.603 -17.771  -4.601  1.00  0.00     0.049 A 
ATOM     63  H   UNL     1      -0.099 -15.928  -3.843  1.00  0.00     0.167 HD
ATOM     64  C   UNL     1       2.509 -16.929  -3.250  1.00  0.00     0.074 A 
ATOM     65  C   UNL     1       3.861 -17.011  -2.728  1.00  0.00     0.031 C 
ATOM     66  C   UNL     1       1.931 -17.864  -4.044  1.00  0.00     0.034 A 
BRANCH  53  67
ATOM     67  C   UNL     1      -3.872 -16.532  -5.805  1.00  0.00     0.023 A 
ATOM     68  C   UNL     1      -4.409 -15.806  -6.884  1.00  0.00     0.031 A 
ATOM     69  C   UNL     1      -4.540 -17.709  -5.416  1.00  0.00     0.131 A 
ATOM     70  C   UNL     1      -5.611 -16.219  -7.483  1.00  0.00     0.055 A 
ATOM     71  C   UNL     1      -5.690 -18.159  -6.070  1.00  0.00     0.041 A 
ATOM     72  F   UNL     1      -4.091 -18.440  -4.384  1.00  0.00    -0.206 F 
ATOM     73  C   UNL     1      -6.241 -17.405  -7.101  1.00  0.00     0.022 A 
BRANCH  70  74
ATOM     74  S   UNL     1      -6.418 -15.111  -8.672  1.00  0.00     0.124 S 
ATOM     75  O   UNL     1      -6.625 -13.912  -7.863  1.00  0.00    -0.237 OA
ATOM     76  O   UNL     1      -5.422 -15.004  -9.732  1.00  0.00    -0.237 OA
ATOM     77  O   UNL     1      -7.640 -15.826  -9.035  1.00  0.00    -0.744 OA
ENDBRANCH  70  74
ENDBRANCH  53  67
BRANCH  54  78
ATOM     78  C   UNL     1       4.054 -13.391  -0.541  1.00  0.00     0.023 A 
ATOM     79  C   UNL     1       5.326 -13.156  -1.083  1.00  0.00     0.031 A 
ATOM     80  C   UNL     1       3.867 -13.132   0.832  1.00  0.00     0.131 A 
ATOM     81  C   UNL     1       6.372 -12.715  -0.254  1.00  0.00     0.055 A 
ATOM     82  C   UNL     1       4.897 -12.646   1.641  1.00  0.00     0.041 A 
ATOM     83  F   UNL     1       2.664 -13.313   1.400  1.00  0.00    -0.206 F 
ATOM     84  C   UNL     1       6.163 -12.447   1.100  1.00  0.00     0.022 A 
BRANCH  81  85
ATOM     85  S   UNL     1       8.035 -12.566  -0.961  1.00  0.00     0.124 S 
ATOM     86  O   UNL     1       8.226 -13.881  -1.561  1.00  0.00    -0.237 OA
ATOM     87  O   UNL     1       7.867 -11.454  -1.890  1.00  0.00    -0.237 OA
ATOM     88  O   UNL     1       8.873 -12.283   0.203  1.00  0.00    -0.744 OA
ENDBRANCH  81  85
ENDBRANCH  54  78
BRANCH  66  89
ATOM     89  C   UNL     1       2.784 -19.054  -4.385  1.00  0.00     0.023 A 
ATOM     90  C   UNL     1       3.214 -19.944  -3.386  1.00  0.00     0.031 A 
ATOM     91  C   UNL     1       3.224 -19.266  -5.701  1.00  0.00     0.131 A 
ATOM     92  C   UNL     1       4.128 -20.956  -3.704  1.00  0.00     0.055 A 
ATOM     93  C   UNL     1       4.071 -20.325  -6.026  1.00  0.00     0.041 A 
ATOM     94  F   UNL     1       2.851 -18.437  -6.690  1.00  0.00    -0.206 F 
ATOM     95  C   UNL     1       4.543 -21.167  -5.021  1.00  0.00     0.022 A 
BRANCH  92  96
ATOM     96  S   UNL     1       4.865 -21.903  -2.346  1.00  0.00     0.124 S 
ATOM     97  O   UNL     1       5.535 -20.857  -1.580  1.00  0.00    -0.237 OA
ATOM     98  O   UNL     1       3.696 -22.507  -1.714  1.00  0.00    -0.237 OA
ATOM     99  O   UNL     1       5.755 -22.841  -3.028  1.00  0.00    -0.744 OA
ENDBRANCH  92  96
ENDBRANCH  66  89
ENDBRANCH  40  41
ENDBRANCH  33  35
ENDBRANCH  32  33
ENDBRANCH  31  32
ENDBRANCH   1  31
TORSDOF 20
