REMARK SMILES O=C1C[C@@H]([N@@H+]2CCO[C@@H](CC(=O)OCCOC(=O)c3ccc(-c4c5nc(c(-c6cc(S(=O)(=O)[O-])ccc6F)c6ccc([nH]6)c(-c6cc(S(=O)(=O)[O-])ccc6F)c6nc(c(-c7cc(S(=O)(=O)[O-])ccc7F)c7ccc4[nH]7)C=C6)C=C5)cc3)C2)C(=O)N1
REMARK SMILES IDX 15 1 14 2 13 3 11 4 12 5 10 6 9 7 5 8 6 9 82 10 7 12 8 13
REMARK SMILES IDX 4 14 1 15 2 16 3 17 85 18 83 19 84 21 16 22 17 23 18 24
REMARK SMILES IDX 19 25 20 26 81 27 21 28 80 29 22 30 23 31 24 32 74 33 25 34
REMARK SMILES IDX 79 35 73 36 75 37 26 38 78 39 72 40 71 41 27 43 59 44 39 45
REMARK SMILES IDX 58 46 40 47 43 48 57 49 76 50 41 51 42 52 56 54 77 55 44 56
REMARK SMILES IDX 28 57 29 58 37 59 30 60 36 61 38 62 35 63 31 64 32 65 33 66
REMARK SMILES IDX 34 67 60 68 61 69 69 70 62 71 68 72 70 73 67 74 63 75 64 76
REMARK SMILES IDX 65 77 66 78 45 79 46 80 54 81 47 82 53 83 55 84 52 85 48 86
REMARK SMILES IDX 49 87 50 88 51 89
REMARK H PARENT 5 11 85 20 75 42 43 53
REMARK Flexibility Score: inf
ROOT
ATOM      1  C   UNL     1       0.518  -5.987   2.319  1.00  0.00     0.275 C 
ENDROOT
BRANCH   1   2
ATOM      2  C   UNL     1       1.058  -6.686   1.067  1.00  0.00     0.274 C 
BRANCH   2   3
ATOM      3  O   UNL     1       0.873  -5.889  -0.120  1.00  0.00    -0.462 OA
BRANCH   3   4
ATOM      4  C   UNL     1      -0.233  -6.151  -0.863  1.00  0.00     0.308 C 
ATOM      5  O   UNL     1      -1.044  -7.032  -0.612  1.00  0.00    -0.252 OA
BRANCH   4   6
ATOM      6  C   UNL     1      -0.313  -5.278  -2.087  1.00  0.00     0.160 C 
BRANCH   6   7
ATOM      7  C   UNL     1      -0.369  -3.772  -1.824  1.00  0.00     0.184 C 
ATOM      8  N   UNL     1       1.069  -1.721  -1.312  1.00  0.00    -0.320 N 
ATOM      9  C   UNL     1       0.478  -1.129  -2.520  1.00  0.00     0.291 C 
ATOM     10  C   UNL     1       0.986  -3.191  -1.353  1.00  0.00     0.295 C 
ATOM     11  H   UNL     1       2.051  -1.449  -1.363  1.00  0.00     0.348 HD
ATOM     12  C   UNL     1      -0.854  -1.745  -2.967  1.00  0.00     0.222 C 
ATOM     13  O   UNL     1      -0.753  -3.168  -3.079  1.00  0.00    -0.366 OA
BRANCH   8  14
ATOM     14  C   UNL     1       0.726  -1.126  -0.006  1.00  0.00     0.284 C 
ATOM     15  O   UNL     1      -2.088   1.040   0.295  1.00  0.00    -0.274 OA
ATOM     16  C   UNL     1      -0.995   0.500   0.271  1.00  0.00     0.233 C 
ATOM     17  C   UNL     1      -0.740  -0.969   0.396  1.00  0.00     0.176 C 
ATOM     18  N   UNL     1       0.187   1.150   0.169  1.00  0.00    -0.291 N 
ATOM     19  C   UNL     1       1.249   0.311   0.066  1.00  0.00     0.285 C 
ATOM     20  H   UNL     1       0.268   2.131   0.169  1.00  0.00     0.173 HD
ATOM     21  O   UNL     1       2.414   0.675   0.001  1.00  0.00    -0.268 OA
ENDBRANCH   8  14
ENDBRANCH   6   7
ENDBRANCH   4   6
ENDBRANCH   3   4
ENDBRANCH   2   3
ENDBRANCH   1   2
BRANCH   1  22
ATOM     22  O   UNL     1      -0.921  -5.987   2.356  1.00  0.00    -0.458 OA
BRANCH  22  23
ATOM     23  C   UNL     1      -1.510  -4.898   1.808  1.00  0.00     0.338 C 
ATOM     24  O   UNL     1      -0.944  -3.921   1.347  1.00  0.00    -0.246 OA
BRANCH  23  25
ATOM     25  C   UNL     1      -2.966  -5.105   1.719  1.00  0.00     0.060 A 
ATOM     26  C   UNL     1      -3.564  -5.079   0.455  1.00  0.00     0.016 A 
ATOM     27  C   UNL     1      -3.744  -5.262   2.867  1.00  0.00     0.016 A 
ATOM     28  C   UNL     1      -4.946  -5.205   0.334  1.00  0.00     0.010 A 
ATOM     29  C   UNL     1      -5.132  -5.395   2.742  1.00  0.00     0.010 A 
ATOM     30  C   UNL     1      -5.743  -5.360   1.475  1.00  0.00    -0.014 A 
BRANCH  30  31
ATOM     31  C   UNL     1      -7.219  -5.455   1.341  1.00  0.00     0.031 A 
ATOM     32  C   UNL     1      -8.084  -4.293   1.744  1.00  0.00     0.074 A 
ATOM     33  C   UNL     1      -7.777  -6.578   0.850  1.00  0.00     0.049 A 
ATOM     34  N   UNL     1      -9.389  -4.203   1.775  1.00  0.00    -0.248 NA
ATOM     35  C   UNL     1      -7.385  -3.073   2.172  1.00  0.00     0.031 C 
ATOM     36  C   UNL     1      -7.036  -7.753   0.388  1.00  0.00     0.029 A 
ATOM     37  N   UNL     1      -9.093  -6.917   0.659  1.00  0.00    -0.354 N 
ATOM     38  C   UNL     1      -9.671  -2.922   2.237  1.00  0.00     0.074 A 
ATOM     39  C   UNL     1      -8.397  -2.284   2.501  1.00  0.00     0.031 C 
ATOM     40  C   UNL     1      -7.909  -8.684  -0.031  1.00  0.00     0.029 A 
ATOM     41  C   UNL     1      -9.269  -8.195   0.179  1.00  0.00     0.049 A 
ATOM     42  H   UNL     1      -9.840  -6.305   0.848  1.00  0.00     0.167 HD
ATOM     43  C   UNL     1     -10.880  -2.335   2.418  1.00  0.00     0.034 A 
ATOM     44  C   UNL     1     -10.397  -8.902  -0.037  1.00  0.00     0.034 A 
ATOM     45  C   UNL     1     -12.140  -2.988   2.150  1.00  0.00     0.049 A 
ATOM     46  C   UNL     1     -11.729  -8.252   0.246  1.00  0.00     0.074 A 
ATOM     47  C   UNL     1     -13.421  -2.479   2.282  1.00  0.00     0.029 A 
ATOM     48  N   UNL     1     -12.281  -4.296   1.702  1.00  0.00    -0.354 N 
ATOM     49  N   UNL     1     -11.982  -7.040   0.685  1.00  0.00    -0.248 NA
ATOM     50  C   UNL     1     -12.928  -9.063  -0.001  1.00  0.00     0.031 C 
ATOM     51  C   UNL     1     -14.333  -3.497   1.984  1.00  0.00     0.029 A 
ATOM     52  C   UNL     1     -13.625  -4.620   1.587  1.00  0.00     0.049 A 
ATOM     53  H   UNL     1     -11.535  -4.905   1.497  1.00  0.00     0.167 HD
ATOM     54  C   UNL     1     -13.370  -6.937   0.737  1.00  0.00     0.074 A 
ATOM     55  C   UNL     1     -13.897  -8.202   0.271  1.00  0.00     0.031 C 
ATOM     56  C   UNL     1     -14.139  -5.890   1.131  1.00  0.00     0.034 A 
BRANCH  43  57
ATOM     57  C   UNL     1     -10.898  -0.936   2.985  1.00  0.00     0.023 A 
ATOM     58  C   UNL     1     -10.370   0.160   2.280  1.00  0.00     0.031 A 
ATOM     59  C   UNL     1     -11.443  -0.697   4.259  1.00  0.00     0.131 A 
ATOM     60  C   UNL     1     -10.344   1.430   2.877  1.00  0.00     0.055 A 
ATOM     61  C   UNL     1     -11.481   0.582   4.818  1.00  0.00     0.041 A 
ATOM     62  F   UNL     1     -11.942  -1.707   4.989  1.00  0.00    -0.206 F 
ATOM     63  C   UNL     1     -10.918   1.653   4.131  1.00  0.00     0.022 A 
BRANCH  60  64
ATOM     64  S   UNL     1      -9.435   2.763   2.048  1.00  0.00     0.124 S 
ATOM     65  O   UNL     1      -8.088   2.203   1.982  1.00  0.00    -0.237 OA
ATOM     66  O   UNL     1     -10.142   2.884   0.778  1.00  0.00    -0.237 OA
ATOM     67  O   UNL     1      -9.586   3.898   2.957  1.00  0.00    -0.744 OA
ENDBRANCH  60  64
ENDBRANCH  43  57
BRANCH  44  68
ATOM     68  C   UNL     1     -10.327 -10.318  -0.499  1.00  0.00     0.023 A 
ATOM     69  C   UNL     1     -10.873 -10.710  -1.731  1.00  0.00     0.031 A 
ATOM     70  C   UNL     1      -9.764 -11.316   0.319  1.00  0.00     0.131 A 
ATOM     71  C   UNL     1     -10.889 -12.067  -2.089  1.00  0.00     0.055 A 
ATOM     72  C   UNL     1      -9.730 -12.656  -0.068  1.00  0.00     0.041 A 
ATOM     73  F   UNL     1      -9.231 -10.998   1.510  1.00  0.00    -0.206 F 
ATOM     74  C   UNL     1     -10.309 -13.041  -1.273  1.00  0.00     0.022 A 
BRANCH  71  75
ATOM     75  S   UNL     1     -11.771 -12.557  -3.597  1.00  0.00     0.124 S 
ATOM     76  O   UNL     1     -13.111 -12.044  -3.337  1.00  0.00    -0.237 OA
ATOM     77  O   UNL     1     -11.009 -11.866  -4.631  1.00  0.00    -0.237 OA
ATOM     78  O   UNL     1     -11.650 -14.013  -3.604  1.00  0.00    -0.744 OA
ENDBRANCH  71  75
ENDBRANCH  44  68
BRANCH  56  79
ATOM     79  C   UNL     1     -15.635  -6.060   1.022  1.00  0.00     0.023 A 
ATOM     80  C   UNL     1     -16.339  -6.972   1.828  1.00  0.00     0.031 A 
ATOM     81  C   UNL     1     -16.364  -5.306   0.085  1.00  0.00     0.131 A 
ATOM     82  C   UNL     1     -17.719  -7.148   1.643  1.00  0.00     0.055 A 
ATOM     83  C   UNL     1     -17.746  -5.442  -0.054  1.00  0.00     0.041 A 
ATOM     84  F   UNL     1     -15.743  -4.422  -0.713  1.00  0.00    -0.206 F 
ATOM     85  C   UNL     1     -18.430  -6.377   0.719  1.00  0.00     0.022 A 
BRANCH  82  86
ATOM     86  S   UNL     1     -18.563  -8.464   2.563  1.00  0.00     0.124 S 
ATOM     87  O   UNL     1     -17.831  -9.652   2.135  1.00  0.00    -0.237 OA
ATOM     88  O   UNL     1     -18.360  -8.055   3.950  1.00  0.00    -0.237 OA
ATOM     89  O   UNL     1     -19.944  -8.383   2.091  1.00  0.00    -0.744 OA
ENDBRANCH  82  86
ENDBRANCH  56  79
ENDBRANCH  30  31
ENDBRANCH  23  25
ENDBRANCH  22  23
ENDBRANCH   1  22
TORSDOF 16
