REMARK SMILES C[C@H](NC(=O)OCc1ccccc1)C(=O)NCC(=O)N1CCC[C@H]1C(=O)OCCOC(=O)c1ccc(-c2c3nc(c(-c4cc(S(=O)(=O)[O-])ccc4F)c4ccc([nH]4)c(-c4cc(S(=O)(=O)[O-])ccc4F)c4nc(c(-c5cc(S(=O)(=O)[O-])ccc5F)c5ccc2[nH]5)C=C4)C=C3)cc1
REMARK SMILES IDX 25 1 26 2 24 3 20 4 21 5 22 6 23 7 18 8 19 9 17 10 16 11
REMARK SMILES IDX 14 12 15 13 2 15 1 16 3 17 4 18 5 20 6 21 7 22 8 23 9 24
REMARK SMILES IDX 13 25 10 26 12 27 11 28 27 29 28 30 29 31 30 32 31 33 32 34
REMARK SMILES IDX 33 35 34 36 95 37 35 38 94 39 36 40 37 41 38 42 88 43 39 44
REMARK SMILES IDX 93 45 87 46 89 47 40 48 92 49 86 50 85 51 41 53 73 54 53 55
REMARK SMILES IDX 72 56 54 57 57 58 71 59 90 60 55 61 56 62 70 64 91 65 58 66
REMARK SMILES IDX 42 67 43 68 51 69 44 70 50 71 52 72 49 73 45 74 46 75 47 76
REMARK SMILES IDX 48 77 74 78 75 79 83 80 76 81 82 82 84 83 81 84 77 85 78 86
REMARK SMILES IDX 79 87 80 88 59 89 60 90 68 91 61 92 67 93 69 94 66 95 62 96
REMARK SMILES IDX 63 97 64 98 65 99
REMARK H PARENT 16 14 3 19 89 52 57 63
REMARK Flexibility Score: inf
ROOT
ATOM      1  C   UNL     1      -2.041  -0.293   4.554  1.00  0.00     0.328 C 
ATOM      2  O   UNL     1      -2.360   0.657   5.260  1.00  0.00    -0.250 OA
ENDROOT
BRANCH   1   3
ATOM      3  C   UNL     1      -0.988  -0.226   3.428  1.00  0.00     0.195 C 
ATOM      4  N   UNL     1      -1.500  -0.506   2.082  1.00  0.00    -0.327 N 
ATOM      5  C   UNL     1      -1.861   0.748   1.454  1.00  0.00     0.120 C 
ATOM      6  C   UNL     1      -0.825   1.732   1.960  1.00  0.00     0.024 C 
ATOM      7  C   UNL     1      -0.392   1.192   3.317  1.00  0.00     0.039 C 
BRANCH   4   8
ATOM      8  C   UNL     1      -1.475  -1.791   1.601  1.00  0.00     0.242 C 
ATOM      9  O   UNL     1      -1.284  -2.747   2.363  1.00  0.00    -0.273 OA
BRANCH   8  10
ATOM     10  C   UNL     1      -1.650  -2.131   0.108  1.00  0.00     0.216 C 
BRANCH  10  11
ATOM     11  N   UNL     1      -1.825  -1.139  -0.928  1.00  0.00    -0.345 N 
ATOM     12  C   UNL     1      -0.928  -0.503  -1.725  1.00  0.00     0.242 C 
ATOM     13  O   UNL     1      -1.409   0.181  -2.638  1.00  0.00    -0.273 OA
ATOM     14  H   UNL     1      -2.761  -0.879  -1.084  1.00  0.00     0.164 HD
BRANCH  12  15
ATOM     15  C   UNL     1       0.605  -0.663  -1.613  1.00  0.00     0.171 C 
ATOM     16  C   UNL     1       1.099  -1.905  -2.339  1.00  0.00     0.042 C 
BRANCH  15  17
ATOM     17  N   UNL     1       1.147  -0.413  -0.284  1.00  0.00    -0.310 N 
ATOM     18  C   UNL     1       1.550  -1.234   0.721  1.00  0.00     0.408 C 
ATOM     19  H   UNL     1       1.240   0.544  -0.071  1.00  0.00     0.167 HD
ATOM     20  O   UNL     1       1.819  -0.770   1.814  1.00  0.00    -0.225 OA
BRANCH  18  21
ATOM     21  O   UNL     1       1.591  -2.541   0.377  1.00  0.00    -0.445 OA
BRANCH  21  22
ATOM     22  C   UNL     1       1.927  -3.442   1.446  1.00  0.00     0.270 C 
BRANCH  22  23
ATOM     23  C   UNL     1       3.384  -3.417   1.843  1.00  0.00    -0.011 A 
ATOM     24  C   UNL     1       3.743  -3.852   3.129  1.00  0.00     0.007 A 
ATOM     25  C   UNL     1       4.389  -2.969   0.975  1.00  0.00     0.007 A 
ATOM     26  C   UNL     1       5.070  -3.794   3.553  1.00  0.00     0.000 A 
ATOM     27  C   UNL     1       5.716  -2.902   1.405  1.00  0.00     0.000 A 
ATOM     28  C   UNL     1       6.054  -3.308   2.695  1.00  0.00     0.000 A 
ENDBRANCH  22  23
ENDBRANCH  21  22
ENDBRANCH  18  21
ENDBRANCH  15  17
ENDBRANCH  12  15
ENDBRANCH  10  11
ENDBRANCH   8  10
ENDBRANCH   4   8
ENDBRANCH   1   3
BRANCH   1  29
ATOM     29  O   UNL     1      -2.513  -1.557   4.734  1.00  0.00    -0.461 OA
BRANCH  29  30
ATOM     30  C   UNL     1      -3.303  -1.773   5.916  1.00  0.00     0.274 C 
BRANCH  30  31
ATOM     31  C   UNL     1      -2.467  -2.393   7.042  1.00  0.00     0.275 C 
BRANCH  31  32
ATOM     32  O   UNL     1      -1.460  -1.485   7.533  1.00  0.00    -0.458 OA
BRANCH  32  33
ATOM     33  C   UNL     1      -0.222  -1.665   7.009  1.00  0.00     0.338 C 
ATOM     34  O   UNL     1       0.113  -2.518   6.204  1.00  0.00    -0.246 OA
BRANCH  33  35
ATOM     35  C   UNL     1       0.671  -0.568   7.421  1.00  0.00     0.060 A 
ATOM     36  C   UNL     1       1.195   0.241   6.413  1.00  0.00     0.016 A 
ATOM     37  C   UNL     1       1.070  -0.383   8.745  1.00  0.00     0.016 A 
ATOM     38  C   UNL     1       2.099   1.255   6.711  1.00  0.00     0.010 A 
ATOM     39  C   UNL     1       1.995   0.628   9.046  1.00  0.00     0.010 A 
ATOM     40  C   UNL     1       2.518   1.451   8.030  1.00  0.00    -0.014 A 
BRANCH  40  41
ATOM     41  C   UNL     1       3.571   2.460   8.310  1.00  0.00     0.031 A 
ATOM     42  C   UNL     1       4.969   2.008   8.619  1.00  0.00     0.074 A 
ATOM     43  C   UNL     1       3.287   3.774   8.240  1.00  0.00     0.049 A 
ATOM     44  N   UNL     1       6.013   2.713   8.971  1.00  0.00    -0.248 NA
ATOM     45  C   UNL     1       5.218   0.563   8.525  1.00  0.00     0.031 C 
ATOM     46  C   UNL     1       1.982   4.333   7.886  1.00  0.00     0.029 A 
ATOM     47  N   UNL     1       4.074   4.875   8.467  1.00  0.00    -0.354 N 
ATOM     48  C   UNL     1       7.042   1.797   9.165  1.00  0.00     0.074 A 
ATOM     49  C   UNL     1       6.480   0.484   8.919  1.00  0.00     0.031 C 
ATOM     50  C   UNL     1       2.055   5.673   7.934  1.00  0.00     0.029 A 
ATOM     51  C   UNL     1       3.392   6.065   8.375  1.00  0.00     0.049 A 
ATOM     52  H   UNL     1       5.035   4.818   8.676  1.00  0.00     0.167 HD
ATOM     53  C   UNL     1       8.332   2.033   9.514  1.00  0.00     0.034 A 
ATOM     54  C   UNL     1       3.783   7.324   8.659  1.00  0.00     0.034 A 
ATOM     55  C   UNL     1       8.868   3.354   9.755  1.00  0.00     0.049 A 
ATOM     56  C   UNL     1       5.198   7.561   9.123  1.00  0.00     0.074 A 
ATOM     57  C   UNL     1      10.161   3.712  10.095  1.00  0.00     0.029 A 
ATOM     58  N   UNL     1       8.136   4.535   9.695  1.00  0.00    -0.354 N 
ATOM     59  N   UNL     1       6.161   6.690   9.317  1.00  0.00    -0.248 NA
ATOM     60  C   UNL     1       5.579   8.951   9.400  1.00  0.00     0.031 C 
ATOM     61  C   UNL     1      10.191   5.094  10.319  1.00  0.00     0.029 A 
ATOM     62  C   UNL     1       8.940   5.616  10.032  1.00  0.00     0.049 A 
ATOM     63  H   UNL     1       7.185   4.596   9.448  1.00  0.00     0.167 HD
ATOM     64  C   UNL     1       7.268   7.429   9.724  1.00  0.00     0.074 A 
ATOM     65  C   UNL     1       6.857   8.819   9.728  1.00  0.00     0.031 C 
ATOM     66  C   UNL     1       8.513   6.998  10.058  1.00  0.00     0.034 A 
BRANCH  53  67
ATOM     67  C   UNL     1       9.218   0.827   9.731  1.00  0.00     0.023 A 
ATOM     68  C   UNL     1       9.502  -0.088   8.701  1.00  0.00     0.031 A 
ATOM     69  C   UNL     1       9.731   0.551  11.012  1.00  0.00     0.131 A 
ATOM     70  C   UNL     1      10.189  -1.278   8.991  1.00  0.00     0.055 A 
ATOM     71  C   UNL     1      10.493  -0.590  11.273  1.00  0.00     0.041 A 
ATOM     72  F   UNL     1       9.477   1.373  12.042  1.00  0.00    -0.206 F 
ATOM     73  C   UNL     1      10.708  -1.524  10.264  1.00  0.00     0.022 A 
BRANCH  70  74
ATOM     74  S   UNL     1      10.233  -2.584   7.730  1.00  0.00     0.124 S 
ATOM     75  O   UNL     1       8.811  -2.779   7.454  1.00  0.00    -0.237 OA
ATOM     76  O   UNL     1      11.012  -1.966   6.664  1.00  0.00    -0.237 OA
ATOM     77  O   UNL     1      10.884  -3.700   8.414  1.00  0.00    -0.744 OA
ENDBRANCH  70  74
ENDBRANCH  53  67
BRANCH  54  78
ATOM     78  C   UNL     1       2.797   8.440   8.588  1.00  0.00     0.023 A 
ATOM     79  C   UNL     1       2.932   9.486   7.663  1.00  0.00     0.031 A 
ATOM     80  C   UNL     1       1.702   8.477   9.471  1.00  0.00     0.131 A 
ATOM     81  C   UNL     1       1.999  10.537   7.658  1.00  0.00     0.055 A 
ATOM     82  C   UNL     1       0.751   9.496   9.429  1.00  0.00     0.041 A 
ATOM     83  F   UNL     1       1.528   7.502  10.378  1.00  0.00    -0.206 F 
ATOM     84  C   UNL     1       0.902  10.540   8.523  1.00  0.00     0.022 A 
BRANCH  81  85
ATOM     85  S   UNL     1       2.269  11.939   6.538  1.00  0.00     0.124 S 
ATOM     86  O   UNL     1       3.558  12.443   6.997  1.00  0.00    -0.237 OA
ATOM     87  O   UNL     1       2.262  11.290   5.231  1.00  0.00    -0.237 OA
ATOM     88  O   UNL     1       1.127  12.812   6.803  1.00  0.00    -0.744 OA
ENDBRANCH  81  85
ENDBRANCH  54  78
BRANCH  66  89
ATOM     89  C   UNL     1       9.530   8.055  10.422  1.00  0.00     0.023 A 
ATOM     90  C   UNL     1       9.401   8.845  11.579  1.00  0.00     0.031 A 
ATOM     91  C   UNL     1      10.642   8.282   9.590  1.00  0.00     0.131 A 
ATOM     92  C   UNL     1      10.336   9.860  11.841  1.00  0.00     0.055 A 
ATOM     93  C   UNL     1      11.602   9.250   9.890  1.00  0.00     0.041 A 
ATOM     94  F   UNL     1      10.815   7.563   8.469  1.00  0.00    -0.206 F 
ATOM     95  C   UNL     1      11.445  10.055  11.014  1.00  0.00     0.022 A 
BRANCH  92  96
ATOM     96  S   UNL     1      10.032  10.991  13.227  1.00  0.00     0.124 S 
ATOM     97  O   UNL     1       8.729  11.551  12.881  1.00  0.00    -0.237 OA
ATOM     98  O   UNL     1      10.055  10.091  14.376  1.00  0.00    -0.237 OA
ATOM     99  O   UNL     1      11.149  11.931  13.155  1.00  0.00    -0.744 OA
ENDBRANCH  92  96
ENDBRANCH  66  89
ENDBRANCH  40  41
ENDBRANCH  33  35
ENDBRANCH  32  33
ENDBRANCH  31  32
ENDBRANCH  30  31
ENDBRANCH  29  30
ENDBRANCH   1  29
TORSDOF 22
