REMARK SMILES Cc1ccc(-c2cnnc(-n3nc(C)c4c3NC(=O)C[C@@H]4c3ccc(C(=O)OCCOC(=O)c4ccc(-c5c6nc(c(-c7cc(S(=O)(=O)[O-])ccc7F)c7ccc([nH]7)c(-c7cc(S(=O)(=O)[O-])ccc7F)c7nc(c(-c8cc(S(=O)(=O)[O-])ccc8F)c8ccc5[nH]8)C=C7)C=C6)cc4)cc3)n2)cc1
REMARK SMILES IDX 29 1 28 2 26 3 27 4 25 5 22 6 23 7 98 8 24 9 97 10 21 11
REMARK SMILES IDX 11 12 12 13 16 14 13 15 15 16 17 17 14 18 18 19 20 21 19 22
REMARK SMILES IDX 10 23 6 24 7 25 99 26 8 27 9 28 5 29 1 30 2 31 3 32 101 33
REMARK SMILES IDX 4 34 100 35 30 36 31 37 32 38 33 39 34 40 35 41 96 42 36 43
REMARK SMILES IDX 95 44 37 45 38 46 39 47 89 48 40 49 94 50 88 51 90 52 41 53
REMARK SMILES IDX 93 54 87 55 86 56 42 58 74 59 54 60 73 61 55 62 58 63 72 64
REMARK SMILES IDX 91 65 56 66 57 67 71 69 92 70 59 71 43 72 44 73 52 74 45 75
REMARK SMILES IDX 51 76 53 77 50 78 46 79 47 80 48 81 49 82 75 83 76 84 84 85
REMARK SMILES IDX 77 86 83 87 85 88 82 89 78 90 79 91 80 92 81 93 60 94 61 95
REMARK SMILES IDX 69 96 62 97 68 98 70 99 67 100 63 101 64 102 65 103 66 104
REMARK H PARENT 17 20 90 57 58 68
REMARK Flexibility Score: inf
ROOT
ATOM      1  C   UNL     1     -11.099   7.551  -7.703  1.00  0.00     0.275 C 
ENDROOT
BRANCH   1   2
ATOM      2  O   UNL     1      -9.934   6.715  -7.782  1.00  0.00    -0.458 OA
BRANCH   2   3
ATOM      3  C   UNL     1     -10.114   5.519  -7.184  1.00  0.00     0.338 C 
ATOM      4  O   UNL     1     -11.090   5.168  -6.540  1.00  0.00    -0.246 OA
BRANCH   3   5
ATOM      5  C   UNL     1      -8.888   4.720  -7.143  1.00  0.00     0.060 A 
ATOM      6  C   UNL     1      -7.273   2.669  -6.202  1.00  0.00    -0.040 A 
ATOM      7  C   UNL     1      -7.928   2.521  -7.424  1.00  0.00     0.005 A 
ATOM      8  C   UNL     1      -7.258   3.941  -5.591  1.00  0.00     0.005 A 
ATOM      9  C   UNL     1      -8.732   3.550  -7.890  1.00  0.00     0.016 A 
ATOM     10  C   UNL     1      -8.100   4.946  -6.029  1.00  0.00     0.016 A 
BRANCH   6  11
ATOM     11  C   UNL     1      -6.742   1.411  -5.547  1.00  0.00     0.064 C 
ATOM     12  N   UNL     1      -5.729   2.012  -2.139  1.00  0.00    -0.180 N 
ATOM     13  N   UNL     1      -7.032   2.350  -1.954  1.00  0.00    -0.168 NA
ATOM     14  C   UNL     1      -5.434   2.001  -3.488  1.00  0.00     0.143 A 
ATOM     15  C   UNL     1      -7.617   2.021  -3.109  1.00  0.00     0.066 A 
ATOM     16  C   UNL     1      -6.637   1.705  -4.094  1.00  0.00     0.026 A 
ATOM     17  N   UNL     1      -4.297   2.225  -4.246  1.00  0.00    -0.310 N 
ATOM     18  C   UNL     1      -9.086   2.202  -3.237  1.00  0.00     0.069 C 
ATOM     19  C   UNL     1      -4.328   1.935  -5.658  1.00  0.00     0.226 C 
ATOM     20  H   UNL     1      -3.479   2.578  -3.826  1.00  0.00     0.171 HD
ATOM     21  C   UNL     1      -5.399   0.973  -6.115  1.00  0.00     0.113 C 
ATOM     22  O   UNL     1      -3.440   2.382  -6.342  1.00  0.00    -0.275 OA
BRANCH  12  23
ATOM     23  C   UNL     1      -5.018   1.327  -1.122  1.00  0.00     0.272 A 
ATOM     24  C   UNL     1      -3.182   0.233  -0.355  1.00  0.00     0.095 A 
ATOM     25  C   UNL     1      -3.975  -0.424   0.569  1.00  0.00     0.164 A 
ATOM     26  N   UNL     1      -3.699   1.092  -1.269  1.00  0.00    -0.208 NA
ATOM     27  N   UNL     1      -5.283  -0.161   0.668  1.00  0.00    -0.153 NA
ATOM     28  N   UNL     1      -5.798   0.763  -0.162  1.00  0.00    -0.109 NA
BRANCH  24  29
ATOM     29  C   UNL     1      -1.724   0.132  -0.309  1.00  0.00     0.002 A 
ATOM     30  C   UNL     1       2.575  -0.056   0.064  1.00  0.00     0.044 C 
ATOM     31  C   UNL     1       1.083   0.016  -0.054  1.00  0.00    -0.051 A 
ATOM     32  C   UNL     1       0.326  -1.160  -0.102  1.00  0.00     0.004 A 
ATOM     33  C   UNL     1       0.434   1.250  -0.134  1.00  0.00     0.004 A 
ATOM     34  C   UNL     1      -1.064  -1.103  -0.227  1.00  0.00     0.011 A 
ATOM     35  C   UNL     1      -0.952   1.305  -0.265  1.00  0.00     0.011 A 
ENDBRANCH  24  29
ENDBRANCH  12  23
ENDBRANCH   6  11
ENDBRANCH   3   5
ENDBRANCH   2   3
ENDBRANCH   1   2
BRANCH   1  36
ATOM     36  C   UNL     1     -11.119   8.615  -8.813  1.00  0.00     0.275 C 
BRANCH  36  37
ATOM     37  O   UNL     1     -11.211   8.189 -10.191  1.00  0.00    -0.458 OA
BRANCH  37  38
ATOM     38  C   UNL     1     -10.536   7.062 -10.539  1.00  0.00     0.338 C 
ATOM     39  O   UNL     1      -9.326   7.004 -10.672  1.00  0.00    -0.246 OA
BRANCH  38  40
ATOM     40  C   UNL     1     -11.453   5.905 -10.388  1.00  0.00     0.060 A 
ATOM     41  C   UNL     1     -10.893   4.629 -10.279  1.00  0.00     0.016 A 
ATOM     42  C   UNL     1     -12.777   6.145 -10.007  1.00  0.00     0.016 A 
ATOM     43  C   UNL     1     -11.612   3.618  -9.653  1.00  0.00     0.010 A 
ATOM     44  C   UNL     1     -13.439   5.192  -9.280  1.00  0.00     0.010 A 
ATOM     45  C   UNL     1     -12.858   3.925  -9.126  1.00  0.00    -0.014 A 
BRANCH  45  46
ATOM     46  C   UNL     1     -13.835   2.901  -8.827  1.00  0.00     0.031 A 
ATOM     47  C   UNL     1     -14.122   2.474  -7.453  1.00  0.00     0.074 A 
ATOM     48  C   UNL     1     -14.591   2.742  -9.934  1.00  0.00     0.049 A 
ATOM     49  N   UNL     1     -14.928   1.520  -7.161  1.00  0.00    -0.248 NA
ATOM     50  C   UNL     1     -13.483   3.020  -6.255  1.00  0.00     0.031 C 
ATOM     51  C   UNL     1     -15.969   2.359 -10.146  1.00  0.00     0.029 A 
ATOM     52  N   UNL     1     -14.075   2.832 -11.233  1.00  0.00    -0.354 N 
ATOM     53  C   UNL     1     -15.243   1.655  -5.822  1.00  0.00     0.074 A 
ATOM     54  C   UNL     1     -14.187   2.452  -5.267  1.00  0.00     0.031 C 
ATOM     55  C   UNL     1     -16.104   1.967 -11.432  1.00  0.00     0.029 A 
ATOM     56  C   UNL     1     -14.764   1.915 -12.013  1.00  0.00     0.049 A 
ATOM     57  H   UNL     1     -13.357   3.433 -11.536  1.00  0.00     0.167 HD
ATOM     58  C   UNL     1     -16.483   1.257  -5.420  1.00  0.00     0.034 A 
ATOM     59  C   UNL     1     -14.081   0.770 -12.328  1.00  0.00     0.034 A 
ATOM     60  C   UNL     1     -17.193   0.690  -6.564  1.00  0.00     0.049 A 
ATOM     61  C   UNL     1     -14.673  -0.427 -11.606  1.00  0.00     0.074 A 
ATOM     62  C   UNL     1     -18.122   1.198  -7.455  1.00  0.00     0.029 A 
ATOM     63  N   UNL     1     -16.670  -0.443  -7.150  1.00  0.00    -0.354 N 
ATOM     64  N   UNL     1     -15.315  -0.375 -10.467  1.00  0.00    -0.248 NA
ATOM     65  C   UNL     1     -14.608  -1.776 -12.146  1.00  0.00     0.031 C 
ATOM     66  C   UNL     1     -18.121   0.353  -8.606  1.00  0.00     0.029 A 
ATOM     67  C   UNL     1     -17.189  -0.650  -8.406  1.00  0.00     0.049 A 
ATOM     68  H   UNL     1     -16.006  -1.031  -6.722  1.00  0.00     0.167 HD
ATOM     69  C   UNL     1     -15.853  -1.604 -10.180  1.00  0.00     0.074 A 
ATOM     70  C   UNL     1     -15.292  -2.465 -11.214  1.00  0.00     0.031 C 
ATOM     71  C   UNL     1     -16.733  -1.812  -9.145  1.00  0.00     0.034 A 
BRANCH  58  72
ATOM     72  C   UNL     1     -17.193   1.600  -4.133  1.00  0.00     0.023 A 
ATOM     73  C   UNL     1     -18.603   1.522  -4.132  1.00  0.00     0.031 A 
ATOM     74  C   UNL     1     -16.613   2.006  -2.918  1.00  0.00     0.131 A 
ATOM     75  C   UNL     1     -19.373   1.887  -3.018  1.00  0.00     0.055 A 
ATOM     76  C   UNL     1     -17.382   2.381  -1.801  1.00  0.00     0.041 A 
ATOM     77  F   UNL     1     -15.287   2.029  -2.739  1.00  0.00    -0.206 F 
ATOM     78  C   UNL     1     -18.770   2.329  -1.848  1.00  0.00     0.022 A 
BRANCH  75  79
ATOM     79  S   UNL     1     -21.177   1.776  -3.148  1.00  0.00     0.124 S 
ATOM     80  O   UNL     1     -21.464   2.725  -4.218  1.00  0.00    -0.237 OA
ATOM     81  O   UNL     1     -21.379   0.366  -3.464  1.00  0.00    -0.237 OA
ATOM     82  O   UNL     1     -21.637   2.183  -1.821  1.00  0.00    -0.744 OA
ENDBRANCH  75  79
ENDBRANCH  58  72
BRANCH  59  83
ATOM     83  C   UNL     1     -12.606   0.998 -12.594  1.00  0.00     0.023 A 
ATOM     84  C   UNL     1     -12.241   2.054 -13.469  1.00  0.00     0.031 A 
ATOM     85  C   UNL     1     -11.585   0.463 -11.794  1.00  0.00     0.131 A 
ATOM     86  C   UNL     1     -10.960   2.631 -13.415  1.00  0.00     0.055 A 
ATOM     87  C   UNL     1     -10.280   0.992 -11.804  1.00  0.00     0.041 A 
ATOM     88  F   UNL     1     -11.842  -0.511 -10.910  1.00  0.00    -0.206 F 
ATOM     89  C   UNL     1      -9.970   2.101 -12.591  1.00  0.00     0.022 A 
BRANCH  86  90
ATOM     90  S   UNL     1     -10.706   4.257 -14.202  1.00  0.00     0.124 S 
ATOM     91  O   UNL     1     -10.571   3.898 -15.608  1.00  0.00    -0.237 OA
ATOM     92  O   UNL     1     -11.925   4.974 -13.835  1.00  0.00    -0.237 OA
ATOM     93  O   UNL     1      -9.490   4.749 -13.559  1.00  0.00    -0.744 OA
ENDBRANCH  86  90
ENDBRANCH  59  83
BRANCH  71  94
ATOM     94  C   UNL     1     -17.246  -3.160  -8.693  1.00  0.00     0.023 A 
ATOM     95  C   UNL     1     -17.366  -4.235  -9.569  1.00  0.00     0.031 A 
ATOM     96  C   UNL     1     -17.644  -3.418  -7.353  1.00  0.00     0.131 A 
ATOM     97  C   UNL     1     -17.675  -5.518  -9.095  1.00  0.00     0.055 A 
ATOM     98  C   UNL     1     -18.050  -4.673  -6.901  1.00  0.00     0.041 A 
ATOM     99  F   UNL     1     -17.630  -2.482  -6.395  1.00  0.00    -0.206 F 
ATOM    100  C   UNL     1     -18.030  -5.747  -7.768  1.00  0.00     0.022 A 
BRANCH  97 101
ATOM    101  S   UNL     1     -17.499  -6.893 -10.248  1.00  0.00     0.124 S 
ATOM    102  O   UNL     1     -18.323  -6.466 -11.374  1.00  0.00    -0.237 OA
ATOM    103  O   UNL     1     -16.058  -6.893 -10.485  1.00  0.00    -0.237 OA
ATOM    104  O   UNL     1     -18.007  -8.038  -9.497  1.00  0.00    -0.744 OA
ENDBRANCH  97 101
ENDBRANCH  71  94
ENDBRANCH  45  46
ENDBRANCH  38  40
ENDBRANCH  37  38
ENDBRANCH  36  37
ENDBRANCH   1  36
TORSDOF 17
