REMARK SMILES O=C(CCc1ccc(S(=O)(=O)Nc2cccc(I)c2)cc1)OCCOC(=O)c1ccc(-c2c3nc(c(-c4cc(S(=O)(=O)[O-])ccc4F)c4ccc([nH]4)c(-c4cc(S(=O)(=O)[O-])ccc4F)c4nc(c(-c5cc(S(=O)(=O)[O-])ccc5F)c5ccc2[nH]5)C=C4)C=C3)cc1
REMARK SMILES IDX 23 1 22 2 2 3 1 4 3 5 4 6 5 7 6 8 21 9 7 10 20 11 8 12 9 13
REMARK SMILES IDX 10 14 11 15 12 16 13 18 14 19 19 20 15 21 17 22 16 23 18 24
REMARK SMILES IDX 24 25 25 26 26 27 27 28 28 29 29 30 90 31 30 32 89 33 31 34
REMARK SMILES IDX 32 35 33 36 83 37 34 38 88 39 82 40 84 41 35 42 87 43 81 44
REMARK SMILES IDX 80 45 36 47 68 48 48 49 67 50 49 51 52 52 66 53 85 54 50 55
REMARK SMILES IDX 51 56 65 58 86 59 53 60 37 61 38 62 46 63 39 64 45 65 47 66
REMARK SMILES IDX 44 67 40 68 41 69 42 70 43 71 69 72 70 73 78 74 71 75 77 76
REMARK SMILES IDX 79 77 76 78 72 79 73 80 74 81 75 82 54 83 55 84 63 85 56 86
REMARK SMILES IDX 62 87 64 88 61 89 57 90 58 91 59 92 60 93
REMARK H PARENT 12 17 84 46 52 57
REMARK Flexibility Score: inf
ROOT
ATOM      1  C   UNL     1       3.621  -0.738  -1.199  1.00  0.00     0.274 C 
ENDROOT
BRANCH   1   2
ATOM      2  O   UNL     1       2.317  -0.573  -0.614  1.00  0.00    -0.462 OA
BRANCH   2   3
ATOM      3  C   UNL     1       2.187  -0.396   0.728  1.00  0.00     0.306 C 
ATOM      4  O   UNL     1       1.365  -1.042   1.372  1.00  0.00    -0.252 OA
BRANCH   3   5
ATOM      5  C   UNL     1       2.980   0.731   1.359  1.00  0.00     0.127 C 
BRANCH   5   6
ATOM      6  C   UNL     1       3.805   0.274   2.567  1.00  0.00     0.047 C 
BRANCH   6   7
ATOM      7  C   UNL     1       4.972  -0.587   2.138  1.00  0.00    -0.047 A 
ATOM      8  C   UNL     1       4.969  -1.965   2.382  1.00  0.00     0.005 A 
ATOM      9  C   UNL     1       5.986  -0.037   1.343  1.00  0.00     0.005 A 
ATOM     10  C   UNL     1       5.944  -2.784   1.806  1.00  0.00     0.022 A 
ATOM     11  C   UNL     1       6.890  -0.870   0.682  1.00  0.00     0.022 A 
ATOM     12  C   UNL     1       6.902  -2.241   0.938  1.00  0.00     0.087 A 
BRANCH  12  13
ATOM     13  S   UNL     1       7.963  -3.374   0.063  1.00  0.00     0.261 S 
ATOM     14  O   UNL     1       8.196  -4.487   0.966  1.00  0.00    -0.201 OA
ATOM     15  O   UNL     1       7.354  -3.592  -1.231  1.00  0.00    -0.201 OA
BRANCH  13  16
ATOM     16  N   UNL     1       9.526  -2.775  -0.183  1.00  0.00    -0.280 N 
ATOM     17  H   UNL     1      10.243  -3.414  -0.398  1.00  0.00     0.180 HD
BRANCH  16  18
ATOM     18  C   UNL     1       9.854  -1.401  -0.095  1.00  0.00     0.050 A 
ATOM     19  C   UNL     1      10.091  -0.667  -1.258  1.00  0.00     0.027 A 
ATOM     20  C   UNL     1       9.959  -0.798   1.159  1.00  0.00     0.041 A 
ATOM     21  C   UNL     1      10.402   0.692  -1.165  1.00  0.00     0.003 A 
ATOM     22  C   UNL     1      10.225   0.567   1.242  1.00  0.00     0.015 A 
ATOM     23  C   UNL     1      10.453   1.314   0.086  1.00  0.00     0.015 A 
ATOM     24  I   UNL     1      10.213   1.496   3.098  1.00  0.00    -0.044 I 
ENDBRANCH  16  18
ENDBRANCH  13  16
ENDBRANCH  12  13
ENDBRANCH   6   7
ENDBRANCH   5   6
ENDBRANCH   3   5
ENDBRANCH   2   3
ENDBRANCH   1   2
BRANCH   1  25
ATOM     25  C   UNL     1       3.973   0.325  -2.241  1.00  0.00     0.275 C 
BRANCH  25  26
ATOM     26  O   UNL     1       3.678   1.643  -1.758  1.00  0.00    -0.458 OA
BRANCH  26  27
ATOM     27  C   UNL     1       2.407   2.038  -2.027  1.00  0.00     0.338 C 
ATOM     28  O   UNL     1       1.610   1.473  -2.759  1.00  0.00    -0.246 OA
BRANCH  27  29
ATOM     29  C   UNL     1       2.043   3.167  -1.152  1.00  0.00     0.060 A 
ATOM     30  C   UNL     1       0.781   3.131  -0.550  1.00  0.00     0.016 A 
ATOM     31  C   UNL     1       2.902   4.250  -0.937  1.00  0.00     0.016 A 
ATOM     32  C   UNL     1       0.350   4.204   0.226  1.00  0.00     0.010 A 
ATOM     33  C   UNL     1       2.466   5.327  -0.159  1.00  0.00     0.010 A 
ATOM     34  C   UNL     1       1.174   5.324   0.396  1.00  0.00    -0.014 A 
BRANCH  34  35
ATOM     35  C   UNL     1       0.611   6.543   1.026  1.00  0.00     0.031 A 
ATOM     36  C   UNL     1       0.103   7.649   0.140  1.00  0.00     0.074 A 
ATOM     37  C   UNL     1       0.498   6.635   2.363  1.00  0.00     0.049 A 
ATOM     38  N   UNL     1      -0.475   8.775   0.467  1.00  0.00    -0.248 NA
ATOM     39  C   UNL     1       0.271   7.456  -1.310  1.00  0.00     0.031 C 
ATOM     40  C   UNL     1       0.932   5.616   3.319  1.00  0.00     0.029 A 
ATOM     41  N   UNL     1      -0.021   7.633   3.149  1.00  0.00    -0.354 N 
ATOM     42  C   UNL     1      -0.762   9.416  -0.733  1.00  0.00     0.074 A 
ATOM     43  C   UNL     1      -0.241   8.578  -1.793  1.00  0.00     0.031 C 
ATOM     44  C   UNL     1       0.663   6.045   4.564  1.00  0.00     0.029 A 
ATOM     45  C   UNL     1       0.059   7.374   4.497  1.00  0.00     0.049 A 
ATOM     46  H   UNL     1      -0.414   8.457   2.782  1.00  0.00     0.167 HD
ATOM     47  C   UNL     1      -1.419  10.584  -0.935  1.00  0.00     0.034 A 
ATOM     48  C   UNL     1      -0.307   8.129   5.553  1.00  0.00     0.034 A 
ATOM     49  C   UNL     1      -1.914  11.422   0.129  1.00  0.00     0.049 A 
ATOM     50  C   UNL     1      -0.963   9.467   5.301  1.00  0.00     0.074 A 
ATOM     51  C   UNL     1      -2.590  12.626   0.035  1.00  0.00     0.029 A 
ATOM     52  N   UNL     1      -1.776  11.151   1.484  1.00  0.00    -0.354 N 
ATOM     53  N   UNL     1      -1.255  10.046   4.159  1.00  0.00    -0.248 NA
ATOM     54  C   UNL     1      -1.355  10.245   6.484  1.00  0.00     0.031 C 
ATOM     55  C   UNL     1      -2.801  13.114   1.330  1.00  0.00     0.029 A 
ATOM     56  C   UNL     1      -2.326  12.179   2.235  1.00  0.00     0.049 A 
ATOM     57  H   UNL     1      -1.350  10.345   1.857  1.00  0.00     0.167 HD
ATOM     58  C   UNL     1      -1.894  11.239   4.490  1.00  0.00     0.074 A 
ATOM     59  C   UNL     1      -1.967  11.282   5.935  1.00  0.00     0.031 C 
ATOM     60  C   UNL     1      -2.379  12.214   3.677  1.00  0.00     0.034 A 
BRANCH  47  61
ATOM     61  C   UNL     1      -1.606  11.035  -2.363  1.00  0.00     0.023 A 
ATOM     62  C   UNL     1      -2.412  10.316  -3.262  1.00  0.00     0.031 A 
ATOM     63  C   UNL     1      -0.962  12.192  -2.834  1.00  0.00     0.131 A 
ATOM     64  C   UNL     1      -2.510  10.729  -4.599  1.00  0.00     0.055 A 
ATOM     65  C   UNL     1      -1.120  12.639  -4.147  1.00  0.00     0.041 A 
ATOM     66  F   UNL     1      -0.160  12.905  -2.027  1.00  0.00    -0.206 F 
ATOM     67  C   UNL     1      -1.889  11.900  -5.042  1.00  0.00     0.022 A 
BRANCH  64  68
ATOM     68  S   UNL     1      -3.365   9.653  -5.783  1.00  0.00     0.124 S 
ATOM     69  O   UNL     1      -2.558   8.437  -5.710  1.00  0.00    -0.237 OA
ATOM     70  O   UNL     1      -4.707   9.566  -5.219  1.00  0.00    -0.237 OA
ATOM     71  O   UNL     1      -3.265  10.384  -7.045  1.00  0.00    -0.744 OA
ENDBRANCH  64  68
ENDBRANCH  47  61
BRANCH  48  72
ATOM     72  C   UNL     1      -0.039   7.672   6.948  1.00  0.00     0.023 A 
ATOM     73  C   UNL     1      -1.085   7.464   7.862  1.00  0.00     0.031 A 
ATOM     74  C   UNL     1       1.280   7.527   7.415  1.00  0.00     0.131 A 
ATOM     75  C   UNL     1      -0.795   7.191   9.208  1.00  0.00     0.055 A 
ATOM     76  C   UNL     1       1.562   7.194   8.741  1.00  0.00     0.041 A 
ATOM     77  F   UNL     1       2.319   7.714   6.585  1.00  0.00    -0.206 F 
ATOM     78  C   UNL     1       0.521   7.043   9.651  1.00  0.00     0.022 A 
BRANCH  75  79
ATOM     79  S   UNL     1      -2.162   7.153  10.400  1.00  0.00     0.124 S 
ATOM     80  O   UNL     1      -2.773   8.461  10.193  1.00  0.00    -0.237 OA
ATOM     81  O   UNL     1      -2.933   6.004   9.938  1.00  0.00    -0.237 OA
ATOM     82  O   UNL     1      -1.488   6.974  11.684  1.00  0.00    -0.744 OA
ENDBRANCH  75  79
ENDBRANCH  48  72
BRANCH  60  83
ATOM     83  C   UNL     1      -3.060  13.386   4.344  1.00  0.00     0.023 A 
ATOM     84  C   UNL     1      -2.355  14.274   5.176  1.00  0.00     0.031 A 
ATOM     85  C   UNL     1      -4.439  13.598   4.172  1.00  0.00     0.131 A 
ATOM     86  C   UNL     1      -3.042  15.288   5.859  1.00  0.00     0.055 A 
ATOM     87  C   UNL     1      -5.106  14.650   4.802  1.00  0.00     0.041 A 
ATOM     88  F   UNL     1      -5.164  12.782   3.390  1.00  0.00    -0.206 F 
ATOM     89  C   UNL     1      -4.411  15.492   5.665  1.00  0.00     0.022 A 
BRANCH  86  90
ATOM     90  S   UNL     1      -2.144  16.267   7.094  1.00  0.00     0.124 S 
ATOM     91  O   UNL     1      -1.639  15.235   7.993  1.00  0.00    -0.237 OA
ATOM     92  O   UNL     1      -1.141  16.949   6.281  1.00  0.00    -0.237 OA
ATOM     93  O   UNL     1      -3.175  17.134   7.661  1.00  0.00    -0.744 OA
ENDBRANCH  86  90
ENDBRANCH  60  83
ENDBRANCH  34  35
ENDBRANCH  27  29
ENDBRANCH  26  27
ENDBRANCH  25  26
ENDBRANCH   1  25
TORSDOF 19
