REMARK SMILES O=C(OCCOC(=O)c1cnc(OCC2CC2)c(Cl)c1)c1ccc(-c2c3nc(c(-c4cc(S(=O)(=O)[O-])ccc4F)c4ccc([nH]4)c(-c4cc(S(=O)(=O)[O-])ccc4F)c4nc(c(-c5cc(S(=O)(=O)[O-])ccc5F)c5ccc2[nH]5)C=C4)C=C3)cc1
REMARK SMILES IDX 4 1 3 2 2 3 1 4 21 5 22 6 83 7 23 8 82 9 24 10 25 11 26 12
REMARK SMILES IDX 76 13 27 14 81 15 75 16 77 17 28 18 80 19 74 20 73 21 29 23
REMARK SMILES IDX 61 24 41 25 60 26 42 27 45 28 59 29 78 30 43 31 44 32 58 34
REMARK SMILES IDX 79 35 46 36 30 37 31 38 39 39 32 40 38 41 40 42 37 43 33 44
REMARK SMILES IDX 34 45 35 46 36 47 62 48 63 49 71 50 64 51 70 52 72 53 69 54
REMARK SMILES IDX 65 55 66 56 67 57 68 58 47 59 48 60 56 61 49 62 55 63 57 64
REMARK SMILES IDX 54 65 50 66 51 67 52 68 53 69 5 70 6 71 7 72 8 73 9 74 10 75
REMARK SMILES IDX 20 76 11 77 18 78 12 79 19 80 13 81 14 82 15 83 16 84 17 85
REMARK H PARENT 77 22 45 33
REMARK Flexibility Score: inf
ROOT
ATOM      1  C   UNL     1       4.026  -0.286  -1.534  1.00  0.00     0.275 C 
ENDROOT
BRANCH   1   2
ATOM      2  O   UNL     1       2.944  -0.816  -0.751  1.00  0.00    -0.458 OA
BRANCH   2   3
ATOM      3  C   UNL     1       2.771  -0.854   0.591  1.00  0.00     0.338 C 
ATOM      4  O   UNL     1       1.769  -1.417   1.032  1.00  0.00    -0.246 OA
BRANCH   3   5
ATOM      5  C   UNL     1       3.648  -0.126   1.563  1.00  0.00     0.060 A 
ATOM      6  C   UNL     1       4.975   0.256   1.349  1.00  0.00     0.016 A 
ATOM      7  C   UNL     1       3.061   0.217   2.795  1.00  0.00     0.016 A 
ATOM      8  C   UNL     1       5.675   1.016   2.285  1.00  0.00     0.010 A 
ATOM      9  C   UNL     1       3.751   0.986   3.734  1.00  0.00     0.010 A 
ATOM     10  C   UNL     1       5.073   1.378   3.485  1.00  0.00    -0.014 A 
BRANCH  10  11
ATOM     11  C   UNL     1       5.907   1.972   4.552  1.00  0.00     0.031 A 
ATOM     12  C   UNL     1       6.269   1.083   5.710  1.00  0.00     0.074 A 
ATOM     13  C   UNL     1       6.327   3.250   4.472  1.00  0.00     0.049 A 
ATOM     14  N   UNL     1       6.938   1.362   6.794  1.00  0.00    -0.248 NA
ATOM     15  C   UNL     1       5.814  -0.318   5.628  1.00  0.00     0.031 C 
ATOM     16  C   UNL     1       6.045   4.175   3.367  1.00  0.00     0.029 A 
ATOM     17  N   UNL     1       7.018   4.021   5.372  1.00  0.00    -0.354 N 
ATOM     18  C   UNL     1       7.021   0.164   7.498  1.00  0.00     0.074 A 
ATOM     19  C   UNL     1       6.238  -0.812   6.779  1.00  0.00     0.031 C 
ATOM     20  C   UNL     1       6.483   5.405   3.696  1.00  0.00     0.029 A 
ATOM     21  C   UNL     1       7.066   5.356   5.031  1.00  0.00     0.049 A 
ATOM     22  H   UNL     1       7.440   3.655   6.183  1.00  0.00     0.167 HD
ATOM     23  C   UNL     1       7.740  -0.105   8.614  1.00  0.00     0.034 A 
ATOM     24  C   UNL     1       7.493   6.413   5.751  1.00  0.00     0.034 A 
ATOM     25  C   UNL     1       8.476   0.913   9.317  1.00  0.00     0.049 A 
ATOM     26  C   UNL     1       8.110   6.131   7.097  1.00  0.00     0.074 A 
ATOM     27  C   UNL     1       9.281   0.790  10.432  1.00  0.00     0.029 A 
ATOM     28  N   UNL     1       8.468   2.262   8.973  1.00  0.00    -0.354 N 
ATOM     29  N   UNL     1       8.236   4.985   7.729  1.00  0.00    -0.248 NA
ATOM     30  C   UNL     1       8.687   7.280   7.800  1.00  0.00     0.031 C 
ATOM     31  C   UNL     1       9.693   2.074  10.809  1.00  0.00     0.029 A 
ATOM     32  C   UNL     1       9.223   2.988   9.877  1.00  0.00     0.049 A 
ATOM     33  H   UNL     1       7.994   2.644   8.200  1.00  0.00     0.167 HD
ATOM     34  C   UNL     1       8.985   5.263   8.868  1.00  0.00     0.074 A 
ATOM     35  C   UNL     1       9.243   6.691   8.848  1.00  0.00     0.031 C 
ATOM     36  C   UNL     1       9.456   4.414   9.820  1.00  0.00     0.034 A 
BRANCH  23  37
ATOM     37  C   UNL     1       7.724  -1.529   9.120  1.00  0.00     0.023 A 
ATOM     38  C   UNL     1       8.176  -2.598   8.320  1.00  0.00     0.031 A 
ATOM     39  C   UNL     1       7.188  -1.840  10.380  1.00  0.00     0.131 A 
ATOM     40  C   UNL     1       7.992  -3.923   8.743  1.00  0.00     0.055 A 
ATOM     41  C   UNL     1       7.089  -3.158  10.834  1.00  0.00     0.041 A 
ATOM     42  F   UNL     1       6.718  -0.871  11.181  1.00  0.00    -0.206 F 
ATOM     43  C   UNL     1       7.473  -4.210  10.006  1.00  0.00     0.022 A 
BRANCH  40  44
ATOM     44  S   UNL     1       8.277  -5.261   7.550  1.00  0.00     0.124 S 
ATOM     45  O   UNL     1       7.348  -4.907   6.479  1.00  0.00    -0.237 OA
ATOM     46  O   UNL     1       9.694  -5.112   7.240  1.00  0.00    -0.237 OA
ATOM     47  O   UNL     1       7.926  -6.468   8.297  1.00  0.00    -0.744 OA
ENDBRANCH  40  44
ENDBRANCH  23  37
BRANCH  24  48
ATOM     48  C   UNL     1       7.374   7.813   5.247  1.00  0.00     0.023 A 
ATOM     49  C   UNL     1       8.499   8.522   4.805  1.00  0.00     0.031 A 
ATOM     50  C   UNL     1       6.150   8.504   5.291  1.00  0.00     0.131 A 
ATOM     51  C   UNL     1       8.379   9.878   4.449  1.00  0.00     0.055 A 
ATOM     52  C   UNL     1       6.020   9.830   4.871  1.00  0.00     0.041 A 
ATOM     53  F   UNL     1       5.058   7.924   5.799  1.00  0.00    -0.206 F 
ATOM     54  C   UNL     1       7.143  10.529   4.452  1.00  0.00     0.022 A 
BRANCH  51  55
ATOM     55  S   UNL     1       9.886  10.823   4.098  1.00  0.00     0.124 S 
ATOM     56  O   UNL     1      10.609  10.699   5.358  1.00  0.00    -0.237 OA
ATOM     57  O   UNL     1      10.442  10.095   2.962  1.00  0.00    -0.237 OA
ATOM     58  O   UNL     1       9.386  12.162   3.792  1.00  0.00    -0.744 OA
ENDBRANCH  51  55
ENDBRANCH  24  48
BRANCH  36  59
ATOM     59  C   UNL     1      10.383   5.007  10.849  1.00  0.00     0.023 A 
ATOM     60  C   UNL     1       9.950   5.958  11.786  1.00  0.00     0.031 A 
ATOM     61  C   UNL     1      11.738   4.624  10.866  1.00  0.00     0.131 A 
ATOM     62  C   UNL     1      10.879   6.550  12.651  1.00  0.00     0.055 A 
ATOM     63  C   UNL     1      12.639   5.155  11.787  1.00  0.00     0.041 A 
ATOM     64  F   UNL     1      12.205   3.724   9.986  1.00  0.00    -0.206 F 
ATOM     65  C   UNL     1      12.215   6.138  12.675  1.00  0.00     0.022 A 
BRANCH  62  66
ATOM     66  S   UNL     1      10.345   7.963  13.653  1.00  0.00     0.124 S 
ATOM     67  O   UNL     1       9.876   8.894  12.633  1.00  0.00    -0.237 OA
ATOM     68  O   UNL     1       9.314   7.372  14.500  1.00  0.00    -0.237 OA
ATOM     69  O   UNL     1      11.564   8.368  14.350  1.00  0.00    -0.744 OA
ENDBRANCH  62  66
ENDBRANCH  36  59
ENDBRANCH  10  11
ENDBRANCH   3   5
ENDBRANCH   2   3
ENDBRANCH   1   2
BRANCH   1  70
ATOM     70  C   UNL     1       3.987   1.230  -1.768  1.00  0.00     0.275 C 
BRANCH  70  71
ATOM     71  O   UNL     1       3.578   2.008  -0.630  1.00  0.00    -0.458 OA
BRANCH  71  72
ATOM     72  C   UNL     1       2.246   2.243  -0.538  1.00  0.00     0.339 C 
ATOM     73  O   UNL     1       1.383   1.884  -1.328  1.00  0.00    -0.246 OA
BRANCH  72  74
ATOM     74  C   UNL     1       1.937   2.922   0.725  1.00  0.00     0.080 A 
ATOM     75  C   UNL     1       0.994   2.369   1.565  1.00  0.00     0.131 A 
ATOM     76  C   UNL     1       2.503   4.136   1.093  1.00  0.00     0.043 A 
ATOM     77  N   UNL     1       0.651   2.912   2.757  1.00  0.00    -0.220 NA
ATOM     78  C   UNL     1       2.113   4.754   2.296  1.00  0.00     0.104 A 
ATOM     79  C   UNL     1       1.214   4.092   3.142  1.00  0.00     0.232 A 
ATOM     80  Cl  UNL     1       2.739   6.345   2.510  1.00  0.00    -0.078 Cl
BRANCH  79  81
ATOM     81  O   UNL     1       0.731   4.426   4.361  1.00  0.00    -0.476 OA
BRANCH  81  82
ATOM     82  C   UNL     1       1.218   5.474   5.186  1.00  0.00     0.235 C 
BRANCH  82  83
ATOM     83  C   UNL     1       2.302   5.031   6.123  1.00  0.00     0.027 C 
ATOM     84  C   UNL     1       3.423   4.113   5.722  1.00  0.00     0.007 C 
ATOM     85  C   UNL     1       3.694   5.567   5.927  1.00  0.00     0.007 C 
ENDBRANCH  82  83
ENDBRANCH  81  82
ENDBRANCH  79  81
ENDBRANCH  72  74
ENDBRANCH  71  72
ENDBRANCH  70  71
ENDBRANCH   1  70
TORSDOF 17
