REMARK SMILES C=C1C(=O)O[C@H]2[C@@H]1[C@@H](OC(=O)[C@]1(C)O[C@@H]1C)[C@@H](OC(C)=O)/C(C(=O)OCCOC(=O)c1ccc(-c3c4nc(c(-c5cc(S(=O)(=O)[O-])ccc5F)c5ccc([nH]5)c(-c5cc(S(=O)(=O)[O-])ccc5F)c5nc(c(-c6cc(S(=O)(=O)[O-])ccc6F)c6ccc3[nH]6)C=C5)C=C4)cc1)=C/[C@@H]1O[C@@H]1[C@]1(C)O[C@H]21
REMARK SMILES IDX 26 1 25 2 23 3 24 4 22 5 94 6 95 7 97 8 96 9 98 10 101 11
REMARK SMILES IDX 100 12 99 13 6 14 1 15 2 16 3 17 7 18 5 19 4 20 17 22 8 23
REMARK SMILES IDX 9 25 10 26 11 27 12 28 14 29 15 30 13 31 16 32 18 33 19 34
REMARK SMILES IDX 20 35 21 36 27 37 28 38 29 39 30 40 31 41 32 42 93 43 33 44
REMARK SMILES IDX 92 45 34 46 35 47 36 48 86 49 37 50 91 51 85 52 87 53 38 54
REMARK SMILES IDX 90 55 84 56 83 57 39 59 71 60 51 61 70 62 52 63 55 64 69 65
REMARK SMILES IDX 88 66 53 67 54 68 68 70 89 71 56 72 40 73 41 74 49 75 42 76
REMARK SMILES IDX 48 77 50 78 47 79 43 80 44 81 45 82 46 83 72 84 73 85 81 86
REMARK SMILES IDX 74 87 80 88 82 89 79 90 75 91 76 92 77 93 78 94 57 95 58 96
REMARK SMILES IDX 66 97 59 98 65 99 67 100 64 101 60 102 61 103 62 104 63 105
REMARK H PARENT 87 58 55 69
REMARK Flexibility Score: 90.00
ROOT
ATOM      1  C   UNL     1     -10.846  -0.485   5.669  1.00  0.00     0.275 C 
ENDROOT
BRANCH   1   2
ATOM      2  O   UNL     1      -9.779  -0.900   6.518  1.00  0.00    -0.459 OA
BRANCH   2   3
ATOM      3  C   UNL     1     -10.082  -2.018   7.207  1.00  0.00     0.337 C 
ATOM      4  O   UNL     1     -11.189  -2.535   7.219  1.00  0.00    -0.246 OA
BRANCH   3   5
ATOM      5  C   UNL     1      -8.893  -2.563   7.901  1.00  0.00     0.080 C 
ATOM      6  C   UNL     1      -9.034  -3.712   8.605  1.00  0.00     0.022 C 
BRANCH   6   7
ATOM      7  C   UNL     1     -10.152  -4.675   8.681  1.00  0.00     0.174 C 
ATOM      8  C   UNL     1     -10.858  -5.305   7.477  1.00  0.00     0.186 C 
ATOM      9  O   UNL     1      -9.909  -6.033   8.263  1.00  0.00    -0.362 OA
BRANCH   8  10
ATOM     10  C   UNL     1     -10.588  -5.183   5.972  1.00  0.00     0.125 C 
ATOM     11  C   UNL     1      -9.248  -4.875   5.328  1.00  0.00     0.195 C 
ATOM     12  O   UNL     1      -9.769  -6.216   5.410  1.00  0.00    -0.359 OA
ATOM     13  C   UNL     1     -11.792  -4.905   5.093  1.00  0.00     0.048 C 
BRANCH  11  14
ATOM     14  C   UNL     1      -7.876  -4.734   5.963  1.00  0.00     0.220 C 
ATOM     15  C   UNL     1      -7.258  -4.197   2.734  1.00  0.00     0.021 C 
ATOM     16  C   UNL     1      -6.884  -4.290   4.030  1.00  0.00     0.041 C 
ATOM     17  C   UNL     1      -6.479  -5.670   4.383  1.00  0.00     0.334 C 
ATOM     18  C   UNL     1      -7.071  -3.516   5.412  1.00  0.00     0.115 CG0
ATOM     19  O   UNL     1      -7.070  -5.896   5.578  1.00  0.00    -0.455 OA
ATOM     20  O   UNL     1      -5.787  -6.437   3.740  1.00  0.00    -0.247 OA
ATOM     21  G   UNL     1      -7.101  -1.830   6.170  1.00  0.00     0.000 G0
ENDBRANCH  11  14
ENDBRANCH   8  10
ENDBRANCH   6   7
BRANCH   5  22
ATOM     22  C   UNL     1      -7.522  -1.931   7.679  1.00  0.00     0.255 C 
BRANCH  22  23
ATOM     23  C   UNL     1      -7.101  -1.830   6.170  1.00  0.00     0.234 CG0
ATOM     24  G   UNL     1      -7.071  -3.516   5.412  1.00  0.00     0.000 G0
BRANCH  23  25
ATOM     25  O   UNL     1      -7.458  -0.371   5.445  1.00  0.00    -0.455 OA
BRANCH  25  26
ATOM     26  C   UNL     1      -7.522   1.065   5.744  1.00  0.00     0.341 C 
ATOM     27  O   UNL     1      -7.391   1.466   6.895  1.00  0.00    -0.249 OA
BRANCH  26  28
ATOM     28  C   UNL     1      -7.713   2.323   4.522  1.00  0.00     0.188 C 
ATOM     29  O   UNL     1      -6.631   3.290   4.771  1.00  0.00    -0.354 OA
ATOM     30  C   UNL     1      -7.930   3.825   4.817  1.00  0.00     0.160 C 
ATOM     31  C   UNL     1      -8.267   2.348   3.029  1.00  0.00     0.058 C 
ATOM     32  C   UNL     1      -8.472   4.480   6.000  1.00  0.00     0.042 C 
ENDBRANCH  26  28
ENDBRANCH  25  26
ENDBRANCH  23  25
ENDBRANCH  22  23
BRANCH  22  33
ATOM     33  O   UNL     1      -7.461  -0.705   8.424  1.00  0.00    -0.453 OA
BRANCH  33  34
ATOM     34  C   UNL     1      -6.331  -0.341   9.084  1.00  0.00     0.303 C 
ATOM     35  C   UNL     1      -5.063  -0.261   8.278  1.00  0.00     0.139 C 
ATOM     36  O   UNL     1      -6.370  -0.028  10.270  1.00  0.00    -0.253 OA
ENDBRANCH  33  34
ENDBRANCH  22  33
ENDBRANCH   5  22
ENDBRANCH   3   5
ENDBRANCH   2   3
ENDBRANCH   1   2
BRANCH   1  37
ATOM     37  C   UNL     1     -10.399   0.578   4.686  1.00  0.00     0.275 C 
BRANCH  37  38
ATOM     38  O   UNL     1      -9.204   0.376   3.850  1.00  0.00    -0.458 OA
BRANCH  38  39
ATOM     39  C   UNL     1      -8.536  -0.678   3.330  1.00  0.00     0.338 C 
ATOM     40  O   UNL     1      -9.049  -1.788   3.373  1.00  0.00    -0.246 OA
BRANCH  39  41
ATOM     41  C   UNL     1      -6.896  -0.407   3.016  1.00  0.00     0.060 A 
ATOM     42  C   UNL     1      -6.175  -1.513   3.382  1.00  0.00     0.016 A 
ATOM     43  C   UNL     1      -6.005   0.639   2.731  1.00  0.00     0.016 A 
ATOM     44  C   UNL     1      -4.805  -1.747   3.384  1.00  0.00     0.010 A 
ATOM     45  C   UNL     1      -4.602   0.471   2.608  1.00  0.00     0.010 A 
ATOM     46  C   UNL     1      -4.036  -0.776   2.807  1.00  0.00    -0.014 A 
BRANCH  46  47
ATOM     47  C   UNL     1      -2.858  -1.210   2.048  1.00  0.00     0.031 A 
ATOM     48  C   UNL     1      -1.492  -0.831   2.476  1.00  0.00     0.074 A 
ATOM     49  C   UNL     1      -3.134  -1.962   0.960  1.00  0.00     0.049 A 
ATOM     50  N   UNL     1      -0.368  -1.036   1.856  1.00  0.00    -0.248 NA
ATOM     51  C   UNL     1      -1.372  -0.097   3.743  1.00  0.00     0.031 C 
ATOM     52  C   UNL     1      -4.491  -2.343   0.527  1.00  0.00     0.029 A 
ATOM     53  N   UNL     1      -2.335  -2.575   0.043  1.00  0.00    -0.354 N 
ATOM     54  C   UNL     1       0.603  -0.414   2.627  1.00  0.00     0.074 A 
ATOM     55  C   UNL     1      -0.073   0.172   3.766  1.00  0.00     0.031 C 
ATOM     56  C   UNL     1      -4.422  -3.203  -0.490  1.00  0.00     0.029 A 
ATOM     57  C   UNL     1      -3.036  -3.316  -0.886  1.00  0.00     0.049 A 
ATOM     58  H   UNL     1      -1.354  -2.498   0.043  1.00  0.00     0.167 HD
ATOM     59  C   UNL     1       1.929  -0.340   2.359  1.00  0.00     0.034 A 
ATOM     60  C   UNL     1      -2.604  -3.968  -1.977  1.00  0.00     0.034 A 
ATOM     61  C   UNL     1       2.501  -0.945   1.176  1.00  0.00     0.049 A 
ATOM     62  C   UNL     1      -1.132  -3.875  -2.233  1.00  0.00     0.074 A 
ATOM     63  C   UNL     1       3.809  -0.932   0.733  1.00  0.00     0.029 A 
ATOM     64  N   UNL     1       1.772  -1.683   0.238  1.00  0.00    -0.354 N 
ATOM     65  N   UNL     1      -0.221  -3.243  -1.524  1.00  0.00    -0.248 NA
ATOM     66  C   UNL     1      -0.627  -4.547  -3.426  1.00  0.00     0.031 C 
ATOM     67  C   UNL     1       3.859  -1.612  -0.491  1.00  0.00     0.029 A 
ATOM     68  C   UNL     1       2.598  -2.114  -0.786  1.00  0.00     0.049 A 
ATOM     69  H   UNL     1       0.808  -1.870   0.298  1.00  0.00     0.167 HD
ATOM     70  C   UNL     1       0.975  -3.429  -2.193  1.00  0.00     0.074 A 
ATOM     71  C   UNL     1       0.667  -4.276  -3.337  1.00  0.00     0.031 C 
ATOM     72  C   UNL     1       2.210  -2.936  -1.913  1.00  0.00     0.034 A 
BRANCH  59  73
ATOM     73  C   UNL     1       2.776   0.486   3.297  1.00  0.00     0.023 A 
ATOM     74  C   UNL     1       2.903   0.164   4.661  1.00  0.00     0.031 A 
ATOM     75  C   UNL     1       3.386   1.671   2.849  1.00  0.00     0.131 A 
ATOM     76  C   UNL     1       3.537   1.058   5.540  1.00  0.00     0.055 A 
ATOM     77  C   UNL     1       4.090   2.515   3.713  1.00  0.00     0.041 A 
ATOM     78  F   UNL     1       3.276   2.053   1.567  1.00  0.00    -0.206 F 
ATOM     79  C   UNL     1       4.152   2.221   5.071  1.00  0.00     0.022 A 
BRANCH  76  80
ATOM     80  S   UNL     1       3.397   0.765   7.326  1.00  0.00     0.124 S 
ATOM     81  O   UNL     1       1.950   0.831   7.520  1.00  0.00    -0.237 OA
ATOM     82  O   UNL     1       4.002  -0.553   7.479  1.00  0.00    -0.237 OA
ATOM     83  O   UNL     1       4.149   1.870   7.916  1.00  0.00    -0.744 OA
ENDBRANCH  76  80
ENDBRANCH  59  73
BRANCH  60  84
ATOM     84  C   UNL     1      -3.563  -4.668  -2.881  1.00  0.00     0.023 A 
ATOM     85  C   UNL     1      -3.479  -6.051  -3.101  1.00  0.00     0.031 A 
ATOM     86  C   UNL     1      -4.613  -3.971  -3.515  1.00  0.00     0.131 A 
ATOM     87  C   UNL     1      -4.409  -6.686  -3.943  1.00  0.00     0.055 A 
ATOM     88  C   UNL     1      -5.571  -4.616  -4.299  1.00  0.00     0.041 A 
ATOM     89  F   UNL     1      -4.752  -2.646  -3.343  1.00  0.00    -0.206 F 
ATOM     90  C   UNL     1      -5.465  -5.982  -4.526  1.00  0.00     0.022 A 
BRANCH  87  91
ATOM     91  S   UNL     1      -4.171  -8.440  -4.340  1.00  0.00     0.124 S 
ATOM     92  O   UNL     1      -2.796  -8.452  -4.826  1.00  0.00    -0.237 OA
ATOM     93  O   UNL     1      -4.403  -9.077  -3.049  1.00  0.00    -0.237 OA
ATOM     94  O   UNL     1      -5.191  -8.699  -5.355  1.00  0.00    -0.744 OA
ENDBRANCH  87  91
ENDBRANCH  60  84
BRANCH  72  95
ATOM     95  C   UNL     1       3.282  -3.331  -2.885  1.00  0.00     0.023 A 
ATOM     96  C   UNL     1       3.280  -2.840  -4.200  1.00  0.00     0.031 A 
ATOM     97  C   UNL     1       4.279  -4.243  -2.504  1.00  0.00     0.131 A 
ATOM     98  C   UNL     1       4.220  -3.322  -5.116  1.00  0.00     0.055 A 
ATOM     99  C   UNL     1       5.255  -4.665  -3.403  1.00  0.00     0.041 A 
ATOM    100  F   UNL     1       4.310  -4.740  -1.257  1.00  0.00    -0.206 F 
ATOM    101  C   UNL     1       5.219  -4.217  -4.722  1.00  0.00     0.022 A 
BRANCH  98 102
ATOM    102  S   UNL     1       4.046  -2.848  -6.856  1.00  0.00     0.124 S 
ATOM    103  O   UNL     1       2.727  -3.382  -7.183  1.00  0.00    -0.237 OA
ATOM    104  O   UNL     1       4.147  -1.394  -6.796  1.00  0.00    -0.237 OA
ATOM    105  O   UNL     1       5.168  -3.522  -7.506  1.00  0.00    -0.744 OA
ENDBRANCH  98 102
ENDBRANCH  72  95
ENDBRANCH  46  47
ENDBRANCH  39  41
ENDBRANCH  38  39
ENDBRANCH  37  38
ENDBRANCH   1  37
TORSDOF 19
