REMARK SMILES CC(C)(C(=O)OCCOC(=O)c1ccc(-c2c3nc(c(-c4cc(S(=O)(=O)[O-])ccc4F)c4ccc([nH]4)c(-c4cc(S(=O)(=O)[O-])ccc4F)c4nc(c(-c5cc(S(=O)(=O)[O-])ccc5F)c5ccc2[nH]5)C=C4)C=C3)cc1)n1cccc1
REMARK SMILES IDX 8 1 7 2 6 3 4 4 5 5 2 6 1 7 3 8 75 9 76 10 79 11 77 12 78 13
REMARK SMILES IDX 9 14 10 15 11 16 12 17 13 18 74 19 14 20 73 21 15 22 16 23
REMARK SMILES IDX 17 24 67 25 18 26 72 27 66 28 68 29 19 30 71 31 65 32 64 33
REMARK SMILES IDX 20 35 52 36 32 37 51 38 33 39 36 40 50 41 69 42 34 43 35 44
REMARK SMILES IDX 49 46 70 47 37 48 21 49 22 50 30 51 23 52 29 53 31 54 28 55
REMARK SMILES IDX 24 56 25 57 26 58 27 59 53 60 54 61 62 62 55 63 61 64 63 65
REMARK SMILES IDX 60 66 56 67 57 68 58 69 59 70 38 71 39 72 47 73 40 74 46 75
REMARK SMILES IDX 48 76 45 77 41 78 42 79 43 80 44 81
REMARK H PARENT 68 34 36 45
REMARK Flexibility Score: inf
ROOT
ATOM      1  C   UNL     1      -3.566   0.505   0.053  1.00  0.00     0.275 C 
ENDROOT
BRANCH   1   2
ATOM      2  C   UNL     1      -2.879   0.365  -1.304  1.00  0.00     0.274 C 
BRANCH   2   3
ATOM      3  O   UNL     1      -1.449   0.239  -1.156  1.00  0.00    -0.460 OA
BRANCH   3   4
ATOM      4  C   UNL     1      -0.689   1.308  -1.544  1.00  0.00     0.331 C 
ATOM      5  O   UNL     1      -1.175   2.331  -2.013  1.00  0.00    -0.249 OA
BRANCH   4   6
ATOM      6  C   UNL     1       0.831   1.016  -1.444  1.00  0.00     0.136 C 
ATOM      7  C   UNL     1       1.098  -0.157  -0.472  1.00  0.00     0.047 C 
ATOM      8  C   UNL     1       1.298   0.579  -2.846  1.00  0.00     0.047 C 
BRANCH   6   9
ATOM      9  N   UNL     1       1.584   2.236  -1.048  1.00  0.00    -0.338 N 
ATOM     10  C   UNL     1       1.572   3.436  -1.729  1.00  0.00     0.087 A 
ATOM     11  C   UNL     1       2.431   2.373   0.029  1.00  0.00     0.087 A 
ATOM     12  C   UNL     1       2.382   4.332  -1.068  1.00  0.00     0.019 A 
ATOM     13  C   UNL     1       2.932   3.657   0.040  1.00  0.00     0.019 A 
ENDBRANCH   6   9
ENDBRANCH   4   6
ENDBRANCH   3   4
ENDBRANCH   2   3
ENDBRANCH   1   2
BRANCH   1  14
ATOM     14  O   UNL     1      -3.221   1.762   0.659  1.00  0.00    -0.458 OA
BRANCH  14  15
ATOM     15  C   UNL     1      -2.364   1.679   1.702  1.00  0.00     0.338 C 
ATOM     16  O   UNL     1      -1.916   0.667   2.213  1.00  0.00    -0.246 OA
BRANCH  15  17
ATOM     17  C   UNL     1      -1.923   3.030   2.076  1.00  0.00     0.060 A 
ATOM     18  C   UNL     1      -0.756   3.505   1.485  1.00  0.00     0.016 A 
ATOM     19  C   UNL     1      -2.549   3.753   3.089  1.00  0.00     0.016 A 
ATOM     20  C   UNL     1      -0.165   4.675   1.946  1.00  0.00     0.010 A 
ATOM     21  C   UNL     1      -1.972   4.954   3.528  1.00  0.00     0.010 A 
ATOM     22  C   UNL     1      -0.750   5.401   2.989  1.00  0.00    -0.014 A 
BRANCH  22  23
ATOM     23  C   UNL     1       0.011   6.526   3.597  1.00  0.00     0.031 A 
ATOM     24  C   UNL     1       0.583   6.361   4.981  1.00  0.00     0.074 A 
ATOM     25  C   UNL     1       0.284   7.639   2.890  1.00  0.00     0.049 A 
ATOM     26  N   UNL     1       1.214   7.228   5.731  1.00  0.00    -0.248 NA
ATOM     27  C   UNL     1       0.416   5.039   5.602  1.00  0.00     0.031 C 
ATOM     28  C   UNL     1      -0.127   7.883   1.507  1.00  0.00     0.029 A 
ATOM     29  N   UNL     1       0.996   8.763   3.229  1.00  0.00    -0.354 N 
ATOM     30  C   UNL     1       1.480   6.571   6.929  1.00  0.00     0.074 A 
ATOM     31  C   UNL     1       0.928   5.238   6.806  1.00  0.00     0.031 C 
ATOM     32  C   UNL     1       0.370   9.065   1.105  1.00  0.00     0.029 A 
ATOM     33  C   UNL     1       1.079   9.691   2.218  1.00  0.00     0.049 A 
ATOM     34  H   UNL     1       1.408   8.892   4.114  1.00  0.00     0.167 HD
ATOM     35  C   UNL     1       2.124   7.036   8.029  1.00  0.00     0.034 A 
ATOM     36  C   UNL     1       1.643  10.916   2.198  1.00  0.00     0.034 A 
ATOM     37  C   UNL     1       2.700   8.355   8.126  1.00  0.00     0.049 A 
ATOM     38  C   UNL     1       2.312  11.432   3.448  1.00  0.00     0.074 A 
ATOM     39  C   UNL     1       3.343   8.943   9.202  1.00  0.00     0.029 A 
ATOM     40  N   UNL     1       2.714   9.291   7.099  1.00  0.00    -0.354 N 
ATOM     41  N   UNL     1       2.472  10.837   4.607  1.00  0.00    -0.248 NA
ATOM     42  C   UNL     1       2.865  12.791   3.387  1.00  0.00     0.031 C 
ATOM     43  C   UNL     1       3.704  10.248   8.841  1.00  0.00     0.029 A 
ATOM     44  C   UNL     1       3.340  10.454   7.520  1.00  0.00     0.049 A 
ATOM     45  H   UNL     1       2.334   9.149   6.202  1.00  0.00     0.167 HD
ATOM     46  C   UNL     1       3.162  11.744   5.406  1.00  0.00     0.074 A 
ATOM     47  C   UNL     1       3.402  12.918   4.592  1.00  0.00     0.031 C 
ATOM     48  C   UNL     1       3.562  11.620   6.698  1.00  0.00     0.034 A 
BRANCH  35  49
ATOM     49  C   UNL     1       2.158   6.128   9.234  1.00  0.00     0.023 A 
ATOM     50  C   UNL     1       2.856   4.908   9.234  1.00  0.00     0.031 A 
ATOM     51  C   UNL     1       1.411   6.460  10.380  1.00  0.00     0.131 A 
ATOM     52  C   UNL     1       2.727   4.029  10.321  1.00  0.00     0.055 A 
ATOM     53  C   UNL     1       1.351   5.616  11.490  1.00  0.00     0.041 A 
ATOM     54  F   UNL     1       0.705   7.601  10.428  1.00  0.00    -0.206 F 
ATOM     55  C   UNL     1       1.996   4.384  11.457  1.00  0.00     0.022 A 
BRANCH  52  56
ATOM     56  S   UNL     1       3.389   2.346  10.162  1.00  0.00     0.124 S 
ATOM     57  O   UNL     1       2.701   1.869   8.965  1.00  0.00    -0.237 OA
ATOM     58  O   UNL     1       4.821   2.583  10.026  1.00  0.00    -0.237 OA
ATOM     59  O   UNL     1       2.978   1.698  11.406  1.00  0.00    -0.744 OA
ENDBRANCH  52  56
ENDBRANCH  35  49
BRANCH  36  60
ATOM     60  C   UNL     1       1.562  11.768   0.978  1.00  0.00     0.023 A 
ATOM     61  C   UNL     1       2.718  12.144   0.275  1.00  0.00     0.031 A 
ATOM     62  C   UNL     1       0.325  12.266   0.529  1.00  0.00     0.131 A 
ATOM     63  C   UNL     1       2.618  13.023  -0.816  1.00  0.00     0.055 A 
ATOM     64  C   UNL     1       0.226  13.099  -0.585  1.00  0.00     0.041 A 
ATOM     65  F   UNL     1      -0.810  11.941   1.169  1.00  0.00    -0.206 F 
ATOM     66  C   UNL     1       1.378  13.492  -1.258  1.00  0.00     0.022 A 
BRANCH  63  67
ATOM     67  S   UNL     1       4.142  13.608  -1.607  1.00  0.00     0.124 S 
ATOM     68  O   UNL     1       4.814  14.278  -0.500  1.00  0.00    -0.237 OA
ATOM     69  O   UNL     1       4.745  12.361  -2.065  1.00  0.00    -0.237 OA
ATOM     70  O   UNL     1       3.658  14.489  -2.669  1.00  0.00    -0.744 OA
ENDBRANCH  63  67
ENDBRANCH  36  60
BRANCH  48  71
ATOM     71  C   UNL     1       4.337  12.773   7.283  1.00  0.00     0.023 A 
ATOM     72  C   UNL     1       3.729  14.013   7.548  1.00  0.00     0.031 A 
ATOM     73  C   UNL     1       5.709  12.634   7.553  1.00  0.00     0.131 A 
ATOM     74  C   UNL     1       4.505  15.084   8.019  1.00  0.00     0.055 A 
ATOM     75  C   UNL     1       6.466  13.688   8.067  1.00  0.00     0.041 A 
ATOM     76  F   UNL     1       6.337  11.471   7.317  1.00  0.00    -0.206 F 
ATOM     77  C   UNL     1       5.867  14.925   8.290  1.00  0.00     0.022 A 
BRANCH  74  78
ATOM     78  S   UNL     1       3.730  16.715   8.189  1.00  0.00     0.124 S 
ATOM     79  O   UNL     1       3.213  16.951   6.845  1.00  0.00    -0.237 OA
ATOM     80  O   UNL     1       2.730  16.478   9.225  1.00  0.00    -0.237 OA
ATOM     81  O   UNL     1       4.839  17.582   8.586  1.00  0.00    -0.744 OA
ENDBRANCH  74  78
ENDBRANCH  48  71
ENDBRANCH  22  23
ENDBRANCH  15  17
ENDBRANCH  14  15
ENDBRANCH   1  14
TORSDOF 15
