REMARK SMILES N#Cc1ccccc1S(=O)(=O)N1CCC(C(=O)OCCOC(=O)c2ccc(-c3c4nc(c(-c5cc(S(=O)(=O)[O-])ccc5F)c5ccc([nH]5)c(-c5cc(S(=O)(=O)[O-])ccc5F)c5nc(c(-c6cc(S(=O)(=O)[O-])ccc6F)c6ccc3[nH]6)C=C5)C=C4)cc2)CC1
REMARK SMILES IDX 19 1 18 2 16 3 17 4 15 5 12 6 13 7 88 8 14 9 87 10 9 11
REMARK SMILES IDX 10 12 11 13 8 14 3 15 4 16 5 17 7 18 6 19 2 20 1 21 20 22
REMARK SMILES IDX 21 23 22 24 23 25 24 26 25 27 86 28 26 29 85 30 27 31 28 32
REMARK SMILES IDX 29 33 79 34 30 35 84 36 78 37 80 38 31 39 83 40 77 41 76 42
REMARK SMILES IDX 32 44 64 45 44 46 63 47 45 48 48 49 62 50 81 51 46 52 47 53
REMARK SMILES IDX 61 55 82 56 49 57 33 58 34 59 42 60 35 61 41 62 43 63 40 64
REMARK SMILES IDX 36 65 37 66 38 67 39 68 65 69 66 70 74 71 67 72 73 73 75 74
REMARK SMILES IDX 72 75 68 76 69 77 70 78 71 79 50 80 51 81 59 82 52 83 58 84
REMARK SMILES IDX 60 85 57 86 53 87 54 88 55 89 56 90
REMARK H PARENT 80 43 48 54
REMARK Flexibility Score: inf
ROOT
ATOM      1  C   UNL     1      -8.510  -1.710  -0.503  1.00  0.00     0.274 C 
ENDROOT
BRANCH   1   2
ATOM      2  O   UNL     1      -7.101  -1.947  -0.334  1.00  0.00    -0.462 OA
BRANCH   2   3
ATOM      3  C   UNL     1      -6.280  -1.198  -1.111  1.00  0.00     0.309 C 
ATOM      4  O   UNL     1      -6.658  -0.448  -2.005  1.00  0.00    -0.252 OA
BRANCH   3   5
ATOM      5  C   UNL     1      -4.816  -1.366  -0.771  1.00  0.00     0.102 C 
ATOM      6  N   UNL     1      -2.144  -2.314  -0.328  1.00  0.00    -0.198 NA
ATOM      7  C   UNL     1      -3.014  -2.071   0.849  1.00  0.00     0.103 C 
ATOM      8  C   UNL     1      -2.572  -1.913  -1.685  1.00  0.00     0.103 C 
ATOM      9  C   UNL     1      -4.506  -2.086   0.532  1.00  0.00     0.032 C 
ATOM     10  C   UNL     1      -4.071  -2.062  -1.895  1.00  0.00     0.032 C 
BRANCH   6  11
ATOM     11  S   UNL     1      -0.493  -2.541  -0.052  1.00  0.00     0.244 S 
ATOM     12  O   UNL     1       0.017  -3.245  -1.214  1.00  0.00    -0.207 OA
ATOM     13  O   UNL     1      -0.342  -3.117   1.268  1.00  0.00    -0.207 OA
BRANCH  11  14
ATOM     14  C   UNL     1       0.424  -1.008  -0.008  1.00  0.00     0.100 A 
ATOM     15  C   UNL     1      -0.068   0.296   0.043  1.00  0.00     0.072 A 
ATOM     16  C   UNL     1       0.841   1.376   0.069  1.00  0.00     0.021 A 
ATOM     17  C   UNL     1       2.218   1.170   0.051  1.00  0.00     0.001 A 
ATOM     18  C   UNL     1       1.825  -1.201  -0.023  1.00  0.00     0.023 A 
ATOM     19  C   UNL     1       2.713  -0.124   0.007  1.00  0.00     0.001 A 
BRANCH  15  20
ATOM     20  C   UNL     1      -1.440   0.680   0.071  1.00  0.00     0.101 C 
ATOM     21  N   UNL     1      -2.528   1.073   0.070  1.00  0.00    -0.192 NA
ENDBRANCH  15  20
ENDBRANCH  11  14
ENDBRANCH   6  11
ENDBRANCH   3   5
ENDBRANCH   2   3
ENDBRANCH   1   2
BRANCH   1  22
ATOM     22  C   UNL     1      -9.060  -0.849   0.636  1.00  0.00     0.275 C 
BRANCH  22  23
ATOM     23  O   UNL     1      -8.509   0.481   0.616  1.00  0.00    -0.458 OA
BRANCH  23  24
ATOM     24  C   UNL     1      -7.468   0.684   1.459  1.00  0.00     0.338 C 
ATOM     25  O   UNL     1      -6.968  -0.130   2.217  1.00  0.00    -0.246 OA
BRANCH  24  26
ATOM     26  C   UNL     1      -6.942   2.046   1.290  1.00  0.00     0.060 A 
ATOM     27  C   UNL     1      -5.746   2.213   0.595  1.00  0.00     0.016 A 
ATOM     28  C   UNL     1      -7.549   3.134   1.917  1.00  0.00     0.016 A 
ATOM     29  C   UNL     1      -5.127   3.459   0.549  1.00  0.00     0.010 A 
ATOM     30  C   UNL     1      -6.943   4.395   1.840  1.00  0.00     0.010 A 
ATOM     31  C   UNL     1      -5.717   4.565   1.171  1.00  0.00    -0.014 A 
BRANCH  31  32
ATOM     32  C   UNL     1      -5.029   5.884   1.155  1.00  0.00     0.031 A 
ATOM     33  C   UNL     1      -4.492   6.469   2.432  1.00  0.00     0.074 A 
ATOM     34  C   UNL     1      -4.877   6.551  -0.006  1.00  0.00     0.049 A 
ATOM     35  N   UNL     1      -3.976   7.651   2.652  1.00  0.00    -0.248 NA
ATOM     36  C   UNL     1      -4.553   5.607   3.622  1.00  0.00     0.031 C 
ATOM     37  C   UNL     1      -5.302   6.064  -1.320  1.00  0.00     0.029 A 
ATOM     38  N   UNL     1      -4.329   7.782  -0.269  1.00  0.00    -0.354 N 
ATOM     39  C   UNL     1      -3.675   7.689   4.010  1.00  0.00     0.074 A 
ATOM     40  C   UNL     1      -4.093   6.417   4.564  1.00  0.00     0.031 C 
ATOM     41  C   UNL     1      -4.996   6.984  -2.248  1.00  0.00     0.029 A 
ATOM     42  C   UNL     1      -4.418   8.152  -1.591  1.00  0.00     0.049 A 
ATOM     43  H   UNL     1      -3.912   8.346   0.422  1.00  0.00     0.167 HD
ATOM     44  C   UNL     1      -3.100   8.691   4.723  1.00  0.00     0.034 A 
ATOM     45  C   UNL     1      -4.110   9.315  -2.200  1.00  0.00     0.034 A 
ATOM     46  C   UNL     1      -2.683   9.949   4.149  1.00  0.00     0.049 A 
ATOM     47  C   UNL     1      -3.554  10.446  -1.372  1.00  0.00     0.074 A 
ATOM     48  C   UNL     1      -2.075  11.024   4.776  1.00  0.00     0.029 A 
ATOM     49  N   UNL     1      -2.836  10.307   2.815  1.00  0.00    -0.354 N 
ATOM     50  N   UNL     1      -3.293  10.478  -0.085  1.00  0.00    -0.248 NA
ATOM     51  C   UNL     1      -3.252  11.697  -2.079  1.00  0.00     0.031 C 
ATOM     52  C   UNL     1      -1.930  12.055   3.841  1.00  0.00     0.029 A 
ATOM     53  C   UNL     1      -2.368  11.598   2.609  1.00  0.00     0.049 A 
ATOM     54  H   UNL     1      -3.221   9.729   2.117  1.00  0.00     0.167 HD
ATOM     55  C   UNL     1      -2.773  11.745   0.164  1.00  0.00     0.074 A 
ATOM     56  C   UNL     1      -2.741  12.438  -1.108  1.00  0.00     0.031 C 
ATOM     57  C   UNL     1      -2.356  12.286   1.338  1.00  0.00     0.034 A 
BRANCH  44  58
ATOM     58  C   UNL     1      -2.947   8.484   6.213  1.00  0.00     0.023 A 
ATOM     59  C   UNL     1      -2.129   7.473   6.745  1.00  0.00     0.031 A 
ATOM     60  C   UNL     1      -3.657   9.297   7.116  1.00  0.00     0.131 A 
ATOM     61  C   UNL     1      -2.100   7.252   8.132  1.00  0.00     0.055 A 
ATOM     62  C   UNL     1      -3.560   9.125   8.498  1.00  0.00     0.041 A 
ATOM     63  F   UNL     1      -4.471  10.267   6.669  1.00  0.00    -0.206 F 
ATOM     64  C   UNL     1      -2.790   8.087   9.013  1.00  0.00     0.022 A 
BRANCH  61  65
ATOM     65  S   UNL     1      -1.266   5.766   8.755  1.00  0.00     0.124 S 
ATOM     66  O   UNL     1      -1.982   4.707   8.048  1.00  0.00    -0.237 OA
ATOM     67  O   UNL     1       0.116   5.985   8.347  1.00  0.00    -0.237 OA
ATOM     68  O   UNL     1      -1.508   5.816  10.196  1.00  0.00    -0.744 OA
ENDBRANCH  61  65
ENDBRANCH  44  58
BRANCH  45  69
ATOM     69  C   UNL     1      -4.371   9.494  -3.657  1.00  0.00     0.023 A 
ATOM     70  C   UNL     1      -3.322   9.726  -4.560  1.00  0.00     0.031 A 
ATOM     71  C   UNL     1      -5.684   9.477  -4.163  1.00  0.00     0.131 A 
ATOM     72  C   UNL     1      -3.605   9.972  -5.913  1.00  0.00     0.055 A 
ATOM     73  C   UNL     1      -5.956   9.665  -5.519  1.00  0.00     0.041 A 
ATOM     74  F   UNL     1      -6.726   9.264  -3.343  1.00  0.00    -0.206 F 
ATOM     75  C   UNL     1      -4.913   9.926  -6.401  1.00  0.00     0.022 A 
BRANCH  72  76
ATOM     76  S   UNL     1      -2.241  10.434  -7.015  1.00  0.00     0.124 S 
ATOM     77  O   UNL     1      -1.729  11.635  -6.365  1.00  0.00    -0.237 OA
ATOM     78  O   UNL     1      -1.385   9.255  -6.949  1.00  0.00    -0.237 OA
ATOM     79  O   UNL     1      -2.901  10.652  -8.300  1.00  0.00    -0.744 OA
ENDBRANCH  72  76
ENDBRANCH  45  69
BRANCH  57  80
ATOM     80  C   UNL     1      -1.786  13.683   1.284  1.00  0.00     0.023 A 
ATOM     81  C   UNL     1      -2.580  14.797   0.959  1.00  0.00     0.031 A 
ATOM     82  C   UNL     1      -0.421  13.900   1.544  1.00  0.00     0.131 A 
ATOM     83  C   UNL     1      -1.993  16.066   0.845  1.00  0.00     0.055 A 
ATOM     84  C   UNL     1       0.145  15.174   1.493  1.00  0.00     0.041 A 
ATOM     85  F   UNL     1       0.387  12.873   1.855  1.00  0.00    -0.206 F 
ATOM     86  C   UNL     1      -0.639  16.265   1.128  1.00  0.00     0.022 A 
BRANCH  83  87
ATOM     87  S   UNL     1      -3.001  17.442   0.228  1.00  0.00     0.124 S 
ATOM     88  O   UNL     1      -3.420  16.948  -1.079  1.00  0.00    -0.237 OA
ATOM     89  O   UNL     1      -4.049  17.540   1.239  1.00  0.00    -0.237 OA
ATOM     90  O   UNL     1      -2.066  18.565   0.196  1.00  0.00    -0.744 OA
ENDBRANCH  83  87
ENDBRANCH  57  80
ENDBRANCH  31  32
ENDBRANCH  24  26
ENDBRANCH  23  24
ENDBRANCH  22  23
ENDBRANCH   1  22
TORSDOF 17
