REMARK SMILES O=C(/C=N/O)Nc1cccc(C(=O)OCCOC(=O)c2ccc(-c3c4nc(c(-c5cc(S(=O)(=O)[O-])ccc5F)c5ccc([nH]5)c(-c5cc(S(=O)(=O)[O-])ccc5F)c5nc(c(-c6cc(S(=O)(=O)[O-])ccc6F)c6ccc3[nH]6)C=C5)C=C4)cc2)c1
REMARK SMILES IDX 15 1 14 2 12 3 13 4 11 5 7 6 8 7 83 8 9 9 10 10 6 11 1 12
REMARK SMILES IDX 2 13 3 15 4 16 5 17 16 19 17 20 18 21 19 22 20 23 21 24
REMARK SMILES IDX 82 25 22 26 81 27 23 28 24 29 25 30 75 31 26 32 80 33 74 34
REMARK SMILES IDX 76 35 27 36 79 37 73 38 72 39 28 41 60 42 40 43 59 44 41 45
REMARK SMILES IDX 44 46 58 47 77 48 42 49 43 50 57 52 78 53 45 54 29 55 30 56
REMARK SMILES IDX 38 57 31 58 37 59 39 60 36 61 32 62 33 63 34 64 35 65 61 66
REMARK SMILES IDX 62 67 70 68 63 69 69 70 71 71 68 72 64 73 65 74 66 75 67 76
REMARK SMILES IDX 46 77 47 78 55 79 48 80 54 81 56 82 53 83 49 84 50 85 51 86
REMARK SMILES IDX 52 87
REMARK H PARENT 6 14 5 18 76 40 44 51
REMARK Flexibility Score: inf
ROOT
ATOM      1  C   UNL     1      -1.907  -1.365   4.580  1.00  0.00     0.275 C 
ENDROOT
BRANCH   1   2
ATOM      2  O   UNL     1      -0.785  -0.718   3.949  1.00  0.00    -0.458 OA
BRANCH   2   3
ATOM      3  C   UNL     1      -0.788   0.641   3.952  1.00  0.00     0.338 C 
ATOM      4  O   UNL     1      -1.635   1.362   4.441  1.00  0.00    -0.246 OA
BRANCH   3   5
ATOM      5  C   UNL     1       0.475   1.153   3.357  1.00  0.00     0.062 A 
ATOM      6  C   UNL     1       2.355   0.942   1.846  1.00  0.00     0.042 A 
ATOM      7  C   UNL     1       2.944   2.066   2.437  1.00  0.00     0.026 A 
ATOM      8  C   UNL     1       1.137   0.463   2.337  1.00  0.00     0.041 A 
ATOM      9  C   UNL     1       2.264   2.782   3.421  1.00  0.00     0.003 A 
ATOM     10  C   UNL     1       1.010   2.351   3.846  1.00  0.00     0.016 A 
BRANCH   6  11
ATOM     11  N   UNL     1       3.022   0.363   0.754  1.00  0.00    -0.321 N 
ATOM     12  O   UNL     1       1.343  -0.947  -0.244  1.00  0.00    -0.268 OA
ATOM     13  C   UNL     1       2.479  -0.502  -0.171  1.00  0.00     0.270 C 
ATOM     14  H   UNL     1       3.970   0.598   0.637  1.00  0.00     0.170 HD
BRANCH  13  15
ATOM     15  C   UNL     1       3.434  -0.871  -1.276  1.00  0.00     0.225 C 
ATOM     16  N   UNL     1       4.694  -0.587  -1.182  1.00  0.00    -0.092 NA
BRANCH  16  17
ATOM     17  O   UNL     1       5.342  -1.048  -2.335  1.00  0.00    -0.411 OA
ATOM     18  H   UNL     1       6.266  -0.924  -2.434  1.00  0.00     0.330 HD
ENDBRANCH  16  17
ENDBRANCH  13  15
ENDBRANCH   6  11
ENDBRANCH   3   5
ENDBRANCH   2   3
ENDBRANCH   1   2
BRANCH   1  19
ATOM     19  C   UNL     1      -1.509  -1.974   5.925  1.00  0.00     0.275 C 
BRANCH  19  20
ATOM     20  O   UNL     1      -1.228  -0.929   6.875  1.00  0.00    -0.458 OA
BRANCH  20  21
ATOM     21  C   UNL     1       0.057  -0.853   7.289  1.00  0.00     0.338 C 
ATOM     22  O   UNL     1       0.972  -1.612   7.017  1.00  0.00    -0.246 OA
BRANCH  21  23
ATOM     23  C   UNL     1       0.248   0.384   8.060  1.00  0.00     0.060 A 
ATOM     24  C   UNL     1       0.567   1.536   7.349  1.00  0.00     0.016 A 
ATOM     25  C   UNL     1       0.285   0.385   9.452  1.00  0.00     0.016 A 
ATOM     26  C   UNL     1       0.995   2.682   8.011  1.00  0.00     0.010 A 
ATOM     27  C   UNL     1       0.667   1.556  10.124  1.00  0.00     0.010 A 
ATOM     28  C   UNL     1       1.073   2.701   9.409  1.00  0.00    -0.014 A 
BRANCH  28  29
ATOM     29  C   UNL     1       1.725   3.858  10.091  1.00  0.00     0.031 A 
ATOM     30  C   UNL     1       3.029   3.649  10.822  1.00  0.00     0.074 A 
ATOM     31  C   UNL     1       1.215   5.102   9.992  1.00  0.00     0.049 A 
ATOM     32  N   UNL     1       3.717   4.484  11.558  1.00  0.00    -0.248 NA
ATOM     33  C   UNL     1       3.628   2.311  10.716  1.00  0.00     0.031 C 
ATOM     34  C   UNL     1       0.004   5.464   9.254  1.00  0.00     0.029 A 
ATOM     35  N   UNL     1       1.666   6.299  10.495  1.00  0.00    -0.354 N 
ATOM     36  C   UNL     1       4.805   3.761  12.040  1.00  0.00     0.074 A 
ATOM     37  C   UNL     1       4.663   2.412  11.535  1.00  0.00     0.031 C 
ATOM     38  C   UNL     1      -0.169   6.795   9.320  1.00  0.00     0.029 A 
ATOM     39  C   UNL     1       0.874   7.374  10.162  1.00  0.00     0.049 A 
ATOM     40  H   UNL     1       2.480   6.380  11.043  1.00  0.00     0.167 HD
ATOM     41  C   UNL     1       5.830   4.182  12.824  1.00  0.00     0.034 A 
ATOM     42  C   UNL     1       0.961   8.673  10.515  1.00  0.00     0.034 A 
ATOM     43  C   UNL     1       5.982   5.541  13.290  1.00  0.00     0.049 A 
ATOM     44  C   UNL     1       2.083   9.112  11.422  1.00  0.00     0.074 A 
ATOM     45  C   UNL     1       6.965   6.071  14.108  1.00  0.00     0.029 A 
ATOM     46  N   UNL     1       5.133   6.592  12.965  1.00  0.00    -0.354 N 
ATOM     47  N   UNL     1       3.058   8.399  11.940  1.00  0.00    -0.248 NA
ATOM     48  C   UNL     1       2.115  10.533  11.794  1.00  0.00     0.031 C 
ATOM     49  C   UNL     1       6.685   7.426  14.317  1.00  0.00     0.029 A 
ATOM     50  C   UNL     1       5.567   7.762  13.571  1.00  0.00     0.049 A 
ATOM     51  H   UNL     1       4.339   6.517  12.387  1.00  0.00     0.167 HD
ATOM     52  C   UNL     1       3.833   9.293  12.674  1.00  0.00     0.074 A 
ATOM     53  C   UNL     1       3.222  10.597  12.518  1.00  0.00     0.031 C 
ATOM     54  C   UNL     1       4.949   9.058  13.410  1.00  0.00     0.034 A 
BRANCH  41  55
ATOM     55  C   UNL     1       6.827   3.138  13.273  1.00  0.00     0.023 A 
ATOM     56  C   UNL     1       7.644   2.445  12.361  1.00  0.00     0.031 A 
ATOM     57  C   UNL     1       6.918   2.787  14.632  1.00  0.00     0.131 A 
ATOM     58  C   UNL     1       8.443   1.381  12.806  1.00  0.00     0.055 A 
ATOM     59  C   UNL     1       7.783   1.786  15.080  1.00  0.00     0.041 A 
ATOM     60  F   UNL     1       6.150   3.397  15.549  1.00  0.00    -0.206 F 
ATOM     61  C   UNL     1       8.538   1.063  14.162  1.00  0.00     0.022 A 
BRANCH  58  62
ATOM     62  S   UNL     1       9.227   0.310  11.568  1.00  0.00     0.124 S 
ATOM     63  O   UNL     1       8.069  -0.165  10.815  1.00  0.00    -0.237 OA
ATOM     64  O   UNL     1      10.111   1.233  10.866  1.00  0.00    -0.237 OA
ATOM     65  O   UNL     1       9.898  -0.709  12.372  1.00  0.00    -0.744 OA
ENDBRANCH  58  62
ENDBRANCH  41  55
BRANCH  42  66
ATOM     66  C   UNL     1      -0.063   9.655  10.052  1.00  0.00     0.023 A 
ATOM     67  C   UNL     1       0.288  10.737   9.228  1.00  0.00     0.031 A 
ATOM     68  C   UNL     1      -1.401   9.555  10.473  1.00  0.00     0.131 A 
ATOM     69  C   UNL     1      -0.677  11.698   8.887  1.00  0.00     0.055 A 
ATOM     70  C   UNL     1      -2.369  10.482  10.085  1.00  0.00     0.041 A 
ATOM     71  F   UNL     1      -1.790   8.543  11.265  1.00  0.00    -0.206 F 
ATOM     72  C   UNL     1      -2.006  11.570   9.297  1.00  0.00     0.022 A 
BRANCH  69  73
ATOM     73  S   UNL     1      -0.152  13.170   7.964  1.00  0.00     0.124 S 
ATOM     74  O   UNL     1       0.843  13.745   8.862  1.00  0.00    -0.237 OA
ATOM     75  O   UNL     1       0.359  12.586   6.728  1.00  0.00    -0.237 OA
ATOM     76  O   UNL     1      -1.386  13.940   7.822  1.00  0.00    -0.744 OA
ENDBRANCH  69  73
ENDBRANCH  42  66
BRANCH  54  77
ATOM     77  C   UNL     1       5.614  10.255  14.046  1.00  0.00     0.023 A 
ATOM     78  C   UNL     1       4.997  10.990  15.075  1.00  0.00     0.031 A 
ATOM     79  C   UNL     1       6.872  10.685  13.590  1.00  0.00     0.131 A 
ATOM     80  C   UNL     1       5.611  12.152  15.568  1.00  0.00     0.055 A 
ATOM     81  C   UNL     1       7.504  11.809  14.125  1.00  0.00     0.041 A 
ATOM     82  F   UNL     1       7.506  10.022  12.609  1.00  0.00    -0.206 F 
ATOM     83  C   UNL     1       6.866  12.559  15.108  1.00  0.00     0.022 A 
BRANCH  80  84
ATOM     84  S   UNL     1       4.696  13.191  16.742  1.00  0.00     0.124 S 
ATOM     85  O   UNL     1       3.462  13.462  16.012  1.00  0.00    -0.237 OA
ATOM     86  O   UNL     1       4.572  12.313  17.901  1.00  0.00    -0.237 OA
ATOM     87  O   UNL     1       5.571  14.347  16.931  1.00  0.00    -0.744 OA
ENDBRANCH  80  84
ENDBRANCH  54  77
ENDBRANCH  28  29
ENDBRANCH  21  23
ENDBRANCH  20  21
ENDBRANCH  19  20
ENDBRANCH   1  19
TORSDOF 17
