REMARK SMILES CC[C@@](C)([NH3+])C(=O)Nc1cc(C(=O)OCCOC(=O)c2ccc(-c3c4nc(c(-c5cc(S(=O)(=O)[O-])ccc5F)c5ccc([nH]5)c(-c5cc(S(=O)(=O)[O-])ccc5F)c5nc(c(-c6cc(S(=O)(=O)[O-])ccc6F)c6ccc3[nH]6)C=C5)C=C4)cc2)cc(C(F)(F)F)c1
REMARK SMILES IDX 15 1 14 2 12 3 13 4 11 5 9 6 10 7 89 8 84 9 83 10 8 11 6 12
REMARK SMILES IDX 7 13 3 15 4 16 2 17 1 18 5 19 85 23 86 24 87 25 88 26 16 27
REMARK SMILES IDX 17 28 18 29 19 30 20 31 21 32 82 33 22 34 81 35 23 36 24 37
REMARK SMILES IDX 25 38 75 39 26 40 80 41 74 42 76 43 27 44 79 45 73 46 72 47
REMARK SMILES IDX 28 49 60 50 40 51 59 52 41 53 44 54 58 55 77 56 42 57 43 58
REMARK SMILES IDX 57 60 78 61 45 62 29 63 30 64 38 65 31 66 37 67 39 68 36 69
REMARK SMILES IDX 32 70 33 71 34 72 35 73 61 74 62 75 70 76 63 77 69 78 71 79
REMARK SMILES IDX 68 80 64 81 65 82 66 83 67 84 46 85 47 86 55 87 48 88 54 89
REMARK SMILES IDX 56 90 53 91 49 92 50 93 51 94 52 95
REMARK H PARENT 8 14 5 20 5 21 5 22 76 48 44 59
REMARK Flexibility Score: inf
ROOT
ATOM      1  C   UNL     1       3.062   7.072  -7.394  1.00  0.00     0.275 C 
ENDROOT
BRANCH   1   2
ATOM      2  O   UNL     1       2.379   6.887  -6.137  1.00  0.00    -0.458 OA
BRANCH   2   3
ATOM      3  C   UNL     1       2.169   5.604  -5.756  1.00  0.00     0.338 C 
ATOM      4  O   UNL     1       2.390   4.599  -6.411  1.00  0.00    -0.246 OA
BRANCH   3   5
ATOM      5  C   UNL     1       1.771   5.570  -4.329  1.00  0.00     0.062 A 
ATOM      6  C   UNL     1       2.001   4.486  -2.176  1.00  0.00     0.042 A 
ATOM      7  C   UNL     1       2.249   4.517  -3.542  1.00  0.00     0.041 A 
ATOM      8  C   UNL     1       1.238   5.494  -1.589  1.00  0.00     0.039 A 
ATOM      9  C   UNL     1       0.685   6.520  -2.376  1.00  0.00     0.058 A 
ATOM     10  C   UNL     1       0.977   6.563  -3.751  1.00  0.00     0.029 A 
BRANCH   6  11
ATOM     11  N   UNL     1       2.645   3.509  -1.419  1.00  0.00    -0.321 N 
ATOM     12  C   UNL     1       2.177   2.680  -0.435  1.00  0.00     0.285 C 
ATOM     13  O   UNL     1       3.020   2.208   0.334  1.00  0.00    -0.267 OA
ATOM     14  H   UNL     1       3.601   3.395  -1.627  1.00  0.00     0.170 HD
BRANCH  12  15
ATOM     15  C   UNL     1       0.669   2.247  -0.385  1.00  0.00     0.171 C 
ATOM     16  C   UNL     1       0.142   1.877  -1.782  1.00  0.00     0.090 C 
BRANCH  15  17
ATOM     17  C   UNL     1       0.516   1.032   0.577  1.00  0.00     0.075 C 
ATOM     18  C   UNL     1       1.121  -0.278   0.071  1.00  0.00     0.011 C 
ENDBRANCH  15  17
BRANCH  15  19
ATOM     19  N   UNL     1      -0.159   3.344   0.182  1.00  0.00    -0.345 N 
ATOM     20  H   UNL     1      -1.136   3.053   0.210  1.00  0.00     0.345 HD
ATOM     21  H   UNL     1      -0.068   4.175  -0.403  1.00  0.00     0.345 HD
ATOM     22  H   UNL     1       0.160   3.557   1.127  1.00  0.00     0.345 HD
ENDBRANCH  15  19
ENDBRANCH  12  15
ENDBRANCH   6  11
BRANCH   9  23
ATOM     23  C   UNL     1      -0.206   7.572  -1.766  1.00  0.00     0.416 C 
ATOM     24  F   UNL     1       0.300   8.828  -1.889  1.00  0.00    -0.166 F 
ATOM     25  F   UNL     1      -1.430   7.605  -2.369  1.00  0.00    -0.166 F 
ATOM     26  F   UNL     1      -0.456   7.388  -0.442  1.00  0.00    -0.166 F 
ENDBRANCH   9  23
ENDBRANCH   3   5
ENDBRANCH   2   3
ENDBRANCH   1   2
BRANCH   1  27
ATOM     27  C   UNL     1       4.501   7.519  -7.136  1.00  0.00     0.275 C 
BRANCH  27  28
ATOM     28  O   UNL     1       5.226   6.429  -6.540  1.00  0.00    -0.458 OA
BRANCH  28  29
ATOM     29  C   UNL     1       5.988   6.730  -5.461  1.00  0.00     0.338 C 
ATOM     30  O   UNL     1       6.197   7.833  -4.989  1.00  0.00    -0.246 OA
BRANCH  29  31
ATOM     31  C   UNL     1       6.517   5.475  -4.892  1.00  0.00     0.060 A 
ATOM     32  C   UNL     1       5.618   4.486  -4.506  1.00  0.00     0.016 A 
ATOM     33  C   UNL     1       7.877   5.303  -4.656  1.00  0.00     0.016 A 
ATOM     34  C   UNL     1       6.053   3.364  -3.807  1.00  0.00     0.010 A 
ATOM     35  C   UNL     1       8.328   4.120  -4.049  1.00  0.00     0.010 A 
ATOM     36  C   UNL     1       7.420   3.149  -3.581  1.00  0.00    -0.014 A 
BRANCH  36  37
ATOM     37  C   UNL     1       7.872   1.938  -2.828  1.00  0.00     0.031 A 
ATOM     38  C   UNL     1       8.702   2.079  -1.575  1.00  0.00     0.074 A 
ATOM     39  C   UNL     1       7.518   0.702  -3.242  1.00  0.00     0.049 A 
ATOM     40  N   UNL     1       9.287   1.153  -0.855  1.00  0.00    -0.248 NA
ATOM     41  C   UNL     1       8.927   3.445  -1.086  1.00  0.00     0.031 C 
ATOM     42  C   UNL     1       6.712   0.404  -4.428  1.00  0.00     0.029 A 
ATOM     43  N   UNL     1       7.777  -0.536  -2.704  1.00  0.00    -0.354 N 
ATOM     44  C   UNL     1       9.999   1.828   0.134  1.00  0.00     0.074 A 
ATOM     45  C   UNL     1       9.786   3.242  -0.099  1.00  0.00     0.031 C 
ATOM     46  C   UNL     1       6.500  -0.918  -4.498  1.00  0.00     0.029 A 
ATOM     47  C   UNL     1       7.224  -1.576  -3.417  1.00  0.00     0.049 A 
ATOM     48  H   UNL     1       8.309  -0.667  -1.886  1.00  0.00     0.167 HD
ATOM     49  C   UNL     1      10.756   1.319   1.141  1.00  0.00     0.034 A 
ATOM     50  C   UNL     1       7.315  -2.911  -3.252  1.00  0.00     0.034 A 
ATOM     51  C   UNL     1      10.915  -0.095   1.398  1.00  0.00     0.049 A 
ATOM     52  C   UNL     1       8.144  -3.455  -2.121  1.00  0.00     0.074 A 
ATOM     53  C   UNL     1      11.623  -0.712   2.416  1.00  0.00     0.029 A 
ATOM     54  N   UNL     1      10.351  -1.114   0.640  1.00  0.00    -0.354 N 
ATOM     55  N   UNL     1       8.847  -2.803  -1.225  1.00  0.00    -0.248 NA
ATOM     56  C   UNL     1       8.198  -4.916  -1.988  1.00  0.00     0.031 C 
ATOM     57  C   UNL     1      11.541  -2.099   2.235  1.00  0.00     0.029 A 
ATOM     58  C   UNL     1      10.721  -2.353   1.148  1.00  0.00     0.049 A 
ATOM     59  H   UNL     1       9.773  -0.977  -0.145  1.00  0.00     0.167 HD
ATOM     60  C   UNL     1       9.437  -3.777  -0.425  1.00  0.00     0.074 A 
ATOM     61  C   UNL     1       8.971  -5.058  -0.921  1.00  0.00     0.031 C 
ATOM     62  C   UNL     1      10.292  -3.627   0.618  1.00  0.00     0.034 A 
BRANCH  49  63
ATOM     63  C   UNL     1      11.527   2.305   1.993  1.00  0.00     0.023 A 
ATOM     64  C   UNL     1      10.890   3.273   2.790  1.00  0.00     0.031 A 
ATOM     65  C   UNL     1      12.934   2.309   1.958  1.00  0.00     0.131 A 
ATOM     66  C   UNL     1      11.653   4.258   3.439  1.00  0.00     0.055 A 
ATOM     67  C   UNL     1      13.690   3.237   2.678  1.00  0.00     0.041 A 
ATOM     68  F   UNL     1      13.602   1.424   1.201  1.00  0.00    -0.206 F 
ATOM     69  C   UNL     1      13.049   4.232   3.409  1.00  0.00     0.022 A 
BRANCH  66  70
ATOM     70  S   UNL     1      10.793   5.678   4.175  1.00  0.00     0.124 S 
ATOM     71  O   UNL     1      10.018   6.175   3.040  1.00  0.00    -0.237 OA
ATOM     72  O   UNL     1      10.030   5.060   5.252  1.00  0.00    -0.237 OA
ATOM     73  O   UNL     1      11.883   6.553   4.603  1.00  0.00    -0.744 OA
ENDBRANCH  66  70
ENDBRANCH  49  63
BRANCH  50  74
ATOM     74  C   UNL     1       6.657  -3.827  -4.228  1.00  0.00     0.023 A 
ATOM     75  C   UNL     1       5.584  -4.650  -3.853  1.00  0.00     0.031 A 
ATOM     76  C   UNL     1       7.108  -3.892  -5.559  1.00  0.00     0.131 A 
ATOM     77  C   UNL     1       5.009  -5.518  -4.796  1.00  0.00     0.055 A 
ATOM     78  C   UNL     1       6.503  -4.720  -6.504  1.00  0.00     0.041 A 
ATOM     79  F   UNL     1       8.129  -3.122  -5.968  1.00  0.00    -0.206 F 
ATOM     80  C   UNL     1       5.451  -5.546  -6.122  1.00  0.00     0.022 A 
BRANCH  77  81
ATOM     81  S   UNL     1       3.693  -6.645  -4.259  1.00  0.00     0.124 S 
ATOM     82  O   UNL     1       4.387  -7.466  -3.273  1.00  0.00    -0.237 OA
ATOM     83  O   UNL     1       2.694  -5.720  -3.734  1.00  0.00    -0.237 OA
ATOM     84  O   UNL     1       3.312  -7.335  -5.490  1.00  0.00    -0.744 OA
ENDBRANCH  77  81
ENDBRANCH  50  74
BRANCH  62  85
ATOM     85  C   UNL     1      10.773  -4.895   1.284  1.00  0.00     0.023 A 
ATOM     86  C   UNL     1      11.591  -5.815   0.603  1.00  0.00     0.031 A 
ATOM     87  C   UNL     1      10.367  -5.214   2.591  1.00  0.00     0.131 A 
ATOM     88  C   UNL     1      11.919  -7.040   1.204  1.00  0.00     0.055 A 
ATOM     89  C   UNL     1      10.746  -6.408   3.207  1.00  0.00     0.041 A 
ATOM     90  F   UNL     1       9.582  -4.377   3.287  1.00  0.00    -0.206 F 
ATOM     91  C   UNL     1      11.512  -7.337   2.507  1.00  0.00     0.022 A 
BRANCH  88  92
ATOM     92  S   UNL     1      12.780  -8.294   0.214  1.00  0.00     0.124 S 
ATOM     93  O   UNL     1      11.894  -8.436  -0.937  1.00  0.00    -0.237 OA
ATOM     94  O   UNL     1      14.066  -7.657  -0.046  1.00  0.00    -0.237 OA
ATOM     95  O   UNL     1      12.832  -9.455   1.101  1.00  0.00    -0.744 OA
ENDBRANCH  88  92
ENDBRANCH  62  85
ENDBRANCH  36  37
ENDBRANCH  29  31
ENDBRANCH  28  29
ENDBRANCH  27  28
ENDBRANCH   1  27
TORSDOF 19
