REMARK SMILES CC[C@@H](NC(=O)N[C@H]1CCCCC[C@@H]1C(=O)OCCOC(=O)c1ccc(-c2c3nc(c(-c4cc(S(=O)(=O)[O-])ccc4F)c4ccc([nH]4)c(-c4cc(S(=O)(=O)[O-])ccc4F)c4nc(c(-c5cc(S(=O)(=O)[O-])ccc5F)c5ccc2[nH]5)C=C4)C=C3)cc1)C(C)C
REMARK SMILES IDX 18 1 17 2 15 3 16 4 14 5 8 6 7 7 4 8 5 9 6 11 3 13 2 14 1 15
REMARK SMILES IDX 86 16 87 17 88 18 9 19 10 20 11 21 13 23 12 24 19 26 20 27
REMARK SMILES IDX 21 28 22 29 23 30 24 31 85 32 25 33 84 34 26 35 27 36 28 37
REMARK SMILES IDX 78 38 29 39 83 40 77 41 79 42 30 43 82 44 76 45 75 46 31 48
REMARK SMILES IDX 63 49 43 50 62 51 44 52 47 53 61 54 80 55 45 56 46 57 60 59
REMARK SMILES IDX 81 60 48 61 32 62 33 63 41 64 34 65 40 66 42 67 39 68 35 69
REMARK SMILES IDX 36 70 37 71 38 72 64 73 65 74 73 75 66 76 72 77 74 78 71 79
REMARK SMILES IDX 67 80 68 81 69 82 70 83 49 84 50 85 58 86 51 87 57 88 59 89
REMARK SMILES IDX 56 90 52 91 53 92 54 93 55 94
REMARK H PARENT 4 10 7 12 79 47 47 58
REMARK Flexibility Score: 100.00
ROOT
ATOM      1  C   UNL     1      -4.616  -3.943  -1.606  1.00  0.00     0.274 C 
ENDROOT
BRANCH   1   2
ATOM      2  O   UNL     1      -3.343  -3.297  -1.754  1.00  0.00    -0.462 OA
BRANCH   2   3
ATOM      3  C   UNL     1      -2.334  -4.062  -2.232  1.00  0.00     0.311 C 
ATOM      4  O   UNL     1      -2.328  -5.286  -2.219  1.00  0.00    -0.252 OA
BRANCH   3   5
ATOM      5  C   UNL     1      -1.279  -3.205  -2.926  1.00  0.00     0.121 C 
BRANCH   5   6
ATOM      6  C   UNL     1       0.377  -4.134  -2.735  1.00  0.00     0.098 C 
BRANCH   6   7
ATOM      7  N   UNL     1       0.652  -4.894  -3.967  1.00  0.00    -0.335 N 
ATOM      8  N   UNL     1       2.400  -3.595  -4.869  1.00  0.00    -0.335 N 
ATOM      9  C   UNL     1       1.631  -4.710  -4.879  1.00  0.00     0.315 C 
ATOM     10  H   UNL     1       3.361  -3.751  -5.018  1.00  0.00     0.165 HD
ATOM     11  O   UNL     1       1.874  -5.603  -5.689  1.00  0.00    -0.249 OA
ATOM     12  H   UNL     1       0.037  -5.640  -4.151  1.00  0.00     0.165 HD
BRANCH   8  13
ATOM     13  C   UNL     1       2.023  -2.180  -4.670  1.00  0.00     0.086 C 
BRANCH  13  14
ATOM     14  C   UNL     1       3.228  -1.193  -4.833  1.00  0.00     0.022 C 
ATOM     15  C   UNL     1       3.147  -0.243  -6.026  1.00  0.00     0.006 C 
ENDBRANCH  13  14
BRANCH  13  16
ATOM     16  C   UNL     1       0.691  -1.851  -3.697  1.00  0.00     0.005 C 
ATOM     17  C   UNL     1       0.340  -2.047  -1.714  1.00  0.00     0.009 C 
ATOM     18  C   UNL     1      -0.174  -1.015  -4.820  1.00  0.00     0.009 C 
ENDBRANCH  13  16
ENDBRANCH   8  13
ENDBRANCH   6   7
BRANCH   6  19
ATOM     19  C   UNL     1       1.998  -3.486  -2.145  1.00  0.00     0.026 C 
BRANCH  19  20
ATOM     20  C   UNL     1       2.558  -1.726  -2.015  1.00  0.00     0.002 C 
BRANCH  20  21
ATOM     21  C   UNL     1       1.524  -0.186  -2.179  1.00  0.00     0.000 CG0
ATOM     22  G   UNL     1      -0.304   0.010  -2.474  1.00  0.00     0.000 G0
ENDBRANCH  20  21
ENDBRANCH  19  20
ENDBRANCH   6  19
ENDBRANCH   5   6
BRANCH   5  23
ATOM     23  C   UNL     1      -1.573  -1.386  -2.549  1.00  0.00     0.017 C 
BRANCH  23  24
ATOM     24  C   UNL     1      -0.304   0.010  -2.474  1.00  0.00     0.001 CG0
ATOM     25  G   UNL     1       1.524  -0.186  -2.179  1.00  0.00     0.000 G0
ENDBRANCH  23  24
ENDBRANCH   5  23
ENDBRANCH   3   5
ENDBRANCH   2   3
ENDBRANCH   1   2
BRANCH   1  26
ATOM     26  C   UNL     1      -5.682  -2.909  -1.957  1.00  0.00     0.275 C 
BRANCH  26  27
ATOM     27  O   UNL     1      -5.377  -2.361  -3.258  1.00  0.00    -0.458 OA
BRANCH  27  28
ATOM     28  C   UNL     1      -5.520  -1.020  -3.374  1.00  0.00     0.338 C 
ATOM     29  O   UNL     1      -6.009  -0.275  -2.529  1.00  0.00    -0.246 OA
BRANCH  28  30
ATOM     30  C   UNL     1      -5.002  -0.531  -4.675  1.00  0.00     0.060 A 
ATOM     31  C   UNL     1      -3.969  -1.179  -5.356  1.00  0.00     0.016 A 
ATOM     32  C   UNL     1      -5.503   0.670  -5.184  1.00  0.00     0.016 A 
ATOM     33  C   UNL     1      -3.394  -0.589  -6.490  1.00  0.00     0.010 A 
ATOM     34  C   UNL     1      -4.990   1.203  -6.373  1.00  0.00     0.010 A 
ATOM     35  C   UNL     1      -3.906   0.600  -7.034  1.00  0.00    -0.014 A 
BRANCH  35  36
ATOM     36  C   UNL     1      -3.336   1.234  -8.268  1.00  0.00     0.031 A 
ATOM     37  C   UNL     1      -2.967   2.701  -8.270  1.00  0.00     0.074 A 
ATOM     38  C   UNL     1      -3.188   0.536  -9.414  1.00  0.00     0.049 A 
ATOM     39  N   UNL     1      -2.785   3.516  -9.279  1.00  0.00    -0.248 NA
ATOM     40  C   UNL     1      -2.805   3.336  -6.953  1.00  0.00     0.031 C 
ATOM     41  C   UNL     1      -3.431  -0.898  -9.579  1.00  0.00     0.029 A 
ATOM     42  N   UNL     1      -2.812   0.949 -10.673  1.00  0.00    -0.354 N 
ATOM     43  C   UNL     1      -2.561   4.774  -8.724  1.00  0.00     0.074 A 
ATOM     44  C   UNL     1      -2.629   4.608  -7.285  1.00  0.00     0.031 C 
ATOM     45  C   UNL     1      -3.177  -1.248 -10.849  1.00  0.00     0.029 A 
ATOM     46  C   UNL     1      -2.875  -0.049 -11.620  1.00  0.00     0.049 A 
ATOM     47  H   UNL     1      -2.526   1.869 -10.877  1.00  0.00     0.167 HD
ATOM     48  C   UNL     1      -2.332   5.955  -9.354  1.00  0.00     0.034 A 
ATOM     49  C   UNL     1      -2.783  -0.009 -12.965  1.00  0.00     0.034 A 
ATOM     50  C   UNL     1      -2.208   6.098 -10.788  1.00  0.00     0.049 A 
ATOM     51  C   UNL     1      -2.587   1.316 -13.653  1.00  0.00     0.074 A 
ATOM     52  C   UNL     1      -1.957   7.245 -11.524  1.00  0.00     0.029 A 
ATOM     53  N   UNL     1      -2.312   5.060 -11.705  1.00  0.00    -0.354 N 
ATOM     54  N   UNL     1      -2.478   2.513 -13.126  1.00  0.00    -0.248 NA
ATOM     55  C   UNL     1      -2.522   1.296 -15.121  1.00  0.00     0.031 C 
ATOM     56  C   UNL     1      -1.967   6.911 -12.883  1.00  0.00     0.029 A 
ATOM     57  C   UNL     1      -2.152   5.544 -12.996  1.00  0.00     0.049 A 
ATOM     58  H   UNL     1      -2.476   4.117 -11.473  1.00  0.00     0.167 HD
ATOM     59  C   UNL     1      -2.317   3.385 -14.199  1.00  0.00     0.074 A 
ATOM     60  C   UNL     1      -2.323   2.575 -15.399  1.00  0.00     0.031 C 
ATOM     61  C   UNL     1      -2.175   4.734 -14.191  1.00  0.00     0.034 A 
BRANCH  48  62
ATOM     62  C   UNL     1      -2.264   7.204  -8.504  1.00  0.00     0.023 A 
ATOM     63  C   UNL     1      -1.247   7.417  -7.559  1.00  0.00     0.031 A 
ATOM     64  C   UNL     1      -3.253   8.197  -8.638  1.00  0.00     0.131 A 
ATOM     65  C   UNL     1      -1.280   8.557  -6.739  1.00  0.00     0.055 A 
ATOM     66  C   UNL     1      -3.236   9.367  -7.875  1.00  0.00     0.041 A 
ATOM     67  F   UNL     1      -4.261   8.043  -9.511  1.00  0.00    -0.206 F 
ATOM     68  C   UNL     1      -2.253   9.546  -6.908  1.00  0.00     0.022 A 
BRANCH  65  69
ATOM     69  S   UNL     1      -0.114   8.664  -5.353  1.00  0.00     0.124 S 
ATOM     70  O   UNL     1      -0.424   7.444  -4.612  1.00  0.00    -0.237 OA
ATOM     71  O   UNL     1       1.177   8.690  -6.029  1.00  0.00    -0.237 OA
ATOM     72  O   UNL     1      -0.493   9.905  -4.680  1.00  0.00    -0.744 OA
ENDBRANCH  65  69
ENDBRANCH  48  62
BRANCH  49  73
ATOM     73  C   UNL     1      -2.974  -1.254 -13.765  1.00  0.00     0.023 A 
ATOM     74  C   UNL     1      -1.935  -1.778 -14.549  1.00  0.00     0.031 A 
ATOM     75  C   UNL     1      -4.215  -1.919 -13.782  1.00  0.00     0.131 A 
ATOM     76  C   UNL     1      -2.165  -2.914 -15.341  1.00  0.00     0.055 A 
ATOM     77  C   UNL     1      -4.419  -3.082 -14.524  1.00  0.00     0.041 A 
ATOM     78  F   UNL     1      -5.244  -1.455 -13.055  1.00  0.00    -0.206 F 
ATOM     79  C   UNL     1      -3.393  -3.580 -15.319  1.00  0.00     0.022 A 
BRANCH  76  80
ATOM     80  S   UNL     1      -0.855  -3.465 -16.467  1.00  0.00     0.124 S 
ATOM     81  O   UNL     1      -0.670  -2.285 -17.305  1.00  0.00    -0.237 OA
ATOM     82  O   UNL     1       0.231  -3.772 -15.543  1.00  0.00    -0.237 OA
ATOM     83  O   UNL     1      -1.446  -4.621 -17.137  1.00  0.00    -0.744 OA
ENDBRANCH  76  80
ENDBRANCH  49  73
BRANCH  61  84
ATOM     84  C   UNL     1      -1.965   5.406 -15.525  1.00  0.00     0.023 A 
ATOM     85  C   UNL     1      -2.984   5.467 -16.492  1.00  0.00     0.031 A 
ATOM     86  C   UNL     1      -0.715   5.965 -15.844  1.00  0.00     0.131 A 
ATOM     87  C   UNL     1      -2.718   6.024 -17.753  1.00  0.00     0.055 A 
ATOM     88  C   UNL     1      -0.472   6.566 -17.080  1.00  0.00     0.041 A 
ATOM     89  F   UNL     1       0.294   5.931 -14.959  1.00  0.00    -0.206 F 
ATOM     90  C   UNL     1      -1.473   6.586 -18.047  1.00  0.00     0.022 A 
BRANCH  87  91
ATOM     91  S   UNL     1      -3.994   5.926 -19.039  1.00  0.00     0.124 S 
ATOM     92  O   UNL     1      -4.200   4.486 -19.153  1.00  0.00    -0.237 OA
ATOM     93  O   UNL     1      -5.093   6.682 -18.447  1.00  0.00    -0.237 OA
ATOM     94  O   UNL     1      -3.364   6.556 -20.198  1.00  0.00    -0.744 OA
ENDBRANCH  87  91
ENDBRANCH  61  84
ENDBRANCH  35  36
ENDBRANCH  28  30
ENDBRANCH  27  28
ENDBRANCH  26  27
ENDBRANCH   1  26
TORSDOF 18
