REMARK SMILES CC1(C)CC[C@@]2(C(=O)OCCOC(=O)c3ccc(-c4c5nc(c(-c6cc(S(=O)(=O)[O-])ccc6F)c6ccc([nH]6)c(-c6cc(S(=O)(=O)[O-])ccc6F)c6nc(c(-c7cc(S(=O)(=O)[O-])ccc7F)c7ccc4[nH]7)C=C6)C=C5)cc3)CC[C@@]3(C)C(=CC[C@H]4[C@@]5(C)CC[C@H](O)C(C)(C)[C@@H]5CC[C@]43C)[C@@H]2C1
REMARK SMILES IDX 11 1 10 2 9 3 7 4 8 5 6 6 1 7 2 8 3 9 4 10 101 11 5 12
REMARK SMILES IDX 100 13 82 14 78 15 80 16 83 17 79 18 81 19 98 20 84 21 85 22
REMARK SMILES IDX 97 23 99 24 86 25 96 26 87 27 88 28 95 29 89 30 92 31 90 32
REMARK SMILES IDX 93 33 94 34 91 35 12 37 13 38 14 39 15 40 16 41 77 42 17 43
REMARK SMILES IDX 76 44 18 45 19 46 20 47 70 48 21 49 75 50 69 51 71 52 22 53
REMARK SMILES IDX 74 54 68 55 67 56 23 58 55 59 35 60 54 61 36 62 39 63 53 64
REMARK SMILES IDX 72 65 37 66 38 67 52 69 73 70 40 71 24 72 25 73 33 74 26 75
REMARK SMILES IDX 32 76 34 77 31 78 27 79 28 80 29 81 30 82 56 83 57 84 65 85
REMARK SMILES IDX 58 86 64 87 66 88 63 89 59 90 60 91 61 92 62 93 41 94 42 95
REMARK SMILES IDX 50 96 43 97 49 98 51 99 48 100 44 101 45 102 46 103 47 104
REMARK H PARENT 91 36 71 57 39 68
REMARK Flexibility Score: inf
ROOT
ATOM      1  C   UNL     1       1.813  -3.437   3.907  1.00  0.00     0.275 C 
ENDROOT
BRANCH   1   2
ATOM      2  C   UNL     1       0.875  -2.481   3.207  1.00  0.00     0.274 C 
BRANCH   2   3
ATOM      3  O   UNL     1       0.750  -2.776   1.853  1.00  0.00    -0.462 OA
BRANCH   3   4
ATOM      4  C   UNL     1       1.976  -2.902   1.342  1.00  0.00     0.312 C 
ATOM      5  O   UNL     1       2.349  -3.993   0.912  1.00  0.00    -0.252 OA
BRANCH   4   6
ATOM      6  C   UNL     1       2.780  -1.597   1.202  1.00  0.00     0.075 C 
ATOM      7  C   UNL     1       0.622   1.059  -1.217  1.00  0.00     0.011 C 
ATOM      8  C   UNL     1       0.484   0.021  -0.090  1.00  0.00    -0.035 C 
ATOM      9  C   UNL     1      -1.032  -0.079   0.246  1.00  0.00     0.011 C 
ATOM     10  C   UNL     1       1.036  -1.297  -0.655  1.00  0.00     0.007 C 
ATOM     11  C   UNL     1       1.174   0.501   1.210  1.00  0.00     0.015 C 
ATOM     12  C   UNL     1       2.558  -1.503  -0.348  1.00  0.00     0.020 C 
ATOM     13  C   UNL     1       2.487  -0.154   1.739  1.00  0.00     0.033 C 
ATOM     14  C   UNL     1       2.700   0.155   3.272  1.00  0.00    -0.063 C 
ATOM     15  C   UNL     1       4.197  -1.924   1.770  1.00  0.00     0.020 C 
ATOM     16  C   UNL     1       3.797  -0.522   4.115  1.00  0.00    -0.006 C 
ATOM     17  C   UNL     1       1.761   0.899   3.900  1.00  0.00    -0.027 C 
ATOM     18  C   UNL     1       4.414  -1.764   3.346  1.00  0.00     0.013 C 
ATOM     19  C   UNL     1       5.026   0.462   4.096  1.00  0.00     0.017 C 
ATOM     20  C   UNL     1       3.206  -0.710   5.776  1.00  0.00    -0.020 C 
ATOM     21  C   UNL     1       0.884   0.331   5.008  1.00  0.00     0.032 C 
ATOM     22  C   UNL     1       1.560  -0.699   5.943  1.00  0.00     0.006 C 
ATOM     23  C   UNL     1       3.792  -1.839   6.687  1.00  0.00     0.008 C 
ATOM     24  C   UNL     1       3.686   0.607   6.551  1.00  0.00     0.012 C 
ATOM     25  C   UNL     1       0.622  -1.923   6.729  1.00  0.00    -0.025 C 
ATOM     26  C   UNL     1       2.870  -2.241   7.914  1.00  0.00     0.005 C 
ATOM     27  C   UNL     1      -0.196  -1.068   7.767  1.00  0.00     0.012 C 
ATOM     28  C   UNL     1      -0.564  -2.754   6.053  1.00  0.00     0.010 C 
ATOM     29  C   UNL     1       1.593  -2.938   7.408  1.00  0.00     0.003 C 
ATOM     30  C   UNL     1      -0.678  -4.308   6.183  1.00  0.00     0.033 C 
ATOM     31  C   UNL     1       0.930  -4.172   8.164  1.00  0.00    -0.006 C 
ATOM     32  C   UNL     1       0.374  -5.055   7.008  1.00  0.00     0.120 C 
ATOM     33  C   UNL     1      -0.231  -3.906   9.141  1.00  0.00     0.014 C 
ATOM     34  C   UNL     1       1.978  -4.982   8.954  1.00  0.00     0.014 C 
BRANCH  32  35
ATOM     35  O   UNL     1      -0.174  -6.290   7.464  1.00  0.00    -0.393 OA
ATOM     36  H   UNL     1      -0.943  -6.114   8.028  1.00  0.00     0.210 HD
ENDBRANCH  32  35
ENDBRANCH   4   6
ENDBRANCH   3   4
ENDBRANCH   2   3
ENDBRANCH   1   2
BRANCH   1  37
ATOM     37  O   UNL     1       1.249  -4.718   4.046  1.00  0.00    -0.458 OA
BRANCH  37  38
ATOM     38  C   UNL     1       2.040  -5.814   4.047  1.00  0.00     0.338 C 
ATOM     39  O   UNL     1       1.560  -6.936   4.114  1.00  0.00    -0.246 OA
BRANCH  38  40
ATOM     40  C   UNL     1       3.509  -5.656   4.063  1.00  0.00     0.060 A 
ATOM     41  C   UNL     1       4.186  -5.884   2.866  1.00  0.00     0.016 A 
ATOM     42  C   UNL     1       4.201  -5.544   5.278  1.00  0.00     0.016 A 
ATOM     43  C   UNL     1       5.534  -6.194   2.906  1.00  0.00     0.010 A 
ATOM     44  C   UNL     1       5.561  -5.846   5.320  1.00  0.00     0.010 A 
ATOM     45  C   UNL     1       6.182  -6.294   4.147  1.00  0.00    -0.014 A 
BRANCH  45  46
ATOM     46  C   UNL     1       7.328  -7.229   4.199  1.00  0.00     0.031 A 
ATOM     47  C   UNL     1       7.026  -8.675   4.514  1.00  0.00     0.074 A 
ATOM     48  C   UNL     1       8.528  -6.821   3.759  1.00  0.00     0.049 A 
ATOM     49  N   UNL     1       7.795  -9.726   4.425  1.00  0.00    -0.248 NA
ATOM     50  C   UNL     1       5.655  -8.980   4.965  1.00  0.00     0.031 C 
ATOM     51  C   UNL     1       8.842  -5.450   3.355  1.00  0.00     0.029 A 
ATOM     52  N   UNL     1       9.681  -7.517   3.527  1.00  0.00    -0.354 N 
ATOM     53  C   UNL     1       7.000 -10.811   4.793  1.00  0.00     0.074 A 
ATOM     54  C   UNL     1       5.700 -10.291   5.139  1.00  0.00     0.031 C 
ATOM     55  C   UNL     1      10.101  -5.412   2.892  1.00  0.00     0.029 A 
ATOM     56  C   UNL     1      10.691  -6.742   3.008  1.00  0.00     0.049 A 
ATOM     57  H   UNL     1       9.779  -8.478   3.714  1.00  0.00     0.167 HD
ATOM     58  C   UNL     1       7.334 -12.124   4.834  1.00  0.00     0.034 A 
ATOM     59  C   UNL     1      11.953  -7.081   2.678  1.00  0.00     0.034 A 
ATOM     60  C   UNL     1       8.663 -12.585   4.513  1.00  0.00     0.049 A 
ATOM     61  C   UNL     1      12.332  -8.534   2.814  1.00  0.00     0.074 A 
ATOM     62  C   UNL     1       9.180 -13.864   4.575  1.00  0.00     0.029 A 
ATOM     63  N   UNL     1       9.697 -11.756   4.081  1.00  0.00    -0.354 N 
ATOM     64  N   UNL     1      11.583  -9.548   3.193  1.00  0.00    -0.248 NA
ATOM     65  C   UNL     1      13.711  -8.893   2.475  1.00  0.00     0.031 C 
ATOM     66  C   UNL     1      10.542 -13.795   4.257  1.00  0.00     0.029 A 
ATOM     67  C   UNL     1      10.859 -12.487   3.913  1.00  0.00     0.049 A 
ATOM     68  H   UNL     1       9.612 -10.788   3.919  1.00  0.00     0.167 HD
ATOM     69  C   UNL     1      12.399 -10.671   3.133  1.00  0.00     0.074 A 
ATOM     70  C   UNL     1      13.689 -10.208   2.648  1.00  0.00     0.031 C 
ATOM     71  C   UNL     1      12.126 -11.965   3.451  1.00  0.00     0.034 A 
BRANCH  58  72
ATOM     72  C   UNL     1       6.289 -13.096   5.342  1.00  0.00     0.023 A 
ATOM     73  C   UNL     1       5.071 -13.321   4.669  1.00  0.00     0.031 A 
ATOM     74  C   UNL     1       6.484 -13.752   6.571  1.00  0.00     0.131 A 
ATOM     75  C   UNL     1       4.075 -14.120   5.263  1.00  0.00     0.055 A 
ATOM     76  C   UNL     1       5.519 -14.601   7.121  1.00  0.00     0.041 A 
ATOM     77  F   UNL     1       7.608 -13.558   7.278  1.00  0.00    -0.206 F 
ATOM     78  C   UNL     1       4.301 -14.776   6.474  1.00  0.00     0.022 A 
BRANCH  75  79
ATOM     79  S   UNL     1       2.424 -14.180   4.507  1.00  0.00     0.124 S 
ATOM     80  O   UNL     1       2.032 -12.774   4.542  1.00  0.00    -0.237 OA
ATOM     81  O   UNL     1       2.702 -14.736   3.188  1.00  0.00    -0.237 OA
ATOM     82  O   UNL     1       1.667 -15.052   5.403  1.00  0.00    -0.744 OA
ENDBRANCH  75  79
ENDBRANCH  58  72
BRANCH  59  83
ATOM     83  C   UNL     1      12.924  -6.029   2.255  1.00  0.00     0.023 A 
ATOM     84  C   UNL     1      13.541  -6.037   0.994  1.00  0.00     0.031 A 
ATOM     85  C   UNL     1      13.245  -4.973   3.132  1.00  0.00     0.131 A 
ATOM     86  C   UNL     1      14.452  -5.020   0.653  1.00  0.00     0.055 A 
ATOM     87  C   UNL     1      14.108  -3.939   2.770  1.00  0.00     0.041 A 
ATOM     88  F   UNL     1      12.692  -4.914   4.354  1.00  0.00    -0.206 F 
ATOM     89  C   UNL     1      14.725  -3.963   1.526  1.00  0.00     0.022 A 
BRANCH  86  90
ATOM     90  S   UNL     1      15.335  -5.123  -0.929  1.00  0.00     0.124 S 
ATOM     91  O   UNL     1      15.951  -6.442  -0.844  1.00  0.00    -0.237 OA
ATOM     92  O   UNL     1      14.248  -4.982  -1.891  1.00  0.00    -0.237 OA
ATOM     93  O   UNL     1      16.265  -3.996  -0.874  1.00  0.00    -0.744 OA
ENDBRANCH  86  90
ENDBRANCH  59  83
BRANCH  71  94
ATOM     94  C   UNL     1      13.254 -12.946   3.269  1.00  0.00     0.023 A 
ATOM     95  C   UNL     1      14.402 -12.893   4.076  1.00  0.00     0.031 A 
ATOM     96  C   UNL     1      13.183 -13.931   2.270  1.00  0.00     0.131 A 
ATOM     97  C   UNL     1      15.467 -13.767   3.824  1.00  0.00     0.055 A 
ATOM     98  C   UNL     1      14.217 -14.844   2.070  1.00  0.00     0.041 A 
ATOM     99  F   UNL     1      12.105 -14.021   1.474  1.00  0.00    -0.206 F 
ATOM    100  C   UNL     1      15.375 -14.754   2.839  1.00  0.00     0.022 A 
BRANCH  97 101
ATOM    101  S   UNL     1      17.018 -13.519   4.727  1.00  0.00     0.124 S 
ATOM    102  O   UNL     1      17.369 -12.152   4.355  1.00  0.00    -0.237 OA
ATOM    103  O   UNL     1      16.608 -13.717   6.114  1.00  0.00    -0.237 OA
ATOM    104  O   UNL     1      17.898 -14.554   4.187  1.00  0.00    -0.744 OA
ENDBRANCH  97 101
ENDBRANCH  71  94
ENDBRANCH  45  46
ENDBRANCH  38  40
ENDBRANCH  37  38
ENDBRANCH   1  37
TORSDOF 15
