REMARK SMILES COc1ccc(Cl)c2c1N[C@@H](c1ccc(C(=O)OCCOC(=O)c3ccc(-c4c5nc(c(-c6cc(S(=O)(=O)[O-])ccc6F)c6ccc([nH]6)c(-c6cc(S(=O)(=O)[O-])ccc6F)c6nc(c(-c7cc(S(=O)(=O)[O-])ccc7F)c7ccc4[nH]7)C=C6)C=C5)cc3)cc1)[C@@H]1CC=C[C@H]21
REMARK SMILES IDX 20 1 19 2 18 3 16 4 17 5 15 6 12 7 13 8 88 9 14 10 87 11
REMARK SMILES IDX 11 12 3 13 4 14 9 15 5 16 8 17 10 18 6 19 93 20 7 22 89 23
REMARK SMILES IDX 92 24 90 25 91 26 2 27 1 28 21 29 22 30 23 31 24 32 25 33
REMARK SMILES IDX 86 34 26 35 85 36 27 37 28 38 29 39 79 40 30 41 84 42 78 43
REMARK SMILES IDX 80 44 31 45 83 46 77 47 76 48 32 50 64 51 44 52 63 53 45 54
REMARK SMILES IDX 48 55 62 56 81 57 46 58 47 59 61 61 82 62 49 63 33 64 34 65
REMARK SMILES IDX 42 66 35 67 41 68 43 69 40 70 36 71 37 72 38 73 39 74 65 75
REMARK SMILES IDX 66 76 74 77 67 78 73 79 75 80 72 81 68 82 69 83 70 84 71 85
REMARK SMILES IDX 50 86 51 87 59 88 52 89 58 90 60 91 57 92 53 93 54 94 55 95
REMARK SMILES IDX 56 96
REMARK H PARENT 10 21 80 49 48 60
REMARK Flexibility Score: inf
ROOT
ATOM      1  C   UNL     1       9.536   1.569  -4.201  1.00  0.00     0.275 C 
ENDROOT
BRANCH   1   2
ATOM      2  C   UNL     1      10.227   1.395  -2.850  1.00  0.00     0.275 C 
BRANCH   2   3
ATOM      3  O   UNL     1       9.323   0.783  -1.911  1.00  0.00    -0.458 OA
BRANCH   3   4
ATOM      4  C   UNL     1       8.817   1.604  -0.956  1.00  0.00     0.338 C 
ATOM      5  O   UNL     1       9.139   2.762  -0.758  1.00  0.00    -0.246 OA
BRANCH   4   6
ATOM      6  C   UNL     1       7.724   0.932  -0.207  1.00  0.00     0.060 A 
ATOM      7  C   UNL     1       5.589  -0.225   1.224  1.00  0.00    -0.025 A 
ATOM      8  C   UNL     1       5.794   1.163   1.246  1.00  0.00     0.007 A 
ATOM      9  C   UNL     1       6.462  -1.023   0.465  1.00  0.00     0.007 A 
ATOM     10  C   UNL     1       6.857   1.734   0.547  1.00  0.00     0.016 A 
ATOM     11  C   UNL     1       7.523  -0.451  -0.245  1.00  0.00     0.016 A 
BRANCH   7  12
ATOM     12  C   UNL     1       4.488  -0.868   2.060  1.00  0.00     0.114 C 
ATOM     13  C   UNL     1       0.901   0.151   2.357  1.00  0.00     0.142 A 
ATOM     14  C   UNL     1      -0.199   0.033   3.203  1.00  0.00     0.050 A 
ATOM     15  C   UNL     1       2.175  -0.324   2.728  1.00  0.00     0.083 A 
ATOM     16  C   UNL     1      -0.049  -0.599   4.431  1.00  0.00     0.025 A 
ATOM     17  C   UNL     1       2.329  -0.958   3.975  1.00  0.00     0.005 A 
ATOM     18  N   UNL     1       3.260  -0.121   1.889  1.00  0.00    -0.375 N 
ATOM     19  C   UNL     1       1.202  -1.090   4.816  1.00  0.00     0.047 A 
ATOM     20  C   UNL     1       3.702  -1.394   4.425  1.00  0.00     0.051 C 
ATOM     21  H   UNL     1       3.193   0.542   1.165  1.00  0.00     0.161 HD
ATOM     22  Cl  UNL     1       1.306  -1.819   6.384  1.00  0.00    -0.084 Cl
ATOM     23  C   UNL     1       4.879  -0.902   3.553  1.00  0.00     0.031 C 
ATOM     24  C   UNL     1       3.942  -2.882   4.438  1.00  0.00    -0.023 C 
ATOM     25  C   UNL     1       5.991  -1.930   3.838  1.00  0.00     0.034 C 
ATOM     26  C   UNL     1       5.213  -3.172   4.132  1.00  0.00    -0.030 C 
BRANCH  13  27
ATOM     27  O   UNL     1       0.721   0.831   1.177  1.00  0.00    -0.495 OA
ATOM     28  C   UNL     1       0.541  -0.070   0.084  1.00  0.00     0.278 C 
ENDBRANCH  13  27
ENDBRANCH   7  12
ENDBRANCH   4   6
ENDBRANCH   3   4
ENDBRANCH   2   3
ENDBRANCH   1   2
BRANCH   1  29
ATOM     29  O   UNL     1       8.482   2.543  -4.091  1.00  0.00    -0.458 OA
BRANCH  29  30
ATOM     30  C   UNL     1       7.223   2.052  -4.141  1.00  0.00     0.338 C 
ATOM     31  O   UNL     1       6.880   0.897  -4.322  1.00  0.00    -0.246 OA
BRANCH  30  32
ATOM     32  C   UNL     1       6.271   3.146  -3.900  1.00  0.00     0.060 A 
ATOM     33  C   UNL     1       6.051   3.573  -2.591  1.00  0.00     0.016 A 
ATOM     34  C   UNL     1       5.516   3.665  -4.950  1.00  0.00     0.016 A 
ATOM     35  C   UNL     1       5.028   4.476  -2.314  1.00  0.00     0.010 A 
ATOM     36  C   UNL     1       4.528   4.618  -4.678  1.00  0.00     0.010 A 
ATOM     37  C   UNL     1       4.252   5.005  -3.354  1.00  0.00    -0.014 A 
BRANCH  37  38
ATOM     38  C   UNL     1       3.124   5.925  -3.052  1.00  0.00     0.031 A 
ATOM     39  C   UNL     1       1.708   5.485  -3.303  1.00  0.00     0.074 A 
ATOM     40  C   UNL     1       3.367   7.148  -2.543  1.00  0.00     0.049 A 
ATOM     41  N   UNL     1       0.600   6.171  -3.193  1.00  0.00    -0.248 NA
ATOM     42  C   UNL     1       1.509   4.092  -3.735  1.00  0.00     0.031 C 
ATOM     43  C   UNL     1       4.693   7.674  -2.219  1.00  0.00     0.029 A 
ATOM     44  N   UNL     1       2.511   8.170  -2.212  1.00  0.00    -0.354 N 
ATOM     45  C   UNL     1      -0.422   5.307  -3.567  1.00  0.00     0.074 A 
ATOM     46  C   UNL     1       0.197   4.050  -3.925  1.00  0.00     0.031 C 
ATOM     47  C   UNL     1       4.562   8.916  -1.729  1.00  0.00     0.029 A 
ATOM     48  C   UNL     1       3.153   9.300  -1.761  1.00  0.00     0.049 A 
ATOM     49  H   UNL     1       1.532   8.101  -2.291  1.00  0.00     0.167 HD
ATOM     50  C   UNL     1      -1.754   5.542  -3.602  1.00  0.00     0.034 A 
ATOM     51  C   UNL     1       2.670  10.519  -1.440  1.00  0.00     0.034 A 
ATOM     52  C   UNL     1      -2.365   6.786  -3.213  1.00  0.00     0.049 A 
ATOM     53  C   UNL     1       1.187  10.768  -1.522  1.00  0.00     0.074 A 
ATOM     54  C   UNL     1      -3.712   7.105  -3.193  1.00  0.00     0.029 A 
ATOM     55  N   UNL     1      -1.681   7.908  -2.770  1.00  0.00    -0.354 N 
ATOM     56  N   UNL     1       0.231   9.935  -1.862  1.00  0.00    -0.248 NA
ATOM     57  C   UNL     1       0.711  12.116  -1.181  1.00  0.00     0.031 C 
ATOM     58  C   UNL     1      -3.840   8.433  -2.784  1.00  0.00     0.029 A 
ATOM     59  C   UNL     1      -2.578   8.927  -2.495  1.00  0.00     0.049 A 
ATOM     60  H   UNL     1      -0.704   7.970  -2.666  1.00  0.00     0.167 HD
ATOM     61  C   UNL     1      -0.957  10.652  -1.758  1.00  0.00     0.074 A 
ATOM     62  C   UNL     1      -0.604  11.980  -1.305  1.00  0.00     0.031 C 
ATOM     63  C   UNL     1      -2.223  10.242  -2.021  1.00  0.00     0.034 A 
BRANCH  50  64
ATOM     64  C   UNL     1      -2.668   4.442  -4.075  1.00  0.00     0.023 A 
ATOM     65  C   UNL     1      -3.382   4.598  -5.278  1.00  0.00     0.031 A 
ATOM     66  C   UNL     1      -2.931   3.313  -3.281  1.00  0.00     0.131 A 
ATOM     67  C   UNL     1      -4.352   3.655  -5.636  1.00  0.00     0.055 A 
ATOM     68  C   UNL     1      -3.877   2.360  -3.659  1.00  0.00     0.041 A 
ATOM     69  F   UNL     1      -2.268   3.120  -2.130  1.00  0.00    -0.206 F 
ATOM     70  C   UNL     1      -4.600   2.535  -4.836  1.00  0.00     0.022 A 
BRANCH  67  71
ATOM     71  S   UNL     1      -5.355   3.867  -7.132  1.00  0.00     0.124 S 
ATOM     72  O   UNL     1      -5.157   2.588  -7.812  1.00  0.00    -0.237 OA
ATOM     73  O   UNL     1      -6.688   4.079  -6.577  1.00  0.00    -0.237 OA
ATOM     74  O   UNL     1      -4.753   5.018  -7.797  1.00  0.00    -0.744 OA
ENDBRANCH  67  71
ENDBRANCH  50  64
BRANCH  51  75
ATOM     75  C   UNL     1       3.621  11.580  -1.001  1.00  0.00     0.023 A 
ATOM     76  C   UNL     1       4.611  12.065  -1.875  1.00  0.00     0.031 A 
ATOM     77  C   UNL     1       3.616  12.050   0.322  1.00  0.00     0.131 A 
ATOM     78  C   UNL     1       5.595  12.940  -1.397  1.00  0.00     0.055 A 
ATOM     79  C   UNL     1       4.561  12.972   0.777  1.00  0.00     0.041 A 
ATOM     80  F   UNL     1       2.694  11.611   1.192  1.00  0.00    -0.206 F 
ATOM     81  C   UNL     1       5.566  13.409  -0.080  1.00  0.00     0.022 A 
BRANCH  78  82
ATOM     82  S   UNL     1       7.002  13.415  -2.438  1.00  0.00     0.124 S 
ATOM     83  O   UNL     1       6.938  14.872  -2.394  1.00  0.00    -0.237 OA
ATOM     84  O   UNL     1       8.120  12.810  -1.718  1.00  0.00    -0.237 OA
ATOM     85  O   UNL     1       6.694  12.811  -3.731  1.00  0.00    -0.744 OA
ENDBRANCH  78  82
ENDBRANCH  51  75
BRANCH  63  86
ATOM     86  C   UNL     1      -3.356  11.217  -1.821  1.00  0.00     0.023 A 
ATOM     87  C   UNL     1      -4.327  10.970  -0.832  1.00  0.00     0.031 A 
ATOM     88  C   UNL     1      -3.564  12.284  -2.711  1.00  0.00     0.131 A 
ATOM     89  C   UNL     1      -5.486  11.755  -0.785  1.00  0.00     0.055 A 
ATOM     90  C   UNL     1      -4.701  13.088  -2.633  1.00  0.00     0.041 A 
ATOM     91  F   UNL     1      -2.670  12.550  -3.676  1.00  0.00    -0.206 F 
ATOM     92  C   UNL     1      -5.675  12.817  -1.676  1.00  0.00     0.022 A 
BRANCH  89  93
ATOM     93  S   UNL     1      -6.821  11.382   0.386  1.00  0.00     0.124 S 
ATOM     94  O   UNL     1      -6.974  12.655   1.088  1.00  0.00    -0.237 OA
ATOM     95  O   UNL     1      -7.920  11.027  -0.507  1.00  0.00    -0.237 OA
ATOM     96  O   UNL     1      -6.287  10.291   1.194  1.00  0.00    -0.744 OA
ENDBRANCH  89  93
ENDBRANCH  63  86
ENDBRANCH  37  38
ENDBRANCH  30  32
ENDBRANCH  29  30
ENDBRANCH   1  29
TORSDOF 16
