REMARK SMILES [NH3+]CCOCC(=O)N[C@H](C(=O)OCCOC(=O)c1ccc(-c2c3nc(c(-c4cc(S(=O)(=O)[O-])ccc4F)c4ccc([nH]4)c(-c4cc(S(=O)(=O)[O-])ccc4F)c4nc(c(-c5cc(S(=O)(=O)[O-])ccc5F)c5ccc2[nH]5)C=C4)C=C3)cc1)C1CCCCC1
REMARK SMILES IDX 12 1 10 2 11 3 9 4 8 5 6 6 7 7 5 9 4 10 3 11 2 12 1 13 81 17
REMARK SMILES IDX 82 18 86 19 83 20 85 21 84 22 13 23 14 24 15 25 16 26 17 27
REMARK SMILES IDX 18 28 19 29 80 30 20 31 79 32 21 33 22 34 23 35 73 36 24 37
REMARK SMILES IDX 78 38 72 39 74 40 25 41 77 42 71 43 70 44 26 46 58 47 38 48
REMARK SMILES IDX 57 49 39 50 42 51 56 52 75 53 40 54 41 55 55 57 76 58 43 59
REMARK SMILES IDX 27 60 28 61 36 62 29 63 35 64 37 65 34 66 30 67 31 68 32 69
REMARK SMILES IDX 33 70 59 71 60 72 68 73 61 74 67 75 69 76 66 77 62 78 63 79
REMARK SMILES IDX 64 80 65 81 44 82 45 83 53 84 46 85 52 86 54 87 51 88 47 89
REMARK SMILES IDX 48 90 49 91 50 92
REMARK H PARENT 8 8 1 14 1 15 1 16 74 45 42 56
REMARK Flexibility Score: inf
ROOT
ATOM      1  O   UNL     1       2.294  -1.541  -2.084  1.00  0.00    -0.461 OA
ENDROOT
BRANCH   1   2
ATOM      2  C   UNL     1       3.070  -1.852  -3.166  1.00  0.00     0.329 C 
ATOM      3  O   UNL     1       4.276  -1.736  -3.158  1.00  0.00    -0.250 OA
BRANCH   2   4
ATOM      4  C   UNL     1       2.245  -2.207  -4.421  1.00  0.00     0.195 C 
BRANCH   4   5
ATOM      5  N   UNL     1       2.706  -1.303  -5.502  1.00  0.00    -0.340 N 
ATOM      6  C   UNL     1       3.855  -1.217  -6.230  1.00  0.00     0.246 C 
ATOM      7  O   UNL     1       3.976  -0.207  -6.937  1.00  0.00    -0.272 OA
ATOM      8  H   UNL     1       2.041  -0.620  -5.747  1.00  0.00     0.164 HD
BRANCH   6   9
ATOM      9  C   UNL     1       4.966  -2.293  -6.232  1.00  0.00     0.260 C 
BRANCH   9  10
ATOM     10  O   UNL     1       5.904  -2.425  -5.182  1.00  0.00    -0.366 OA
BRANCH  10  11
ATOM     11  C   UNL     1       6.511  -1.209  -4.739  1.00  0.00     0.222 C 
BRANCH  11  12
ATOM     12  C   UNL     1       7.910  -0.981  -5.320  1.00  0.00     0.287 C 
BRANCH  12  13
ATOM     13  N   UNL     1       7.924  -0.772  -6.766  1.00  0.00    -0.356 N 
ATOM     14  H   UNL     1       8.884  -0.628  -7.080  1.00  0.00     0.344 HD
ATOM     15  H   UNL     1       7.365   0.050  -6.996  1.00  0.00     0.344 HD
ATOM     16  H   UNL     1       7.533  -1.590  -7.232  1.00  0.00     0.344 HD
ENDBRANCH  12  13
ENDBRANCH  11  12
ENDBRANCH  10  11
ENDBRANCH   9  10
ENDBRANCH   6   9
ENDBRANCH   4   5
BRANCH   4  17
ATOM     17  C   UNL     1       2.140  -3.688  -4.856  1.00  0.00     0.023 C 
ATOM     18  C   UNL     1       3.173  -4.592  -4.194  1.00  0.00     0.006 C 
ATOM     19  C   UNL     1       0.742  -4.289  -4.594  1.00  0.00     0.006 C 
ATOM     20  C   UNL     1       3.109  -6.018  -4.726  1.00  0.00     0.000 C 
ATOM     21  C   UNL     1       0.647  -5.743  -5.079  1.00  0.00     0.000 C 
ATOM     22  C   UNL     1       1.739  -6.625  -4.487  1.00  0.00     0.000 C 
ENDBRANCH   4  17
ENDBRANCH   2   4
ENDBRANCH   1   2
BRANCH   1  23
ATOM     23  C   UNL     1       3.046  -0.927  -1.010  1.00  0.00     0.274 C 
BRANCH  23  24
ATOM     24  C   UNL     1       3.531  -1.947   0.023  1.00  0.00     0.275 C 
BRANCH  24  25
ATOM     25  O   UNL     1       4.422  -2.909  -0.572  1.00  0.00    -0.458 OA
BRANCH  25  26
ATOM     26  C   UNL     1       4.213  -4.208  -0.241  1.00  0.00     0.338 C 
ATOM     27  O   UNL     1       3.389  -4.609   0.569  1.00  0.00    -0.246 OA
BRANCH  26  28
ATOM     28  C   UNL     1       5.064  -5.130  -1.046  1.00  0.00     0.060 A 
ATOM     29  C   UNL     1       5.667  -4.718  -2.226  1.00  0.00     0.016 A 
ATOM     30  C   UNL     1       5.125  -6.487  -0.707  1.00  0.00     0.016 A 
ATOM     31  C   UNL     1       6.143  -5.674  -3.134  1.00  0.00     0.010 A 
ATOM     32  C   UNL     1       5.739  -7.421  -1.566  1.00  0.00     0.010 A 
ATOM     33  C   UNL     1       6.206  -7.048  -2.837  1.00  0.00    -0.014 A 
BRANCH  33  34
ATOM     34  C   UNL     1       6.673  -8.071  -3.853  1.00  0.00     0.031 A 
ATOM     35  C   UNL     1       5.944  -9.398  -4.042  1.00  0.00     0.074 A 
ATOM     36  C   UNL     1       7.722  -7.832  -4.675  1.00  0.00     0.049 A 
ATOM     37  N   UNL     1       6.358 -10.503  -4.619  1.00  0.00    -0.248 NA
ATOM     38  C   UNL     1       4.572  -9.496  -3.519  1.00  0.00     0.031 C 
ATOM     39  C   UNL     1       8.491  -6.588  -4.746  1.00  0.00     0.029 A 
ATOM     40  N   UNL     1       8.326  -8.629  -5.628  1.00  0.00    -0.354 N 
ATOM     41  C   UNL     1       5.335 -11.440  -4.463  1.00  0.00     0.074 A 
ATOM     42  C   UNL     1       4.269 -10.767  -3.752  1.00  0.00     0.031 C 
ATOM     43  C   UNL     1       9.387  -6.668  -5.735  1.00  0.00     0.029 A 
ATOM     44  C   UNL     1       9.424  -8.039  -6.216  1.00  0.00     0.049 A 
ATOM     45  H   UNL     1       8.005  -9.530  -5.863  1.00  0.00     0.167 HD
ATOM     46  C   UNL     1       5.296 -12.740  -4.862  1.00  0.00     0.034 A 
ATOM     47  C   UNL     1      10.440  -8.542  -6.950  1.00  0.00     0.034 A 
ATOM     48  C   UNL     1       6.342 -13.385  -5.627  1.00  0.00     0.049 A 
ATOM     49  C   UNL     1      10.473 -10.013  -7.239  1.00  0.00     0.074 A 
ATOM     50  C   UNL     1       6.401 -14.694  -6.081  1.00  0.00     0.029 A 
ATOM     51  N   UNL     1       7.510 -12.772  -6.060  1.00  0.00    -0.354 N 
ATOM     52  N   UNL     1       9.582 -10.930  -6.946  1.00  0.00    -0.248 NA
ATOM     53  C   UNL     1      11.669 -10.524  -7.918  1.00  0.00     0.031 C 
ATOM     54  C   UNL     1       7.635 -14.892  -6.712  1.00  0.00     0.029 A 
ATOM     55  C   UNL     1       8.314 -13.687  -6.728  1.00  0.00     0.049 A 
ATOM     56  H   UNL     1       7.736 -11.825  -5.914  1.00  0.00     0.167 HD
ATOM     57  C   UNL     1      10.117 -12.131  -7.399  1.00  0.00     0.074 A 
ATOM     58  C   UNL     1      11.389 -11.815  -8.016  1.00  0.00     0.031 C 
ATOM     59  C   UNL     1       9.601 -13.383  -7.304  1.00  0.00     0.034 A 
BRANCH  46  60
ATOM     60  C   UNL     1       4.132 -13.599  -4.405  1.00  0.00     0.023 A 
ATOM     61  C   UNL     1       2.812 -13.409  -4.851  1.00  0.00     0.031 A 
ATOM     62  C   UNL     1       4.373 -14.667  -3.517  1.00  0.00     0.131 A 
ATOM     63  C   UNL     1       1.785 -14.247  -4.378  1.00  0.00     0.055 A 
ATOM     64  C   UNL     1       3.362 -15.537  -3.106  1.00  0.00     0.041 A 
ATOM     65  F   UNL     1       5.608 -14.891  -3.040  1.00  0.00    -0.206 F 
ATOM     66  C   UNL     1       2.055 -15.324  -3.529  1.00  0.00     0.022 A 
BRANCH  63  67
ATOM     67  S   UNL     1       0.063 -13.849  -4.795  1.00  0.00     0.124 S 
ATOM     68  O   UNL     1      -0.049 -12.472  -4.321  1.00  0.00    -0.237 OA
ATOM     69  O   UNL     1       0.038 -14.032  -6.241  1.00  0.00    -0.237 OA
ATOM     70  O   UNL     1      -0.711 -14.825  -4.029  1.00  0.00    -0.744 OA
ENDBRANCH  63  67
ENDBRANCH  46  60
BRANCH  47  71
ATOM     71  C   UNL     1      11.603  -7.667  -7.295  1.00  0.00     0.023 A 
ATOM     72  C   UNL     1      11.957  -7.401  -8.625  1.00  0.00     0.031 A 
ATOM     73  C   UNL     1      12.385  -7.085  -6.275  1.00  0.00     0.131 A 
ATOM     74  C   UNL     1      13.060  -6.573  -8.897  1.00  0.00     0.055 A 
ATOM     75  C   UNL     1      13.430  -6.205  -6.552  1.00  0.00     0.041 A 
ATOM     76  F   UNL     1      12.111  -7.330  -4.983  1.00  0.00    -0.206 F 
ATOM     77  C   UNL     1      13.777  -5.950  -7.872  1.00  0.00     0.022 A 
BRANCH  74  78
ATOM     78  S   UNL     1      13.601  -6.380 -10.617  1.00  0.00     0.124 S 
ATOM     79  O   UNL     1      13.884  -7.760 -10.996  1.00  0.00    -0.237 OA
ATOM     80  O   UNL     1      12.431  -5.771 -11.239  1.00  0.00    -0.237 OA
ATOM     81  O   UNL     1      14.772  -5.511 -10.510  1.00  0.00    -0.744 OA
ENDBRANCH  74  78
ENDBRANCH  47  71
BRANCH  59  82
ATOM     82  C   UNL     1      10.423 -14.496  -7.903  1.00  0.00     0.023 A 
ATOM     83  C   UNL     1      11.662 -14.866  -7.351  1.00  0.00     0.031 A 
ATOM     84  C   UNL     1       9.997 -15.151  -9.071  1.00  0.00     0.131 A 
ATOM     85  C   UNL     1      12.464 -15.813  -8.005  1.00  0.00     0.055 A 
ATOM     86  C   UNL     1      10.770 -16.139  -9.683  1.00  0.00     0.041 A 
ATOM     87  F   UNL     1       8.826 -14.831  -9.646  1.00  0.00    -0.206 F 
ATOM     88  C   UNL     1      12.019 -16.464  -9.159  1.00  0.00     0.022 A 
BRANCH  85  89
ATOM     89  S   UNL     1      14.146 -16.102  -7.391  1.00  0.00     0.124 S 
ATOM     90  O   UNL     1      14.744 -14.776  -7.515  1.00  0.00    -0.237 OA
ATOM     91  O   UNL     1      13.907 -16.570  -6.030  1.00  0.00    -0.237 OA
ATOM     92  O   UNL     1      14.678 -17.110  -8.307  1.00  0.00    -0.744 OA
ENDBRANCH  85  89
ENDBRANCH  59  82
ENDBRANCH  33  34
ENDBRANCH  26  28
ENDBRANCH  25  26
ENDBRANCH  24  25
ENDBRANCH  23  24
ENDBRANCH   1  23
TORSDOF 21
