REMARK SMILES Cn1ncc(C(=O)NCc2ccc(F)cc2)c1C(=O)OCCOC(=O)c1ccc(-c2c3nc(c(-c4cc(S(=O)(=O)[O-])ccc4F)c4ccc([nH]4)c(-c4cc(S(=O)(=O)[O-])ccc4F)c4nc(c(-c5cc(S(=O)(=O)[O-])ccc5F)c5ccc2[nH]5)C=C4)C=C3)cc1
REMARK SMILES IDX 21 1 20 2 18 3 19 4 17 5 1 6 2 7 3 8 4 9 5 10 6 11 7 12 8 13
REMARK SMILES IDX 9 15 10 16 11 17 16 18 12 19 15 20 13 21 14 22 22 23 23 24
REMARK SMILES IDX 24 25 25 26 26 27 27 28 88 29 28 30 87 31 29 32 30 33 31 34
REMARK SMILES IDX 81 35 32 36 86 37 80 38 82 39 33 40 85 41 79 42 78 43 34 45
REMARK SMILES IDX 66 46 46 47 65 48 47 49 50 50 64 51 83 52 48 53 49 54 63 56
REMARK SMILES IDX 84 57 51 58 35 59 36 60 44 61 37 62 43 63 45 64 42 65 38 66
REMARK SMILES IDX 39 67 40 68 41 69 67 70 68 71 76 72 69 73 75 74 77 75 74 76
REMARK SMILES IDX 70 77 71 78 72 79 73 80 52 81 53 82 61 83 54 84 60 85 62 86
REMARK SMILES IDX 59 87 55 88 56 89 57 90 58 91
REMARK H PARENT 8 14 82 44 50 55
REMARK Flexibility Score: inf
ROOT
ATOM      1  C   UNL     1      -2.299  -3.442  -0.678  1.00  0.00     0.275 C 
ENDROOT
BRANCH   1   2
ATOM      2  O   UNL     1      -2.328  -2.583   0.472  1.00  0.00    -0.457 OA
BRANCH   2   3
ATOM      3  C   UNL     1      -1.250  -2.712   1.292  1.00  0.00     0.357 C 
ATOM      4  O   UNL     1      -1.127  -3.631   2.082  1.00  0.00    -0.244 OA
BRANCH   3   5
ATOM      5  C   UNL     1      -0.305  -1.657   1.063  1.00  0.00     0.159 A 
ATOM      6  C   UNL     1      -1.881   0.265   0.391  1.00  0.00     0.174 C 
ATOM      7  N   UNL     1      -0.616  -0.350   0.730  1.00  0.00    -0.261 N 
ATOM      8  N   UNL     1       0.441   0.476   0.783  1.00  0.00    -0.180 NA
ATOM      9  C   UNL     1       1.460  -0.336   1.045  1.00  0.00     0.150 A 
ATOM     10  C   UNL     1       1.088  -1.707   1.124  1.00  0.00     0.092 A 
BRANCH  10  11
ATOM     11  C   UNL     1       2.095  -2.762   1.260  1.00  0.00     0.255 C 
ATOM     12  O   UNL     1       3.140  -2.506   1.858  1.00  0.00    -0.269 OA
ATOM     13  N   UNL     1       2.076  -3.950   0.553  1.00  0.00    -0.348 N 
ATOM     14  H   UNL     1       2.907  -4.160   0.068  1.00  0.00     0.164 HD
BRANCH  13  15
ATOM     15  C   UNL     1       1.024  -4.928   0.419  1.00  0.00     0.152 C 
BRANCH  15  16
ATOM     16  C   UNL     1       1.204  -5.952  -0.687  1.00  0.00    -0.029 A 
ATOM     17  C   UNL     1       1.972  -7.110  -0.510  1.00  0.00     0.008 A 
ATOM     18  C   UNL     1       0.534  -5.801  -1.914  1.00  0.00     0.008 A 
ATOM     19  C   UNL     1       2.056  -8.072  -1.530  1.00  0.00     0.039 A 
ATOM     20  C   UNL     1       0.642  -6.735  -2.945  1.00  0.00     0.039 A 
ATOM     21  C   UNL     1       1.397  -7.872  -2.738  1.00  0.00     0.123 A 
ATOM     22  F   UNL     1       1.478  -8.791  -3.709  1.00  0.00    -0.207 F 
ENDBRANCH  15  16
ENDBRANCH  13  15
ENDBRANCH  10  11
ENDBRANCH   3   5
ENDBRANCH   2   3
ENDBRANCH   1   2
BRANCH   1  23
ATOM     23  C   UNL     1      -1.608  -2.754  -1.873  1.00  0.00     0.275 C 
BRANCH  23  24
ATOM     24  O   UNL     1      -0.178  -2.667  -1.674  1.00  0.00    -0.458 OA
BRANCH  24  25
ATOM     25  C   UNL     1       0.523  -2.042  -2.664  1.00  0.00     0.338 C 
ATOM     26  O   UNL     1       0.035  -1.492  -3.635  1.00  0.00    -0.246 OA
BRANCH  25  27
ATOM     27  C   UNL     1       1.980  -2.220  -2.431  1.00  0.00     0.060 A 
ATOM     28  C   UNL     1       2.758  -1.207  -1.867  1.00  0.00     0.016 A 
ATOM     29  C   UNL     1       2.594  -3.420  -2.800  1.00  0.00     0.016 A 
ATOM     30  C   UNL     1       4.124  -1.427  -1.602  1.00  0.00     0.010 A 
ATOM     31  C   UNL     1       3.945  -3.654  -2.506  1.00  0.00     0.010 A 
ATOM     32  C   UNL     1       4.732  -2.654  -1.916  1.00  0.00    -0.014 A 
BRANCH  32  33
ATOM     33  C   UNL     1       6.216  -2.822  -1.839  1.00  0.00     0.031 A 
ATOM     34  C   UNL     1       7.016  -2.665  -3.108  1.00  0.00     0.074 A 
ATOM     35  C   UNL     1       6.865  -3.124  -0.696  1.00  0.00     0.049 A 
ATOM     36  N   UNL     1       8.313  -2.679  -3.281  1.00  0.00    -0.248 NA
ATOM     37  C   UNL     1       6.245  -2.483  -4.348  1.00  0.00     0.031 C 
ATOM     38  C   UNL     1       6.238  -3.352   0.602  1.00  0.00     0.029 A 
ATOM     39  N   UNL     1       8.209  -3.292  -0.444  1.00  0.00    -0.354 N 
ATOM     40  C   UNL     1       8.513  -2.468  -4.639  1.00  0.00     0.074 A 
ATOM     41  C   UNL     1       7.205  -2.422  -5.256  1.00  0.00     0.031 C 
ATOM     42  C   UNL     1       7.189  -3.622   1.514  1.00  0.00     0.029 A 
ATOM     43  C   UNL     1       8.502  -3.580   0.872  1.00  0.00     0.049 A 
ATOM     44  H   UNL     1       8.899  -3.214  -1.141  1.00  0.00     0.167 HD
ATOM     45  C   UNL     1       9.672  -2.284  -5.315  1.00  0.00     0.034 A 
ATOM     46  C   UNL     1       9.686  -3.768   1.494  1.00  0.00     0.034 A 
ATOM     47  C   UNL     1      10.979  -2.356  -4.719  1.00  0.00     0.049 A 
ATOM     48  C   UNL     1      10.973  -3.625   0.715  1.00  0.00     0.074 A 
ATOM     49  C   UNL     1      12.210  -2.153  -5.316  1.00  0.00     0.029 A 
ATOM     50  N   UNL     1      11.226  -2.677  -3.392  1.00  0.00    -0.354 N 
ATOM     51  N   UNL     1      11.142  -3.345  -0.555  1.00  0.00    -0.248 NA
ATOM     52  C   UNL     1      12.230  -3.805   1.460  1.00  0.00     0.031 C 
ATOM     53  C   UNL     1      13.204  -2.408  -4.367  1.00  0.00     0.029 A 
ATOM     54  C   UNL     1      12.591  -2.708  -3.161  1.00  0.00     0.049 A 
ATOM     55  H   UNL     1      10.534  -2.855  -2.716  1.00  0.00     0.167 HD
ATOM     56  C   UNL     1      12.520  -3.280  -0.752  1.00  0.00     0.074 A 
ATOM     57  C   UNL     1      13.140  -3.559   0.525  1.00  0.00     0.031 C 
ATOM     58  C   UNL     1      13.206  -2.996  -1.888  1.00  0.00     0.034 A 
BRANCH  45  59
ATOM     59  C   UNL     1       9.558  -1.984  -6.785  1.00  0.00     0.023 A 
ATOM     60  C   UNL     1       8.974  -0.784  -7.231  1.00  0.00     0.031 A 
ATOM     61  C   UNL     1       9.994  -2.909  -7.745  1.00  0.00     0.131 A 
ATOM     62  C   UNL     1       8.776  -0.574  -8.601  1.00  0.00     0.055 A 
ATOM     63  C   UNL     1       9.860  -2.661  -9.112  1.00  0.00     0.041 A 
ATOM     64  F   UNL     1      10.540  -4.077  -7.371  1.00  0.00    -0.206 F 
ATOM     65  C   UNL     1       9.236  -1.493  -9.547  1.00  0.00     0.022 A 
BRANCH  62  66
ATOM     66  S   UNL     1       7.810   0.868  -9.125  1.00  0.00     0.124 S 
ATOM     67  O   UNL     1       6.489   0.545  -8.589  1.00  0.00    -0.237 OA
ATOM     68  O   UNL     1       8.508   1.973  -8.479  1.00  0.00    -0.237 OA
ATOM     69  O   UNL     1       7.910   0.835 -10.583  1.00  0.00    -0.744 OA
ENDBRANCH  62  66
ENDBRANCH  45  59
BRANCH  46  70
ATOM     70  C   UNL     1       9.731  -4.098   2.948  1.00  0.00     0.023 A 
ATOM     71  C   UNL     1      10.183  -3.162   3.894  1.00  0.00     0.031 A 
ATOM     72  C   UNL     1       9.360  -5.374   3.406  1.00  0.00     0.131 A 
ATOM     73  C   UNL     1      10.281  -3.526   5.247  1.00  0.00     0.055 A 
ATOM     74  C   UNL     1       9.429  -5.721   4.757  1.00  0.00     0.041 A 
ATOM     75  F   UNL     1       8.924  -6.304   2.541  1.00  0.00    -0.206 F 
ATOM     76  C   UNL     1       9.897  -4.795   5.686  1.00  0.00     0.022 A 
BRANCH  73  77
ATOM     77  S   UNL     1      10.947  -2.325   6.434  1.00  0.00     0.124 S 
ATOM     78  O   UNL     1      12.337  -2.224   6.005  1.00  0.00    -0.237 OA
ATOM     79  O   UNL     1      10.113  -1.153   6.190  1.00  0.00    -0.237 OA
ATOM     80  O   UNL     1      10.738  -2.974   7.728  1.00  0.00    -0.744 OA
ENDBRANCH  73  77
ENDBRANCH  46  70
BRANCH  58  81
ATOM     81  C   UNL     1      14.709  -2.933  -1.812  1.00  0.00     0.023 A 
ATOM     82  C   UNL     1      15.492  -4.093  -1.699  1.00  0.00     0.031 A 
ATOM     83  C   UNL     1      15.365  -1.695  -1.937  1.00  0.00     0.131 A 
ATOM     84  C   UNL     1      16.893  -3.990  -1.701  1.00  0.00     0.055 A 
ATOM     85  C   UNL     1      16.756  -1.603  -1.978  1.00  0.00     0.041 A 
ATOM     86  F   UNL     1      14.660  -0.558  -2.055  1.00  0.00    -0.206 F 
ATOM     87  C   UNL     1      17.528  -2.755  -1.857  1.00  0.00     0.022 A 
BRANCH  84  88
ATOM     88  S   UNL     1      17.884  -5.495  -1.490  1.00  0.00     0.124 S 
ATOM     89  O   UNL     1      17.554  -5.886  -0.123  1.00  0.00    -0.237 OA
ATOM     90  O   UNL     1      17.369  -6.364  -2.543  1.00  0.00    -0.237 OA
ATOM     91  O   UNL     1      19.256  -5.033  -1.689  1.00  0.00    -0.744 OA
ENDBRANCH  84  88
ENDBRANCH  58  81
ENDBRANCH  32  33
ENDBRANCH  25  27
ENDBRANCH  24  25
ENDBRANCH  23  24
ENDBRANCH   1  23
TORSDOF 17
