REMARK SMILES O=C(CNC(=O)OCC1=Cc2ccccc2S1(=O)=O)OCCOC(=O)c1ccc(-c2c3nc(c(-c4cc(S(=O)(=O)[O-])ccc4F)c4ccc([nH]4)c(-c4cc(S(=O)(=O)[O-])ccc4F)c4nc(c(-c5cc(S(=O)(=O)[O-])ccc5F)c5ccc2[nH]5)C=C4)C=C3)cc1
REMARK SMILES IDX 21 1 20 2 2 3 1 4 3 5 4 6 5 7 6 9 7 10 8 11 9 12 10 13 17 14
REMARK SMILES IDX 11 15 16 16 18 17 19 18 12 19 15 20 13 21 14 22 22 23 23 24
REMARK SMILES IDX 24 25 25 26 26 27 27 28 88 29 28 30 87 31 29 32 30 33 31 34
REMARK SMILES IDX 81 35 32 36 86 37 80 38 82 39 33 40 85 41 79 42 78 43 34 45
REMARK SMILES IDX 66 46 46 47 65 48 47 49 50 50 64 51 83 52 48 53 49 54 63 56
REMARK SMILES IDX 84 57 51 58 35 59 36 60 44 61 37 62 43 63 45 64 42 65 38 66
REMARK SMILES IDX 39 67 40 68 41 69 67 70 68 71 76 72 69 73 75 74 77 75 74 76
REMARK SMILES IDX 70 77 71 78 72 79 73 80 52 81 53 82 61 83 54 84 60 85 62 86
REMARK SMILES IDX 59 87 55 88 56 89 57 90 58 91
REMARK H PARENT 4 8 82 44 50 55
REMARK Flexibility Score: inf
ROOT
ATOM      1  C   UNL     1       4.310  -1.205  -0.169  1.00  0.00     0.274 C 
ENDROOT
BRANCH   1   2
ATOM      2  O   UNL     1       2.975  -1.057   0.348  1.00  0.00    -0.461 OA
BRANCH   2   3
ATOM      3  C   UNL     1       2.410   0.077   0.821  1.00  0.00     0.325 C 
ATOM      4  O   UNL     1       1.223   0.063   1.149  1.00  0.00    -0.250 OA
BRANCH   3   5
ATOM      5  C   UNL     1       3.208   1.377   0.906  1.00  0.00     0.242 C 
BRANCH   5   6
ATOM      6  N   UNL     1       4.327   1.393   1.823  1.00  0.00    -0.311 N 
ATOM      7  C   UNL     1       5.637   1.538   1.494  1.00  0.00     0.407 C 
ATOM      8  H   UNL     1       4.118   1.289   2.780  1.00  0.00     0.167 HD
ATOM      9  O   UNL     1       6.512   1.554   2.350  1.00  0.00    -0.225 OA
BRANCH   7  10
ATOM     10  O   UNL     1       5.855   1.603   0.156  1.00  0.00    -0.444 OA
BRANCH  10  11
ATOM     11  C   UNL     1       7.235   1.681  -0.240  1.00  0.00     0.283 C 
BRANCH  11  12
ATOM     12  C   UNL     1       7.683   3.086  -0.207  1.00  0.00     0.087 C 
ATOM     13  C   UNL     1       7.019   4.186  -0.608  1.00  0.00     0.029 C 
ATOM     14  S   UNL     1       9.204   3.470   0.542  1.00  0.00     0.206 S 
ATOM     15  C   UNL     1       7.703   5.415  -0.227  1.00  0.00    -0.005 A 
ATOM     16  C   UNL     1       8.896   5.186   0.456  1.00  0.00     0.079 A 
ATOM     17  O   UNL     1       9.230   3.084   1.935  1.00  0.00    -0.219 OA
ATOM     18  O   UNL     1      10.289   3.158  -0.367  1.00  0.00    -0.219 OA
ATOM     19  C   UNL     1       7.253   6.713  -0.391  1.00  0.00     0.009 A 
ATOM     20  C   UNL     1       9.648   6.186   1.040  1.00  0.00     0.021 A 
ATOM     21  C   UNL     1       8.004   7.754   0.170  1.00  0.00     0.001 A 
ATOM     22  C   UNL     1       9.184   7.492   0.889  1.00  0.00     0.001 A 
ENDBRANCH  11  12
ENDBRANCH  10  11
ENDBRANCH   7  10
ENDBRANCH   5   6
ENDBRANCH   3   5
ENDBRANCH   2   3
ENDBRANCH   1   2
BRANCH   1  23
ATOM     23  C   UNL     1       4.412  -0.953  -1.676  1.00  0.00     0.275 C 
BRANCH  23  24
ATOM     24  O   UNL     1       3.971   0.366  -2.040  1.00  0.00    -0.458 OA
BRANCH  24  25
ATOM     25  C   UNL     1       2.680   0.453  -2.460  1.00  0.00     0.338 C 
ATOM     26  O   UNL     1       1.907  -0.475  -2.614  1.00  0.00    -0.246 OA
BRANCH  25  27
ATOM     27  C   UNL     1       2.284   1.880  -2.505  1.00  0.00     0.060 A 
ATOM     28  C   UNL     1       1.075   2.248  -1.901  1.00  0.00     0.016 A 
ATOM     29  C   UNL     1       3.099   2.853  -3.093  1.00  0.00     0.016 A 
ATOM     30  C   UNL     1       0.674   3.587  -1.895  1.00  0.00     0.010 A 
ATOM     31  C   UNL     1       2.691   4.193  -3.089  1.00  0.00     0.010 A 
ATOM     32  C   UNL     1       1.468   4.570  -2.503  1.00  0.00    -0.014 A 
BRANCH  32  33
ATOM     33  C   UNL     1       0.973   5.970  -2.618  1.00  0.00     0.031 A 
ATOM     34  C   UNL     1       0.420   6.449  -3.935  1.00  0.00     0.074 A 
ATOM     35  C   UNL     1       1.000   6.807  -1.562  1.00  0.00     0.049 A 
ATOM     36  N   UNL     1      -0.038   7.630  -4.262  1.00  0.00    -0.248 NA
ATOM     37  C   UNL     1       0.384   5.465  -5.027  1.00  0.00     0.031 C 
ATOM     38  C   UNL     1       1.476   6.461  -0.224  1.00  0.00     0.029 A 
ATOM     39  N   UNL     1       0.619   8.123  -1.451  1.00  0.00    -0.354 N 
ATOM     40  C   UNL     1      -0.422   7.533  -5.596  1.00  0.00     0.074 A 
ATOM     41  C   UNL     1      -0.099   6.189  -6.026  1.00  0.00     0.031 C 
ATOM     42  C   UNL     1       1.359   7.538   0.573  1.00  0.00     0.029 A 
ATOM     43  C   UNL     1       0.838   8.663  -0.203  1.00  0.00     0.049 A 
ATOM     44  H   UNL     1       0.225   8.633  -2.195  1.00  0.00     0.167 HD
ATOM     45  C   UNL     1      -1.001   8.472  -6.385  1.00  0.00     0.034 A 
ATOM     46  C   UNL     1       0.660   9.921   0.256  1.00  0.00     0.034 A 
ATOM     47  C   UNL     1      -1.311   9.814  -5.954  1.00  0.00     0.049 A 
ATOM     48  C   UNL     1       0.103  10.977  -0.675  1.00  0.00     0.074 A 
ATOM     49  C   UNL     1      -1.919  10.828  -6.675  1.00  0.00     0.029 A 
ATOM     50  N   UNL     1      -1.025  10.339  -4.701  1.00  0.00    -0.354 N 
ATOM     51  N   UNL     1      -0.281  10.860  -1.926  1.00  0.00    -0.248 NA
ATOM     52  C   UNL     1      -0.053  12.333  -0.129  1.00  0.00     0.031 C 
ATOM     53  C   UNL     1      -1.918  11.987  -5.893  1.00  0.00     0.029 A 
ATOM     54  C   UNL     1      -1.401  11.673  -4.646  1.00  0.00     0.049 A 
ATOM     55  H   UNL     1      -0.615   9.838  -3.960  1.00  0.00     0.167 HD
ATOM     56  C   UNL     1      -0.761  12.116  -2.296  1.00  0.00     0.074 A 
ATOM     57  C   UNL     1      -0.632  12.969  -1.136  1.00  0.00     0.031 C 
ATOM     58  C   UNL     1      -1.267  12.525  -3.488  1.00  0.00     0.034 A 
BRANCH  45  59
ATOM     59  C   UNL     1      -1.295   8.097  -7.817  1.00  0.00     0.023 A 
ATOM     60  C   UNL     1      -2.229   7.100  -8.147  1.00  0.00     0.031 A 
ATOM     61  C   UNL     1      -0.634   8.755  -8.870  1.00  0.00     0.131 A 
ATOM     62  C   UNL     1      -2.434   6.751  -9.490  1.00  0.00     0.055 A 
ATOM     63  C   UNL     1      -0.902   8.460 -10.207  1.00  0.00     0.041 A 
ATOM     64  F   UNL     1       0.286   9.699  -8.616  1.00  0.00    -0.206 F 
ATOM     65  C   UNL     1      -1.799   7.443 -10.524  1.00  0.00     0.022 A 
BRANCH  62  66
ATOM     66  S   UNL     1      -3.442   5.290  -9.863  1.00  0.00     0.124 S 
ATOM     67  O   UNL     1      -2.719   4.243  -9.145  1.00  0.00    -0.237 OA
ATOM     68  O   UNL     1      -4.743   5.658  -9.318  1.00  0.00    -0.237 OA
ATOM     69  O   UNL     1      -3.379   5.193 -11.319  1.00  0.00    -0.744 OA
ENDBRANCH  62  66
ENDBRANCH  45  59
BRANCH  46  70
ATOM     70  C   UNL     1       1.052  10.290   1.651  1.00  0.00     0.023 A 
ATOM     71  C   UNL     1       0.113  10.802   2.561  1.00  0.00     0.031 A 
ATOM     72  C   UNL     1       2.396  10.228   2.062  1.00  0.00     0.131 A 
ATOM     73  C   UNL     1       0.538  11.296   3.805  1.00  0.00     0.055 A 
ATOM     74  C   UNL     1       2.803  10.654   3.328  1.00  0.00     0.041 A 
ATOM     75  F   UNL     1       3.341   9.757   1.232  1.00  0.00    -0.206 F 
ATOM     76  C   UNL     1       1.874  11.209   4.201  1.00  0.00     0.022 A 
BRANCH  73  77
ATOM     77  S   UNL     1      -0.660  12.175   4.847  1.00  0.00     0.124 S 
ATOM     78  O   UNL     1      -1.103  13.238   3.952  1.00  0.00    -0.237 OA
ATOM     79  O   UNL     1      -1.635  11.129   5.136  1.00  0.00    -0.237 OA
ATOM     80  O   UNL     1       0.141  12.613   5.989  1.00  0.00    -0.744 OA
ENDBRANCH  73  77
ENDBRANCH  46  70
BRANCH  58  81
ATOM     81  C   UNL     1      -1.774  13.948  -3.582  1.00  0.00     0.023 A 
ATOM     82  C   UNL     1      -0.917  15.056  -3.452  1.00  0.00     0.031 A 
ATOM     83  C   UNL     1      -3.141  14.198  -3.804  1.00  0.00     0.131 A 
ATOM     84  C   UNL     1      -1.443  16.357  -3.486  1.00  0.00     0.055 A 
ATOM     85  C   UNL     1      -3.647  15.495  -3.908  1.00  0.00     0.041 A 
ATOM     86  F   UNL     1      -4.010  13.182  -3.932  1.00  0.00    -0.206 F 
ATOM     87  C   UNL     1      -2.800  16.584  -3.734  1.00  0.00     0.022 A 
BRANCH  84  88
ATOM     88  S   UNL     1      -0.348  17.752  -3.100  1.00  0.00     0.124 S 
ATOM     89  O   UNL     1       0.129  17.402  -1.766  1.00  0.00    -0.237 OA
ATOM     90  O   UNL     1       0.641  17.677  -4.170  1.00  0.00    -0.237 OA
ATOM     91  O   UNL     1      -1.236  18.912  -3.157  1.00  0.00    -0.744 OA
ENDBRANCH  84  88
ENDBRANCH  58  81
ENDBRANCH  32  33
ENDBRANCH  25  27
ENDBRANCH  24  25
ENDBRANCH  23  24
ENDBRANCH   1  23
TORSDOF 18
