REMARK SMILES O=C(C[NH+]1CCN(c2nccc(N3CCCCC3)n2)CC1)OCCOC(=O)c1ccc(-c2c3nc(c(-c4cc(S(=O)(=O)[O-])ccc4F)c4ccc([nH]4)c(-c4cc(S(=O)(=O)[O-])ccc4F)c4nc(c(-c5cc(S(=O)(=O)[O-])ccc5F)c5ccc2[nH]5)C=C4)C=C3)cc1
REMARK SMILES IDX 23 1 22 2 2 3 1 4 3 5 4 6 5 7 21 8 6 10 20 11 7 12 8 13 9 14
REMARK SMILES IDX 19 15 10 16 12 17 11 18 13 19 14 20 18 21 15 22 17 23 16 24
REMARK SMILES IDX 24 25 25 26 26 27 27 28 28 29 29 30 90 31 30 32 89 33 31 34
REMARK SMILES IDX 32 35 33 36 83 37 34 38 88 39 82 40 84 41 35 42 87 43 81 44
REMARK SMILES IDX 80 45 36 47 68 48 48 49 67 50 49 51 52 52 66 53 85 54 50 55
REMARK SMILES IDX 51 56 65 58 86 59 53 60 37 61 38 62 46 63 39 64 45 65 47 66
REMARK SMILES IDX 44 67 40 68 41 69 42 70 43 71 69 72 70 73 78 74 71 75 77 76
REMARK SMILES IDX 79 77 76 78 72 79 73 80 74 81 75 82 54 83 55 84 63 85 56 86
REMARK SMILES IDX 62 87 64 88 61 89 57 90 58 91 59 92 60 93
REMARK H PARENT 4 9 84 46 52 57
REMARK Flexibility Score: inf
ROOT
ATOM      1  C   UNL     1       3.811   0.275   1.724  1.00  0.00     0.274 C 
ENDROOT
BRANCH   1   2
ATOM      2  O   UNL     1       2.552   0.626   1.105  1.00  0.00    -0.458 OA
BRANCH   2   3
ATOM      3  C   UNL     1       2.292   0.567  -0.229  1.00  0.00     0.361 C 
ATOM      4  O   UNL     1       1.408   1.277  -0.706  1.00  0.00    -0.245 OA
BRANCH   3   5
ATOM      5  C   UNL     1       3.081  -0.432  -1.074  1.00  0.00     0.386 C 
BRANCH   5   6
ATOM      6  N   UNL     1       3.862   0.108  -2.210  1.00  0.00    -0.323 N 
ATOM      7  C   UNL     1       4.192   1.543  -2.165  1.00  0.00     0.284 C 
ATOM      8  C   UNL     1       5.124  -0.652  -2.384  1.00  0.00     0.284 C 
ATOM      9  H   UNL     1       3.226  -0.004  -3.000  1.00  0.00     0.348 HD
ATOM     10  C   UNL     1       5.190   1.962  -1.073  1.00  0.00     0.181 C 
ATOM     11  C   UNL     1       6.203  -0.368  -1.313  1.00  0.00     0.181 C 
ATOM     12  N   UNL     1       6.319   1.054  -1.024  1.00  0.00    -0.329 N 
BRANCH  12  13
ATOM     13  C   UNL     1       7.425   1.449  -0.323  1.00  0.00     0.227 A 
ATOM     14  N   UNL     1       7.308   1.864   0.946  1.00  0.00    -0.221 NA
ATOM     15  N   UNL     1       8.570   1.455  -1.006  1.00  0.00    -0.196 NA
ATOM     16  C   UNL     1       8.444   2.271   1.538  1.00  0.00     0.119 A 
ATOM     17  C   UNL     1       9.675   1.923  -0.418  1.00  0.00     0.134 A 
ATOM     18  C   UNL     1       9.662   2.315   0.902  1.00  0.00     0.067 A 
BRANCH  17  19
ATOM     19  N   UNL     1      10.809   2.100  -1.200  1.00  0.00    -0.356 N 
ATOM     20  C   UNL     1      10.567   2.436  -2.608  1.00  0.00     0.118 C 
ATOM     21  C   UNL     1      11.981   1.285  -0.903  1.00  0.00     0.118 C 
ATOM     22  C   UNL     1      10.581   1.191  -3.492  1.00  0.00     0.022 C 
ATOM     23  C   UNL     1      12.014   0.036  -1.789  1.00  0.00     0.022 C 
ATOM     24  C   UNL     1      11.860   0.391  -3.268  1.00  0.00     0.004 C 
ENDBRANCH  17  19
ENDBRANCH  12  13
ENDBRANCH   5   6
ENDBRANCH   3   5
ENDBRANCH   2   3
ENDBRANCH   1   2
BRANCH   1  25
ATOM     25  C   UNL     1       3.704  -0.960   2.614  1.00  0.00     0.275 C 
BRANCH  25  26
ATOM     26  O   UNL     1       3.494  -2.130   1.808  1.00  0.00    -0.458 OA
BRANCH  26  27
ATOM     27  C   UNL     1       2.190  -2.454   1.605  1.00  0.00     0.338 C 
ATOM     28  O   UNL     1       1.229  -1.935   2.131  1.00  0.00    -0.246 OA
BRANCH  27  29
ATOM     29  C   UNL     1       2.101  -3.416   0.480  1.00  0.00     0.060 A 
ATOM     30  C   UNL     1       0.966  -3.352  -0.340  1.00  0.00     0.016 A 
ATOM     31  C   UNL     1       3.109  -4.349   0.217  1.00  0.00     0.016 A 
ATOM     32  C   UNL     1       0.810  -4.253  -1.392  1.00  0.00     0.010 A 
ATOM     33  C   UNL     1       2.951  -5.254  -0.833  1.00  0.00     0.010 A 
ATOM     34  C   UNL     1       1.782  -5.236  -1.614  1.00  0.00    -0.014 A 
BRANCH  34  35
ATOM     35  C   UNL     1       1.478  -6.397  -2.483  1.00  0.00     0.031 A 
ATOM     36  C   UNL     1       0.983  -7.652  -1.819  1.00  0.00     0.074 A 
ATOM     37  C   UNL     1       1.662  -6.353  -3.812  1.00  0.00     0.049 A 
ATOM     38  N   UNL     1       0.762  -8.835  -2.327  1.00  0.00    -0.248 NA
ATOM     39  C   UNL     1       0.723  -7.554  -0.374  1.00  0.00     0.031 C 
ATOM     40  C   UNL     1       2.100  -5.182  -4.568  1.00  0.00     0.029 A 
ATOM     41  N   UNL     1       1.522  -7.336  -4.760  1.00  0.00    -0.354 N 
ATOM     42  C   UNL     1       0.347  -9.627  -1.262  1.00  0.00     0.074 A 
ATOM     43  C   UNL     1       0.394  -8.799  -0.076  1.00  0.00     0.031 C 
ATOM     44  C   UNL     1       2.222  -5.523  -5.863  1.00  0.00     0.029 A 
ATOM     45  C   UNL     1       1.906  -6.943  -6.019  1.00  0.00     0.049 A 
ATOM     46  H   UNL     1       1.178  -8.236  -4.556  1.00  0.00     0.167 HD
ATOM     47  C   UNL     1      -0.044 -10.925  -1.274  1.00  0.00     0.034 A 
ATOM     48  C   UNL     1       2.024  -7.660  -7.155  1.00  0.00     0.034 A 
ATOM     49  C   UNL     1      -0.059 -11.739  -2.463  1.00  0.00     0.049 A 
ATOM     50  C   UNL     1       1.666  -9.127  -7.139  1.00  0.00     0.074 A 
ATOM     51  C   UNL     1      -0.446 -13.059  -2.602  1.00  0.00     0.029 A 
ATOM     52  N   UNL     1       0.352 -11.311  -3.720  1.00  0.00    -0.354 N 
ATOM     53  N   UNL     1       1.262  -9.869  -6.133  1.00  0.00    -0.248 NA
ATOM     54  C   UNL     1       1.773  -9.852  -8.412  1.00  0.00     0.031 C 
ATOM     55  C   UNL     1      -0.197 -13.451  -3.922  1.00  0.00     0.029 A 
ATOM     56  C   UNL     1       0.264 -12.351  -4.631  1.00  0.00     0.049 A 
ATOM     57  H   UNL     1       0.661 -10.400  -3.933  1.00  0.00     0.167 HD
ATOM     58  C   UNL     1       1.033 -11.138  -6.660  1.00  0.00     0.074 A 
ATOM     59  C   UNL     1       1.348 -11.062  -8.072  1.00  0.00     0.031 C 
ATOM     60  C   UNL     1       0.588 -12.260  -6.037  1.00  0.00     0.034 A 
BRANCH  47  61
ATOM     61  C   UNL     1      -0.413 -11.539   0.056  1.00  0.00     0.023 A 
ATOM     62  C   UNL     1      -1.477 -11.042   0.831  1.00  0.00     0.031 A 
ATOM     63  C   UNL     1       0.365 -12.577   0.599  1.00  0.00     0.131 A 
ATOM     64  C   UNL     1      -1.665 -11.508   2.141  1.00  0.00     0.055 A 
ATOM     65  C   UNL     1       0.110 -13.103   1.867  1.00  0.00     0.041 A 
ATOM     66  F   UNL     1       1.410 -13.075  -0.081  1.00  0.00    -0.206 F 
ATOM     67  C   UNL     1      -0.895 -12.553   2.655  1.00  0.00     0.022 A 
BRANCH  64  68
ATOM     68  S   UNL     1      -2.795 -10.593   3.228  1.00  0.00     0.124 S 
ATOM     69  O   UNL     1      -2.238  -9.243   3.163  1.00  0.00    -0.237 OA
ATOM     70  O   UNL     1      -4.084 -10.785   2.577  1.00  0.00    -0.237 OA
ATOM     71  O   UNL     1      -2.640 -11.258   4.520  1.00  0.00    -0.744 OA
ENDBRANCH  64  68
ENDBRANCH  47  61
BRANCH  48  72
ATOM     72  C   UNL     1       2.550  -7.013  -8.391  1.00  0.00     0.023 A 
ATOM     73  C   UNL     1       1.740  -6.829  -9.522  1.00  0.00     0.031 A 
ATOM     74  C   UNL     1       3.888  -6.584  -8.458  1.00  0.00     0.131 A 
ATOM     75  C   UNL     1       2.284  -6.257 -10.684  1.00  0.00     0.055 A 
ATOM     76  C   UNL     1       4.412  -5.975  -9.600  1.00  0.00     0.041 A 
ATOM     77  F   UNL     1       4.704  -6.737  -7.403  1.00  0.00    -0.206 F 
ATOM     78  C   UNL     1       3.610  -5.816 -10.725  1.00  0.00     0.022 A 
BRANCH  75  79
ATOM     79  S   UNL     1       1.247  -6.140 -12.167  1.00  0.00     0.124 S 
ATOM     80  O   UNL     1       0.966  -7.545 -12.444  1.00  0.00    -0.237 OA
ATOM     81  O   UNL     1       0.122  -5.342 -11.691  1.00  0.00    -0.237 OA
ATOM     82  O   UNL     1       2.113  -5.474 -13.137  1.00  0.00    -0.744 OA
ENDBRANCH  75  79
ENDBRANCH  48  72
BRANCH  60  83
ATOM     83  C   UNL     1       0.353 -13.484  -6.889  1.00  0.00     0.023 A 
ATOM     84  C   UNL     1       1.409 -14.207  -7.469  1.00  0.00     0.031 A 
ATOM     85  C   UNL     1      -0.959 -13.951  -7.090  1.00  0.00     0.131 A 
ATOM     86  C   UNL     1       1.131 -15.341  -8.251  1.00  0.00     0.055 A 
ATOM     87  C   UNL     1      -1.225 -15.107  -7.824  1.00  0.00     0.041 A 
ATOM     88  F   UNL     1      -2.005 -13.298  -6.559  1.00  0.00    -0.206 F 
ATOM     89  C   UNL     1      -0.177 -15.805  -8.416  1.00  0.00     0.022 A 
BRANCH  86  90
ATOM     90  S   UNL     1       2.499 -16.174  -9.103  1.00  0.00     0.124 S 
ATOM     91  O   UNL     1       3.019 -15.110  -9.956  1.00  0.00    -0.237 OA
ATOM     92  O   UNL     1       3.357 -16.581  -7.996  1.00  0.00    -0.237 OA
ATOM     93  O   UNL     1       1.844 -17.272  -9.813  1.00  0.00    -0.744 OA
ENDBRANCH  86  90
ENDBRANCH  60  83
ENDBRANCH  34  35
ENDBRANCH  27  29
ENDBRANCH  26  27
ENDBRANCH  25  26
ENDBRANCH   1  25
TORSDOF 17
