REMARK SMILES O=C(OCCOC(=O)[C@@H]1CN(C(=O)CCC(F)(F)F)C[C@H]1c1ccc2c(c1)OCO2)c1ccc(-c2c3nc(c(-c4cc(S(=O)(=O)[O-])ccc4F)c4ccc([nH]4)c(-c4cc(S(=O)(=O)[O-])ccc4F)c4nc(c(-c5cc(S(=O)(=O)[O-])ccc5F)c5ccc2[nH]5)C=C4)C=C3)cc1
REMARK SMILES IDX 5 1 4 2 3 3 2 4 1 5 31 6 32 7 93 8 33 9 92 10 34 11 35 12
REMARK SMILES IDX 36 13 86 14 37 15 91 16 85 17 87 18 38 19 90 20 84 21 83 22
REMARK SMILES IDX 39 24 71 25 51 26 70 27 52 28 55 29 69 30 88 31 53 32 54 33
REMARK SMILES IDX 68 35 89 36 56 37 40 38 41 39 49 40 42 41 48 42 50 43 47 44
REMARK SMILES IDX 43 45 44 46 45 47 46 48 72 49 73 50 81 51 74 52 80 53 82 54
REMARK SMILES IDX 79 55 75 56 76 57 77 58 78 59 57 60 58 61 66 62 59 63 65 64
REMARK SMILES IDX 67 65 64 66 60 67 61 68 62 69 63 70 6 71 7 72 8 73 9 74
REMARK SMILES IDX 10 75 21 76 11 77 20 78 22 79 23 80 27 81 24 82 26 83 25 84
REMARK SMILES IDX 28 85 30 86 29 87 12 88 13 89 14 90 15 91 16 92 17 93 18 94
REMARK SMILES IDX 19 95
REMARK H PARENT 87 23 55 34
REMARK Flexibility Score: inf
ROOT
ATOM      1  C   UNL     1       3.090  -0.666   1.956  1.00  0.00     0.274 C 
ENDROOT
BRANCH   1   2
ATOM      2  C   UNL     1       4.445   0.040   1.953  1.00  0.00     0.275 C 
BRANCH   2   3
ATOM      3  O   UNL     1       4.622   1.085   0.977  1.00  0.00    -0.458 OA
BRANCH   3   4
ATOM      4  C   UNL     1       4.398   0.946  -0.350  1.00  0.00     0.338 C 
ATOM      5  O   UNL     1       3.734   1.786  -0.947  1.00  0.00    -0.246 OA
BRANCH   4   6
ATOM      6  C   UNL     1       5.011  -0.201  -1.093  1.00  0.00     0.060 A 
ATOM      7  C   UNL     1       5.947  -1.101  -0.578  1.00  0.00     0.016 A 
ATOM      8  C   UNL     1       4.594  -0.382  -2.414  1.00  0.00     0.016 A 
ATOM      9  C   UNL     1       6.329  -2.243  -1.305  1.00  0.00     0.010 A 
ATOM     10  C   UNL     1       4.953  -1.529  -3.127  1.00  0.00     0.010 A 
ATOM     11  C   UNL     1       5.801  -2.497  -2.575  1.00  0.00    -0.014 A 
BRANCH  11  12
ATOM     12  C   UNL     1       6.167  -3.709  -3.369  1.00  0.00     0.031 A 
ATOM     13  C   UNL     1       6.766  -3.538  -4.744  1.00  0.00     0.074 A 
ATOM     14  C   UNL     1       5.887  -4.955  -2.926  1.00  0.00     0.049 A 
ATOM     15  N   UNL     1       7.038  -4.441  -5.651  1.00  0.00    -0.248 NA
ATOM     16  C   UNL     1       7.041  -2.158  -5.174  1.00  0.00     0.031 C 
ATOM     17  C   UNL     1       5.235  -5.287  -1.657  1.00  0.00     0.029 A 
ATOM     18  N   UNL     1       6.094  -6.184  -3.512  1.00  0.00    -0.354 N 
ATOM     19  C   UNL     1       7.482  -3.732  -6.762  1.00  0.00     0.074 A 
ATOM     20  C   UNL     1       7.331  -2.328  -6.452  1.00  0.00     0.031 C 
ATOM     21  C   UNL     1       5.087  -6.621  -1.571  1.00  0.00     0.029 A 
ATOM     22  C   UNL     1       5.605  -7.245  -2.780  1.00  0.00     0.049 A 
ATOM     23  H   UNL     1       6.550  -6.295  -4.377  1.00  0.00     0.167 HD
ATOM     24  C   UNL     1       8.039  -4.198  -7.908  1.00  0.00     0.034 A 
ATOM     25  C   UNL     1       5.566  -8.566  -3.053  1.00  0.00     0.034 A 
ATOM     26  C   UNL     1       8.279  -5.591  -8.171  1.00  0.00     0.049 A 
ATOM     27  C   UNL     1       6.187  -9.068  -4.329  1.00  0.00     0.074 A 
ATOM     28  C   UNL     1       9.000  -6.162  -9.204  1.00  0.00     0.029 A 
ATOM     29  N   UNL     1       7.806  -6.633  -7.388  1.00  0.00    -0.354 N 
ATOM     30  N   UNL     1       6.732  -8.382  -5.305  1.00  0.00    -0.248 NA
ATOM     31  C   UNL     1       6.216 -10.524  -4.522  1.00  0.00     0.031 C 
ATOM     32  C   UNL     1       8.934  -7.554  -9.065  1.00  0.00     0.029 A 
ATOM     33  C   UNL     1       8.203  -7.847  -7.925  1.00  0.00     0.049 A 
ATOM     34  H   UNL     1       7.267  -6.527  -6.571  1.00  0.00     0.167 HD
ATOM     35  C   UNL     1       7.210  -9.328  -6.205  1.00  0.00     0.074 A 
ATOM     36  C   UNL     1       6.884 -10.630  -5.662  1.00  0.00     0.031 C 
ATOM     37  C   UNL     1       7.878  -9.136  -7.370  1.00  0.00     0.034 A 
BRANCH  24  38
ATOM     38  C   UNL     1       8.467  -3.172  -8.927  1.00  0.00     0.023 A 
ATOM     39  C   UNL     1       9.451  -2.216  -8.620  1.00  0.00     0.031 A 
ATOM     40  C   UNL     1       7.852  -3.106 -10.187  1.00  0.00     0.131 A 
ATOM     41  C   UNL     1       9.706  -1.165  -9.509  1.00  0.00     0.055 A 
ATOM     42  C   UNL     1       8.181  -2.109 -11.109  1.00  0.00     0.041 A 
ATOM     43  F   UNL     1       6.901  -3.987 -10.532  1.00  0.00    -0.206 F 
ATOM     44  C   UNL     1       9.097  -1.118 -10.764  1.00  0.00     0.022 A 
BRANCH  41  45
ATOM     45  S   UNL     1      10.725   0.219  -8.932  1.00  0.00     0.124 S 
ATOM     46  O   UNL     1       9.883   0.778  -7.876  1.00  0.00    -0.237 OA
ATOM     47  O   UNL     1      11.945  -0.445  -8.488  1.00  0.00    -0.237 OA
ATOM     48  O   UNL     1      10.867   1.058 -10.120  1.00  0.00    -0.744 OA
ENDBRANCH  41  45
ENDBRANCH  24  38
BRANCH  25  49
ATOM     49  C   UNL     1       4.893  -9.534  -2.139  1.00  0.00     0.023 A 
ATOM     50  C   UNL     1       5.621 -10.458  -1.374  1.00  0.00     0.031 A 
ATOM     51  C   UNL     1       3.492  -9.625  -2.123  1.00  0.00     0.131 A 
ATOM     52  C   UNL     1       4.942 -11.457  -0.654  1.00  0.00     0.055 A 
ATOM     53  C   UNL     1       2.819 -10.584  -1.364  1.00  0.00     0.041 A 
ATOM     54  F   UNL     1       2.758  -8.799  -2.880  1.00  0.00    -0.206 F 
ATOM     55  C   UNL     1       3.546 -11.517  -0.632  1.00  0.00     0.022 A 
BRANCH  52  56
ATOM     56  S   UNL     1       5.913 -12.758   0.159  1.00  0.00     0.124 S 
ATOM     57  O   UNL     1       6.694 -13.289  -0.951  1.00  0.00    -0.237 OA
ATOM     58  O   UNL     1       6.654 -11.997   1.161  1.00  0.00    -0.237 OA
ATOM     59  O   UNL     1       4.894 -13.659   0.695  1.00  0.00    -0.744 OA
ENDBRANCH  52  56
ENDBRANCH  25  49
BRANCH  37  60
ATOM     60  C   UNL     1       8.360 -10.365  -8.087  1.00  0.00     0.023 A 
ATOM     61  C   UNL     1       7.471 -11.231  -8.742  1.00  0.00     0.031 A 
ATOM     62  C   UNL     1       9.730 -10.678  -8.098  1.00  0.00     0.131 A 
ATOM     63  C   UNL     1       7.959 -12.398  -9.348  1.00  0.00     0.055 A 
ATOM     64  C   UNL     1      10.216 -11.813  -8.746  1.00  0.00     0.041 A 
ATOM     65  F   UNL     1      10.618  -9.882  -7.480  1.00  0.00    -0.206 F 
ATOM     66  C   UNL     1       9.327 -12.685  -9.369  1.00  0.00     0.022 A 
BRANCH  63  67
ATOM     67  S   UNL     1       6.775 -13.568 -10.065  1.00  0.00     0.124 S 
ATOM     68  O   UNL     1       6.042 -14.017  -8.885  1.00  0.00    -0.237 OA
ATOM     69  O   UNL     1       6.029 -12.731 -10.998  1.00  0.00    -0.237 OA
ATOM     70  O   UNL     1       7.627 -14.579 -10.688  1.00  0.00    -0.744 OA
ENDBRANCH  63  67
ENDBRANCH  37  60
ENDBRANCH  11  12
ENDBRANCH   4   6
ENDBRANCH   3   4
ENDBRANCH   2   3
ENDBRANCH   1   2
BRANCH   1  71
ATOM     71  O   UNL     1       2.761  -1.331   0.722  1.00  0.00    -0.462 OA
BRANCH  71  72
ATOM     72  C   UNL     1       1.433  -1.315   0.407  1.00  0.00     0.311 C 
ATOM     73  O   UNL     1       0.595  -0.629   0.984  1.00  0.00    -0.252 OA
BRANCH  72  74
ATOM     74  C   UNL     1       1.026  -2.352  -0.616  1.00  0.00     0.128 C 
ATOM     75  C   UNL     1       1.194  -3.728   0.026  1.00  0.00     0.135 C 
ATOM     76  C   UNL     1       1.834  -2.458  -1.916  1.00  0.00     0.055 C 
ATOM     77  N   UNL     1       1.330  -4.644  -1.085  1.00  0.00    -0.341 N 
ATOM     78  C   UNL     1       1.607  -3.928  -2.315  1.00  0.00     0.128 C 
BRANCH  76  79
ATOM     79  C   UNL     1       1.525  -1.479  -3.046  1.00  0.00    -0.038 A 
ATOM     80  C   UNL     1       1.141  -0.141  -2.792  1.00  0.00     0.008 A 
ATOM     81  C   UNL     1       1.779  -1.851  -4.385  1.00  0.00     0.054 A 
ATOM     82  C   UNL     1       1.040   0.803  -3.828  1.00  0.00     0.051 A 
ATOM     83  C   UNL     1       1.681  -0.901  -5.381  1.00  0.00     0.166 A 
ATOM     84  C   UNL     1       1.328   0.395  -5.111  1.00  0.00     0.165 A 
ATOM     85  O   UNL     1       1.961  -1.101  -6.696  1.00  0.00    -0.454 OA
ATOM     86  O   UNL     1       1.340   1.179  -6.223  1.00  0.00    -0.454 OA
ATOM     87  C   UNL     1       1.810   0.236  -7.213  1.00  0.00     0.468 C 
ENDBRANCH  76  79
BRANCH  77  88
ATOM     88  C   UNL     1       1.175  -6.006  -1.122  1.00  0.00     0.222 C 
ATOM     89  O   UNL     1       1.283  -6.633  -2.175  1.00  0.00    -0.275 OA
BRANCH  88  90
ATOM     90  C   UNL     1       0.801  -6.742   0.144  1.00  0.00     0.109 C 
BRANCH  90  91
ATOM     91  C   UNL     1       1.978  -7.374   0.875  1.00  0.00     0.125 C 
BRANCH  91  92
ATOM     92  C   UNL     1       2.747  -6.394   1.726  1.00  0.00     0.389 C 
ATOM     93  F   UNL     1       1.908  -5.650   2.487  1.00  0.00    -0.171 F 
ATOM     94  F   UNL     1       3.586  -7.032   2.568  1.00  0.00    -0.171 F 
ATOM     95  F   UNL     1       3.483  -5.540   0.990  1.00  0.00    -0.171 F 
ENDBRANCH  91  92
ENDBRANCH  90  91
ENDBRANCH  88  90
ENDBRANCH  77  88
ENDBRANCH  72  74
ENDBRANCH  71  72
ENDBRANCH   1  71
TORSDOF 19
