REMARK SMILES CC(=O)C1=C(C(=O)OCCOC(=O)c2ccc(-c3c4nc(c(-c5cc(S(=O)(=O)[O-])ccc5F)c5ccc([nH]5)c(-c5cc(S(=O)(=O)[O-])ccc5F)c5nc(c(-c6cc(S(=O)(=O)[O-])ccc6F)c6ccc3[nH]6)C=C5)C=C4)cc2)S[C@H]2CCCCC2=N1
REMARK SMILES IDX 10 1 9 2 8 3 6 4 7 5 5 6 4 7 84 8 77 9 83 10 78 11 82 12
REMARK SMILES IDX 79 13 81 14 80 15 2 16 1 17 3 18 11 19 12 20 13 21 14 22
REMARK SMILES IDX 15 23 76 24 16 25 75 26 17 27 18 28 19 29 69 30 20 31 74 32
REMARK SMILES IDX 68 33 70 34 21 35 73 36 67 37 66 38 22 40 54 41 34 42 53 43
REMARK SMILES IDX 35 44 38 45 52 46 71 47 36 48 37 49 51 51 72 52 39 53 23 54
REMARK SMILES IDX 24 55 32 56 25 57 31 58 33 59 30 60 26 61 27 62 28 63 29 64
REMARK SMILES IDX 55 65 56 66 64 67 57 68 63 69 65 70 62 71 58 72 59 73 60 74
REMARK SMILES IDX 61 75 40 76 41 77 49 78 42 79 48 80 50 81 47 82 43 83 44 84
REMARK SMILES IDX 45 85 46 86
REMARK H PARENT 70 39 38 50
REMARK Flexibility Score: inf
ROOT
ATOM      1  C   UNL     1       4.950   0.405   1.026  1.00  0.00     0.275 C 
ENDROOT
BRANCH   1   2
ATOM      2  C   UNL     1       5.145   1.530   0.011  1.00  0.00     0.275 C 
BRANCH   2   3
ATOM      3  O   UNL     1       4.045   2.468   0.065  1.00  0.00    -0.458 OA
BRANCH   3   4
ATOM      4  C   UNL     1       3.135   2.371  -0.945  1.00  0.00     0.347 C 
ATOM      5  O   UNL     1       3.155   1.521  -1.818  1.00  0.00    -0.245 OA
BRANCH   4   6
ATOM      6  C   UNL     1       2.128   3.473  -0.876  1.00  0.00     0.123 C 
ATOM      7  C   UNL     1       0.814   3.265  -1.070  1.00  0.00     0.127 C 
ATOM      8  N   UNL     1      -0.185   4.210  -1.121  1.00  0.00    -0.251 NA
ATOM      9  S   UNL     1       2.714   5.083  -0.552  1.00  0.00    -0.107 SA
ATOM     10  C   UNL     1      -0.030   5.347  -0.525  1.00  0.00     0.032 C 
ATOM     11  C   UNL     1       1.209   5.750   0.261  1.00  0.00     0.097 C 
ATOM     12  C   UNL     1      -1.281   6.197  -0.431  1.00  0.00     0.053 C 
ATOM     13  C   UNL     1       1.366   7.264   0.387  1.00  0.00     0.021 C 
ATOM     14  C   UNL     1      -0.980   7.678  -0.356  1.00  0.00     0.006 C 
ATOM     15  C   UNL     1       0.050   7.957   0.728  1.00  0.00     0.002 C 
BRANCH   7  16
ATOM     16  C   UNL     1       0.287   1.871  -1.020  1.00  0.00     0.179 C 
ATOM     17  C   UNL     1      -0.296   1.482   0.320  1.00  0.00     0.095 C 
ATOM     18  O   UNL     1       0.309   1.138  -2.000  1.00  0.00    -0.293 OA
ENDBRANCH   7  16
ENDBRANCH   4   6
ENDBRANCH   3   4
ENDBRANCH   2   3
ENDBRANCH   1   2
BRANCH   1  19
ATOM     19  O   UNL     1       3.833  -0.397   0.620  1.00  0.00    -0.458 OA
BRANCH  19  20
ATOM     20  C   UNL     1       3.125  -0.996   1.605  1.00  0.00     0.338 C 
ATOM     21  O   UNL     1       3.408  -0.988   2.797  1.00  0.00    -0.246 OA
BRANCH  20  22
ATOM     22  C   UNL     1       1.897  -1.620   1.048  1.00  0.00     0.060 A 
ATOM     23  C   UNL     1       1.431  -1.275  -0.218  1.00  0.00     0.016 A 
ATOM     24  C   UNL     1       1.121  -2.473   1.839  1.00  0.00     0.016 A 
ATOM     25  C   UNL     1       0.151  -1.662  -0.624  1.00  0.00     0.010 A 
ATOM     26  C   UNL     1      -0.118  -2.946   1.372  1.00  0.00     0.010 A 
ATOM     27  C   UNL     1      -0.656  -2.504   0.151  1.00  0.00    -0.014 A 
BRANCH  27  28
ATOM     28  C   UNL     1      -2.060  -2.847  -0.272  1.00  0.00     0.031 A 
ATOM     29  C   UNL     1      -3.205  -2.737   0.715  1.00  0.00     0.074 A 
ATOM     30  C   UNL     1      -2.361  -3.213  -1.538  1.00  0.00     0.049 A 
ATOM     31  N   UNL     1      -4.401  -3.269   0.669  1.00  0.00    -0.248 NA
ATOM     32  C   UNL     1      -2.960  -1.937   1.925  1.00  0.00     0.031 C 
ATOM     33  C   UNL     1      -1.421  -3.277  -2.659  1.00  0.00     0.029 A 
ATOM     34  N   UNL     1      -3.560  -3.587  -2.105  1.00  0.00    -0.354 N 
ATOM     35  C   UNL     1      -5.013  -2.954   1.880  1.00  0.00     0.074 A 
ATOM     36  C   UNL     1      -4.058  -2.168   2.633  1.00  0.00     0.031 C 
ATOM     37  C   UNL     1      -2.085  -3.583  -3.781  1.00  0.00     0.029 A 
ATOM     38  C   UNL     1      -3.464  -3.905  -3.441  1.00  0.00     0.049 A 
ATOM     39  H   UNL     1      -4.406  -3.623  -1.601  1.00  0.00     0.167 HD
ATOM     40  C   UNL     1      -6.249  -3.303   2.324  1.00  0.00     0.034 A 
ATOM     41  C   UNL     1      -4.342  -4.473  -4.293  1.00  0.00     0.034 A 
ATOM     42  C   UNL     1      -7.227  -4.004   1.521  1.00  0.00     0.049 A 
ATOM     43  C   UNL     1      -5.686  -4.904  -3.774  1.00  0.00     0.074 A 
ATOM     44  C   UNL     1      -8.508  -4.401   1.870  1.00  0.00     0.029 A 
ATOM     45  N   UNL     1      -7.047  -4.385   0.198  1.00  0.00    -0.354 N 
ATOM     46  N   UNL     1      -6.189  -4.768  -2.570  1.00  0.00    -0.248 NA
ATOM     47  C   UNL     1      -6.564  -5.602  -4.721  1.00  0.00     0.031 C 
ATOM     48  C   UNL     1      -9.079  -5.067   0.779  1.00  0.00     0.029 A 
ATOM     49  C   UNL     1      -8.183  -5.027  -0.275  1.00  0.00     0.049 A 
ATOM     50  H   UNL     1      -6.231  -4.224  -0.329  1.00  0.00     0.167 HD
ATOM     51  C   UNL     1      -7.441  -5.371  -2.615  1.00  0.00     0.074 A 
ATOM     52  C   UNL     1      -7.629  -5.843  -3.971  1.00  0.00     0.031 C 
ATOM     53  C   UNL     1      -8.351  -5.526  -1.619  1.00  0.00     0.034 A 
BRANCH  40  54
ATOM     54  C   UNL     1      -6.587  -3.010   3.769  1.00  0.00     0.023 A 
ATOM     55  C   UNL     1      -6.713  -1.705   4.274  1.00  0.00     0.031 A 
ATOM     56  C   UNL     1      -6.775  -4.081   4.665  1.00  0.00     0.131 A 
ATOM     57  C   UNL     1      -6.955  -1.505   5.644  1.00  0.00     0.055 A 
ATOM     58  C   UNL     1      -7.092  -3.876   6.009  1.00  0.00     0.041 A 
ATOM     59  F   UNL     1      -6.648  -5.351   4.248  1.00  0.00    -0.206 F 
ATOM     60  C   UNL     1      -7.169  -2.582   6.510  1.00  0.00     0.022 A 
BRANCH  57  61
ATOM     61  S   UNL     1      -6.846   0.179   6.312  1.00  0.00     0.124 S 
ATOM     62  O   UNL     1      -5.499   0.574   5.906  1.00  0.00    -0.237 OA
ATOM     63  O   UNL     1      -7.943   0.858   5.634  1.00  0.00    -0.237 OA
ATOM     64  O   UNL     1      -7.022  -0.010   7.751  1.00  0.00    -0.744 OA
ENDBRANCH  57  61
ENDBRANCH  40  54
BRANCH  41  65
ATOM     65  C   UNL     1      -3.927  -4.790  -5.691  1.00  0.00     0.023 A 
ATOM     66  C   UNL     1      -4.551  -4.189  -6.795  1.00  0.00     0.031 A 
ATOM     67  C   UNL     1      -2.899  -5.721  -5.940  1.00  0.00     0.131 A 
ATOM     68  C   UNL     1      -4.148  -4.534  -8.096  1.00  0.00     0.055 A 
ATOM     69  C   UNL     1      -2.462  -6.013  -7.231  1.00  0.00     0.041 A 
ATOM     70  F   UNL     1      -2.280  -6.338  -4.921  1.00  0.00    -0.206 F 
ATOM     71  C   UNL     1      -3.093  -5.423  -8.320  1.00  0.00     0.022 A 
BRANCH  68  72
ATOM     72  S   UNL     1      -5.068  -3.856  -9.505  1.00  0.00     0.124 S 
ATOM     73  O   UNL     1      -6.408  -4.381  -9.266  1.00  0.00    -0.237 OA
ATOM     74  O   UNL     1      -4.900  -2.419  -9.319  1.00  0.00    -0.237 OA
ATOM     75  O   UNL     1      -4.377  -4.416 -10.665  1.00  0.00    -0.744 OA
ENDBRANCH  68  72
ENDBRANCH  41  65
BRANCH  53  76
ATOM     76  C   UNL     1      -9.642  -6.213  -1.985  1.00  0.00     0.023 A 
ATOM     77  C   UNL     1      -9.681  -7.582  -2.303  1.00  0.00     0.031 A 
ATOM     78  C   UNL     1     -10.838  -5.479  -2.060  1.00  0.00     0.131 A 
ATOM     79  C   UNL     1     -10.883  -8.163  -2.738  1.00  0.00     0.055 A 
ATOM     80  C   UNL     1     -12.041  -6.074  -2.443  1.00  0.00     0.041 A 
ATOM     81  F   UNL     1     -10.854  -4.168  -1.771  1.00  0.00    -0.206 F 
ATOM     82  C   UNL     1     -12.065  -7.420  -2.798  1.00  0.00     0.022 A 
BRANCH  79  83
ATOM     83  S   UNL     1     -10.862  -9.883  -3.315  1.00  0.00     0.124 S 
ATOM     84  O   UNL     1      -9.896  -9.826  -4.407  1.00  0.00    -0.237 OA
ATOM     85  O   UNL     1     -10.436 -10.608  -2.123  1.00  0.00    -0.237 OA
ATOM     86  O   UNL     1     -12.245 -10.124  -3.724  1.00  0.00    -0.744 OA
ENDBRANCH  79  83
ENDBRANCH  53  76
ENDBRANCH  27  28
ENDBRANCH  20  22
ENDBRANCH  19  20
ENDBRANCH   1  19
TORSDOF 15
