REMARK SMILES Cc1coc2cc3oc(=O)c(CC(=O)N[C@H](Cc4c[nH]c5ccc(O)cc45)C(=O)OCCOC(=O)c4ccc(-c5c6nc(c(-c7cc(S(=O)(=O)[O-])ccc7F)c7ccc([nH]7)c(-c7cc(S(=O)(=O)[O-])ccc7F)c7nc(c(-c8cc(S(=O)(=O)[O-])ccc8F)c8ccc5[nH]8)C=C7)C=C6)cc4)c(C)c3cc12
REMARK SMILES IDX 31 1 30 2 28 3 29 4 16 5 15 6 13 7 14 8 12 10 11 11 1 12
REMARK SMILES IDX 2 13 3 14 103 15 4 16 5 17 102 18 6 19 101 20 7 21 99 22
REMARK SMILES IDX 8 23 100 24 9 25 10 26 17 27 18 28 19 29 27 30 20 31 21 32
REMARK SMILES IDX 26 33 22 35 24 36 23 37 25 38 32 40 33 41 34 42 35 43 36 44
REMARK SMILES IDX 37 45 98 46 38 47 97 48 39 49 40 50 41 51 91 52 42 53 96 54
REMARK SMILES IDX 90 55 92 56 43 57 95 58 89 59 88 60 44 62 76 63 56 64 75 65
REMARK SMILES IDX 57 66 60 67 74 68 93 69 58 70 59 71 73 73 94 74 61 75 45 76
REMARK SMILES IDX 46 77 54 78 47 79 53 80 55 81 52 82 48 83 49 84 50 85 51 86
REMARK SMILES IDX 77 87 78 88 86 89 79 90 85 91 87 92 84 93 80 94 81 95 82 96
REMARK SMILES IDX 83 97 62 98 63 99 71 100 64 101 70 102 72 103 69 104 65 105
REMARK SMILES IDX 66 106 67 107 68 108
REMARK H PARENT 15 9 20 34 25 39 92 61 60 72
REMARK Flexibility Score: inf
ROOT
ATOM      1  C   UNL     1      -2.851 -11.626   1.787  1.00  0.00     0.274 C 
ENDROOT
BRANCH   1   2
ATOM      2  O   UNL     1      -2.499 -10.293   1.397  1.00  0.00    -0.461 OA
BRANCH   2   3
ATOM      3  C   UNL     1      -3.390  -9.335   1.768  1.00  0.00     0.329 C 
ATOM      4  O   UNL     1      -4.571  -9.567   2.010  1.00  0.00    -0.250 OA
BRANCH   3   5
ATOM      5  C   UNL     1      -2.696  -7.986   2.031  1.00  0.00     0.196 C 
BRANCH   5   6
ATOM      6  N   UNL     1      -3.731  -6.950   2.110  1.00  0.00    -0.342 N 
ATOM      7  C   UNL     1      -4.631  -6.729   3.129  1.00  0.00     0.225 C 
ATOM      8  O   UNL     1      -5.692  -6.170   2.831  1.00  0.00    -0.275 OA
ATOM      9  H   UNL     1      -3.790  -6.338   1.341  1.00  0.00     0.164 HD
BRANCH   7  10
ATOM     10  C   UNL     1      -4.335  -7.085   4.601  1.00  0.00     0.143 C 
BRANCH  10  11
ATOM     11  C   UNL     1      -4.624  -8.476   5.075  1.00  0.00     0.051 A 
ATOM     12  C   UNL     1      -7.046 -14.456   3.077  1.00  0.00     0.048 C 
ATOM     13  C   UNL     1      -5.877 -14.220   3.951  1.00  0.00    -0.005 A 
ATOM     14  C   UNL     1      -4.835 -15.080   4.232  1.00  0.00     0.199 A 
ATOM     15  C   UNL     1      -5.581 -13.010   4.644  1.00  0.00     0.024 A 
ATOM     16  O   UNL     1      -3.949 -14.507   5.085  1.00  0.00    -0.464 OA
ATOM     17  C   UNL     1      -4.397 -13.246   5.336  1.00  0.00     0.137 A 
ATOM     18  C   UNL     1      -6.172 -11.727   4.684  1.00  0.00     0.024 A 
ATOM     19  C   UNL     1      -3.747 -12.305   6.119  1.00  0.00     0.095 A 
ATOM     20  C   UNL     1      -5.483 -10.703   5.333  1.00  0.00     0.022 A 
ATOM     21  C   UNL     1      -4.309 -11.027   6.055  1.00  0.00     0.142 A 
ATOM     22  C   UNL     1      -5.727  -9.253   5.056  1.00  0.00    -0.029 A 
ATOM     23  O   UNL     1      -3.566  -9.978   6.579  1.00  0.00    -0.422 OA
ATOM     24  C   UNL     1      -7.050  -8.783   4.560  1.00  0.00     0.046 C 
ATOM     25  C   UNL     1      -3.426  -9.238   5.445  1.00  0.00     0.340 A 
ATOM     26  O   UNL     1      -2.502  -9.348   4.660  1.00  0.00    -0.246 OA
ENDBRANCH  10  11
ENDBRANCH   7  10
ENDBRANCH   5   6
BRANCH   5  27
ATOM     27  C   UNL     1      -1.466  -7.742   1.128  1.00  0.00     0.074 C 
BRANCH  27  28
ATOM     28  C   UNL     1      -1.556  -6.895  -0.091  1.00  0.00    -0.020 A 
ATOM     29  C   UNL     1      -1.750  -5.530  -0.076  1.00  0.00     0.087 A 
ATOM     30  C   UNL     1      -1.186  -7.245  -1.434  1.00  0.00     0.006 A 
ATOM     31  N   UNL     1      -1.562  -5.041  -1.339  1.00  0.00    -0.361 N 
ATOM     32  C   UNL     1      -1.258  -6.075  -2.198  1.00  0.00     0.046 A 
ATOM     33  C   UNL     1      -0.733  -8.428  -2.064  1.00  0.00     0.056 A 
ATOM     34  H   UNL     1      -1.634  -4.093  -1.596  1.00  0.00     0.166 HD
ATOM     35  C   UNL     1      -0.988  -6.051  -3.572  1.00  0.00     0.030 A 
ATOM     36  C   UNL     1      -0.428  -8.399  -3.427  1.00  0.00     0.116 A 
ATOM     37  C   UNL     1      -0.578  -7.241  -4.181  1.00  0.00     0.048 A 
BRANCH  36  38
ATOM     38  O   UNL     1       0.037  -9.550  -4.003  1.00  0.00    -0.508 OA
ATOM     39  H   UNL     1       0.250  -9.565  -4.915  1.00  0.00     0.293 HD
ENDBRANCH  36  38
ENDBRANCH  27  28
ENDBRANCH   5  27
ENDBRANCH   3   5
ENDBRANCH   2   3
ENDBRANCH   1   2
BRANCH   1  40
ATOM     40  C   UNL     1      -1.641 -12.253   2.491  1.00  0.00     0.275 C 
BRANCH  40  41
ATOM     41  O   UNL     1      -1.131 -11.373   3.517  1.00  0.00    -0.458 OA
BRANCH  41  42
ATOM     42  C   UNL     1       0.164 -10.951   3.393  1.00  0.00     0.338 C 
ATOM     43  O   UNL     1       0.993 -11.394   2.635  1.00  0.00    -0.246 OA
BRANCH  42  44
ATOM     44  C   UNL     1       0.342  -9.687   4.164  1.00  0.00     0.060 A 
ATOM     45  C   UNL     1      -0.038  -9.562   5.500  1.00  0.00     0.016 A 
ATOM     46  C   UNL     1       0.721  -8.547   3.447  1.00  0.00     0.016 A 
ATOM     47  C   UNL     1      -0.273  -8.281   6.021  1.00  0.00     0.010 A 
ATOM     48  C   UNL     1       0.484  -7.269   3.973  1.00  0.00     0.010 A 
ATOM     49  C   UNL     1      -0.118  -7.131   5.220  1.00  0.00    -0.014 A 
BRANCH  49  50
ATOM     50  C   UNL     1      -0.428  -5.810   5.817  1.00  0.00     0.031 A 
ATOM     51  C   UNL     1       0.403  -5.530   7.010  1.00  0.00     0.074 A 
ATOM     52  C   UNL     1      -1.248  -4.843   5.341  1.00  0.00     0.049 A 
ATOM     53  N   UNL     1       0.036  -5.241   8.215  1.00  0.00    -0.248 NA
ATOM     54  C   UNL     1       1.848  -5.745   6.834  1.00  0.00     0.031 C 
ATOM     55  C   UNL     1      -1.889  -4.833   4.032  1.00  0.00     0.029 A 
ATOM     56  N   UNL     1      -1.634  -3.630   5.876  1.00  0.00    -0.354 N 
ATOM     57  C   UNL     1       1.228  -5.043   8.903  1.00  0.00     0.074 A 
ATOM     58  C   UNL     1       2.283  -5.570   8.076  1.00  0.00     0.031 C 
ATOM     59  C   UNL     1      -2.499  -3.652   3.821  1.00  0.00     0.029 A 
ATOM     60  C   UNL     1      -2.250  -2.780   4.955  1.00  0.00     0.049 A 
ATOM     61  H   UNL     1      -1.489  -3.386   6.819  1.00  0.00     0.167 HD
ATOM     62  C   UNL     1       1.326  -4.211   9.973  1.00  0.00     0.034 A 
ATOM     63  C   UNL     1      -2.419  -1.430   5.007  1.00  0.00     0.034 A 
ATOM     64  C   UNL     1       0.067  -3.994  10.620  1.00  0.00     0.049 A 
ATOM     65  C   UNL     1      -2.241  -0.965   6.399  1.00  0.00     0.074 A 
ATOM     66  C   UNL     1      -0.865  -4.826  11.207  1.00  0.00     0.029 A 
ATOM     67  N   UNL     1      -0.549  -2.780  10.460  1.00  0.00    -0.354 N 
ATOM     68  N   UNL     1      -3.105  -1.126   7.360  1.00  0.00    -0.248 NA
ATOM     69  C   UNL     1      -0.890  -0.633   6.825  1.00  0.00     0.031 C 
ATOM     70  C   UNL     1      -2.121  -4.201  10.988  1.00  0.00     0.029 A 
ATOM     71  C   UNL     1      -1.893  -3.006  10.304  1.00  0.00     0.049 A 
ATOM     72  H   UNL     1      -0.106  -1.901  10.458  1.00  0.00     0.167 HD
ATOM     73  C   UNL     1      -2.327  -1.390   8.476  1.00  0.00     0.074 A 
ATOM     74  C   UNL     1      -0.984  -0.948   8.117  1.00  0.00     0.031 C 
ATOM     75  C   UNL     1      -2.773  -2.205   9.475  1.00  0.00     0.034 A 
BRANCH  62  76
ATOM     76  C   UNL     1       2.551  -3.364  10.187  1.00  0.00     0.023 A 
ATOM     77  C   UNL     1       3.449  -3.078   9.136  1.00  0.00     0.031 A 
ATOM     78  C   UNL     1       2.767  -2.669  11.385  1.00  0.00     0.131 A 
ATOM     79  C   UNL     1       4.553  -2.243   9.309  1.00  0.00     0.055 A 
ATOM     80  C   UNL     1       3.821  -1.756  11.534  1.00  0.00     0.041 A 
ATOM     81  F   UNL     1       1.936  -2.821  12.427  1.00  0.00    -0.206 F 
ATOM     82  C   UNL     1       4.733  -1.554  10.500  1.00  0.00     0.022 A 
BRANCH  79  83
ATOM     83  S   UNL     1       5.782  -2.085   7.985  1.00  0.00     0.124 S 
ATOM     84  O   UNL     1       5.663  -0.674   7.633  1.00  0.00    -0.237 OA
ATOM     85  O   UNL     1       7.012  -2.468   8.673  1.00  0.00    -0.237 OA
ATOM     86  O   UNL     1       5.322  -3.034   6.975  1.00  0.00    -0.744 OA
ENDBRANCH  79  83
ENDBRANCH  62  76
BRANCH  63  87
ATOM     87  C   UNL     1      -2.333  -0.496   3.844  1.00  0.00     0.023 A 
ATOM     88  C   UNL     1      -1.716  -0.914   2.648  1.00  0.00     0.031 A 
ATOM     89  C   UNL     1      -2.625   0.875   3.943  1.00  0.00     0.131 A 
ATOM     90  C   UNL     1      -1.411  -0.021   1.617  1.00  0.00     0.055 A 
ATOM     91  C   UNL     1      -2.305   1.781   2.916  1.00  0.00     0.041 A 
ATOM     92  F   UNL     1      -3.172   1.382   5.059  1.00  0.00    -0.206 F 
ATOM     93  C   UNL     1      -1.693   1.334   1.745  1.00  0.00     0.022 A 
BRANCH  90  94
ATOM     94  S   UNL     1      -0.612  -0.662   0.119  1.00  0.00     0.124 S 
ATOM     95  O   UNL     1      -1.085   0.247  -0.921  1.00  0.00    -0.237 OA
ATOM     96  O   UNL     1       0.800  -0.547   0.463  1.00  0.00    -0.237 OA
ATOM     97  O   UNL     1      -1.129  -2.027   0.007  1.00  0.00    -0.744 OA
ENDBRANCH  90  94
ENDBRANCH  63  87
BRANCH  75  98
ATOM     98  C   UNL     1      -4.245  -2.543   9.556  1.00  0.00     0.023 A 
ATOM     99  C   UNL     1      -4.850  -2.456  10.826  1.00  0.00     0.031 A 
ATOM    100  C   UNL     1      -4.985  -3.148   8.523  1.00  0.00     0.131 A 
ATOM    101  C   UNL     1      -6.119  -3.003  11.047  1.00  0.00     0.055 A 
ATOM    102  C   UNL     1      -6.287  -3.619   8.729  1.00  0.00     0.041 A 
ATOM    103  F   UNL     1      -4.445  -3.390   7.319  1.00  0.00    -0.206 F 
ATOM    104  C   UNL     1      -6.851  -3.567  10.001  1.00  0.00     0.022 A 
BRANCH 101 105
ATOM    105  S   UNL     1      -6.768  -3.156  12.733  1.00  0.00     0.124 S 
ATOM    106  O   UNL     1      -7.931  -2.275  12.699  1.00  0.00    -0.237 OA
ATOM    107  O   UNL     1      -7.066  -4.584  12.823  1.00  0.00    -0.237 OA
ATOM    108  O   UNL     1      -5.666  -2.704  13.579  1.00  0.00    -0.744 OA
ENDBRANCH 101 105
ENDBRANCH  75  98
ENDBRANCH  49  50
ENDBRANCH  42  44
ENDBRANCH  41  42
ENDBRANCH  40  41
ENDBRANCH   1  40
TORSDOF 20
