REMARK SMILES COc1cccc(S[C@H]2CC[C@@]([NH3+])(C(=O)OCCOC(=O)c3ccc(-c4c5nc(c(-c6cc(S(=O)(=O)[O-])ccc6F)c6ccc([nH]6)c(-c6cc(S(=O)(=O)[O-])ccc6F)c6nc(c(-c7cc(S(=O)(=O)[O-])ccc7F)c7ccc4[nH]7)C=C6)C=C5)cc3)C2)c1
REMARK SMILES IDX 17 1 16 2 14 3 15 4 12 5 9 6 10 7 85 8 11 9 8 10 7 11 3 12
REMARK SMILES IDX 4 13 86 14 5 15 6 16 2 17 1 18 13 19 18 23 19 24 20 25 21 26
REMARK SMILES IDX 22 27 23 28 84 29 24 30 83 31 25 32 26 33 27 34 77 35 28 36
REMARK SMILES IDX 82 37 76 38 78 39 29 40 81 41 75 42 74 43 30 45 62 46 42 47
REMARK SMILES IDX 61 48 43 49 46 50 60 51 79 52 44 53 45 54 59 56 80 57 47 58
REMARK SMILES IDX 31 59 32 60 40 61 33 62 39 63 41 64 38 65 34 66 35 67 36 68
REMARK SMILES IDX 37 69 63 70 64 71 72 72 65 73 71 74 73 75 70 76 66 77 67 78
REMARK SMILES IDX 68 79 69 80 48 81 49 82 57 83 50 84 56 85 58 86 55 87 51 88
REMARK SMILES IDX 52 89 53 90 54 91
REMARK H PARENT 13 20 13 21 13 22 78 44 46 55
REMARK Flexibility Score: inf
ROOT
ATOM      1  C   UNL     1       8.051  -0.138  -2.212  1.00  0.00     0.274 C 
ENDROOT
BRANCH   1   2
ATOM      2  O   UNL     1       7.004  -0.036  -1.224  1.00  0.00    -0.457 OA
BRANCH   2   3
ATOM      3  C   UNL     1       5.913  -0.822  -1.426  1.00  0.00     0.368 C 
ATOM      4  O   UNL     1       5.791  -1.607  -2.366  1.00  0.00    -0.245 OA
BRANCH   3   5
ATOM      5  C   UNL     1       4.758  -0.582  -0.406  1.00  0.00     0.193 C 
ATOM      6  C   UNL     1       4.989  -1.808   1.721  1.00  0.00     0.059 C 
ATOM      7  C   UNL     1       4.714  -0.344   2.042  1.00  0.00     0.022 C 
ATOM      8  C   UNL     1       4.413  -1.917   0.302  1.00  0.00     0.095 C 
ATOM      9  C   UNL     1       5.037   0.410   0.745  1.00  0.00     0.082 C 
BRANCH   6  10
ATOM     10  S   UNL     1       6.792  -2.116   1.704  1.00  0.00    -0.122 SA
BRANCH  10  11
ATOM     11  C   UNL     1       7.210  -2.710   3.333  1.00  0.00     0.011 A 
ATOM     12  C   UNL     1       9.008  -3.642   4.704  1.00  0.00     0.119 A 
ATOM     13  C   UNL     1       8.139  -3.685   5.792  1.00  0.00     0.046 A 
ATOM     14  C   UNL     1       8.538  -3.152   3.484  1.00  0.00     0.061 A 
ATOM     15  C   UNL     1       6.820  -3.251   5.657  1.00  0.00     0.005 A 
ATOM     16  C   UNL     1       6.356  -2.763   4.433  1.00  0.00     0.015 A 
BRANCH  12  17
ATOM     17  O   UNL     1      10.277  -4.090   4.949  1.00  0.00    -0.497 OA
ATOM     18  C   UNL     1      11.145  -4.195   3.828  1.00  0.00     0.278 C 
ENDBRANCH  12  17
ENDBRANCH  10  11
ENDBRANCH   6  10
BRANCH   5  19
ATOM     19  N   UNL     1       3.591  -0.112  -1.200  1.00  0.00    -0.343 N 
ATOM     20  H   UNL     1       3.826   0.766  -1.663  1.00  0.00     0.345 HD
ATOM     21  H   UNL     1       2.794   0.032  -0.581  1.00  0.00     0.345 HD
ATOM     22  H   UNL     1       3.354  -0.813  -1.902  1.00  0.00     0.345 HD
ENDBRANCH   5  19
ENDBRANCH   3   5
ENDBRANCH   2   3
ENDBRANCH   1   2
BRANCH   1  23
ATOM     23  C   UNL     1       9.175  -1.054  -1.732  1.00  0.00     0.275 C 
BRANCH  23  24
ATOM     24  O   UNL     1       8.662  -2.383  -1.575  1.00  0.00    -0.458 OA
BRANCH  24  25
ATOM     25  C   UNL     1       9.366  -3.188  -0.749  1.00  0.00     0.338 C 
ATOM     26  O   UNL     1      10.476  -2.945  -0.284  1.00  0.00    -0.246 OA
BRANCH  25  27
ATOM     27  C   UNL     1       8.570  -4.394  -0.398  1.00  0.00     0.060 A 
ATOM     28  C   UNL     1       7.212  -4.496  -0.719  1.00  0.00     0.016 A 
ATOM     29  C   UNL     1       9.164  -5.391   0.382  1.00  0.00     0.016 A 
ATOM     30  C   UNL     1       6.434  -5.521  -0.176  1.00  0.00     0.010 A 
ATOM     31  C   UNL     1       8.399  -6.461   0.859  1.00  0.00     0.010 A 
ATOM     32  C   UNL     1       7.018  -6.523   0.611  1.00  0.00    -0.014 A 
BRANCH  32  33
ATOM     33  C   UNL     1       6.207  -7.645   1.163  1.00  0.00     0.031 A 
ATOM     34  C   UNL     1       6.147  -7.891   2.649  1.00  0.00     0.074 A 
ATOM     35  C   UNL     1       5.556  -8.478   0.328  1.00  0.00     0.049 A 
ATOM     36  N   UNL     1       5.697  -8.934   3.300  1.00  0.00    -0.248 NA
ATOM     37  C   UNL     1       6.671  -6.825   3.513  1.00  0.00     0.031 C 
ATOM     38  C   UNL     1       5.488  -8.336  -1.128  1.00  0.00     0.029 A 
ATOM     39  N   UNL     1       4.843  -9.624   0.583  1.00  0.00    -0.354 N 
ATOM     40  C   UNL     1       5.925  -8.671   4.649  1.00  0.00     0.074 A 
ATOM     41  C   UNL     1       6.557  -7.369   4.717  1.00  0.00     0.031 C 
ATOM     42  C   UNL     1       4.774  -9.351  -1.636  1.00  0.00     0.029 A 
ATOM     43  C   UNL     1       4.416 -10.264  -0.557  1.00  0.00     0.049 A 
ATOM     44  H   UNL     1       4.657  -9.954   1.491  1.00  0.00     0.167 HD
ATOM     45  C   UNL     1       5.639  -9.449   5.724  1.00  0.00     0.034 A 
ATOM     46  C   UNL     1       3.861 -11.477  -0.733  1.00  0.00     0.034 A 
ATOM     47  C   UNL     1       4.994 -10.740   5.639  1.00  0.00     0.049 A 
ATOM     48  C   UNL     1       3.614 -12.354   0.461  1.00  0.00     0.074 A 
ATOM     49  C   UNL     1       4.637 -11.596   6.669  1.00  0.00     0.029 A 
ATOM     50  N   UNL     1       4.612 -11.368   4.460  1.00  0.00    -0.354 N 
ATOM     51  N   UNL     1       3.887 -12.124   1.723  1.00  0.00    -0.248 NA
ATOM     52  C   UNL     1       2.991 -13.657   0.201  1.00  0.00     0.031 C 
ATOM     53  C   UNL     1       4.100 -12.763   6.110  1.00  0.00     0.029 A 
ATOM     54  C   UNL     1       4.051 -12.609   4.734  1.00  0.00     0.049 A 
ATOM     55  H   UNL     1       4.723 -10.988   3.558  1.00  0.00     0.167 HD
ATOM     56  C   UNL     1       3.459 -13.253   2.413  1.00  0.00     0.074 A 
ATOM     57  C   UNL     1       2.893 -14.152   1.426  1.00  0.00     0.031 C 
ATOM     58  C   UNL     1       3.523 -13.518   3.744  1.00  0.00     0.034 A 
BRANCH  45  59
ATOM     59  C   UNL     1       6.085  -8.957   7.082  1.00  0.00     0.023 A 
ATOM     60  C   UNL     1       5.532  -7.816   7.689  1.00  0.00     0.031 A 
ATOM     61  C   UNL     1       7.088  -9.654   7.782  1.00  0.00     0.131 A 
ATOM     62  C   UNL     1       6.015  -7.381   8.935  1.00  0.00     0.055 A 
ATOM     63  C   UNL     1       7.521  -9.253   9.047  1.00  0.00     0.041 A 
ATOM     64  F   UNL     1       7.667 -10.739   7.244  1.00  0.00    -0.206 F 
ATOM     65  C   UNL     1       6.991  -8.104   9.626  1.00  0.00     0.022 A 
BRANCH  62  66
ATOM     66  S   UNL     1       5.425  -5.800   9.602  1.00  0.00     0.124 S 
ATOM     67  O   UNL     1       5.767  -4.872   8.528  1.00  0.00    -0.237 OA
ATOM     68  O   UNL     1       4.002  -6.051   9.797  1.00  0.00    -0.237 OA
ATOM     69  O   UNL     1       6.203  -5.631  10.828  1.00  0.00    -0.744 OA
ENDBRANCH  62  66
ENDBRANCH  45  59
BRANCH  46  70
ATOM     70  C   UNL     1       3.578 -11.959  -2.113  1.00  0.00     0.023 A 
ATOM     71  C   UNL     1       2.264 -12.119  -2.571  1.00  0.00     0.031 A 
ATOM     72  C   UNL     1       4.633 -12.243  -3.000  1.00  0.00     0.131 A 
ATOM     73  C   UNL     1       2.035 -12.565  -3.882  1.00  0.00     0.055 A 
ATOM     74  C   UNL     1       4.400 -12.642  -4.316  1.00  0.00     0.041 A 
ATOM     75  F   UNL     1       5.909 -12.098  -2.607  1.00  0.00    -0.206 F 
ATOM     76  C   UNL     1       3.093 -12.810  -4.761  1.00  0.00     0.022 A 
BRANCH  73  77
ATOM     77  S   UNL     1       0.326 -12.846  -4.417  1.00  0.00     0.124 S 
ATOM     78  O   UNL     1      -0.101 -13.903  -3.507  1.00  0.00    -0.237 OA
ATOM     79  O   UNL     1      -0.279 -11.535  -4.207  1.00  0.00    -0.237 OA
ATOM     80  O   UNL     1       0.469 -13.246  -5.816  1.00  0.00    -0.744 OA
ENDBRANCH  73  77
ENDBRANCH  46  70
BRANCH  58  81
ATOM     81  C   UNL     1       2.929 -14.828   4.199  1.00  0.00     0.023 A 
ATOM     82  C   UNL     1       3.502 -16.063   3.843  1.00  0.00     0.031 A 
ATOM     83  C   UNL     1       1.740 -14.843   4.949  1.00  0.00     0.131 A 
ATOM     84  C   UNL     1       2.849 -17.259   4.180  1.00  0.00     0.055 A 
ATOM     85  C   UNL     1       1.127 -16.037   5.332  1.00  0.00     0.041 A 
ATOM     86  F   UNL     1       1.147 -13.694   5.311  1.00  0.00    -0.206 F 
ATOM     87  C   UNL     1       1.673 -17.253   4.933  1.00  0.00     0.022 A 
BRANCH  84  88
ATOM     88  S   UNL     1       3.495 -18.821   3.518  1.00  0.00     0.124 S 
ATOM     89  O   UNL     1       3.503 -18.562   2.082  1.00  0.00    -0.237 OA
ATOM     90  O   UNL     1       4.803 -18.913   4.158  1.00  0.00    -0.237 OA
ATOM     91  O   UNL     1       2.516 -19.812   3.963  1.00  0.00    -0.744 OA
ENDBRANCH  84  88
ENDBRANCH  58  81
ENDBRANCH  32  33
ENDBRANCH  25  27
ENDBRANCH  24  25
ENDBRANCH  23  24
ENDBRANCH   1  23
TORSDOF 18
