REMARK SMILES Cc1ccc(-c2c(C(=O)OCCOC(=O)c3ccc(-c4c5nc(c(-c6cc(S(=O)(=O)[O-])ccc6F)c6ccc([nH]6)c(-c6cc(S(=O)(=O)[O-])ccc6F)c6nc(c(-c7cc(S(=O)(=O)[O-])ccc7F)c7ccc4[nH]7)C=C6)C=C5)cc3)nnn2Cc2c(F)cccc2Cl)cc1
REMARK SMILES IDX 12 1 11 2 10 3 8 4 9 5 7 6 6 7 81 8 79 9 80 10 5 11 1 12
REMARK SMILES IDX 2 13 3 14 92 15 4 16 91 17 82 18 83 19 84 20 89 21 85 22
REMARK SMILES IDX 86 23 88 24 90 25 87 26 13 27 14 28 15 29 16 30 17 31 78 32
REMARK SMILES IDX 18 33 77 34 19 35 20 36 21 37 71 38 22 39 76 40 70 41 72 42
REMARK SMILES IDX 23 43 75 44 69 45 68 46 24 48 56 49 36 50 55 51 37 52 40 53
REMARK SMILES IDX 54 54 73 55 38 56 39 57 53 59 74 60 41 61 25 62 26 63 34 64
REMARK SMILES IDX 27 65 33 66 35 67 32 68 28 69 29 70 30 71 31 72 57 73 58 74
REMARK SMILES IDX 66 75 59 76 65 77 67 78 64 79 60 80 61 81 62 82 63 83 42 84
REMARK SMILES IDX 43 85 51 86 44 87 50 88 52 89 49 90 45 91 46 92 47 93 48 94
REMARK H PARENT 72 47 40 58
REMARK Flexibility Score: inf
ROOT
ATOM      1  C   UNL     1      -3.419   0.643   5.605  1.00  0.00     0.275 C 
ENDROOT
BRANCH   1   2
ATOM      2  C   UNL     1      -2.371   0.479   4.503  1.00  0.00     0.275 C 
BRANCH   2   3
ATOM      3  O   UNL     1      -2.858   1.040   3.284  1.00  0.00    -0.457 OA
BRANCH   3   4
ATOM      4  C   UNL     1      -2.431   0.398   2.166  1.00  0.00     0.361 C 
ATOM      5  O   UNL     1      -1.548  -0.459   2.166  1.00  0.00    -0.244 OA
BRANCH   4   6
ATOM      6  C   UNL     1      -3.099   0.855   0.963  1.00  0.00     0.198 A 
ATOM      7  C   UNL     1      -2.514   0.985  -0.288  1.00  0.00     0.104 A 
ATOM      8  N   UNL     1      -3.579   1.260  -1.106  1.00  0.00    -0.239 N 
ATOM      9  N   UNL     1      -4.412   1.234   0.890  1.00  0.00    -0.122 NA
ATOM     10  N   UNL     1      -4.694   1.494  -0.379  1.00  0.00    -0.066 NA
BRANCH   7  11
ATOM     11  C   UNL     1      -1.103   0.857  -0.602  1.00  0.00     0.002 A 
ATOM     12  C   UNL     1       3.128   0.281  -0.110  1.00  0.00     0.044 C 
ATOM     13  C   UNL     1       1.674   0.513  -0.392  1.00  0.00    -0.051 A 
ATOM     14  C   UNL     1       0.841  -0.584  -0.631  1.00  0.00     0.004 A 
ATOM     15  C   UNL     1       1.114   1.793  -0.321  1.00  0.00     0.004 A 
ATOM     16  C   UNL     1      -0.538  -0.412  -0.737  1.00  0.00     0.011 A 
ATOM     17  C   UNL     1      -0.268   1.966  -0.428  1.00  0.00     0.011 A 
ENDBRANCH   7  11
BRANCH   8  18
ATOM     18  C   UNL     1      -3.675   1.381  -2.553  1.00  0.00     0.187 C 
BRANCH  18  19
ATOM     19  C   UNL     1      -2.867   0.385  -3.340  1.00  0.00     0.028 A 
ATOM     20  C   UNL     1      -2.021   0.871  -4.345  1.00  0.00     0.129 A 
ATOM     21  C   UNL     1      -2.932  -1.006  -3.166  1.00  0.00     0.049 A 
ATOM     22  F   UNL     1      -1.985   2.187  -4.604  1.00  0.00    -0.207 F 
ATOM     23  C   UNL     1      -1.215   0.029  -5.106  1.00  0.00     0.040 A 
ATOM     24  C   UNL     1      -2.099  -1.858  -3.903  1.00  0.00     0.021 A 
ATOM     25  Cl  UNL     1      -4.028  -1.746  -2.057  1.00  0.00    -0.084 Cl
ATOM     26  C   UNL     1      -1.235  -1.340  -4.868  1.00  0.00     0.005 A 
ENDBRANCH  18  19
ENDBRANCH   8  18
ENDBRANCH   4   6
ENDBRANCH   3   4
ENDBRANCH   2   3
ENDBRANCH   1   2
BRANCH   1  27
ATOM     27  O   UNL     1      -4.806   0.810   5.177  1.00  0.00    -0.458 OA
BRANCH  27  28
ATOM     28  C   UNL     1      -5.552   0.100   4.280  1.00  0.00     0.338 C 
ATOM     29  O   UNL     1      -6.578   0.570   3.798  1.00  0.00    -0.246 OA
BRANCH  28  30
ATOM     30  C   UNL     1      -5.022  -1.188   3.784  1.00  0.00     0.060 A 
ATOM     31  C   UNL     1      -5.216  -1.590   2.449  1.00  0.00     0.016 A 
ATOM     32  C   UNL     1      -4.249  -1.964   4.627  1.00  0.00     0.016 A 
ATOM     33  C   UNL     1      -4.545  -2.714   1.950  1.00  0.00     0.010 A 
ATOM     34  C   UNL     1      -3.433  -2.927   4.089  1.00  0.00     0.010 A 
ATOM     35  C   UNL     1      -3.621  -3.362   2.773  1.00  0.00    -0.014 A 
BRANCH  35  36
ATOM     36  C   UNL     1      -2.946  -4.624   2.468  1.00  0.00     0.031 A 
ATOM     37  C   UNL     1      -2.029  -4.807   1.335  1.00  0.00     0.074 A 
ATOM     38  C   UNL     1      -3.209  -5.637   3.322  1.00  0.00     0.049 A 
ATOM     39  N   UNL     1      -1.905  -5.894   0.651  1.00  0.00    -0.248 NA
ATOM     40  C   UNL     1      -1.143  -3.744   0.885  1.00  0.00     0.031 C 
ATOM     41  C   UNL     1      -2.652  -6.974   3.420  1.00  0.00     0.029 A 
ATOM     42  N   UNL     1      -4.254  -5.671   4.226  1.00  0.00    -0.354 N 
ATOM     43  C   UNL     1      -0.727  -5.793  -0.064  1.00  0.00     0.074 A 
ATOM     44  C   UNL     1      -0.374  -4.395   0.003  1.00  0.00     0.031 C 
ATOM     45  C   UNL     1      -3.533  -7.750   4.089  1.00  0.00     0.029 A 
ATOM     46  C   UNL     1      -4.740  -6.957   4.312  1.00  0.00     0.049 A 
ATOM     47  H   UNL     1      -4.597  -4.898   4.730  1.00  0.00     0.167 HD
ATOM     48  C   UNL     1      -0.068  -6.928  -0.449  1.00  0.00     0.034 A 
ATOM     49  C   UNL     1      -5.984  -7.194   3.793  1.00  0.00     0.034 A 
ATOM     50  C   UNL     1      -0.784  -8.117   0.018  1.00  0.00     0.049 A 
ATOM     51  C   UNL     1      -5.894  -8.133   2.615  1.00  0.00     0.074 A 
ATOM     52  C   UNL     1      -0.578  -8.943   1.111  1.00  0.00     0.029 A 
ATOM     53  N   UNL     1      -2.065  -8.393  -0.448  1.00  0.00    -0.354 N 
ATOM     54  N   UNL     1      -4.847  -8.255   1.843  1.00  0.00    -0.248 NA
ATOM     55  C   UNL     1      -6.960  -9.062   2.276  1.00  0.00     0.031 C 
ATOM     56  C   UNL     1      -1.786  -9.645   1.361  1.00  0.00     0.029 A 
ATOM     57  C   UNL     1      -2.710  -9.279   0.395  1.00  0.00     0.049 A 
ATOM     58  H   UNL     1      -2.458  -8.011  -1.266  1.00  0.00     0.167 HD
ATOM     59  C   UNL     1      -5.036  -9.305   0.983  1.00  0.00     0.074 A 
ATOM     60  C   UNL     1      -6.380  -9.771   1.293  1.00  0.00     0.031 C 
ATOM     61  C   UNL     1      -4.067  -9.729   0.112  1.00  0.00     0.034 A 
BRANCH  48  62
ATOM     62  C   UNL     1       1.386  -6.973  -0.900  1.00  0.00     0.023 A 
ATOM     63  C   UNL     1       2.153  -8.136  -0.658  1.00  0.00     0.031 A 
ATOM     64  C   UNL     1       2.081  -5.925  -1.534  1.00  0.00     0.131 A 
ATOM     65  C   UNL     1       3.537  -8.183  -0.918  1.00  0.00     0.055 A 
ATOM     66  C   UNL     1       3.469  -5.950  -1.750  1.00  0.00     0.041 A 
ATOM     67  F   UNL     1       1.442  -4.852  -2.022  1.00  0.00    -0.206 F 
ATOM     68  C   UNL     1       4.209  -7.077  -1.425  1.00  0.00     0.022 A 
BRANCH  65  69
ATOM     69  S   UNL     1       4.449  -9.721  -0.596  1.00  0.00     0.124 S 
ATOM     70  O   UNL     1       4.264  -9.896   0.841  1.00  0.00    -0.237 OA
ATOM     71  O   UNL     1       3.761 -10.675  -1.458  1.00  0.00    -0.237 OA
ATOM     72  O   UNL     1       5.815  -9.398  -1.006  1.00  0.00    -0.744 OA
ENDBRANCH  65  69
ENDBRANCH  48  62
BRANCH  49  73
ATOM     73  C   UNL     1      -6.946  -6.037   3.927  1.00  0.00     0.023 A 
ATOM     74  C   UNL     1      -7.037  -5.403   5.190  1.00  0.00     0.031 A 
ATOM     75  C   UNL     1      -7.504  -5.353   2.837  1.00  0.00     0.131 A 
ATOM     76  C   UNL     1      -7.487  -4.078   5.309  1.00  0.00     0.055 A 
ATOM     77  C   UNL     1      -8.040  -4.059   2.976  1.00  0.00     0.041 A 
ATOM     78  F   UNL     1      -7.470  -5.881   1.605  1.00  0.00    -0.206 F 
ATOM     79  C   UNL     1      -7.996  -3.397   4.206  1.00  0.00     0.022 A 
BRANCH  76  80
ATOM     80  S   UNL     1      -7.103  -3.193   6.853  1.00  0.00     0.124 S 
ATOM     81  O   UNL     1      -8.097  -3.731   7.774  1.00  0.00    -0.237 OA
ATOM     82  O   UNL     1      -5.718  -3.596   7.102  1.00  0.00    -0.237 OA
ATOM     83  O   UNL     1      -7.260  -1.786   6.502  1.00  0.00    -0.744 OA
ENDBRANCH  76  80
ENDBRANCH  49  73
BRANCH  61  84
ATOM     84  C   UNL     1      -4.275 -10.712  -1.020  1.00  0.00     0.023 A 
ATOM     85  C   UNL     1      -5.542 -11.107  -1.458  1.00  0.00     0.031 A 
ATOM     86  C   UNL     1      -3.185 -11.240  -1.757  1.00  0.00     0.131 A 
ATOM     87  C   UNL     1      -5.701 -12.063  -2.473  1.00  0.00     0.055 A 
ATOM     88  C   UNL     1      -3.347 -12.110  -2.839  1.00  0.00     0.041 A 
ATOM     89  F   UNL     1      -1.913 -10.926  -1.474  1.00  0.00    -0.206 F 
ATOM     90  C   UNL     1      -4.613 -12.549  -3.189  1.00  0.00     0.022 A 
BRANCH  87  91
ATOM     91  S   UNL     1      -7.364 -12.716  -2.757  1.00  0.00     0.124 S 
ATOM     92  O   UNL     1      -7.660 -13.344  -1.471  1.00  0.00    -0.237 OA
ATOM     93  O   UNL     1      -8.127 -11.511  -3.062  1.00  0.00    -0.237 OA
ATOM     94  O   UNL     1      -7.184 -13.641  -3.873  1.00  0.00    -0.744 OA
ENDBRANCH  87  91
ENDBRANCH  61  84
ENDBRANCH  35  36
ENDBRANCH  28  30
ENDBRANCH  27  28
ENDBRANCH   1  27
TORSDOF 17
