REMARK SMILES Cc1c(C(=O)N[C@H]2C=C[C@@H](C(=O)OCCOC(=O)c3ccc(-c4c5nc(c(-c6cc(S(=O)(=O)[O-])ccc6F)c6ccc([nH]6)c(-c6cc(S(=O)(=O)[O-])ccc6F)c6nc(c(-c7cc(S(=O)(=O)[O-])ccc7F)c7ccc4[nH]7)C=C6)C=C5)cc3)C2)oc2ccccc12
REMARK SMILES IDX 15 1 14 2 13 3 11 4 12 5 10 6 7 7 8 8 82 9 9 10 6 11 4 12
REMARK SMILES IDX 5 13 3 15 1 16 2 17 89 18 83 19 84 20 88 21 85 22 87 23
REMARK SMILES IDX 86 24 16 25 17 26 18 27 19 28 20 29 81 30 21 31 80 32 22 33
REMARK SMILES IDX 23 34 24 35 74 36 25 37 79 38 73 39 75 40 26 41 78 42 72 43
REMARK SMILES IDX 71 44 27 46 59 47 39 48 58 49 40 50 43 51 57 52 76 53 41 54
REMARK SMILES IDX 42 55 56 57 77 58 44 59 28 60 29 61 37 62 30 63 36 64 38 65
REMARK SMILES IDX 35 66 31 67 32 68 33 69 34 70 60 71 61 72 69 73 62 74 68 75
REMARK SMILES IDX 70 76 67 77 63 78 64 79 65 80 66 81 45 82 46 83 54 84 47 85
REMARK SMILES IDX 53 86 55 87 52 88 48 89 49 90 50 91 51 92
REMARK H PARENT 6 14 75 45 43 56
REMARK Flexibility Score: inf
ROOT
ATOM      1  C   UNL     1       6.561  -4.501   4.502  1.00  0.00     0.275 C 
ENDROOT
BRANCH   1   2
ATOM      2  C   UNL     1       7.215  -4.612   3.123  1.00  0.00     0.274 C 
BRANCH   2   3
ATOM      3  O   UNL     1       6.634  -3.678   2.191  1.00  0.00    -0.462 OA
BRANCH   3   4
ATOM      4  C   UNL     1       5.888  -4.224   1.200  1.00  0.00     0.312 C 
ATOM      5  O   UNL     1       5.782  -5.429   0.992  1.00  0.00    -0.252 OA
BRANCH   4   6
ATOM      6  C   UNL     1       5.189  -3.207   0.321  1.00  0.00     0.124 C 
ATOM      7  C   UNL     1       4.402  -1.096  -0.343  1.00  0.00     0.106 C 
ATOM      8  C   UNL     1       5.528  -1.502  -1.245  1.00  0.00    -0.006 C 
ATOM      9  C   UNL     1       4.806  -1.859   0.919  1.00  0.00     0.048 C 
ATOM     10  C   UNL     1       5.948  -2.732  -0.894  1.00  0.00    -0.014 C 
BRANCH   7  11
ATOM     11  N   UNL     1       4.255   0.302  -0.153  1.00  0.00    -0.343 N 
ATOM     12  C   UNL     1       3.105   1.047   0.024  1.00  0.00     0.287 C 
ATOM     13  O   UNL     1       3.333   2.256   0.160  1.00  0.00    -0.266 OA
ATOM     14  H   UNL     1       5.095   0.816  -0.145  1.00  0.00     0.164 HD
BRANCH  12  15
ATOM     15  C   UNL     1       1.728   0.518   0.007  1.00  0.00     0.195 A 
ATOM     16  C   UNL     1       1.461  -2.104   0.267  1.00  0.00     0.049 C 
ATOM     17  C   UNL     1       1.030  -0.701   0.075  1.00  0.00     0.008 A 
ATOM     18  C   UNL     1      -0.370  -0.393  -0.013  1.00  0.00     0.024 A 
ATOM     19  O   UNL     1       0.776   1.526  -0.071  1.00  0.00    -0.451 OA
ATOM     20  C   UNL     1      -0.463   0.981  -0.062  1.00  0.00     0.135 A 
ATOM     21  C   UNL     1      -1.559  -1.151  -0.012  1.00  0.00     0.012 A 
ATOM     22  C   UNL     1      -1.668   1.679  -0.085  1.00  0.00     0.048 A 
ATOM     23  C   UNL     1      -2.787  -0.484  -0.037  1.00  0.00     0.001 A 
ATOM     24  C   UNL     1      -2.839   0.909  -0.064  1.00  0.00     0.004 A 
ENDBRANCH  12  15
ENDBRANCH   7  11
ENDBRANCH   4   6
ENDBRANCH   3   4
ENDBRANCH   2   3
ENDBRANCH   1   2
BRANCH   1  25
ATOM     25  O   UNL     1       5.199  -4.971   4.507  1.00  0.00    -0.458 OA
BRANCH  25  26
ATOM     26  C   UNL     1       4.272  -4.029   4.229  1.00  0.00     0.338 C 
ATOM     27  O   UNL     1       4.485  -2.857   3.938  1.00  0.00    -0.246 OA
BRANCH  26  28
ATOM     28  C   UNL     1       2.919  -4.604   4.232  1.00  0.00     0.060 A 
ATOM     29  C   UNL     1       2.142  -4.465   3.080  1.00  0.00     0.016 A 
ATOM     30  C   UNL     1       2.375  -5.170   5.387  1.00  0.00     0.016 A 
ATOM     31  C   UNL     1       0.802  -4.850   3.089  1.00  0.00     0.010 A 
ATOM     32  C   UNL     1       1.036  -5.580   5.385  1.00  0.00     0.010 A 
ATOM     33  C   UNL     1       0.233  -5.404   4.244  1.00  0.00    -0.014 A 
BRANCH  33  34
ATOM     34  C   UNL     1      -1.207  -5.778   4.263  1.00  0.00     0.031 A 
ATOM     35  C   UNL     1      -2.191  -4.975   5.069  1.00  0.00     0.074 A 
ATOM     36  C   UNL     1      -1.631  -6.840   3.553  1.00  0.00     0.049 A 
ATOM     37  N   UNL     1      -3.470  -5.179   5.259  1.00  0.00    -0.248 NA
ATOM     38  C   UNL     1      -1.659  -3.792   5.757  1.00  0.00     0.031 C 
ATOM     39  C   UNL     1      -0.784  -7.680   2.706  1.00  0.00     0.029 A 
ATOM     40  N   UNL     1      -2.880  -7.396   3.433  1.00  0.00    -0.354 N 
ATOM     41  C   UNL     1      -3.898  -4.159   6.104  1.00  0.00     0.074 A 
ATOM     42  C   UNL     1      -2.727  -3.361   6.413  1.00  0.00     0.031 C 
ATOM     43  C   UNL     1      -1.540  -8.635   2.141  1.00  0.00     0.029 A 
ATOM     44  C   UNL     1      -2.912  -8.510   2.628  1.00  0.00     0.049 A 
ATOM     45  H   UNL     1      -3.678  -7.031   3.880  1.00  0.00     0.167 HD
ATOM     46  C   UNL     1      -5.148  -3.909   6.572  1.00  0.00     0.034 A 
ATOM     47  C   UNL     1      -3.923  -9.350   2.334  1.00  0.00     0.034 A 
ATOM     48  C   UNL     1      -6.305  -4.714   6.255  1.00  0.00     0.049 A 
ATOM     49  C   UNL     1      -5.282  -9.106   2.936  1.00  0.00     0.074 A 
ATOM     50  C   UNL     1      -7.622  -4.523   6.639  1.00  0.00     0.029 A 
ATOM     51  N   UNL     1      -6.285  -5.876   5.493  1.00  0.00    -0.354 N 
ATOM     52  N   UNL     1      -5.674  -8.134   3.727  1.00  0.00    -0.248 NA
ATOM     53  C   UNL     1      -6.332 -10.078   2.606  1.00  0.00     0.031 C 
ATOM     54  C   UNL     1      -8.381  -5.604   6.173  1.00  0.00     0.029 A 
ATOM     55  C   UNL     1      -7.555  -6.433   5.432  1.00  0.00     0.049 A 
ATOM     56  H   UNL     1      -5.484  -6.250   5.058  1.00  0.00     0.167 HD
ATOM     57  C   UNL     1      -7.026  -8.364   3.966  1.00  0.00     0.074 A 
ATOM     58  C   UNL     1      -7.381  -9.560   3.230  1.00  0.00     0.031 C 
ATOM     59  C   UNL     1      -7.897  -7.642   4.718  1.00  0.00     0.034 A 
BRANCH  46  60
ATOM     60  C   UNL     1      -5.308  -2.746   7.525  1.00  0.00     0.023 A 
ATOM     61  C   UNL     1      -5.033  -1.423   7.136  1.00  0.00     0.031 A 
ATOM     62  C   UNL     1      -5.692  -2.970   8.860  1.00  0.00     0.131 A 
ATOM     63  C   UNL     1      -5.057  -0.393   8.089  1.00  0.00     0.055 A 
ATOM     64  C   UNL     1      -5.797  -1.928   9.783  1.00  0.00     0.041 A 
ATOM     65  F   UNL     1      -5.950  -4.213   9.297  1.00  0.00    -0.206 F 
ATOM     66  C   UNL     1      -5.459  -0.632   9.405  1.00  0.00     0.022 A 
BRANCH  63  67
ATOM     67  S   UNL     1      -4.383   1.228   7.629  1.00  0.00     0.124 S 
ATOM     68  O   UNL     1      -3.042   0.870   7.174  1.00  0.00    -0.237 OA
ATOM     69  O   UNL     1      -5.313   1.671   6.597  1.00  0.00    -0.237 OA
ATOM     70  O   UNL     1      -4.427   1.984   8.878  1.00  0.00    -0.744 OA
ENDBRANCH  63  67
ENDBRANCH  46  60
BRANCH  47  71
ATOM     71  C   UNL     1      -3.687 -10.521   1.445  1.00  0.00     0.023 A 
ATOM     72  C   UNL     1      -4.294 -10.599   0.183  1.00  0.00     0.031 A 
ATOM     73  C   UNL     1      -2.870 -11.589   1.856  1.00  0.00     0.131 A 
ATOM     74  C   UNL     1      -4.099 -11.736  -0.615  1.00  0.00     0.055 A 
ATOM     75  C   UNL     1      -2.643 -12.698   1.040  1.00  0.00     0.041 A 
ATOM     76  F   UNL     1      -2.264 -11.559   3.054  1.00  0.00    -0.206 F 
ATOM     77  C   UNL     1      -3.267 -12.780  -0.201  1.00  0.00     0.022 A 
BRANCH  74  78
ATOM     78  S   UNL     1      -4.991 -11.854  -2.190  1.00  0.00     0.124 S 
ATOM     79  O   UNL     1      -6.380 -11.837  -1.746  1.00  0.00    -0.237 OA
ATOM     80  O   UNL     1      -4.526 -10.662  -2.892  1.00  0.00    -0.237 OA
ATOM     81  O   UNL     1      -4.528 -13.123  -2.748  1.00  0.00    -0.744 OA
ENDBRANCH  74  78
ENDBRANCH  47  71
BRANCH  59  82
ATOM     82  C   UNL     1      -9.331  -8.115   4.742  1.00  0.00     0.023 A 
ATOM     83  C   UNL     1      -9.703  -9.324   5.357  1.00  0.00     0.031 A 
ATOM     84  C   UNL     1     -10.335  -7.356   4.117  1.00  0.00     0.131 A 
ATOM     85  C   UNL     1     -11.034  -9.764   5.286  1.00  0.00     0.055 A 
ATOM     86  C   UNL     1     -11.668  -7.771   4.098  1.00  0.00     0.041 A 
ATOM     87  F   UNL     1     -10.037  -6.196   3.510  1.00  0.00    -0.206 F 
ATOM     88  C   UNL     1     -12.021  -8.988   4.674  1.00  0.00     0.022 A 
BRANCH  85  89
ATOM     89  S   UNL     1     -11.444 -11.412   5.926  1.00  0.00     0.124 S 
ATOM     90  O   UNL     1     -10.579 -12.272   5.125  1.00  0.00    -0.237 OA
ATOM     91  O   UNL     1     -11.097 -11.295   7.338  1.00  0.00    -0.237 OA
ATOM     92  O   UNL     1     -12.874 -11.542   5.649  1.00  0.00    -0.744 OA
ENDBRANCH  85  89
ENDBRANCH  59  82
ENDBRANCH  33  34
ENDBRANCH  26  28
ENDBRANCH  25  26
ENDBRANCH   1  25
TORSDOF 16
