REMARK SMILES CCc1cc(OC(F)(F)F)cc2c1O[C@H](C(F)(F)F)C(C(=O)OCCOC(=O)c1ccc(-c3c4nc(c(-c5cc(S(=O)(=O)[O-])ccc5F)c5ccc([nH]5)c(-c5cc(S(=O)(=O)[O-])ccc5F)c5nc(c(-c6cc(S(=O)(=O)[O-])ccc6F)c6ccc3[nH]6)C=C5)C=C4)cc1)=C2
REMARK SMILES IDX 25 1 24 2 23 3 21 4 22 5 20 6 3 7 4 8 13 9 5 10 12 11 14 12
REMARK SMILES IDX 11 13 92 14 15 15 2 16 1 17 6 18 7 19 8 20 9 21 10 22 16 23
REMARK SMILES IDX 17 24 18 25 19 26 26 27 27 28 28 29 29 30 30 31 91 32 31 33
REMARK SMILES IDX 90 34 32 35 33 36 34 37 84 38 35 39 89 40 83 41 85 42 36 43
REMARK SMILES IDX 88 44 82 45 81 46 37 48 69 49 49 50 68 51 50 52 53 53 67 54
REMARK SMILES IDX 86 55 51 56 52 57 66 59 87 60 54 61 38 62 39 63 47 64 40 65
REMARK SMILES IDX 46 66 48 67 45 68 41 69 42 70 43 71 44 72 70 73 71 74 79 75
REMARK SMILES IDX 72 76 78 77 80 78 77 79 73 80 74 81 75 82 76 83 55 84 56 85
REMARK SMILES IDX 64 86 57 87 63 88 65 89 62 90 58 91 59 92 60 93 61 94
REMARK H PARENT 85 47 53 58
REMARK Flexibility Score: inf
ROOT
ATOM      1  C   UNL     1      -1.717  10.156   1.496  1.00  0.00     0.275 C 
ENDROOT
BRANCH   1   2
ATOM      2  C   UNL     1      -0.254   9.781   1.265  1.00  0.00     0.275 C 
BRANCH   2   3
ATOM      3  O   UNL     1      -0.120   8.525   0.566  1.00  0.00    -0.459 OA
BRANCH   3   4
ATOM      4  C   UNL     1       0.088   7.450   1.365  1.00  0.00     0.338 C 
ATOM      5  O   UNL     1       0.147   7.463   2.581  1.00  0.00    -0.246 OA
BRANCH   4   6
ATOM      6  C   UNL     1       0.249   6.202   0.598  1.00  0.00     0.087 C 
ATOM      7  C   UNL     1       1.318   2.348  -0.540  1.00  0.00    -0.002 A 
ATOM      8  C   UNL     1       1.915   2.158  -1.793  1.00  0.00     0.054 A 
ATOM      9  C   UNL     1       1.063   3.664  -0.135  1.00  0.00     0.131 A 
ATOM     10  C   UNL     1       2.255   3.252  -2.604  1.00  0.00     0.130 A 
ATOM     11  C   UNL     1       1.376   4.774  -0.940  1.00  0.00     0.021 A 
ATOM     12  O   UNL     1       0.494   3.831   1.105  1.00  0.00    -0.475 OA
ATOM     13  C   UNL     1       1.978   4.556  -2.174  1.00  0.00     0.058 A 
ATOM     14  C   UNL     1       1.098   6.122  -0.437  1.00  0.00     0.027 C 
ATOM     15  C   UNL     1      -0.400   4.964   1.168  1.00  0.00     0.316 C 
BRANCH   7  16
ATOM     16  C   UNL     1       0.877   1.216   0.369  1.00  0.00     0.036 C 
ATOM     17  C   UNL     1       1.204  -0.203  -0.067  1.00  0.00     0.009 C 
ENDBRANCH   7  16
BRANCH  10  18
ATOM     18  O   UNL     1       2.845   3.187  -3.835  1.00  0.00    -0.406 OA
BRANCH  18  19
ATOM     19  C   UNL     1       3.296   1.920  -4.281  1.00  0.00     0.573 C 
ATOM     20  F   UNL     1       4.177   1.380  -3.411  1.00  0.00    -0.132 F 
ATOM     21  F   UNL     1       2.266   1.071  -4.472  1.00  0.00    -0.132 F 
ATOM     22  F   UNL     1       3.930   2.083  -5.465  1.00  0.00    -0.132 F 
ENDBRANCH  18  19
ENDBRANCH  10  18
BRANCH  15  23
ATOM     23  C   UNL     1      -1.758   4.627   0.521  1.00  0.00     0.430 C 
ATOM     24  F   UNL     1      -1.648   4.263  -0.776  1.00  0.00    -0.167 F 
ATOM     25  F   UNL     1      -2.365   3.612   1.180  1.00  0.00    -0.167 F 
ATOM     26  F   UNL     1      -2.592   5.689   0.560  1.00  0.00    -0.167 F 
ENDBRANCH  15  23
ENDBRANCH   4   6
ENDBRANCH   3   4
ENDBRANCH   2   3
ENDBRANCH   1   2
BRANCH   1  27
ATOM     27  O   UNL     1      -2.344   9.211   2.382  1.00  0.00    -0.458 OA
BRANCH  27  28
ATOM     28  C   UNL     1      -3.342   8.484   1.831  1.00  0.00     0.338 C 
ATOM     29  O   UNL     1      -3.779   8.591   0.694  1.00  0.00    -0.246 OA
BRANCH  28  30
ATOM     30  C   UNL     1      -3.855   7.483   2.784  1.00  0.00     0.060 A 
ATOM     31  C   UNL     1      -3.010   6.480   3.250  1.00  0.00     0.016 A 
ATOM     32  C   UNL     1      -5.223   7.403   3.030  1.00  0.00     0.016 A 
ATOM     33  C   UNL     1      -3.546   5.310   3.787  1.00  0.00     0.010 A 
ATOM     34  C   UNL     1      -5.741   6.291   3.706  1.00  0.00     0.010 A 
ATOM     35  C   UNL     1      -4.922   5.191   4.025  1.00  0.00    -0.014 A 
BRANCH  35  36
ATOM     36  C   UNL     1      -5.517   3.904   4.511  1.00  0.00     0.031 A 
ATOM     37  C   UNL     1      -6.662   3.270   3.750  1.00  0.00     0.074 A 
ATOM     38  C   UNL     1      -5.040   3.276   5.606  1.00  0.00     0.049 A 
ATOM     39  N   UNL     1      -7.480   2.315   4.116  1.00  0.00    -0.248 NA
ATOM     40  C   UNL     1      -6.938   3.807   2.409  1.00  0.00     0.031 C 
ATOM     41  C   UNL     1      -3.898   3.713   6.411  1.00  0.00     0.029 A 
ATOM     42  N   UNL     1      -5.456   2.123   6.232  1.00  0.00    -0.354 N 
ATOM     43  C   UNL     1      -8.413   2.193   3.088  1.00  0.00     0.074 A 
ATOM     44  C   UNL     1      -8.063   3.184   2.092  1.00  0.00     0.031 C 
ATOM     45  C   UNL     1      -3.675   2.820   7.386  1.00  0.00     0.029 A 
ATOM     46  C   UNL     1      -4.726   1.810   7.356  1.00  0.00     0.049 A 
ATOM     47  H   UNL     1      -6.205   1.574   5.907  1.00  0.00     0.167 HD
ATOM     48  C   UNL     1      -9.461   1.335   2.986  1.00  0.00     0.034 A 
ATOM     49  C   UNL     1      -4.906   0.858   8.295  1.00  0.00     0.034 A 
ATOM     50  C   UNL     1      -9.750   0.301   3.953  1.00  0.00     0.049 A 
ATOM     51  C   UNL     1      -6.092  -0.064   8.181  1.00  0.00     0.074 A 
ATOM     52  C   UNL     1     -10.779  -0.626   3.944  1.00  0.00     0.029 A 
ATOM     53  N   UNL     1      -8.997   0.040   5.090  1.00  0.00    -0.354 N 
ATOM     54  N   UNL     1      -7.026  -0.101   7.259  1.00  0.00    -0.248 NA
ATOM     55  C   UNL     1      -6.253  -1.066   9.243  1.00  0.00     0.031 C 
ATOM     56  C   UNL     1     -10.681  -1.407   5.101  1.00  0.00     0.029 A 
ATOM     57  C   UNL     1      -9.546  -1.022   5.794  1.00  0.00     0.049 A 
ATOM     58  H   UNL     1      -8.190   0.536   5.358  1.00  0.00     0.167 HD
ATOM     59  C   UNL     1      -7.870  -1.148   7.618  1.00  0.00     0.074 A 
ATOM     60  C   UNL     1      -7.324  -1.726   8.829  1.00  0.00     0.031 C 
ATOM     61  C   UNL     1      -8.995  -1.592   7.002  1.00  0.00     0.034 A 
BRANCH  48  62
ATOM     62  C   UNL     1     -10.409   1.522   1.821  1.00  0.00     0.023 A 
ATOM     63  C   UNL     1     -10.007   1.355   0.484  1.00  0.00     0.031 A 
ATOM     64  C   UNL     1     -11.743   1.905   2.059  1.00  0.00     0.131 A 
ATOM     65  C   UNL     1     -10.901   1.647  -0.559  1.00  0.00     0.055 A 
ATOM     66  C   UNL     1     -12.652   2.108   1.019  1.00  0.00     0.041 A 
ATOM     67  F   UNL     1     -12.185   2.100   3.312  1.00  0.00    -0.206 F 
ATOM     68  C   UNL     1     -12.229   1.996  -0.300  1.00  0.00     0.022 A 
BRANCH  65  69
ATOM     69  S   UNL     1     -10.266   1.710  -2.257  1.00  0.00     0.124 S 
ATOM     70  O   UNL     1      -9.231   2.735  -2.146  1.00  0.00    -0.237 OA
ATOM     71  O   UNL     1      -9.796   0.346  -2.470  1.00  0.00    -0.237 OA
ATOM     72  O   UNL     1     -11.433   2.098  -3.046  1.00  0.00    -0.744 OA
ENDBRANCH  65  69
ENDBRANCH  48  62
BRANCH  49  73
ATOM     73  C   UNL     1      -3.986   0.771   9.468  1.00  0.00     0.023 A 
ATOM     74  C   UNL     1      -3.207  -0.373   9.698  1.00  0.00     0.031 A 
ATOM     75  C   UNL     1      -3.907   1.820  10.404  1.00  0.00     0.131 A 
ATOM     76  C   UNL     1      -2.415  -0.460  10.854  1.00  0.00     0.055 A 
ATOM     77  C   UNL     1      -3.069   1.755  11.518  1.00  0.00     0.041 A 
ATOM     78  F   UNL     1      -4.634   2.937  10.238  1.00  0.00    -0.206 F 
ATOM     79  C   UNL     1      -2.327   0.603  11.755  1.00  0.00     0.022 A 
BRANCH  76  80
ATOM     80  S   UNL     1      -1.568  -2.023  11.213  1.00  0.00     0.124 S 
ATOM     81  O   UNL     1      -2.684  -2.960  11.269  1.00  0.00    -0.237 OA
ATOM     82  O   UNL     1      -0.676  -2.155  10.066  1.00  0.00    -0.237 OA
ATOM     83  O   UNL     1      -0.904  -1.765  12.489  1.00  0.00    -0.744 OA
ENDBRANCH  76  80
ENDBRANCH  49  73
BRANCH  61  84
ATOM     84  C   UNL     1      -9.667  -2.806   7.596  1.00  0.00     0.023 A 
ATOM     85  C   UNL     1     -10.282  -2.774   8.860  1.00  0.00     0.031 A 
ATOM     86  C   UNL     1      -9.665  -4.024   6.892  1.00  0.00     0.131 A 
ATOM     87  C   UNL     1     -10.813  -3.952   9.408  1.00  0.00     0.055 A 
ATOM     88  C   UNL     1     -10.249  -5.178   7.416  1.00  0.00     0.041 A 
ATOM     89  F   UNL     1      -9.089  -4.113   5.682  1.00  0.00    -0.206 F 
ATOM     90  C   UNL     1     -10.815  -5.149   8.688  1.00  0.00     0.022 A 
BRANCH  87  91
ATOM     91  S   UNL     1     -11.411  -3.925  11.121  1.00  0.00     0.124 S 
ATOM     92  O   UNL     1     -10.231  -3.468  11.848  1.00  0.00    -0.237 OA
ATOM     93  O   UNL     1     -12.521  -2.981  11.049  1.00  0.00    -0.237 OA
ATOM     94  O   UNL     1     -11.794  -5.314  11.373  1.00  0.00    -0.744 OA
ENDBRANCH  87  91
ENDBRANCH  61  84
ENDBRANCH  35  36
ENDBRANCH  28  30
ENDBRANCH  27  28
ENDBRANCH   1  27
TORSDOF 18
