REMARK SMILES Cc1ccc([C@H](CC2CCCC2)C(=O)OCCOC(=O)c2ccc(-c3c4nc(c(-c5cc(S(=O)(=O)[O-])ccc5F)c5ccc([nH]5)c(-c5cc(S(=O)(=O)[O-])ccc5F)c5nc(c(-c6cc(S(=O)(=O)[O-])ccc6F)c6ccc3[nH]6)C=C5)C=C4)cc2)cc1
REMARK SMILES IDX 17 1 16 2 15 3 13 4 14 5 6 6 5 7 1 8 2 9 3 10 85 11 4 12
REMARK SMILES IDX 84 13 7 14 8 15 9 16 12 17 10 18 11 19 18 20 19 21 20 22
REMARK SMILES IDX 21 23 22 24 83 25 23 26 82 27 24 28 25 29 26 30 76 31 27 32
REMARK SMILES IDX 81 33 75 34 77 35 28 36 80 37 74 38 73 39 29 41 61 42 41 43
REMARK SMILES IDX 60 44 42 45 45 46 59 47 78 48 43 49 44 50 58 52 79 53 46 54
REMARK SMILES IDX 30 55 31 56 39 57 32 58 38 59 40 60 37 61 33 62 34 63 35 64
REMARK SMILES IDX 36 65 62 66 63 67 71 68 64 69 70 70 72 71 69 72 65 73 66 74
REMARK SMILES IDX 67 75 68 76 47 77 48 78 56 79 49 80 55 81 57 82 54 83 50 84
REMARK SMILES IDX 51 85 52 86 53 87
REMARK H PARENT 77 40 45 51
REMARK Flexibility Score: inf
ROOT
ATOM      1  C   UNL     1      -3.733  -1.279   4.127  1.00  0.00     0.275 C 
ENDROOT
BRANCH   1   2
ATOM      2  C   UNL     1      -4.399  -0.653   2.878  1.00  0.00     0.274 C 
BRANCH   2   3
ATOM      3  O   UNL     1      -3.644  -0.331   1.678  1.00  0.00    -0.462 OA
BRANCH   3   4
ATOM      4  C   UNL     1      -3.968   0.868   1.109  1.00  0.00     0.313 C 
ATOM      5  O   UNL     1      -4.521   1.775   1.730  1.00  0.00    -0.252 OA
BRANCH   4   6
ATOM      6  C   UNL     1      -3.525   1.126  -0.336  1.00  0.00     0.129 C 
BRANCH   6   7
ATOM      7  C   UNL     1      -4.183   0.425  -1.539  1.00  0.00    -0.034 A 
ATOM      8  C   UNL     1      -4.601  -1.560  -5.395  1.00  0.00     0.044 C 
ATOM      9  C   UNL     1      -4.511  -0.865  -4.066  1.00  0.00    -0.051 A 
ATOM     10  C   UNL     1      -4.614   0.521  -3.959  1.00  0.00     0.004 A 
ATOM     11  C   UNL     1      -4.400  -1.596  -2.884  1.00  0.00     0.004 A 
ATOM     12  C   UNL     1      -4.425   1.157  -2.719  1.00  0.00     0.005 A 
ATOM     13  C   UNL     1      -4.316  -0.951  -1.637  1.00  0.00     0.005 A 
ENDBRANCH   6   7
BRANCH   6  14
ATOM     14  C   UNL     1      -1.993   1.108  -0.547  1.00  0.00     0.023 C 
BRANCH  14  15
ATOM     15  C   UNL     1      -1.222   2.114   0.313  1.00  0.00    -0.010 C 
ATOM     16  C   UNL     1      -0.680   1.546   1.622  1.00  0.00     0.003 C 
ATOM     17  C   UNL     1       0.073   2.579  -0.360  1.00  0.00     0.003 C 
ATOM     18  C   UNL     1       0.362   2.572   2.057  1.00  0.00     0.000 C 
ATOM     19  C   UNL     1       0.866   3.227   0.770  1.00  0.00     0.000 C 
ENDBRANCH  14  15
ENDBRANCH   6  14
ENDBRANCH   4   6
ENDBRANCH   3   4
ENDBRANCH   2   3
ENDBRANCH   1   2
BRANCH   1  20
ATOM     20  O   UNL     1      -2.309  -1.085   4.306  1.00  0.00    -0.458 OA
BRANCH  20  21
ATOM     21  C   UNL     1      -1.341  -1.673   3.563  1.00  0.00     0.338 C 
ATOM     22  O   UNL     1      -0.195  -1.240   3.493  1.00  0.00    -0.246 OA
BRANCH  21  23
ATOM     23  C   UNL     1      -1.777  -2.796   2.725  1.00  0.00     0.060 A 
ATOM     24  C   UNL     1      -1.860  -2.530   1.370  1.00  0.00     0.016 A 
ATOM     25  C   UNL     1      -2.457  -3.873   3.290  1.00  0.00     0.016 A 
ATOM     26  C   UNL     1      -2.923  -3.083   0.685  1.00  0.00     0.010 A 
ATOM     27  C   UNL     1      -3.555  -4.371   2.606  1.00  0.00     0.010 A 
ATOM     28  C   UNL     1      -3.894  -3.829   1.367  1.00  0.00    -0.014 A 
BRANCH  28  29
ATOM     29  C   UNL     1      -5.197  -4.181   0.800  1.00  0.00     0.031 A 
ATOM     30  C   UNL     1      -5.242  -4.698  -0.597  1.00  0.00     0.074 A 
ATOM     31  C   UNL     1      -6.397  -3.991   1.413  1.00  0.00     0.049 A 
ATOM     32  N   UNL     1      -6.257  -4.630  -1.399  1.00  0.00    -0.248 NA
ATOM     33  C   UNL     1      -4.033  -5.219  -1.245  1.00  0.00     0.031 C 
ATOM     34  C   UNL     1      -7.519  -4.905   1.212  1.00  0.00     0.029 A 
ATOM     35  N   UNL     1      -6.906  -3.047   2.316  1.00  0.00    -0.354 N 
ATOM     36  C   UNL     1      -5.920  -5.390  -2.495  1.00  0.00     0.074 A 
ATOM     37  C   UNL     1      -4.486  -5.508  -2.463  1.00  0.00     0.031 C 
ATOM     38  C   UNL     1      -8.603  -4.436   1.840  1.00  0.00     0.029 A 
ATOM     39  C   UNL     1      -8.315  -3.087   2.279  1.00  0.00     0.049 A 
ATOM     40  H   UNL     1      -6.366  -2.452   2.884  1.00  0.00     0.167 HD
ATOM     41  C   UNL     1      -6.847  -6.133  -3.158  1.00  0.00     0.034 A 
ATOM     42  C   UNL     1      -9.167  -2.030   2.099  1.00  0.00     0.034 A 
ATOM     43  C   UNL     1      -8.153  -6.049  -2.531  1.00  0.00     0.049 A 
ATOM     44  C   UNL     1     -10.140  -2.208   0.950  1.00  0.00     0.074 A 
ATOM     45  C   UNL     1      -8.757  -6.812  -1.543  1.00  0.00     0.029 A 
ATOM     46  N   UNL     1      -8.927  -4.919  -2.680  1.00  0.00    -0.354 N 
ATOM     47  N   UNL     1     -10.049  -3.187   0.099  1.00  0.00    -0.248 NA
ATOM     48  C   UNL     1     -11.197  -1.263   0.586  1.00  0.00     0.031 C 
ATOM     49  C   UNL     1      -9.931  -6.139  -1.122  1.00  0.00     0.029 A 
ATOM     50  C   UNL     1     -10.051  -4.991  -1.880  1.00  0.00     0.049 A 
ATOM     51  H   UNL     1      -8.709  -4.166  -3.275  1.00  0.00     0.167 HD
ATOM     52  C   UNL     1     -10.956  -3.021  -0.908  1.00  0.00     0.074 A 
ATOM     53  C   UNL     1     -11.638  -1.784  -0.574  1.00  0.00     0.031 C 
ATOM     54  C   UNL     1     -11.021  -3.914  -1.939  1.00  0.00     0.034 A 
BRANCH  41  55
ATOM     55  C   UNL     1      -6.434  -7.274  -4.052  1.00  0.00     0.023 A 
ATOM     56  C   UNL     1      -7.162  -8.475  -4.000  1.00  0.00     0.031 A 
ATOM     57  C   UNL     1      -5.312  -7.267  -4.902  1.00  0.00     0.131 A 
ATOM     58  C   UNL     1      -6.705  -9.630  -4.650  1.00  0.00     0.055 A 
ATOM     59  C   UNL     1      -4.819  -8.433  -5.502  1.00  0.00     0.041 A 
ATOM     60  F   UNL     1      -4.655  -6.128  -5.179  1.00  0.00    -0.206 F 
ATOM     61  C   UNL     1      -5.509  -9.630  -5.361  1.00  0.00     0.022 A 
BRANCH  58  62
ATOM     62  S   UNL     1      -7.710 -11.132  -4.542  1.00  0.00     0.124 S 
ATOM     63  O   UNL     1      -7.758 -11.368  -3.103  1.00  0.00    -0.237 OA
ATOM     64  O   UNL     1      -8.958 -10.710  -5.170  1.00  0.00    -0.237 OA
ATOM     65  O   UNL     1      -6.935 -12.110  -5.303  1.00  0.00    -0.744 OA
ENDBRANCH  58  62
ENDBRANCH  41  55
BRANCH  42  66
ATOM     66  C   UNL     1      -8.717  -0.708   2.577  1.00  0.00     0.023 A 
ATOM     67  C   UNL     1      -8.482  -0.550   3.952  1.00  0.00     0.031 A 
ATOM     68  C   UNL     1      -8.264   0.284   1.701  1.00  0.00     0.131 A 
ATOM     69  C   UNL     1      -7.656   0.484   4.403  1.00  0.00     0.055 A 
ATOM     70  C   UNL     1      -7.511   1.362   2.164  1.00  0.00     0.041 A 
ATOM     71  F   UNL     1      -8.457   0.171   0.379  1.00  0.00    -0.206 F 
ATOM     72  C   UNL     1      -7.171   1.446   3.516  1.00  0.00     0.022 A 
BRANCH  69  73
ATOM     73  S   UNL     1      -6.924   0.307   6.058  1.00  0.00     0.124 S 
ATOM     74  O   UNL     1      -7.954   0.871   6.920  1.00  0.00    -0.237 OA
ATOM     75  O   UNL     1      -6.729  -1.141   6.147  1.00  0.00    -0.237 OA
ATOM     76  O   UNL     1      -5.684   1.070   5.963  1.00  0.00    -0.744 OA
ENDBRANCH  69  73
ENDBRANCH  42  66
BRANCH  54  77
ATOM     77  C   UNL     1     -11.975  -3.846  -3.100  1.00  0.00     0.023 A 
ATOM     78  C   UNL     1     -13.206  -3.188  -3.015  1.00  0.00     0.031 A 
ATOM     79  C   UNL     1     -11.704  -4.490  -4.333  1.00  0.00     0.131 A 
ATOM     80  C   UNL     1     -14.034  -3.062  -4.140  1.00  0.00     0.055 A 
ATOM     81  C   UNL     1     -12.567  -4.432  -5.428  1.00  0.00     0.041 A 
ATOM     82  F   UNL     1     -10.579  -5.188  -4.544  1.00  0.00    -0.206 F 
ATOM     83  C   UNL     1     -13.730  -3.688  -5.346  1.00  0.00     0.022 A 
BRANCH  80  84
ATOM     84  S   UNL     1     -15.478  -1.983  -4.005  1.00  0.00     0.124 S 
ATOM     85  O   UNL     1     -16.179  -2.536  -2.851  1.00  0.00    -0.237 OA
ATOM     86  O   UNL     1     -14.854  -0.679  -3.801  1.00  0.00    -0.237 OA
ATOM     87  O   UNL     1     -16.156  -2.154  -5.288  1.00  0.00    -0.744 OA
ENDBRANCH  80  84
ENDBRANCH  54  77
ENDBRANCH  28  29
ENDBRANCH  21  23
ENDBRANCH  20  21
ENDBRANCH   1  20
TORSDOF 17
