REMARK SMILES CC(C)C[N@@H+](C1CC1)[C@@H](C)c1ccc(C(=O)OCCOC(=O)c2ccc(-c3c4nc(c(-c5cc(S(=O)(=O)[O-])ccc5F)c5ccc([nH]5)c(-c5cc(S(=O)(=O)[O-])ccc5F)c5nc(c(-c6cc(S(=O)(=O)[O-])ccc6F)c6ccc3[nH]6)C=C5)C=C4)cc2)o1
REMARK SMILES IDX 18 1 17 2 15 3 16 4 14 5 11 6 12 7 86 8 13 9 9 10 10 11 5 12
REMARK SMILES IDX 4 14 2 15 1 16 3 17 6 18 7 19 8 20 19 21 20 22 21 23 22 24
REMARK SMILES IDX 23 25 24 26 85 27 25 28 84 29 26 30 27 31 28 32 78 33 29 34
REMARK SMILES IDX 83 35 77 36 79 37 30 38 82 39 76 40 75 41 31 43 63 44 43 45
REMARK SMILES IDX 62 46 44 47 47 48 61 49 80 50 45 51 46 52 60 54 81 55 48 56
REMARK SMILES IDX 32 57 33 58 41 59 34 60 40 61 42 62 39 63 35 64 36 65 37 66
REMARK SMILES IDX 38 67 64 68 65 69 73 70 66 71 72 72 74 73 71 74 67 75 68 76
REMARK SMILES IDX 69 77 70 78 49 79 50 80 58 81 51 82 57 83 59 84 56 85 52 86
REMARK SMILES IDX 53 87 54 88 55 89
REMARK H PARENT 5 13 79 42 47 53
REMARK Flexibility Score: inf
ROOT
ATOM      1  C   UNL     1       5.974  -0.358   1.296  1.00  0.00     0.275 C 
ENDROOT
BRANCH   1   2
ATOM      2  O   UNL     1       4.887   0.567   1.497  1.00  0.00    -0.456 OA
BRANCH   2   3
ATOM      3  C   UNL     1       3.755   0.212   0.824  1.00  0.00     0.374 C 
ATOM      4  O   UNL     1       3.682  -0.784   0.108  1.00  0.00    -0.242 OA
BRANCH   3   5
ATOM      5  C   UNL     1       2.671   1.142   1.031  1.00  0.00     0.212 A 
ATOM      6  C   UNL     1       0.515   1.645   0.863  1.00  0.00     0.162 A 
ATOM      7  C   UNL     1       1.192   2.836   1.042  1.00  0.00     0.053 A 
ATOM      8  O   UNL     1       1.407   0.624   0.943  1.00  0.00    -0.448 OA
ATOM      9  C   UNL     1       2.575   2.511   1.185  1.00  0.00     0.059 A 
BRANCH   6  10
ATOM     10  C   UNL     1      -0.937   1.272   0.711  1.00  0.00     0.248 C 
ATOM     11  C   UNL     1      -1.281  -0.018   1.469  1.00  0.00     0.084 C 
BRANCH  10  12
ATOM     12  N   UNL     1      -1.499   1.339  -0.684  1.00  0.00    -0.324 N 
ATOM     13  H   UNL     1      -1.008   2.091  -1.168  1.00  0.00     0.348 HD
BRANCH  12  14
ATOM     14  C   UNL     1      -1.223   0.173  -1.569  1.00  0.00     0.265 C 
BRANCH  14  15
ATOM     15  C   UNL     1       0.042   0.108  -2.470  1.00  0.00     0.038 C 
ATOM     16  C   UNL     1       1.338  -0.202  -1.755  1.00  0.00     0.013 C 
ATOM     17  C   UNL     1      -0.151  -0.992  -3.531  1.00  0.00     0.013 C 
ENDBRANCH  14  15
ENDBRANCH  12  14
BRANCH  12  18
ATOM     18  C   UNL     1      -2.990   1.620  -0.560  1.00  0.00     0.185 C 
ATOM     19  C   UNL     1      -3.642   2.470  -1.620  1.00  0.00     0.071 C 
ATOM     20  C   UNL     1      -4.095   1.056  -1.421  1.00  0.00     0.071 C 
ENDBRANCH  12  18
ENDBRANCH  10  12
ENDBRANCH   6  10
ENDBRANCH   3   5
ENDBRANCH   2   3
ENDBRANCH   1   2
BRANCH   1  21
ATOM     21  C   UNL     1       5.963  -1.541   2.276  1.00  0.00     0.275 C 
BRANCH  21  22
ATOM     22  O   UNL     1       4.827  -2.412   2.104  1.00  0.00    -0.458 OA
BRANCH  22  23
ATOM     23  C   UNL     1       3.825  -2.242   3.003  1.00  0.00     0.338 C 
ATOM     24  O   UNL     1       3.805  -1.449   3.926  1.00  0.00    -0.246 OA
BRANCH  23  25
ATOM     25  C   UNL     1       2.689  -3.130   2.686  1.00  0.00     0.060 A 
ATOM     26  C   UNL     1       1.664  -2.641   1.881  1.00  0.00     0.016 A 
ATOM     27  C   UNL     1       2.554  -4.374   3.304  1.00  0.00     0.016 A 
ATOM     28  C   UNL     1       0.489  -3.369   1.714  1.00  0.00     0.010 A 
ATOM     29  C   UNL     1       1.378  -5.117   3.115  1.00  0.00     0.010 A 
ATOM     30  C   UNL     1       0.321  -4.605   2.342  1.00  0.00    -0.014 A 
BRANCH  30  31
ATOM     31  C   UNL     1      -0.999  -5.289   2.256  1.00  0.00     0.031 A 
ATOM     32  C   UNL     1      -1.859  -5.407   3.486  1.00  0.00     0.074 A 
ATOM     33  C   UNL     1      -1.468  -5.732   1.073  1.00  0.00     0.049 A 
ATOM     34  N   UNL     1      -2.980  -6.059   3.660  1.00  0.00    -0.248 NA
ATOM     35  C   UNL     1      -1.389  -4.689   4.680  1.00  0.00     0.031 C 
ATOM     36  C   UNL     1      -0.786  -5.585  -0.214  1.00  0.00     0.029 A 
ATOM     37  N   UNL     1      -2.633  -6.388   0.758  1.00  0.00    -0.354 N 
ATOM     38  C   UNL     1      -3.332  -5.864   4.992  1.00  0.00     0.074 A 
ATOM     39  C   UNL     1      -2.293  -5.044   5.581  1.00  0.00     0.031 C 
ATOM     40  C   UNL     1      -1.548  -6.126  -1.178  1.00  0.00     0.029 A 
ATOM     41  C   UNL     1      -2.733  -6.726  -0.572  1.00  0.00     0.049 A 
ATOM     42  H   UNL     1      -3.330  -6.598   1.422  1.00  0.00     0.167 HD
ATOM     43  C   UNL     1      -4.418  -6.329   5.660  1.00  0.00     0.034 A 
ATOM     44  C   UNL     1      -3.649  -7.473  -1.221  1.00  0.00     0.034 A 
ATOM     45  C   UNL     1      -5.454  -7.131   5.051  1.00  0.00     0.049 A 
ATOM     46  C   UNL     1      -4.792  -8.068  -0.440  1.00  0.00     0.074 A 
ATOM     47  C   UNL     1      -6.593  -7.659   5.634  1.00  0.00     0.029 A 
ATOM     48  N   UNL     1      -5.477  -7.523   3.718  1.00  0.00    -0.354 N 
ATOM     49  N   UNL     1      -5.078  -7.941   0.835  1.00  0.00    -0.248 NA
ATOM     50  C   UNL     1      -5.730  -8.918  -1.185  1.00  0.00     0.031 C 
ATOM     51  C   UNL     1      -7.267  -8.424   4.674  1.00  0.00     0.029 A 
ATOM     52  C   UNL     1      -6.591  -8.312   3.469  1.00  0.00     0.049 A 
ATOM     53  H   UNL     1      -4.801  -7.276   3.046  1.00  0.00     0.167 HD
ATOM     54  C   UNL     1      -6.239  -8.680   1.040  1.00  0.00     0.074 A 
ATOM     55  C   UNL     1      -6.610  -9.235  -0.246  1.00  0.00     0.031 C 
ATOM     56  C   UNL     1      -6.939  -8.878   2.186  1.00  0.00     0.034 A 
BRANCH  43  57
ATOM     57  C   UNL     1      -4.492  -6.043   7.142  1.00  0.00     0.023 A 
ATOM     58  C   UNL     1      -4.608  -4.737   7.649  1.00  0.00     0.031 A 
ATOM     59  C   UNL     1      -4.389  -7.100   8.066  1.00  0.00     0.131 A 
ATOM     60  C   UNL     1      -4.538  -4.516   9.034  1.00  0.00     0.055 A 
ATOM     61  C   UNL     1      -4.402  -6.880   9.444  1.00  0.00     0.041 A 
ATOM     62  F   UNL     1      -4.253  -8.367   7.642  1.00  0.00    -0.206 F 
ATOM     63  C   UNL     1      -4.459  -5.580   9.936  1.00  0.00     0.022 A 
BRANCH  60  64
ATOM     64  S   UNL     1      -4.391  -2.809   9.634  1.00  0.00     0.124 S 
ATOM     65  O   UNL     1      -3.196  -2.350   8.930  1.00  0.00    -0.237 OA
ATOM     66  O   UNL     1      -5.653  -2.215   9.207  1.00  0.00    -0.237 OA
ATOM     67  O   UNL     1      -4.232  -2.966  11.079  1.00  0.00    -0.744 OA
ENDBRANCH  60  64
ENDBRANCH  43  57
BRANCH  44  68
ATOM     68  C   UNL     1      -3.483  -7.770  -2.674  1.00  0.00     0.023 A 
ATOM     69  C   UNL     1      -4.418  -7.325  -3.621  1.00  0.00     0.031 A 
ATOM     70  C   UNL     1      -2.399  -8.543  -3.129  1.00  0.00     0.131 A 
ATOM     71  C   UNL     1      -4.269  -7.684  -4.970  1.00  0.00     0.055 A 
ATOM     72  C   UNL     1      -2.227  -8.853  -4.478  1.00  0.00     0.041 A 
ATOM     73  F   UNL     1      -1.479  -8.999  -2.263  1.00  0.00    -0.206 F 
ATOM     74  C   UNL     1      -3.172  -8.431  -5.407  1.00  0.00     0.022 A 
BRANCH  71  75
ATOM     75  S   UNL     1      -5.569  -7.216  -6.145  1.00  0.00     0.124 S 
ATOM     76  O   UNL     1      -6.733  -7.895  -5.586  1.00  0.00    -0.237 OA
ATOM     77  O   UNL     1      -5.564  -5.761  -6.041  1.00  0.00    -0.237 OA
ATOM     78  O   UNL     1      -5.087  -7.749  -7.417  1.00  0.00    -0.744 OA
ENDBRANCH  71  75
ENDBRANCH  44  68
BRANCH  56  79
ATOM     79  C   UNL     1      -8.200  -9.701   2.083  1.00  0.00     0.023 A 
ATOM     80  C   UNL     1      -8.165 -11.077   1.796  1.00  0.00     0.031 A 
ATOM     81  C   UNL     1      -9.457  -9.093   2.255  1.00  0.00     0.131 A 
ATOM     82  C   UNL     1      -9.364 -11.790   1.639  1.00  0.00     0.055 A 
ATOM     83  C   UNL     1     -10.644  -9.819   2.153  1.00  0.00     0.041 A 
ATOM     84  F   UNL     1      -9.549  -7.782   2.527  1.00  0.00    -0.206 F 
ATOM     85  C   UNL     1     -10.603 -11.172   1.831  1.00  0.00     0.022 A 
BRANCH  82  86
ATOM     86  S   UNL     1      -9.288 -13.518   1.092  1.00  0.00     0.124 S 
ATOM     87  O   UNL     1      -8.591 -13.402  -0.185  1.00  0.00    -0.237 OA
ATOM     88  O   UNL     1      -8.540 -14.155   2.171  1.00  0.00    -0.237 OA
ATOM     89  O   UNL     1     -10.693 -13.910   0.998  1.00  0.00    -0.744 OA
ENDBRANCH  82  86
ENDBRANCH  56  79
ENDBRANCH  30  31
ENDBRANCH  23  25
ENDBRANCH  22  23
ENDBRANCH  21  22
ENDBRANCH   1  21
TORSDOF 19
