REMARK SMILES COC(=O)c1cc(F)cc(-c2ccccc2C(=O)OCCOC(=O)c2ccc(-c3c4nc(c(-c5cc(S(=O)(=O)[O-])ccc5F)c5ccc([nH]5)c(-c5cc(S(=O)(=O)[O-])ccc5F)c5nc(c(-c6cc(S(=O)(=O)[O-])ccc6F)c6ccc3[nH]6)C=C5)C=C4)cc2)c1
REMARK SMILES IDX 20 1 19 2 17 3 18 4 16 5 11 6 12 7 13 8 15 9 14 10 10 11
REMARK SMILES IDX 5 12 6 13 88 14 7 15 8 16 9 17 3 18 4 19 2 20 1 21 21 22
REMARK SMILES IDX 22 23 23 24 24 25 25 26 26 27 87 28 27 29 86 30 28 31 29 32
REMARK SMILES IDX 30 33 80 34 31 35 85 36 79 37 81 38 32 39 84 40 78 41 77 42
REMARK SMILES IDX 33 44 65 45 45 46 64 47 46 48 49 49 63 50 82 51 47 52 48 53
REMARK SMILES IDX 62 55 83 56 50 57 34 58 35 59 43 60 36 61 42 62 44 63 41 64
REMARK SMILES IDX 37 65 38 66 39 67 40 68 66 69 67 70 75 71 68 72 74 73 76 74
REMARK SMILES IDX 73 75 69 76 70 77 71 78 72 79 51 80 52 81 60 82 53 83 59 84
REMARK SMILES IDX 61 85 58 86 54 87 55 88 56 89 57 90
REMARK H PARENT 81 43 49 54
REMARK Flexibility Score: inf
ROOT
ATOM      1  C   UNL     1       2.993   3.776   3.005  1.00  0.00     0.275 C 
ENDROOT
BRANCH   1   2
ATOM      2  O   UNL     1       2.500   3.632   4.353  1.00  0.00    -0.458 OA
BRANCH   2   3
ATOM      3  C   UNL     1       3.337   3.053   5.250  1.00  0.00     0.338 C 
ATOM      4  O   UNL     1       4.505   2.759   5.052  1.00  0.00    -0.246 OA
BRANCH   3   5
ATOM      5  C   UNL     1       2.679   2.840   6.570  1.00  0.00     0.067 A 
ATOM      6  C   UNL     1       1.370   2.327   6.720  1.00  0.00    -0.004 A 
ATOM      7  C   UNL     1       0.882   2.147   8.032  1.00  0.00     0.009 A 
ATOM      8  C   UNL     1       1.648   2.481   9.152  1.00  0.00     0.001 A 
ATOM      9  C   UNL     1       3.454   3.131   7.708  1.00  0.00     0.016 A 
ATOM     10  C   UNL     1       2.933   2.981   8.990  1.00  0.00     0.001 A 
BRANCH   6  11
ATOM     11  C   UNL     1       0.501   1.991   5.578  1.00  0.00    -0.014 A 
ATOM     12  C   UNL     1       0.174   0.952   3.393  1.00  0.00     0.063 A 
ATOM     13  C   UNL     1      -1.050   1.608   3.254  1.00  0.00     0.055 A 
ATOM     14  C   UNL     1       0.922   1.106   4.570  1.00  0.00     0.024 A 
ATOM     15  C   UNL     1      -1.500   2.427   4.280  1.00  0.00     0.124 A 
ATOM     16  F   UNL     1      -2.672   3.060   4.148  1.00  0.00    -0.207 F 
ATOM     17  C   UNL     1      -0.738   2.632   5.425  1.00  0.00     0.048 A 
BRANCH  12  18
ATOM     18  C   UNL     1       0.760   0.146   2.295  1.00  0.00     0.337 C 
ATOM     19  O   UNL     1       1.603  -0.715   2.457  1.00  0.00    -0.246 OA
BRANCH  18  20
ATOM     20  O   UNL     1       0.283   0.589   1.103  1.00  0.00    -0.465 OA
ATOM     21  C   UNL     1       0.904  -0.019  -0.029  1.00  0.00     0.282 C 
ENDBRANCH  18  20
ENDBRANCH  12  18
ENDBRANCH   6  11
ENDBRANCH   3   5
ENDBRANCH   2   3
ENDBRANCH   1   2
BRANCH   1  22
ATOM     22  C   UNL     1       3.078   5.246   2.602  1.00  0.00     0.275 C 
BRANCH  22  23
ATOM     23  O   UNL     1       4.097   5.905   3.371  1.00  0.00    -0.458 OA
BRANCH  23  24
ATOM     24  C   UNL     1       3.632   6.597   4.435  1.00  0.00     0.338 C 
ATOM     25  O   UNL     1       2.470   6.805   4.737  1.00  0.00    -0.246 OA
BRANCH  24  26
ATOM     26  C   UNL     1       4.755   6.996   5.288  1.00  0.00     0.060 A 
ATOM     27  C   UNL     1       5.193   6.085   6.244  1.00  0.00     0.016 A 
ATOM     28  C   UNL     1       5.239   8.300   5.279  1.00  0.00     0.016 A 
ATOM     29  C   UNL     1       6.025   6.501   7.275  1.00  0.00     0.010 A 
ATOM     30  C   UNL     1       6.154   8.691   6.263  1.00  0.00     0.010 A 
ATOM     31  C   UNL     1       6.516   7.813   7.304  1.00  0.00    -0.014 A 
BRANCH  31  32
ATOM     32  C   UNL     1       7.324   8.288   8.465  1.00  0.00     0.031 A 
ATOM     33  C   UNL     1       6.839   9.461   9.281  1.00  0.00     0.074 A 
ATOM     34  C   UNL     1       8.461   7.656   8.820  1.00  0.00     0.049 A 
ATOM     35  N   UNL     1       7.470  10.149  10.198  1.00  0.00    -0.248 NA
ATOM     36  C   UNL     1       5.469   9.933   9.021  1.00  0.00     0.031 C 
ATOM     37  C   UNL     1       9.008   6.463   8.169  1.00  0.00     0.029 A 
ATOM     38  N   UNL     1       9.356   7.916   9.829  1.00  0.00    -0.354 N 
ATOM     39  C   UNL     1       6.601  11.167  10.578  1.00  0.00     0.074 A 
ATOM     40  C   UNL     1       5.400  11.013   9.786  1.00  0.00     0.031 C 
ATOM     41  C   UNL     1      10.111   6.069   8.823  1.00  0.00     0.029 A 
ATOM     42  C   UNL     1      10.413   7.036   9.872  1.00  0.00     0.049 A 
ATOM     43  H   UNL     1       9.252   8.663  10.463  1.00  0.00     0.167 HD
ATOM     44  C   UNL     1       6.791  12.138  11.503  1.00  0.00     0.034 A 
ATOM     45  C   UNL     1      11.528   7.030  10.631  1.00  0.00     0.034 A 
ATOM     46  C   UNL     1       7.965  12.236  12.332  1.00  0.00     0.049 A 
ATOM     47  C   UNL     1      11.748   8.153  11.607  1.00  0.00     0.074 A 
ATOM     48  C   UNL     1       8.246  13.166  13.318  1.00  0.00     0.029 A 
ATOM     49  N   UNL     1       9.044  11.365  12.287  1.00  0.00    -0.354 N 
ATOM     50  N   UNL     1      10.961   9.165  11.886  1.00  0.00    -0.248 NA
ATOM     51  C   UNL     1      13.017   8.153  12.348  1.00  0.00     0.031 C 
ATOM     52  C   UNL     1       9.518  12.892  13.828  1.00  0.00     0.029 A 
ATOM     53  C   UNL     1      10.004  11.753  13.207  1.00  0.00     0.049 A 
ATOM     54  H   UNL     1       9.117  10.586  11.689  1.00  0.00     0.167 HD
ATOM     55  C   UNL     1      11.638   9.921  12.836  1.00  0.00     0.074 A 
ATOM     56  C   UNL     1      12.892   9.243  13.094  1.00  0.00     0.031 C 
ATOM     57  C   UNL     1      11.255  11.073  13.439  1.00  0.00     0.034 A 
BRANCH  44  58
ATOM     58  C   UNL     1       5.733  13.203  11.640  1.00  0.00     0.023 A 
ATOM     59  C   UNL     1       4.464  12.932  12.177  1.00  0.00     0.031 A 
ATOM     60  C   UNL     1       6.019  14.525  11.251  1.00  0.00     0.131 A 
ATOM     61  C   UNL     1       3.514  13.961  12.273  1.00  0.00     0.055 A 
ATOM     62  C   UNL     1       5.092  15.556  11.408  1.00  0.00     0.041 A 
ATOM     63  F   UNL     1       7.211  14.835  10.717  1.00  0.00    -0.206 F 
ATOM     64  C   UNL     1       3.828  15.275  11.915  1.00  0.00     0.022 A 
BRANCH  61  65
ATOM     65  S   UNL     1       1.831  13.547  12.806  1.00  0.00     0.124 S 
ATOM     66  O   UNL     1       1.379  12.689  11.713  1.00  0.00    -0.237 OA
ATOM     67  O   UNL     1       2.056  12.885  14.085  1.00  0.00    -0.237 OA
ATOM     68  O   UNL     1       1.167  14.847  12.886  1.00  0.00    -0.744 OA
ENDBRANCH  61  65
ENDBRANCH  44  58
BRANCH  45  69
ATOM     69  C   UNL     1      12.553   5.966  10.435  1.00  0.00     0.023 A 
ATOM     70  C   UNL     1      12.810   5.014  11.432  1.00  0.00     0.031 A 
ATOM     71  C   UNL     1      13.281   5.880   9.233  1.00  0.00     0.131 A 
ATOM     72  C   UNL     1      13.775   4.017  11.212  1.00  0.00     0.055 A 
ATOM     73  C   UNL     1      14.206   4.862   9.002  1.00  0.00     0.041 A 
ATOM     74  F   UNL     1      13.072   6.768   8.248  1.00  0.00    -0.206 F 
ATOM     75  C   UNL     1      14.461   3.924   9.998  1.00  0.00     0.022 A 
BRANCH  72  76
ATOM     76  S   UNL     1      14.143   2.847  12.548  1.00  0.00     0.124 S 
ATOM     77  O   UNL     1      14.704   3.728  13.566  1.00  0.00    -0.237 OA
ATOM     78  O   UNL     1      12.826   2.288  12.838  1.00  0.00    -0.237 OA
ATOM     79  O   UNL     1      15.089   1.917  11.936  1.00  0.00    -0.744 OA
ENDBRANCH  72  76
ENDBRANCH  45  69
BRANCH  57  80
ATOM     80  C   UNL     1      12.190  11.671  14.454  1.00  0.00     0.023 A 
ATOM     81  C   UNL     1      13.361  12.337  14.061  1.00  0.00     0.031 A 
ATOM     82  C   UNL     1      11.866  11.633  15.821  1.00  0.00     0.131 A 
ATOM     83  C   UNL     1      14.181  12.929  15.032  1.00  0.00     0.055 A 
ATOM     84  C   UNL     1      12.663  12.259  16.778  1.00  0.00     0.041 A 
ATOM     85  F   UNL     1      10.752  11.011  16.241  1.00  0.00    -0.206 F 
ATOM     86  C   UNL     1      13.829  12.911  16.386  1.00  0.00     0.022 A 
BRANCH  83  87
ATOM     87  S   UNL     1      15.725  13.722  14.508  1.00  0.00     0.124 S 
ATOM     88  O   UNL     1      16.507  12.580  14.045  1.00  0.00    -0.237 OA
ATOM     89  O   UNL     1      15.273  14.646  13.473  1.00  0.00    -0.237 OA
ATOM     90  O   UNL     1      16.217  14.356  15.730  1.00  0.00    -0.744 OA
ENDBRANCH  83  87
ENDBRANCH  57  80
ENDBRANCH  31  32
ENDBRANCH  24  26
ENDBRANCH  23  24
ENDBRANCH  22  23
ENDBRANCH   1  22
TORSDOF 17
