REMARK SMILES CCn1nc(C(=O)OCCOC(=O)c2ccc(-c3c4nc(c(-c5cc(S(=O)(=O)[O-])ccc5F)c5ccc([nH]5)c(-c5cc(S(=O)(=O)[O-])ccc5F)c5nc(c(-c6cc(S(=O)(=O)[O-])ccc6F)c6ccc3[nH]6)C=C5)C=C4)cc2)c2c1CC[C@H]([NH2+]Cc1nn(CC)c3ccccc13)C2
REMARK SMILES IDX 9 1 8 2 6 3 7 4 5 5 3 6 4 7 78 8 77 9 79 10 95 11 80 12
REMARK SMILES IDX 81 13 2 14 1 15 82 16 83 19 84 20 85 21 94 22 86 23 89 24
REMARK SMILES IDX 93 25 90 26 92 27 91 28 87 29 88 30 10 31 11 32 12 33 13 34
REMARK SMILES IDX 14 35 15 36 76 37 16 38 75 39 17 40 18 41 19 42 69 43 20 44
REMARK SMILES IDX 74 45 68 46 70 47 21 48 73 49 67 50 66 51 22 53 54 54 34 55
REMARK SMILES IDX 53 56 35 57 38 58 52 59 71 60 36 61 37 62 51 64 72 65 39 66
REMARK SMILES IDX 23 67 24 68 32 69 25 70 31 71 33 72 30 73 26 74 27 75 28 76
REMARK SMILES IDX 29 77 55 78 56 79 64 80 57 81 63 82 65 83 62 84 58 85 59 86
REMARK SMILES IDX 60 87 61 88 40 89 41 90 49 91 42 92 48 93 50 94 47 95 43 96
REMARK SMILES IDX 44 97 45 98 46 99
REMARK H PARENT 82 17 82 18 70 52 38 63
REMARK Flexibility Score: inf
ROOT
ATOM      1  C   UNL     1       3.656  -3.348   6.324  1.00  0.00     0.275 C 
ENDROOT
BRANCH   1   2
ATOM      2  O   UNL     1       3.275  -3.212   4.947  1.00  0.00    -0.457 OA
BRANCH   2   3
ATOM      3  C   UNL     1       2.564  -2.157   4.440  1.00  0.00     0.359 C 
ATOM      4  O   UNL     1       2.375  -1.097   5.019  1.00  0.00    -0.244 OA
BRANCH   3   5
ATOM      5  C   UNL     1       1.955  -2.547   3.159  1.00  0.00     0.174 A 
ATOM      6  N   UNL     1       0.930  -2.574   1.278  1.00  0.00    -0.269 N 
ATOM      7  N   UNL     1       1.490  -1.734   2.192  1.00  0.00    -0.165 NA
ATOM      8  C   UNL     1       0.898  -3.874   1.715  1.00  0.00     0.043 A 
ATOM      9  C   UNL     1       1.629  -3.887   2.864  1.00  0.00     0.014 A 
ATOM     10  C   UNL     1       0.182  -5.074   1.226  1.00  0.00     0.062 C 
ATOM     11  C   UNL     1       1.813  -5.049   3.741  1.00  0.00     0.105 C 
ATOM     12  C   UNL     1      -0.271  -5.912   2.470  1.00  0.00     0.072 C 
ATOM     13  C   UNL     1       0.827  -6.197   3.556  1.00  0.00     0.187 C 
BRANCH   6  14
ATOM     14  C   UNL     1       0.365  -2.043   0.049  1.00  0.00     0.141 C 
ATOM     15  C   UNL     1       0.714  -0.590  -0.262  1.00  0.00     0.029 C 
ENDBRANCH   6  14
BRANCH  13  16
ATOM     16  N   UNL     1       0.200  -6.582   4.866  1.00  0.00    -0.338 N 
ATOM     17  H   UNL     1      -0.249  -7.490   4.747  1.00  0.00     0.346 HD
ATOM     18  H   UNL     1      -0.453  -5.833   5.099  1.00  0.00     0.346 HD
BRANCH  16  19
ATOM     19  C   UNL     1       1.148  -6.681   6.021  1.00  0.00     0.320 C 
BRANCH  19  20
ATOM     20  C   UNL     1       1.023  -5.525   7.026  1.00  0.00     0.124 A 
ATOM     21  N   UNL     1       0.223  -4.461   6.803  1.00  0.00    -0.171 NA
ATOM     22  C   UNL     1       1.770  -5.351   8.242  1.00  0.00     0.029 A 
ATOM     23  N   UNL     1       0.523  -3.597   7.809  1.00  0.00    -0.265 N 
ATOM     24  C   UNL     1       1.305  -4.158   8.792  1.00  0.00     0.069 A 
ATOM     25  C   UNL     1       2.823  -6.020   8.903  1.00  0.00     0.012 A 
ATOM     26  C   UNL     1       1.722  -3.684  10.046  1.00  0.00     0.028 A 
ATOM     27  C   UNL     1       3.329  -5.493  10.102  1.00  0.00     0.001 A 
ATOM     28  C   UNL     1       2.761  -4.362  10.682  1.00  0.00     0.002 A 
BRANCH  23  29
ATOM     29  C   UNL     1       0.070  -2.212   7.751  1.00  0.00     0.141 C 
ATOM     30  C   UNL     1       1.114  -1.132   8.062  1.00  0.00     0.029 C 
ENDBRANCH  23  29
ENDBRANCH  19  20
ENDBRANCH  16  19
ENDBRANCH  13  16
ENDBRANCH   3   5
ENDBRANCH   2   3
ENDBRANCH   1   2
BRANCH   1  31
ATOM     31  C   UNL     1       5.151  -3.218   6.542  1.00  0.00     0.275 C 
BRANCH  31  32
ATOM     32  O   UNL     1       5.487  -1.887   6.218  1.00  0.00    -0.458 OA
BRANCH  32  33
ATOM     33  C   UNL     1       5.457  -1.673   4.879  1.00  0.00     0.338 C 
ATOM     34  O   UNL     1       5.572  -2.519   4.005  1.00  0.00    -0.246 OA
BRANCH  33  35
ATOM     35  C   UNL     1       5.173  -0.236   4.635  1.00  0.00     0.060 A 
ATOM     36  C   UNL     1       5.595   0.100   3.356  1.00  0.00     0.016 A 
ATOM     37  C   UNL     1       5.421   0.581   5.744  1.00  0.00     0.016 A 
ATOM     38  C   UNL     1       6.769   0.793   3.313  1.00  0.00     0.010 A 
ATOM     39  C   UNL     1       6.613   1.246   5.723  1.00  0.00     0.010 A 
ATOM     40  C   UNL     1       7.319   1.236   4.525  1.00  0.00    -0.014 A 
BRANCH  40  41
ATOM     41  C   UNL     1       8.629   1.814   4.451  1.00  0.00     0.031 A 
ATOM     42  C   UNL     1       8.583   3.171   3.906  1.00  0.00     0.074 A 
ATOM     43  C   UNL     1       9.750   1.209   4.862  1.00  0.00     0.049 A 
ATOM     44  N   UNL     1       8.971   3.559   2.742  1.00  0.00    -0.248 NA
ATOM     45  C   UNL     1       7.813   4.163   4.669  1.00  0.00     0.031 C 
ATOM     46  C   UNL     1       9.900   0.011   5.684  1.00  0.00     0.029 A 
ATOM     47  N   UNL     1      11.021   1.651   4.694  1.00  0.00    -0.354 N 
ATOM     48  C   UNL     1       8.688   4.912   2.711  1.00  0.00     0.074 A 
ATOM     49  C   UNL     1       7.792   5.173   3.805  1.00  0.00     0.031 C 
ATOM     50  C   UNL     1      11.176  -0.046   6.131  1.00  0.00     0.029 A 
ATOM     51  C   UNL     1      11.940   1.033   5.520  1.00  0.00     0.049 A 
ATOM     52  H   UNL     1      11.267   2.348   4.043  1.00  0.00     0.167 HD
ATOM     53  C   UNL     1       9.423   5.758   1.949  1.00  0.00     0.034 A 
ATOM     54  C   UNL     1      13.200   1.468   5.759  1.00  0.00     0.034 A 
ATOM     55  C   UNL     1      10.126   5.054   0.901  1.00  0.00     0.049 A 
ATOM     56  C   UNL     1      13.596   2.344   4.623  1.00  0.00     0.074 A 
ATOM     57  C   UNL     1       9.727   4.232  -0.137  1.00  0.00     0.029 A 
ATOM     58  N   UNL     1      11.476   4.826   1.055  1.00  0.00    -0.354 N 
ATOM     59  N   UNL     1      13.747   1.915   3.399  1.00  0.00    -0.248 NA
ATOM     60  C   UNL     1      13.403   3.784   4.741  1.00  0.00     0.031 C 
ATOM     61  C   UNL     1      10.739   3.232  -0.237  1.00  0.00     0.029 A 
ATOM     62  C   UNL     1      11.715   3.513   0.721  1.00  0.00     0.049 A 
ATOM     63  H   UNL     1      12.147   5.483   1.351  1.00  0.00     0.167 HD
ATOM     64  C   UNL     1      13.256   2.929   2.590  1.00  0.00     0.074 A 
ATOM     65  C   UNL     1      13.180   4.097   3.460  1.00  0.00     0.031 C 
ATOM     66  C   UNL     1      12.695   2.660   1.373  1.00  0.00     0.034 A 
BRANCH  53  67
ATOM     67  C   UNL     1       9.751   7.159   2.386  1.00  0.00     0.023 A 
ATOM     68  C   UNL     1      10.424   7.976   1.468  1.00  0.00     0.031 A 
ATOM     69  C   UNL     1       9.676   7.648   3.715  1.00  0.00     0.131 A 
ATOM     70  C   UNL     1      11.030   9.171   1.885  1.00  0.00     0.055 A 
ATOM     71  C   UNL     1      10.205   8.877   4.105  1.00  0.00     0.041 A 
ATOM     72  F   UNL     1       9.184   6.929   4.731  1.00  0.00    -0.206 F 
ATOM     73  C   UNL     1      10.914   9.635   3.194  1.00  0.00     0.022 A 
BRANCH  70  74
ATOM     74  S   UNL     1      12.142  10.008   0.732  1.00  0.00     0.124 S 
ATOM     75  O   UNL     1      12.986   8.907   0.278  1.00  0.00    -0.237 OA
ATOM     76  O   UNL     1      11.204  10.547  -0.246  1.00  0.00    -0.237 OA
ATOM     77  O   UNL     1      12.812  10.999   1.571  1.00  0.00    -0.744 OA
ENDBRANCH  70  74
ENDBRANCH  53  67
BRANCH  54  78
ATOM     78  C   UNL     1      13.878   1.431   7.076  1.00  0.00     0.023 A 
ATOM     79  C   UNL     1      15.276   1.484   7.206  1.00  0.00     0.031 A 
ATOM     80  C   UNL     1      13.119   1.540   8.266  1.00  0.00     0.131 A 
ATOM     81  C   UNL     1      15.859   1.617   8.485  1.00  0.00     0.055 A 
ATOM     82  C   UNL     1      13.700   1.646   9.528  1.00  0.00     0.041 A 
ATOM     83  F   UNL     1      11.779   1.625   8.234  1.00  0.00    -0.206 F 
ATOM     84  C   UNL     1      15.079   1.689   9.643  1.00  0.00     0.022 A 
BRANCH  81  85
ATOM     85  S   UNL     1      17.662   1.791   8.644  1.00  0.00     0.124 S 
ATOM     86  O   UNL     1      18.144   0.505   8.152  1.00  0.00    -0.237 OA
ATOM     87  O   UNL     1      17.934   2.951   7.802  1.00  0.00    -0.237 OA
ATOM     88  O   UNL     1      17.859   2.015  10.076  1.00  0.00    -0.744 OA
ENDBRANCH  81  85
ENDBRANCH  54  78
BRANCH  66  89
ATOM     89  C   UNL     1      12.901   1.278   0.784  1.00  0.00     0.023 A 
ATOM     90  C   UNL     1      12.477   0.081   1.403  1.00  0.00     0.031 A 
ATOM     91  C   UNL     1      13.437   1.187  -0.513  1.00  0.00     0.131 A 
ATOM     92  C   UNL     1      12.616  -1.149   0.732  1.00  0.00     0.055 A 
ATOM     93  C   UNL     1      13.554  -0.032  -1.183  1.00  0.00     0.041 A 
ATOM     94  F   UNL     1      13.824   2.293  -1.170  1.00  0.00    -0.206 F 
ATOM     95  C   UNL     1      13.149  -1.207  -0.559  1.00  0.00     0.022 A 
BRANCH  92  96
ATOM     96  S   UNL     1      12.095  -2.700   1.534  1.00  0.00     0.124 S 
ATOM     97  O   UNL     1      12.770  -2.656   2.826  1.00  0.00    -0.237 OA
ATOM     98  O   UNL     1      10.641  -2.566   1.563  1.00  0.00    -0.237 OA
ATOM     99  O   UNL     1      12.589  -3.736   0.625  1.00  0.00    -0.744 OA
ENDBRANCH  92  96
ENDBRANCH  66  89
ENDBRANCH  40  41
ENDBRANCH  33  35
ENDBRANCH  32  33
ENDBRANCH  31  32
ENDBRANCH   1  31
TORSDOF 19
