REMARK SMILES O=C(OCCOC(=O)c1ccc(S(=O)(=O)Nc2ccccc2I)cc1)c1ccc(-c2c3nc(c(-c4cc(S(=O)(=O)[O-])ccc4F)c4ccc([nH]4)c(-c4cc(S(=O)(=O)[O-])ccc4F)c4nc(c(-c5cc(S(=O)(=O)[O-])ccc5F)c5ccc2[nH]5)C=C4)C=C3)cc1
REMARK SMILES IDX 4 1 3 2 2 3 1 4 26 5 27 6 88 7 28 8 87 9 29 10 30 11 31 12
REMARK SMILES IDX 81 13 32 14 86 15 80 16 82 17 33 18 85 19 79 20 78 21 34 23
REMARK SMILES IDX 66 24 46 25 65 26 47 27 50 28 64 29 83 30 48 31 49 32 63 34
REMARK SMILES IDX 84 35 51 36 35 37 36 38 44 39 37 40 43 41 45 42 42 43 38 44
REMARK SMILES IDX 39 45 40 46 41 47 67 48 68 49 76 50 69 51 75 52 77 53 74 54
REMARK SMILES IDX 70 55 71 56 72 57 73 58 52 59 53 60 61 61 54 62 60 63 62 64
REMARK SMILES IDX 59 65 55 66 56 67 57 68 58 69 5 70 6 71 7 72 8 73 9 74 10 75
REMARK SMILES IDX 25 76 11 77 24 78 12 79 13 80 14 81 15 82 16 83 17 85 18 86
REMARK SMILES IDX 22 87 19 88 21 89 23 90 20 91
REMARK H PARENT 82 22 50 33 16 84
REMARK Flexibility Score: inf
ROOT
ATOM      1  C   UNL     1       3.944   1.460  -0.553  1.00  0.00     0.275 C 
ENDROOT
BRANCH   1   2
ATOM      2  O   UNL     1       2.890   0.567  -0.961  1.00  0.00    -0.458 OA
BRANCH   2   3
ATOM      3  C   UNL     1       2.740  -0.769  -0.784  1.00  0.00     0.338 C 
ATOM      4  O   UNL     1       1.775  -1.323  -1.311  1.00  0.00    -0.246 OA
BRANCH   3   5
ATOM      5  C   UNL     1       3.611  -1.599   0.110  1.00  0.00     0.060 A 
ATOM      6  C   UNL     1       4.962  -1.366   0.370  1.00  0.00     0.016 A 
ATOM      7  C   UNL     1       3.013  -2.725   0.710  1.00  0.00     0.016 A 
ATOM      8  C   UNL     1       5.676  -2.173   1.263  1.00  0.00     0.010 A 
ATOM      9  C   UNL     1       3.728  -3.545   1.596  1.00  0.00     0.010 A 
ATOM     10  C   UNL     1       5.068  -3.264   1.888  1.00  0.00    -0.014 A 
BRANCH  10  11
ATOM     11  C   UNL     1       5.898  -4.184   2.705  1.00  0.00     0.031 A 
ATOM     12  C   UNL     1       6.360  -5.470   2.073  1.00  0.00     0.074 A 
ATOM     13  C   UNL     1       6.329  -3.835   3.935  1.00  0.00     0.049 A 
ATOM     14  N   UNL     1       7.159  -6.385   2.555  1.00  0.00    -0.248 NA
ATOM     15  C   UNL     1       5.906  -5.730   0.696  1.00  0.00     0.031 C 
ATOM     16  C   UNL     1       6.057  -2.563   4.607  1.00  0.00     0.029 A 
ATOM     17  N   UNL     1       7.090  -4.524   4.848  1.00  0.00    -0.354 N 
ATOM     18  C   UNL     1       7.378  -7.277   1.512  1.00  0.00     0.074 A 
ATOM     19  C   UNL     1       6.543  -6.854   0.408  1.00  0.00     0.031 C 
ATOM     20  C   UNL     1       6.582  -2.593   5.846  1.00  0.00     0.029 A 
ATOM     21  C   UNL     1       7.203  -3.891   6.068  1.00  0.00     0.049 A 
ATOM     22  H   UNL     1       7.516  -5.389   4.650  1.00  0.00     0.167 HD
ATOM     23  C   UNL     1       8.243  -8.318   1.460  1.00  0.00     0.034 A 
ATOM     24  C   UNL     1       7.712  -4.341   7.232  1.00  0.00     0.034 A 
ATOM     25  C   UNL     1       9.009  -8.770   2.594  1.00  0.00     0.049 A 
ATOM     26  C   UNL     1       8.429  -5.656   7.231  1.00  0.00     0.074 A 
ATOM     27  C   UNL     1       9.899  -9.825   2.676  1.00  0.00     0.029 A 
ATOM     28  N   UNL     1       8.949  -8.203   3.861  1.00  0.00    -0.354 N 
ATOM     29  N   UNL     1       8.608  -6.500   6.244  1.00  0.00    -0.248 NA
ATOM     30  C   UNL     1       9.062  -6.040   8.496  1.00  0.00     0.031 C 
ATOM     31  C   UNL     1      10.326  -9.935   4.005  1.00  0.00     0.029 A 
ATOM     32  C   UNL     1       9.757  -8.907   4.738  1.00  0.00     0.049 A 
ATOM     33  H   UNL     1       8.409  -7.414   4.100  1.00  0.00     0.167 HD
ATOM     34  C   UNL     1       9.419  -7.501   6.759  1.00  0.00     0.074 A 
ATOM     35  C   UNL     1       9.673  -7.160   8.146  1.00  0.00     0.031 C 
ATOM     36  C   UNL     1       9.945  -8.583   6.130  1.00  0.00     0.034 A 
BRANCH  23  37
ATOM     37  C   UNL     1       8.379  -9.026   0.137  1.00  0.00     0.023 A 
ATOM     38  C   UNL     1       8.916  -8.368  -0.986  1.00  0.00     0.031 A 
ATOM     39  C   UNL     1       7.941 -10.350  -0.021  1.00  0.00     0.131 A 
ATOM     40  C   UNL     1       8.948  -9.015  -2.230  1.00  0.00     0.055 A 
ATOM     41  C   UNL     1       8.034 -11.011  -1.248  1.00  0.00     0.041 A 
ATOM     42  F   UNL     1       7.398 -11.018   1.009  1.00  0.00    -0.206 F 
ATOM     43  C   UNL     1       8.530 -10.341  -2.364  1.00  0.00     0.022 A 
BRANCH  40  44
ATOM     44  S   UNL     1       9.443  -8.065  -3.695  1.00  0.00     0.124 S 
ATOM     45  O   UNL     1       8.412  -7.031  -3.740  1.00  0.00    -0.237 OA
ATOM     46  O   UNL     1      10.784  -7.613  -3.342  1.00  0.00    -0.237 OA
ATOM     47  O   UNL     1       9.381  -9.046  -4.776  1.00  0.00    -0.744 OA
ENDBRANCH  40  44
ENDBRANCH  23  37
BRANCH  24  48
ATOM     48  C   UNL     1       7.492  -3.649   8.532  1.00  0.00     0.023 A 
ATOM     49  C   UNL     1       8.432  -2.789   9.111  1.00  0.00     0.031 A 
ATOM     50  C   UNL     1       6.360  -3.998   9.294  1.00  0.00     0.131 A 
ATOM     51  C   UNL     1       8.207  -2.297  10.411  1.00  0.00     0.055 A 
ATOM     52  C   UNL     1       6.099  -3.440  10.544  1.00  0.00     0.041 A 
ATOM     53  F   UNL     1       5.490  -4.906   8.823  1.00  0.00    -0.206 F 
ATOM     54  C   UNL     1       7.030  -2.582  11.112  1.00  0.00     0.022 A 
BRANCH  51  55
ATOM     55  S   UNL     1       9.527  -1.364  11.237  1.00  0.00     0.124 S 
ATOM     56  O   UNL     1      10.554  -2.387  11.395  1.00  0.00    -0.237 OA
ATOM     57  O   UNL     1       9.809  -0.312  10.265  1.00  0.00    -0.237 OA
ATOM     58  O   UNL     1       8.898  -0.909  12.475  1.00  0.00    -0.744 OA
ENDBRANCH  51  55
ENDBRANCH  24  48
BRANCH  36  59
ATOM     59  C   UNL     1      10.877  -9.423   6.958  1.00  0.00     0.023 A 
ATOM     60  C   UNL     1      10.414 -10.149   8.067  1.00  0.00     0.031 A 
ATOM     61  C   UNL     1      12.258  -9.395   6.704  1.00  0.00     0.131 A 
ATOM     62  C   UNL     1      11.336 -10.736   8.942  1.00  0.00     0.055 A 
ATOM     63  C   UNL     1      13.166 -10.051   7.534  1.00  0.00     0.041 A 
ATOM     64  F   UNL     1      12.749  -8.701   5.665  1.00  0.00    -0.206 F 
ATOM     65  C   UNL     1      12.708 -10.709   8.673  1.00  0.00     0.022 A 
BRANCH  62  66
ATOM     66  S   UNL     1      10.728 -11.393  10.518  1.00  0.00     0.124 S 
ATOM     67  O   UNL     1      10.137 -10.205  11.127  1.00  0.00    -0.237 OA
ATOM     68  O   UNL     1       9.788 -12.422  10.087  1.00  0.00    -0.237 OA
ATOM     69  O   UNL     1      11.937 -11.889  11.171  1.00  0.00    -0.744 OA
ENDBRANCH  62  66
ENDBRANCH  36  59
ENDBRANCH  10  11
ENDBRANCH   3   5
ENDBRANCH   2   3
ENDBRANCH   1   2
BRANCH   1  70
ATOM     70  C   UNL     1       3.851   1.966   0.888  1.00  0.00     0.275 C 
BRANCH  70  71
ATOM     71  O   UNL     1       3.394   0.963   1.798  1.00  0.00    -0.458 OA
BRANCH  71  72
ATOM     72  C   UNL     1       2.059   0.975   2.050  1.00  0.00     0.338 C 
ATOM     73  O   UNL     1       1.254   1.802   1.653  1.00  0.00    -0.246 OA
BRANCH  72  74
ATOM     74  C   UNL     1       1.679  -0.243   2.802  1.00  0.00     0.060 A 
ATOM     75  C   UNL     1       0.383  -0.752   2.641  1.00  0.00     0.017 A 
ATOM     76  C   UNL     1       2.596  -0.919   3.610  1.00  0.00     0.017 A 
ATOM     77  C   UNL     1      -0.006  -1.916   3.309  1.00  0.00     0.023 A 
ATOM     78  C   UNL     1       2.225  -2.111   4.231  1.00  0.00     0.023 A 
ATOM     79  C   UNL     1       0.910  -2.578   4.128  1.00  0.00     0.087 A 
BRANCH  79  80
ATOM     80  S   UNL     1       0.427  -4.062   4.982  1.00  0.00     0.261 S 
ATOM     81  O   UNL     1      -0.908  -4.422   4.548  1.00  0.00    -0.201 OA
ATOM     82  O   UNL     1       1.512  -5.011   4.855  1.00  0.00    -0.201 OA
BRANCH  80  83
ATOM     83  N   UNL     1       0.288  -3.639   6.642  1.00  0.00    -0.279 N 
ATOM     84  H   UNL     1      -0.482  -3.914   7.190  1.00  0.00     0.180 HD
BRANCH  83  85
ATOM     85  C   UNL     1       1.372  -2.857   7.181  1.00  0.00     0.062 A 
ATOM     86  C   UNL     1       2.613  -3.466   7.345  1.00  0.00     0.028 A 
ATOM     87  C   UNL     1       1.251  -1.469   7.384  1.00  0.00     0.037 A 
ATOM     88  C   UNL     1       3.724  -2.681   7.624  1.00  0.00     0.002 A 
ATOM     89  C   UNL     1       2.376  -0.699   7.707  1.00  0.00     0.017 A 
ATOM     90  I   UNL     1      -0.580  -0.470   7.202  1.00  0.00    -0.042 I 
ATOM     91  C   UNL     1       3.621  -1.307   7.809  1.00  0.00     0.001 A 
ENDBRANCH  83  85
ENDBRANCH  80  83
ENDBRANCH  79  80
ENDBRANCH  72  74
ENDBRANCH  71  72
ENDBRANCH  70  71
ENDBRANCH   1  70
TORSDOF 17
