REMARK SMILES O=C1NC(=S)/C(=C/c2ccc(-c3ccc(C(=O)OCCOC(=O)c4ccc(-c5c6nc(c(-c7cc(S(=O)(=O)[O-])ccc7F)c7ccc([nH]7)c(-c7cc(S(=O)(=O)[O-])ccc7F)c7nc(c(-c8cc(S(=O)(=O)[O-])ccc8F)c8ccc5[nH]8)C=C7)C=C6)cc4)cc3)o2)S1
REMARK SMILES IDX 20 1 19 2 18 3 16 4 17 5 15 6 12 7 13 8 88 9 14 10 87 11
REMARK SMILES IDX 11 12 8 13 9 14 89 15 10 16 7 17 1 18 2 19 3 20 90 21 4 22
REMARK SMILES IDX 6 24 5 25 21 26 22 27 23 28 24 29 25 30 86 31 26 32 85 33
REMARK SMILES IDX 27 34 28 35 29 36 79 37 30 38 84 39 78 40 80 41 31 42 83 43
REMARK SMILES IDX 77 44 76 45 32 47 64 48 44 49 63 50 45 51 48 52 62 53 81 54
REMARK SMILES IDX 46 55 47 56 61 58 82 59 49 60 33 61 34 62 42 63 35 64 41 65
REMARK SMILES IDX 43 66 40 67 36 68 37 69 38 70 39 71 65 72 66 73 74 74 67 75
REMARK SMILES IDX 73 76 75 77 72 78 68 79 69 80 70 81 71 82 50 83 51 84 59 85
REMARK SMILES IDX 52 86 58 87 60 88 57 89 53 90 54 91 55 92 56 93
REMARK H PARENT 3 23 80 46 48 57
REMARK Flexibility Score: inf
ROOT
ATOM      1  C   UNL     1      10.803 -10.449   4.424  1.00  0.00     0.275 C 
ENDROOT
BRANCH   1   2
ATOM      2  C   UNL     1       9.699 -10.881   3.457  1.00  0.00     0.275 C 
BRANCH   2   3
ATOM      3  O   UNL     1       9.268  -9.794   2.611  1.00  0.00    -0.458 OA
BRANCH   3   4
ATOM      4  C   UNL     1       8.114  -9.191   2.986  1.00  0.00     0.338 C 
ATOM      5  O   UNL     1       7.413  -9.502   3.937  1.00  0.00    -0.246 OA
BRANCH   4   6
ATOM      6  C   UNL     1       7.788  -8.045   2.105  1.00  0.00     0.060 A 
ATOM      7  C   UNL     1       6.809  -5.960   0.499  1.00  0.00     0.017 A 
ATOM      8  C   UNL     1       6.825  -5.825   1.886  1.00  0.00     0.013 A 
ATOM      9  C   UNL     1       7.342  -7.121  -0.083  1.00  0.00     0.013 A 
ATOM     10  C   UNL     1       7.277  -6.875   2.679  1.00  0.00     0.016 A 
ATOM     11  C   UNL     1       7.850  -8.156   0.716  1.00  0.00     0.016 A 
BRANCH   7  12
ATOM     12  C   UNL     1       6.092  -4.977  -0.291  1.00  0.00     0.134 A 
ATOM     13  C   UNL     1       5.488  -2.896  -0.774  1.00  0.00     0.128 A 
ATOM     14  C   UNL     1       4.679  -3.761  -1.504  1.00  0.00     0.051 A 
ATOM     15  O   UNL     1       6.374  -3.667  -0.053  1.00  0.00    -0.457 OA
ATOM     16  C   UNL     1       5.065  -5.083  -1.198  1.00  0.00     0.051 A 
BRANCH  13  17
ATOM     17  C   UNL     1       5.498  -1.474  -0.739  1.00  0.00     0.065 C 
ATOM     18  O   UNL     1       1.055   0.580   0.503  1.00  0.00    -0.261 OA
ATOM     19  C   UNL     1       2.212   0.321   0.207  1.00  0.00     0.289 C 
ATOM     20  N   UNL     1       3.179   1.226  -0.091  1.00  0.00    -0.307 N 
ATOM     21  S   UNL     1       2.846  -1.292   0.009  1.00  0.00    -0.025 SA
ATOM     22  C   UNL     1       4.405   0.769  -0.502  1.00  0.00     0.120 C 
ATOM     23  H   UNL     1       3.003   2.191  -0.013  1.00  0.00     0.171 HD
ATOM     24  C   UNL     1       4.419  -0.725  -0.465  1.00  0.00     0.056 C 
ATOM     25  S   UNL     1       5.574   1.845  -1.008  1.00  0.00    -0.059 S 
ENDBRANCH  13  17
ENDBRANCH   7  12
ENDBRANCH   4   6
ENDBRANCH   3   4
ENDBRANCH   2   3
ENDBRANCH   1   2
BRANCH   1  26
ATOM     26  O   UNL     1      10.294  -9.551   5.427  1.00  0.00    -0.458 OA
BRANCH  26  27
ATOM     27  C   UNL     1      10.579  -8.246   5.212  1.00  0.00     0.338 C 
ATOM     28  O   UNL     1      11.232  -7.777   4.295  1.00  0.00    -0.246 OA
BRANCH  27  29
ATOM     29  C   UNL     1       9.914  -7.401   6.214  1.00  0.00     0.060 A 
ATOM     30  C   UNL     1       8.574  -7.099   6.018  1.00  0.00     0.016 A 
ATOM     31  C   UNL     1      10.639  -6.738   7.199  1.00  0.00     0.016 A 
ATOM     32  C   UNL     1       7.995  -6.021   6.676  1.00  0.00     0.010 A 
ATOM     33  C   UNL     1      10.004  -5.758   7.976  1.00  0.00     0.010 A 
ATOM     34  C   UNL     1       8.686  -5.349   7.692  1.00  0.00    -0.014 A 
BRANCH  34  35
ATOM     35  C   UNL     1       8.036  -4.223   8.430  1.00  0.00     0.031 A 
ATOM     36  C   UNL     1       8.714  -2.877   8.527  1.00  0.00     0.074 A 
ATOM     37  C   UNL     1       6.825  -4.394   9.005  1.00  0.00     0.049 A 
ATOM     38  N   UNL     1       8.412  -1.846   9.276  1.00  0.00    -0.248 NA
ATOM     39  C   UNL     1       9.901  -2.671   7.683  1.00  0.00     0.031 C 
ATOM     40  C   UNL     1       6.021  -5.619   8.944  1.00  0.00     0.029 A 
ATOM     41  N   UNL     1       6.048  -3.537   9.748  1.00  0.00    -0.354 N 
ATOM     42  C   UNL     1       9.399  -0.893   9.037  1.00  0.00     0.074 A 
ATOM     43  C   UNL     1      10.321  -1.481   8.087  1.00  0.00     0.031 C 
ATOM     44  C   UNL     1       4.853  -5.417   9.568  1.00  0.00     0.029 A 
ATOM     45  C   UNL     1       4.871  -4.100  10.188  1.00  0.00     0.049 A 
ATOM     46  H   UNL     1       6.309  -2.608   9.946  1.00  0.00     0.167 HD
ATOM     47  C   UNL     1       9.522   0.353   9.561  1.00  0.00     0.034 A 
ATOM     48  C   UNL     1       3.935  -3.644  11.043  1.00  0.00     0.034 A 
ATOM     49  C   UNL     1       8.568   0.934  10.479  1.00  0.00     0.049 A 
ATOM     50  C   UNL     1       4.134  -2.293  11.676  1.00  0.00     0.074 A 
ATOM     51  C   UNL     1       8.588   2.190  11.062  1.00  0.00     0.029 A 
ATOM     52  N   UNL     1       7.420   0.303  10.944  1.00  0.00    -0.354 N 
ATOM     53  N   UNL     1       5.108  -1.431  11.493  1.00  0.00    -0.248 NA
ATOM     54  C   UNL     1       3.116  -1.859  12.639  1.00  0.00     0.031 C 
ATOM     55  C   UNL     1       7.499   2.289  11.934  1.00  0.00     0.029 A 
ATOM     56  C   UNL     1       6.745   1.131  11.829  1.00  0.00     0.049 A 
ATOM     57  H   UNL     1       7.129  -0.600  10.682  1.00  0.00     0.167 HD
ATOM     58  C   UNL     1       4.802  -0.340  12.300  1.00  0.00     0.074 A 
ATOM     59  C   UNL     1       3.546  -0.646  12.954  1.00  0.00     0.031 C 
ATOM     60  C   UNL     1       5.497   0.811  12.483  1.00  0.00     0.034 A 
BRANCH  47  61
ATOM     61  C   UNL     1      10.760   1.147   9.207  1.00  0.00     0.023 A 
ATOM     62  C   UNL     1      11.042   1.553   7.891  1.00  0.00     0.031 A 
ATOM     63  C   UNL     1      11.688   1.490  10.210  1.00  0.00     0.131 A 
ATOM     64  C   UNL     1      12.249   2.211   7.603  1.00  0.00     0.055 A 
ATOM     65  C   UNL     1      12.845   2.219   9.930  1.00  0.00     0.041 A 
ATOM     66  F   UNL     1      11.488   1.113  11.483  1.00  0.00    -0.206 F 
ATOM     67  C   UNL     1      13.139   2.571   8.617  1.00  0.00     0.022 A 
BRANCH  64  68
ATOM     68  S   UNL     1      12.709   2.461   5.866  1.00  0.00     0.124 S 
ATOM     69  O   UNL     1      12.712   1.090   5.362  1.00  0.00    -0.237 OA
ATOM     70  O   UNL     1      11.637   3.320   5.376  1.00  0.00    -0.237 OA
ATOM     71  O   UNL     1      14.026   3.091   5.947  1.00  0.00    -0.744 OA
ENDBRANCH  64  68
ENDBRANCH  47  61
BRANCH  48  72
ATOM     72  C   UNL     1       2.767  -4.498  11.412  1.00  0.00     0.023 A 
ATOM     73  C   UNL     1       1.454  -4.083  11.143  1.00  0.00     0.031 A 
ATOM     74  C   UNL     1       2.945  -5.726  12.078  1.00  0.00     0.131 A 
ATOM     75  C   UNL     1       0.371  -4.867  11.572  1.00  0.00     0.055 A 
ATOM     76  C   UNL     1       1.867  -6.535  12.440  1.00  0.00     0.041 A 
ATOM     77  F   UNL     1       4.178  -6.170  12.370  1.00  0.00    -0.206 F 
ATOM     78  C   UNL     1       0.569  -6.099  12.200  1.00  0.00     0.022 A 
BRANCH  75  79
ATOM     79  S   UNL     1      -1.307  -4.204  11.387  1.00  0.00     0.124 S 
ATOM     80  O   UNL     1      -1.214  -2.954  12.133  1.00  0.00    -0.237 OA
ATOM     81  O   UNL     1      -1.426  -4.081   9.938  1.00  0.00    -0.237 OA
ATOM     82  O   UNL     1      -2.148  -5.233  11.995  1.00  0.00    -0.744 OA
ENDBRANCH  75  79
ENDBRANCH  48  72
BRANCH  60  83
ATOM     83  C   UNL     1       4.875   1.847  13.388  1.00  0.00     0.023 A 
ATOM     84  C   UNL     1       4.704   1.623  14.765  1.00  0.00     0.031 A 
ATOM     85  C   UNL     1       4.426   3.069  12.856  1.00  0.00     0.131 A 
ATOM     86  C   UNL     1       4.043   2.578  15.551  1.00  0.00     0.055 A 
ATOM     87  C   UNL     1       3.832   4.045  13.656  1.00  0.00     0.041 A 
ATOM     88  F   UNL     1       4.558   3.334  11.546  1.00  0.00    -0.206 F 
ATOM     89  C   UNL     1       3.623   3.796  15.009  1.00  0.00     0.022 A 
BRANCH  86  90
ATOM     90  S   UNL     1       3.642   2.165  17.271  1.00  0.00     0.124 S 
ATOM     91  O   UNL     1       2.826   0.965  17.111  1.00  0.00    -0.237 OA
ATOM     92  O   UNL     1       4.961   1.965  17.860  1.00  0.00    -0.237 OA
ATOM     93  O   UNL     1       2.922   3.345  17.748  1.00  0.00    -0.744 OA
ENDBRANCH  86  90
ENDBRANCH  60  83
ENDBRANCH  34  35
ENDBRANCH  27  29
ENDBRANCH  26  27
ENDBRANCH   1  26
TORSDOF 16
