REMARK SMILES Cc1ccc(CSCC(=O)N[C@H]2C=C[C@@H](C(=O)OCCOC(=O)c3ccc(-c4c5nc(c(-c6cc(S(=O)(=O)[O-])ccc6F)c6ccc([nH]6)c(-c6cc(S(=O)(=O)[O-])ccc6F)c6nc(c(-c7cc(S(=O)(=O)[O-])ccc7F)c7ccc4[nH]7)C=C6)C=C5)cc3)C2)cc1
REMARK SMILES IDX 19 1 18 2 16 3 17 4 15 5 12 6 13 7 87 8 14 9 11 10 9 11
REMARK SMILES IDX 10 12 8 14 7 15 6 16 5 17 1 18 2 19 3 20 89 21 4 22 88 23
REMARK SMILES IDX 20 24 21 25 22 26 23 27 24 28 25 29 86 30 26 31 85 32 27 33
REMARK SMILES IDX 28 34 29 35 79 36 30 37 84 38 78 39 80 40 31 41 83 42 77 43
REMARK SMILES IDX 76 44 32 46 64 47 44 48 63 49 45 50 48 51 62 52 81 53 46 54
REMARK SMILES IDX 47 55 61 57 82 58 49 59 33 60 34 61 42 62 35 63 41 64 43 65
REMARK SMILES IDX 40 66 36 67 37 68 38 69 39 70 65 71 66 72 74 73 67 74 73 75
REMARK SMILES IDX 75 76 72 77 68 78 69 79 70 80 71 81 50 82 51 83 59 84 52 85
REMARK SMILES IDX 58 86 60 87 57 88 53 89 54 90 55 91 56 92
REMARK H PARENT 11 13 80 45 48 56
REMARK Flexibility Score: inf
ROOT
ATOM      1  C   UNL     1      -5.498   1.072   1.559  1.00  0.00     0.274 C 
ENDROOT
BRANCH   1   2
ATOM      2  O   UNL     1      -6.003   1.312   0.238  1.00  0.00    -0.462 OA
BRANCH   2   3
ATOM      3  C   UNL     1      -5.876   0.260  -0.623  1.00  0.00     0.312 C 
ATOM      4  O   UNL     1      -5.265  -0.747  -0.365  1.00  0.00    -0.252 OA
BRANCH   3   5
ATOM      5  C   UNL     1      -6.690   0.468  -1.893  1.00  0.00     0.124 C 
ATOM      6  C   UNL     1      -5.744   1.674  -3.815  1.00  0.00     0.106 C 
ATOM      7  C   UNL     1      -5.691   0.211  -4.022  1.00  0.00    -0.006 C 
ATOM      8  C   UNL     1      -6.498   1.858  -2.491  1.00  0.00     0.048 C 
ATOM      9  C   UNL     1      -6.242  -0.449  -2.996  1.00  0.00    -0.014 C 
BRANCH   6  10
ATOM     10  N   UNL     1      -4.471   2.377  -3.799  1.00  0.00    -0.349 N 
ATOM     11  C   UNL     1      -3.265   2.076  -3.237  1.00  0.00     0.230 C 
ATOM     12  O   UNL     1      -2.692   2.986  -2.627  1.00  0.00    -0.274 OA
ATOM     13  H   UNL     1      -4.482   3.232  -4.285  1.00  0.00     0.164 HD
BRANCH  11  14
ATOM     14  C   UNL     1      -2.559   0.771  -3.529  1.00  0.00     0.169 C 
BRANCH  14  15
ATOM     15  S   UNL     1      -2.833  -0.562  -2.363  1.00  0.00    -0.147 SA
BRANCH  15  16
ATOM     16  C   UNL     1      -2.518   0.223  -0.748  1.00  0.00     0.105 C 
BRANCH  16  17
ATOM     17  C   UNL     1      -1.065   0.215  -0.391  1.00  0.00    -0.038 A 
ATOM     18  C   UNL     1       3.178   0.065   0.229  1.00  0.00     0.044 C 
ATOM     19  C   UNL     1       1.688   0.139   0.104  1.00  0.00    -0.051 A 
ATOM     20  C   UNL     1       0.940  -1.043   0.125  1.00  0.00     0.004 A 
ATOM     21  C   UNL     1       1.040   1.363  -0.106  1.00  0.00     0.004 A 
ATOM     22  C   UNL     1      -0.429  -1.004  -0.112  1.00  0.00     0.005 A 
ATOM     23  C   UNL     1      -0.331   1.402  -0.352  1.00  0.00     0.005 A 
ENDBRANCH  16  17
ENDBRANCH  15  16
ENDBRANCH  14  15
ENDBRANCH  11  14
ENDBRANCH   6  10
ENDBRANCH   3   5
ENDBRANCH   2   3
ENDBRANCH   1   2
BRANCH   1  24
ATOM     24  C   UNL     1      -6.552   1.438   2.608  1.00  0.00     0.275 C 
BRANCH  24  25
ATOM     25  O   UNL     1      -7.947   1.420   2.174  1.00  0.00    -0.458 OA
BRANCH  25  26
ATOM     26  C   UNL     1      -8.655   0.457   1.516  1.00  0.00     0.338 C 
ATOM     27  O   UNL     1      -9.639   0.759   0.845  1.00  0.00    -0.246 OA
BRANCH  26  28
ATOM     28  C   UNL     1      -8.098  -0.911   1.433  1.00  0.00     0.060 A 
ATOM     29  C   UNL     1      -8.273  -1.681   0.267  1.00  0.00     0.016 A 
ATOM     30  C   UNL     1      -7.276  -1.374   2.442  1.00  0.00     0.016 A 
ATOM     31  C   UNL     1      -7.481  -2.816   0.046  1.00  0.00     0.010 A 
ATOM     32  C   UNL     1      -6.379  -2.374   2.155  1.00  0.00     0.010 A 
ATOM     33  C   UNL     1      -6.481  -3.123   0.971  1.00  0.00    -0.014 A 
BRANCH  33  34
ATOM     34  C   UNL     1      -5.617  -4.307   0.917  1.00  0.00     0.031 A 
ATOM     35  C   UNL     1      -4.678  -4.617  -0.179  1.00  0.00     0.074 A 
ATOM     36  C   UNL     1      -5.767  -5.132   1.979  1.00  0.00     0.049 A 
ATOM     37  N   UNL     1      -4.187  -5.788  -0.397  1.00  0.00    -0.248 NA
ATOM     38  C   UNL     1      -4.199  -3.643  -1.146  1.00  0.00     0.031 C 
ATOM     39  C   UNL     1      -5.118  -6.381   2.333  1.00  0.00     0.029 A 
ATOM     40  N   UNL     1      -6.862  -5.075   2.842  1.00  0.00    -0.354 N 
ATOM     41  C   UNL     1      -3.166  -5.681  -1.322  1.00  0.00     0.074 A 
ATOM     42  C   UNL     1      -3.260  -4.331  -1.806  1.00  0.00     0.031 C 
ATOM     43  C   UNL     1      -6.001  -7.114   3.046  1.00  0.00     0.029 A 
ATOM     44  C   UNL     1      -7.267  -6.382   3.058  1.00  0.00     0.049 A 
ATOM     45  H   UNL     1      -7.269  -4.264   3.223  1.00  0.00     0.167 HD
ATOM     46  C   UNL     1      -2.311  -6.737  -1.456  1.00  0.00     0.034 A 
ATOM     47  C   UNL     1      -8.440  -6.761   2.468  1.00  0.00     0.034 A 
ATOM     48  C   UNL     1      -2.902  -7.916  -0.818  1.00  0.00     0.049 A 
ATOM     49  C   UNL     1      -8.192  -7.857   1.461  1.00  0.00     0.074 A 
ATOM     50  C   UNL     1      -2.704  -8.528   0.407  1.00  0.00     0.029 A 
ATOM     51  N   UNL     1      -4.114  -8.396  -1.310  1.00  0.00    -0.354 N 
ATOM     52  N   UNL     1      -7.090  -8.008   0.773  1.00  0.00    -0.248 NA
ATOM     53  C   UNL     1      -9.153  -8.926   1.246  1.00  0.00     0.031 C 
ATOM     54  C   UNL     1      -3.890  -9.258   0.713  1.00  0.00     0.029 A 
ATOM     55  C   UNL     1      -4.773  -9.138  -0.350  1.00  0.00     0.049 A 
ATOM     56  H   UNL     1      -4.455  -8.229  -2.218  1.00  0.00     0.167 HD
ATOM     57  C   UNL     1      -7.136  -9.210   0.110  1.00  0.00     0.074 A 
ATOM     58  C   UNL     1      -8.453  -9.739   0.440  1.00  0.00     0.031 C 
ATOM     59  C   UNL     1      -6.089  -9.708  -0.624  1.00  0.00     0.034 A 
BRANCH  46  60
ATOM     60  C   UNL     1      -0.863  -6.686  -1.927  1.00  0.00     0.023 A 
ATOM     61  C   UNL     1      -0.014  -7.778  -1.617  1.00  0.00     0.031 A 
ATOM     62  C   UNL     1      -0.216  -5.598  -2.549  1.00  0.00     0.131 A 
ATOM     63  C   UNL     1       1.378  -7.733  -1.852  1.00  0.00     0.055 A 
ATOM     64  C   UNL     1       1.168  -5.555  -2.788  1.00  0.00     0.041 A 
ATOM     65  F   UNL     1      -0.874  -4.513  -2.964  1.00  0.00    -0.206 F 
ATOM     66  C   UNL     1       1.976  -6.619  -2.428  1.00  0.00     0.022 A 
BRANCH  63  67
ATOM     67  S   UNL     1       2.415  -9.136  -1.343  1.00  0.00     0.124 S 
ATOM     68  O   UNL     1       2.198  -9.175   0.099  1.00  0.00    -0.237 OA
ATOM     69  O   UNL     1       1.850 -10.238  -2.114  1.00  0.00    -0.237 OA
ATOM     70  O   UNL     1       3.761  -8.730  -1.750  1.00  0.00    -0.744 OA
ENDBRANCH  63  67
ENDBRANCH  46  60
BRANCH  47  71
ATOM     71  C   UNL     1      -9.489  -5.674   2.366  1.00  0.00     0.023 A 
ATOM     72  C   UNL     1      -9.676  -4.816   3.483  1.00  0.00     0.031 A 
ATOM     73  C   UNL     1     -10.111  -5.284   1.173  1.00  0.00     0.131 A 
ATOM     74  C   UNL     1     -10.298  -3.563   3.354  1.00  0.00     0.055 A 
ATOM     75  C   UNL     1     -10.815  -4.067   1.068  1.00  0.00     0.041 A 
ATOM     76  F   UNL     1      -9.994  -6.026   0.062  1.00  0.00    -0.206 F 
ATOM     77  C   UNL     1     -10.878  -3.183   2.147  1.00  0.00     0.022 A 
BRANCH  74  78
ATOM     78  S   UNL     1     -10.085  -2.348   4.695  1.00  0.00     0.124 S 
ATOM     79  O   UNL     1     -11.160  -2.708   5.612  1.00  0.00    -0.237 OA
ATOM     80  O   UNL     1      -8.728  -2.620   5.170  1.00  0.00    -0.237 OA
ATOM     81  O   UNL     1     -10.233  -1.059   4.024  1.00  0.00    -0.744 OA
ENDBRANCH  74  78
ENDBRANCH  47  71
BRANCH  59  82
ATOM     82  C   UNL     1      -6.187 -10.872  -1.591  1.00  0.00     0.023 A 
ATOM     83  C   UNL     1      -7.408 -11.425  -1.992  1.00  0.00     0.031 A 
ATOM     84  C   UNL     1      -5.042 -11.433  -2.208  1.00  0.00     0.131 A 
ATOM     85  C   UNL     1      -7.468 -12.554  -2.823  1.00  0.00     0.055 A 
ATOM     86  C   UNL     1      -5.108 -12.485  -3.129  1.00  0.00     0.041 A 
ATOM     87  F   UNL     1      -3.804 -10.980  -1.961  1.00  0.00    -0.206 F 
ATOM     88  C   UNL     1      -6.327 -13.075  -3.420  1.00  0.00     0.022 A 
BRANCH  85  89
ATOM     89  S   UNL     1      -9.069 -13.376  -3.002  1.00  0.00     0.124 S 
ATOM     90  O   UNL     1      -9.353 -13.777  -1.626  1.00  0.00    -0.237 OA
ATOM     91  O   UNL     1      -9.912 -12.310  -3.534  1.00  0.00    -0.237 OA
ATOM     92  O   UNL     1      -8.792 -14.473  -3.925  1.00  0.00    -0.744 OA
ENDBRANCH  85  89
ENDBRANCH  59  82
ENDBRANCH  33  34
ENDBRANCH  26  28
ENDBRANCH  25  26
ENDBRANCH  24  25
ENDBRANCH   1  24
TORSDOF 19
