REMARK SMILES O=C(CCCNC(=O)N1CC[C@@H](C(=O)OCCOC(=O)c2ccc(-c3c4nc(c(-c5cc(S(=O)(=O)[O-])ccc5F)c5ccc([nH]5)c(-c5cc(S(=O)(=O)[O-])ccc5F)c5nc(c(-c6cc(S(=O)(=O)[O-])ccc6F)c6ccc3[nH]6)C=C5)C=C4)cc2)C1)NC1CC1
REMARK SMILES IDX 15 1 13 2 14 3 12 4 9 5 10 6 84 7 11 8 7 9 6 10 8 12 5 13
REMARK SMILES IDX 4 14 3 15 2 16 1 17 85 18 86 20 87 21 88 22 16 23 17 24
REMARK SMILES IDX 18 25 19 26 20 27 21 28 22 29 83 30 23 31 82 32 24 33 25 34
REMARK SMILES IDX 26 35 76 36 27 37 81 38 75 39 77 40 28 41 80 42 74 43 73 44
REMARK SMILES IDX 29 46 61 47 41 48 60 49 42 50 45 51 59 52 78 53 43 54 44 55
REMARK SMILES IDX 58 57 79 58 46 59 30 60 31 61 39 62 32 63 38 64 40 65 37 66
REMARK SMILES IDX 33 67 34 68 35 69 36 70 62 71 63 72 71 73 64 74 70 75 72 76
REMARK SMILES IDX 69 77 65 78 66 79 67 80 68 81 47 82 48 83 56 84 49 85 55 86
REMARK SMILES IDX 57 87 54 88 50 89 51 90 52 91 53 92
REMARK H PARENT 6 11 85 19 77 45 45 56
REMARK Flexibility Score: inf
ROOT
ATOM      1  O   UNL     1      11.181   4.111  -2.163  1.00  0.00    -0.462 OA
ENDROOT
BRANCH   1   2
ATOM      2  C   UNL     1      10.537   3.063  -1.572  1.00  0.00     0.310 C 
ATOM      3  O   UNL     1      10.903   2.501  -0.551  1.00  0.00    -0.252 OA
BRANCH   2   4
ATOM      4  C   UNL     1       9.274   2.737  -2.339  1.00  0.00     0.120 C 
ATOM      5  N   UNL     1       7.695   1.185  -1.473  1.00  0.00    -0.324 N 
ATOM      6  C   UNL     1       7.521   2.426  -0.747  1.00  0.00     0.122 C 
ATOM      7  C   UNL     1       8.920   1.249  -2.255  1.00  0.00     0.136 C 
ATOM      8  C   UNL     1       8.069   3.454  -1.723  1.00  0.00     0.039 C 
BRANCH   5   9
ATOM      9  C   UNL     1       7.077  -0.004  -1.245  1.00  0.00     0.317 C 
ATOM     10  N   UNL     1       5.808  -0.019  -0.775  1.00  0.00    -0.338 N 
ATOM     11  H   UNL     1       5.570  -0.788  -0.208  1.00  0.00     0.165 HD
ATOM     12  O   UNL     1       7.622  -1.084  -1.479  1.00  0.00    -0.249 OA
BRANCH  10  13
ATOM     13  C   UNL     1       4.749   0.953  -1.000  1.00  0.00     0.118 C 
BRANCH  13  14
ATOM     14  C   UNL     1       3.590   0.368  -1.808  1.00  0.00     0.031 C 
BRANCH  14  15
ATOM     15  C   UNL     1       2.814  -0.742  -1.105  1.00  0.00     0.102 C 
BRANCH  15  16
ATOM     16  C   UNL     1       1.971  -0.191   0.026  1.00  0.00     0.220 C 
ATOM     17  O   UNL     1       0.855   0.267  -0.197  1.00  0.00    -0.275 OA
ATOM     18  N   UNL     1       2.609  -0.230   1.251  1.00  0.00    -0.353 N 
ATOM     19  H   UNL     1       3.501  -0.646   1.271  1.00  0.00     0.163 HD
BRANCH  18  20
ATOM     20  C   UNL     1       2.108   0.272   2.497  1.00  0.00     0.082 C 
ATOM     21  C   UNL     1       1.234   1.487   2.612  1.00  0.00     0.027 C 
ATOM     22  C   UNL     1       0.675   0.124   2.917  1.00  0.00     0.027 C 
ENDBRANCH  18  20
ENDBRANCH  15  16
ENDBRANCH  14  15
ENDBRANCH  13  14
ENDBRANCH  10  13
ENDBRANCH   5   9
ENDBRANCH   2   4
ENDBRANCH   1   2
BRANCH   1  23
ATOM     23  C   UNL     1      12.380   4.580  -1.513  1.00  0.00     0.274 C 
BRANCH  23  24
ATOM     24  C   UNL     1      12.100   5.891  -0.786  1.00  0.00     0.275 C 
BRANCH  24  25
ATOM     25  O   UNL     1      11.209   5.627   0.308  1.00  0.00    -0.458 OA
BRANCH  25  26
ATOM     26  C   UNL     1      10.286   6.582   0.558  1.00  0.00     0.338 C 
ATOM     27  O   UNL     1      10.180   7.664  -0.001  1.00  0.00    -0.246 OA
BRANCH  26  28
ATOM     28  C   UNL     1       9.382   6.123   1.631  1.00  0.00     0.060 A 
ATOM     29  C   UNL     1       8.844   4.838   1.588  1.00  0.00     0.016 A 
ATOM     30  C   UNL     1       8.980   7.008   2.628  1.00  0.00     0.016 A 
ATOM     31  C   UNL     1       7.817   4.475   2.461  1.00  0.00     0.010 A 
ATOM     32  C   UNL     1       8.034   6.600   3.576  1.00  0.00     0.010 A 
ATOM     33  C   UNL     1       7.398   5.347   3.475  1.00  0.00    -0.014 A 
BRANCH  33  34
ATOM     34  C   UNL     1       6.250   5.002   4.370  1.00  0.00     0.031 A 
ATOM     35  C   UNL     1       5.067   5.938   4.462  1.00  0.00     0.074 A 
ATOM     36  C   UNL     1       6.229   3.859   5.088  1.00  0.00     0.049 A 
ATOM     37  N   UNL     1       4.089   5.966   5.331  1.00  0.00    -0.248 NA
ATOM     38  C   UNL     1       4.995   6.997   3.445  1.00  0.00     0.031 C 
ATOM     39  C   UNL     1       7.251   2.813   5.057  1.00  0.00     0.029 A 
ATOM     40  N   UNL     1       5.300   3.383   5.984  1.00  0.00    -0.354 N 
ATOM     41  C   UNL     1       3.322   7.083   5.007  1.00  0.00     0.074 A 
ATOM     42  C   UNL     1       3.964   7.711   3.870  1.00  0.00     0.031 C 
ATOM     43  C   UNL     1       6.874   1.804   5.858  1.00  0.00     0.029 A 
ATOM     44  C   UNL     1       5.640   2.172   6.542  1.00  0.00     0.049 A 
ATOM     45  H   UNL     1       4.470   3.864   6.205  1.00  0.00     0.167 HD
ATOM     46  C   UNL     1       2.191   7.543   5.600  1.00  0.00     0.034 A 
ATOM     47  C   UNL     1       5.060   1.460   7.529  1.00  0.00     0.034 A 
ATOM     48  C   UNL     1       1.531   6.883   6.701  1.00  0.00     0.049 A 
ATOM     49  C   UNL     1       3.840   2.015   8.217  1.00  0.00     0.074 A 
ATOM     50  C   UNL     1       0.392   7.270   7.387  1.00  0.00     0.029 A 
ATOM     51  N   UNL     1       1.939   5.681   7.266  1.00  0.00    -0.354 N 
ATOM     52  N   UNL     1       3.191   3.130   7.978  1.00  0.00    -0.248 NA
ATOM     53  C   UNL     1       3.288   1.221   9.323  1.00  0.00     0.031 C 
ATOM     54  C   UNL     1       0.141   6.331   8.395  1.00  0.00     0.029 A 
ATOM     55  C   UNL     1       1.084   5.322   8.297  1.00  0.00     0.049 A 
ATOM     56  H   UNL     1       2.723   5.161   6.977  1.00  0.00     0.167 HD
ATOM     57  C   UNL     1       2.144   3.162   8.895  1.00  0.00     0.074 A 
ATOM     58  C   UNL     1       2.237   1.946   9.677  1.00  0.00     0.031 C 
ATOM     59  C   UNL     1       1.192   4.112   9.077  1.00  0.00     0.034 A 
BRANCH  46  60
ATOM     60  C   UNL     1       1.640   8.861   5.104  1.00  0.00     0.023 A 
ATOM     61  C   UNL     1       1.157   9.023   3.794  1.00  0.00     0.031 A 
ATOM     62  C   UNL     1       1.657   9.991   5.942  1.00  0.00     0.131 A 
ATOM     63  C   UNL     1       0.798  10.300   3.334  1.00  0.00     0.055 A 
ATOM     64  C   UNL     1       1.214  11.241   5.506  1.00  0.00     0.041 A 
ATOM     65  F   UNL     1       2.126   9.904   7.197  1.00  0.00    -0.206 F 
ATOM     66  C   UNL     1       0.800  11.405   4.188  1.00  0.00     0.022 A 
BRANCH  63  67
ATOM     67  S   UNL     1       0.499  10.527   1.559  1.00  0.00     0.124 S 
ATOM     68  O   UNL     1       1.754  10.046   0.985  1.00  0.00    -0.237 OA
ATOM     69  O   UNL     1      -0.672   9.690   1.328  1.00  0.00    -0.237 OA
ATOM     70  O   UNL     1       0.275  11.965   1.430  1.00  0.00    -0.744 OA
ENDBRANCH  63  67
ENDBRANCH  46  60
BRANCH  47  71
ATOM     71  C   UNL     1       5.660   0.174   7.985  1.00  0.00     0.023 A 
ATOM     72  C   UNL     1       4.965  -1.037   7.840  1.00  0.00     0.031 A 
ATOM     73  C   UNL     1       6.918   0.142   8.615  1.00  0.00     0.131 A 
ATOM     74  C   UNL     1       5.516  -2.223   8.349  1.00  0.00     0.055 A 
ATOM     75  C   UNL     1       7.484  -1.048   9.071  1.00  0.00     0.041 A 
ATOM     76  F   UNL     1       7.622   1.273   8.782  1.00  0.00    -0.206 F 
ATOM     77  C   UNL     1       6.777  -2.240   8.949  1.00  0.00     0.022 A 
BRANCH  74  78
ATOM     78  S   UNL     1       4.525  -3.740   8.273  1.00  0.00     0.124 S 
ATOM     79  O   UNL     1       3.359  -3.372   9.068  1.00  0.00    -0.237 OA
ATOM     80  O   UNL     1       4.303  -3.884   6.838  1.00  0.00    -0.237 OA
ATOM     81  O   UNL     1       5.399  -4.747   8.871  1.00  0.00    -0.744 OA
ENDBRANCH  74  78
ENDBRANCH  47  71
BRANCH  59  82
ATOM     82  C   UNL     1       0.148   3.837  10.130  1.00  0.00     0.023 A 
ATOM     83  C   UNL     1       0.462   3.829  11.500  1.00  0.00     0.031 A 
ATOM     84  C   UNL     1      -1.175   3.549   9.751  1.00  0.00     0.131 A 
ATOM     85  C   UNL     1      -0.522   3.485  12.440  1.00  0.00     0.055 A 
ATOM     86  C   UNL     1      -2.162   3.259  10.694  1.00  0.00     0.041 A 
ATOM     87  F   UNL     1      -1.528   3.541   8.456  1.00  0.00    -0.206 F 
ATOM     88  C   UNL     1      -1.835   3.212  12.046  1.00  0.00     0.022 A 
BRANCH  85  89
ATOM     89  S   UNL     1      -0.043   3.310  14.181  1.00  0.00     0.124 S 
ATOM     90  O   UNL     1       1.000   2.292  14.109  1.00  0.00    -0.237 OA
ATOM     91  O   UNL     1       0.403   4.658  14.519  1.00  0.00    -0.237 OA
ATOM     92  O   UNL     1      -1.279   2.885  14.836  1.00  0.00    -0.744 OA
ENDBRANCH  85  89
ENDBRANCH  59  82
ENDBRANCH  33  34
ENDBRANCH  26  28
ENDBRANCH  25  26
ENDBRANCH  24  25
ENDBRANCH  23  24
ENDBRANCH   1  23
TORSDOF 20
