REMARK SMILES CCN(CC)c1ccc([C@@H]2[NH2+][C@H](C(=O)OCCOC(=O)c3ccc(-c4c5nc(c(-c6cc(S(=O)(=O)[O-])ccc6F)c6ccc([nH]6)c(-c6cc(S(=O)(=O)[O-])ccc6F)c6nc(c(-c7cc(S(=O)(=O)[O-])ccc7F)c7ccc4[nH]7)C=C6)C=C5)cc3)Cc3c2[nH]c2ccccc32)cc1
REMARK SMILES IDX 16 1 15 2 13 3 14 4 12 5 10 6 11 7 86 8 85 11 87 12 84 13
REMARK SMILES IDX 93 14 88 15 92 17 89 18 91 19 90 20 9 21 6 22 7 23 95 24
REMARK SMILES IDX 8 25 94 26 3 27 2 28 1 29 4 30 5 31 17 32 18 33 19 34 20 35
REMARK SMILES IDX 21 36 22 37 83 38 23 39 82 40 24 41 25 42 26 43 76 44 27 45
REMARK SMILES IDX 81 46 75 47 77 48 28 49 80 50 74 51 73 52 29 54 61 55 41 56
REMARK SMILES IDX 60 57 42 58 45 59 59 60 78 61 43 62 44 63 58 65 79 66 46 67
REMARK SMILES IDX 30 68 31 69 39 70 32 71 38 72 40 73 37 74 33 75 34 76 35 77
REMARK SMILES IDX 36 78 62 79 63 80 71 81 64 82 70 83 72 84 69 85 65 86 66 87
REMARK SMILES IDX 67 88 68 89 47 90 48 91 56 92 49 93 55 94 57 95 54 96 50 97
REMARK SMILES IDX 51 98 52 99 53 100
REMARK H PARENT 11 9 11 10 87 16 77 53 45 64
REMARK Flexibility Score: inf
ROOT
ATOM      1  C   UNL     1       5.228  -3.139  -2.223  1.00  0.00     0.274 C 
ENDROOT
BRANCH   1   2
ATOM      2  O   UNL     1       5.765  -2.671  -0.979  1.00  0.00    -0.458 OA
BRANCH   2   3
ATOM      3  C   UNL     1       7.127  -2.737  -0.866  1.00  0.00     0.365 C 
ATOM      4  O   UNL     1       7.892  -3.066  -1.764  1.00  0.00    -0.245 OA
BRANCH   3   5
ATOM      5  C   UNL     1       7.553  -2.557   0.586  1.00  0.00     0.298 C 
ATOM      6  C   UNL     1       6.519  -1.413   2.647  1.00  0.00     0.262 C 
ATOM      7  N   UNL     1       6.883  -1.371   1.200  1.00  0.00    -0.323 N 
ATOM      8  C   UNL     1       6.854  -2.759   3.205  1.00  0.00     0.083 A 
ATOM      9  H   UNL     1       7.509  -0.576   1.073  1.00  0.00     0.347 HD
ATOM     10  H   UNL     1       5.983  -1.326   0.724  1.00  0.00     0.347 HD
ATOM     11  C   UNL     1       6.827  -3.942   2.511  1.00  0.00    -0.006 A 
ATOM     12  N   UNL     1       7.171  -3.182   4.472  1.00  0.00    -0.353 N 
ATOM     13  C   UNL     1       7.359  -3.983   1.155  1.00  0.00     0.115 C 
ATOM     14  C   UNL     1       6.042  -4.738   3.358  1.00  0.00     0.003 A 
ATOM     15  C   UNL     1       6.556  -4.420   4.620  1.00  0.00     0.046 A 
ATOM     16  H   UNL     1       7.719  -2.707   5.137  1.00  0.00     0.166 HD
ATOM     17  C   UNL     1       4.975  -5.648   3.270  1.00  0.00     0.010 A 
ATOM     18  C   UNL     1       6.321  -5.208   5.742  1.00  0.00     0.026 A 
ATOM     19  C   UNL     1       4.540  -6.262   4.452  1.00  0.00     0.001 A 
ATOM     20  C   UNL     1       5.264  -6.118   5.639  1.00  0.00     0.002 A 
BRANCH   6  21
ATOM     21  C   UNL     1       4.986  -1.117   2.764  1.00  0.00     0.016 A 
ATOM     22  C   UNL     1       2.135  -1.103   2.345  1.00  0.00     0.037 A 
ATOM     23  C   UNL     1       2.729  -1.877   3.341  1.00  0.00     0.026 A 
ATOM     24  C   UNL     1       2.981  -0.158   1.750  1.00  0.00     0.026 A 
ATOM     25  C   UNL     1       4.117  -1.880   3.554  1.00  0.00     0.012 A 
ATOM     26  C   UNL     1       4.372  -0.144   1.964  1.00  0.00     0.012 A 
BRANCH  22  27
ATOM     27  N   UNL     1       0.810  -1.272   1.949  1.00  0.00    -0.372 N 
BRANCH  27  28
ATOM     28  C   UNL     1       0.503  -1.379   0.507  1.00  0.00     0.113 C 
ATOM     29  C   UNL     1       0.435  -0.042  -0.213  1.00  0.00     0.027 C 
ENDBRANCH  27  28
BRANCH  27  30
ATOM     30  C   UNL     1      -0.212  -1.786   2.872  1.00  0.00     0.113 C 
ATOM     31  C   UNL     1      -0.291  -3.311   2.922  1.00  0.00     0.027 C 
ENDBRANCH  27  30
ENDBRANCH  22  27
ENDBRANCH   6  21
ENDBRANCH   3   5
ENDBRANCH   2   3
ENDBRANCH   1   2
BRANCH   1  32
ATOM     32  C   UNL     1       4.987  -2.005  -3.218  1.00  0.00     0.275 C 
BRANCH  32  33
ATOM     33  O   UNL     1       6.207  -1.361  -3.617  1.00  0.00    -0.458 OA
BRANCH  33  34
ATOM     34  C   UNL     1       6.615  -0.349  -2.816  1.00  0.00     0.338 C 
ATOM     35  O   UNL     1       6.018   0.095  -1.836  1.00  0.00    -0.246 OA
BRANCH  34  36
ATOM     36  C   UNL     1       7.968   0.076  -3.205  1.00  0.00     0.060 A 
ATOM     37  C   UNL     1       8.960   0.163  -2.221  1.00  0.00     0.016 A 
ATOM     38  C   UNL     1       8.250   0.423  -4.528  1.00  0.00     0.016 A 
ATOM     39  C   UNL     1      10.241   0.602  -2.558  1.00  0.00     0.010 A 
ATOM     40  C   UNL     1       9.532   0.866  -4.862  1.00  0.00     0.010 A 
ATOM     41  C   UNL     1      10.533   0.969  -3.879  1.00  0.00    -0.014 A 
BRANCH  41  42
ATOM     42  C   UNL     1      11.857   1.529  -4.247  1.00  0.00     0.031 A 
ATOM     43  C   UNL     1      11.972   2.995  -4.556  1.00  0.00     0.074 A 
ATOM     44  C   UNL     1      12.933   0.727  -4.350  1.00  0.00     0.049 A 
ATOM     45  N   UNL     1      12.976   3.662  -5.063  1.00  0.00    -0.248 NA
ATOM     46  C   UNL     1      10.787   3.816  -4.264  1.00  0.00     0.031 C 
ATOM     47  C   UNL     1      12.954  -0.700  -4.030  1.00  0.00     0.029 A 
ATOM     48  N   UNL     1      14.211   0.994  -4.777  1.00  0.00    -0.354 N 
ATOM     49  C   UNL     1      12.541   4.978  -5.171  1.00  0.00     0.074 A 
ATOM     50  C   UNL     1      11.171   5.006  -4.702  1.00  0.00     0.031 C 
ATOM     51  C   UNL     1      14.179  -1.186  -4.287  1.00  0.00     0.029 A 
ATOM     52  C   UNL     1      15.011  -0.123  -4.847  1.00  0.00     0.049 A 
ATOM     53  H   UNL     1      14.524   1.897  -5.010  1.00  0.00     0.167 HD
ATOM     54  C   UNL     1      13.225   6.060  -5.619  1.00  0.00     0.034 A 
ATOM     55  C   UNL     1      16.254  -0.280  -5.349  1.00  0.00     0.034 A 
ATOM     56  C   UNL     1      14.589   6.005  -6.088  1.00  0.00     0.049 A 
ATOM     57  C   UNL     1      16.962   0.918  -5.936  1.00  0.00     0.074 A 
ATOM     58  C   UNL     1      15.384   7.042  -6.547  1.00  0.00     0.029 A 
ATOM     59  N   UNL     1      15.357   4.850  -6.174  1.00  0.00    -0.354 N 
ATOM     60  N   UNL     1      16.541   2.158  -6.041  1.00  0.00    -0.248 NA
ATOM     61  C   UNL     1      18.312   0.698  -6.473  1.00  0.00     0.031 C 
ATOM     62  C   UNL     1      16.598   6.503  -6.985  1.00  0.00     0.029 A 
ATOM     63  C   UNL     1      16.600   5.144  -6.713  1.00  0.00     0.049 A 
ATOM     64  H   UNL     1      15.061   3.954  -5.893  1.00  0.00     0.167 HD
ATOM     65  C   UNL     1      17.590   2.869  -6.618  1.00  0.00     0.074 A 
ATOM     66  C   UNL     1      18.663   1.923  -6.839  1.00  0.00     0.031 C 
ATOM     67  C   UNL     1      17.664   4.189  -6.926  1.00  0.00     0.034 A 
BRANCH  54  68
ATOM     68  C   UNL     1      12.488   7.377  -5.678  1.00  0.00     0.023 A 
ATOM     69  C   UNL     1      12.001   8.009  -4.521  1.00  0.00     0.031 A 
ATOM     70  C   UNL     1      12.251   8.000  -6.917  1.00  0.00     0.131 A 
ATOM     71  C   UNL     1      11.243   9.185  -4.633  1.00  0.00     0.055 A 
ATOM     72  C   UNL     1      11.569   9.213  -7.014  1.00  0.00     0.041 A 
ATOM     73  F   UNL     1      12.671   7.433  -8.059  1.00  0.00    -0.206 F 
ATOM     74  C   UNL     1      11.046   9.806  -5.869  1.00  0.00     0.022 A 
BRANCH  71  75
ATOM     75  S   UNL     1      10.392   9.812  -3.159  1.00  0.00     0.124 S 
ATOM     76  O   UNL     1       9.565   8.666  -2.785  1.00  0.00    -0.237 OA
ATOM     77  O   UNL     1      11.500  10.119  -2.262  1.00  0.00    -0.237 OA
ATOM     78  O   UNL     1       9.651  10.969  -3.656  1.00  0.00    -0.744 OA
ENDBRANCH  71  75
ENDBRANCH  54  68
BRANCH  55  79
ATOM     79  C   UNL     1      16.893  -1.628  -5.373  1.00  0.00     0.023 A 
ATOM     80  C   UNL     1      18.079  -1.881  -4.666  1.00  0.00     0.031 A 
ATOM     81  C   UNL     1      16.355  -2.672  -6.149  1.00  0.00     0.131 A 
ATOM     82  C   UNL     1      18.711  -3.130  -4.783  1.00  0.00     0.055 A 
ATOM     83  C   UNL     1      16.955  -3.931  -6.213  1.00  0.00     0.041 A 
ATOM     84  F   UNL     1      15.227  -2.484  -6.852  1.00  0.00    -0.206 F 
ATOM     85  C   UNL     1      18.148  -4.161  -5.538  1.00  0.00     0.022 A 
BRANCH  82  86
ATOM     86  S   UNL     1      20.337  -3.355  -4.011  1.00  0.00     0.124 S 
ATOM     87  O   UNL     1      21.117  -2.301  -4.651  1.00  0.00    -0.237 OA
ATOM     88  O   UNL     1      20.032  -3.160  -2.598  1.00  0.00    -0.237 OA
ATOM     89  O   UNL     1      20.706  -4.718  -4.385  1.00  0.00    -0.744 OA
ENDBRANCH  82  86
ENDBRANCH  55  79
BRANCH  67  90
ATOM     90  C   UNL     1      18.973   4.707  -7.471  1.00  0.00     0.023 A 
ATOM     91  C   UNL     1      19.448   4.354  -8.746  1.00  0.00     0.031 A 
ATOM     92  C   UNL     1      19.743   5.601  -6.703  1.00  0.00     0.131 A 
ATOM     93  C   UNL     1      20.674   4.865  -9.201  1.00  0.00     0.055 A 
ATOM     94  C   UNL     1      20.931   6.151  -7.184  1.00  0.00     0.041 A 
ATOM     95  F   UNL     1      19.339   5.970  -5.477  1.00  0.00    -0.206 F 
ATOM     96  C   UNL     1      21.407   5.777  -8.436  1.00  0.00     0.022 A 
BRANCH  93  97
ATOM     97  S   UNL     1      21.336   4.277 -10.784  1.00  0.00     0.124 S 
ATOM     98  O   UNL     1      21.478   2.845 -10.540  1.00  0.00    -0.237 OA
ATOM     99  O   UNL     1      20.289   4.663 -11.725  1.00  0.00    -0.237 OA
ATOM    100  O   UNL     1      22.593   5.009 -10.924  1.00  0.00    -0.744 OA
ENDBRANCH  93  97
ENDBRANCH  67  90
ENDBRANCH  41  42
ENDBRANCH  34  36
ENDBRANCH  33  34
ENDBRANCH  32  33
ENDBRANCH   1  32
TORSDOF 18
