REMARK SMILES NC(=O)[C@@H]1CCCCN1c1cncc(C(=O)OCCOC(=O)c2ccc(-c3c4nc(c(-c5cc(S(=O)(=O)[O-])ccc5F)c5ccc([nH]5)c(-c5cc(S(=O)(=O)[O-])ccc5F)c5nc(c(-c6cc(S(=O)(=O)[O-])ccc6F)c6ccc3[nH]6)C=C5)C=C4)cc2)n1
REMARK SMILES IDX 19 1 18 2 17 3 15 4 16 5 14 6 10 7 11 8 86 9 12 10 13 11
REMARK SMILES IDX 9 12 4 13 5 14 6 15 8 16 7 17 2 18 1 19 3 22 20 23 21 24
REMARK SMILES IDX 22 25 23 26 24 27 85 28 25 29 84 30 26 31 27 32 28 33 78 34
REMARK SMILES IDX 29 35 83 36 77 37 79 38 30 39 82 40 76 41 75 42 31 44 63 45
REMARK SMILES IDX 43 46 62 47 44 48 47 49 61 50 80 51 45 52 46 53 60 55 81 56
REMARK SMILES IDX 48 57 32 58 33 59 41 60 34 61 40 62 42 63 39 64 35 65 36 66
REMARK SMILES IDX 37 67 38 68 64 69 65 70 73 71 66 72 72 73 74 74 71 75 67 76
REMARK SMILES IDX 68 77 69 78 70 79 49 80 50 81 58 82 51 83 57 84 59 85 56 86
REMARK SMILES IDX 52 87 53 88 54 89 55 90
REMARK H PARENT 1 20 1 21 79 43 47 54
REMARK Flexibility Score: inf
ROOT
ATOM      1  C   UNL     1      -4.465  -1.050   5.599  1.00  0.00     0.275 C 
ENDROOT
BRANCH   1   2
ATOM      2  C   UNL     1      -4.152  -0.748   4.134  1.00  0.00     0.275 C 
BRANCH   2   3
ATOM      3  O   UNL     1      -2.772  -1.029   3.821  1.00  0.00    -0.457 OA
BRANCH   3   4
ATOM      4  C   UNL     1      -1.947   0.052   3.776  1.00  0.00     0.358 C 
ATOM      5  O   UNL     1      -2.270   1.208   3.978  1.00  0.00    -0.244 OA
BRANCH   4   6
ATOM      6  C   UNL     1      -0.534  -0.353   3.571  1.00  0.00     0.169 A 
ATOM      7  C   UNL     1       1.079  -1.713   2.658  1.00  0.00     0.148 A 
ATOM      8  C   UNL     1       2.036  -0.996   3.396  1.00  0.00     0.157 A 
ATOM      9  N   UNL     1      -0.234  -1.414   2.771  1.00  0.00    -0.220 NA
ATOM     10  N   UNL     1       1.753   0.083   4.157  1.00  0.00    -0.258 NA
ATOM     11  C   UNL     1       0.444   0.406   4.199  1.00  0.00     0.147 A 
BRANCH   7  12
ATOM     12  N   UNL     1       1.514  -2.597   1.685  1.00  0.00    -0.343 N 
ATOM     13  C   UNL     1       0.865  -2.664   0.355  1.00  0.00     0.172 C 
ATOM     14  C   UNL     1      -0.063  -3.876   0.275  1.00  0.00     0.035 C 
ATOM     15  C   UNL     1       0.689  -5.151   0.657  1.00  0.00     0.004 C 
ATOM     16  C   UNL     1       2.226  -3.792   2.134  1.00  0.00     0.119 C 
ATOM     17  C   UNL     1       1.313  -5.017   2.046  1.00  0.00     0.022 C 
BRANCH  13  18
ATOM     18  C   UNL     1       0.183  -1.359  -0.121  1.00  0.00     0.240 C 
ATOM     19  N   UNL     1       0.942  -0.222  -0.014  1.00  0.00    -0.368 N 
ATOM     20  H   UNL     1       0.572   0.645  -0.298  1.00  0.00     0.159 HD
ATOM     21  H   UNL     1       1.856  -0.273   0.348  1.00  0.00     0.159 HD
ATOM     22  O   UNL     1      -0.912  -1.312  -0.678  1.00  0.00    -0.273 OA
ENDBRANCH  13  18
ENDBRANCH   7  12
ENDBRANCH   4   6
ENDBRANCH   3   4
ENDBRANCH   2   3
ENDBRANCH   1   2
BRANCH   1  23
ATOM     23  O   UNL     1      -3.738  -0.151   6.457  1.00  0.00    -0.458 OA
BRANCH  23  24
ATOM     24  C   UNL     1      -2.933  -0.737   7.370  1.00  0.00     0.338 C 
ATOM     25  O   UNL     1      -2.794  -1.938   7.572  1.00  0.00    -0.246 OA
BRANCH  24  26
ATOM     26  C   UNL     1      -2.170   0.282   8.106  1.00  0.00     0.060 A 
ATOM     27  C   UNL     1      -1.213   1.027   7.423  1.00  0.00     0.016 A 
ATOM     28  C   UNL     1      -2.267   0.377   9.492  1.00  0.00     0.016 A 
ATOM     29  C   UNL     1      -0.269   1.773   8.126  1.00  0.00     0.010 A 
ATOM     30  C   UNL     1      -1.381   1.209  10.190  1.00  0.00     0.010 A 
ATOM     31  C   UNL     1      -0.330   1.868   9.523  1.00  0.00    -0.014 A 
BRANCH  31  32
ATOM     32  C   UNL     1       0.759   2.553  10.287  1.00  0.00     0.031 A 
ATOM     33  C   UNL     1       1.552   1.781  11.316  1.00  0.00     0.074 A 
ATOM     34  C   UNL     1       1.080   3.841  10.046  1.00  0.00     0.049 A 
ATOM     35  N   UNL     1       2.421   2.212  12.198  1.00  0.00    -0.248 NA
ATOM     36  C   UNL     1       1.315   0.332  11.374  1.00  0.00     0.031 C 
ATOM     37  C   UNL     1       0.450   4.699   9.043  1.00  0.00     0.029 A 
ATOM     38  N   UNL     1       2.035   4.649  10.616  1.00  0.00    -0.354 N 
ATOM     39  C   UNL     1       2.775   1.101  12.961  1.00  0.00     0.074 A 
ATOM     40  C   UNL     1       2.014  -0.017  12.443  1.00  0.00     0.031 C 
ATOM     41  C   UNL     1       1.071   5.889   9.028  1.00  0.00     0.029 A 
ATOM     42  C   UNL     1       2.081   5.915  10.081  1.00  0.00     0.049 A 
ATOM     43  H   UNL     1       2.631   4.349  11.340  1.00  0.00     0.167 HD
ATOM     44  C   UNL     1       3.652   1.020  13.995  1.00  0.00     0.034 A 
ATOM     45  C   UNL     1       2.824   6.989  10.417  1.00  0.00     0.034 A 
ATOM     46  C   UNL     1       4.460   2.126  14.454  1.00  0.00     0.049 A 
ATOM     47  C   UNL     1       3.776   6.886  11.580  1.00  0.00     0.074 A 
ATOM     48  C   UNL     1       5.397   2.147  15.473  1.00  0.00     0.029 A 
ATOM     49  N   UNL     1       4.439   3.406  13.914  1.00  0.00    -0.354 N 
ATOM     50  N   UNL     1       4.040   5.852  12.345  1.00  0.00    -0.248 NA
ATOM     51  C   UNL     1       4.518   8.104  11.934  1.00  0.00     0.031 C 
ATOM     52  C   UNL     1       5.902   3.449  15.585  1.00  0.00     0.029 A 
ATOM     53  C   UNL     1       5.330   4.226  14.591  1.00  0.00     0.049 A 
ATOM     54  H   UNL     1       3.873   3.690  13.160  1.00  0.00     0.167 HD
ATOM     55  C   UNL     1       4.993   6.292  13.260  1.00  0.00     0.074 A 
ATOM     56  C   UNL     1       5.268   7.678  12.940  1.00  0.00     0.031 C 
ATOM     57  C   UNL     1       5.586   5.612  14.273  1.00  0.00     0.034 A 
BRANCH  44  58
ATOM     58  C   UNL     1       3.726  -0.294  14.740  1.00  0.00     0.023 A 
ATOM     59  C   UNL     1       4.156  -1.485  14.129  1.00  0.00     0.031 A 
ATOM     60  C   UNL     1       3.299  -0.363  16.079  1.00  0.00     0.131 A 
ATOM     61  C   UNL     1       4.061  -2.702  14.823  1.00  0.00     0.055 A 
ATOM     62  C   UNL     1       3.292  -1.563  16.793  1.00  0.00     0.041 A 
ATOM     63  F   UNL     1       2.859   0.736  16.714  1.00  0.00    -0.206 F 
ATOM     64  C   UNL     1       3.655  -2.746  16.159  1.00  0.00     0.022 A 
BRANCH  61  65
ATOM     65  S   UNL     1       4.310  -4.247  13.903  1.00  0.00     0.124 S 
ATOM     66  O   UNL     1       3.324  -4.116  12.833  1.00  0.00    -0.237 OA
ATOM     67  O   UNL     1       5.708  -4.151  13.499  1.00  0.00    -0.237 OA
ATOM     68  O   UNL     1       4.014  -5.285  14.888  1.00  0.00    -0.744 OA
ENDBRANCH  61  65
ENDBRANCH  44  58
BRANCH  45  69
ATOM     69  C   UNL     1       2.668   8.276   9.680  1.00  0.00     0.023 A 
ATOM     70  C   UNL     1       3.725   8.810   8.926  1.00  0.00     0.031 A 
ATOM     71  C   UNL     1       1.469   9.008   9.748  1.00  0.00     0.131 A 
ATOM     72  C   UNL     1       3.574  10.054   8.294  1.00  0.00     0.055 A 
ATOM     73  C   UNL     1       1.306  10.220   9.076  1.00  0.00     0.041 A 
ATOM     74  F   UNL     1       0.429   8.544  10.458  1.00  0.00    -0.206 F 
ATOM     75  C   UNL     1       2.367  10.755   8.351  1.00  0.00     0.022 A 
BRANCH  72  76
ATOM     76  S   UNL     1       5.003  10.779   7.442  1.00  0.00     0.124 S 
ATOM     77  O   UNL     1       5.962  10.914   8.533  1.00  0.00    -0.237 OA
ATOM     78  O   UNL     1       5.308   9.763   6.441  1.00  0.00    -0.237 OA
ATOM     79  O   UNL     1       4.480  12.036   6.911  1.00  0.00    -0.744 OA
ENDBRANCH  72  76
ENDBRANCH  45  69
BRANCH  57  80
ATOM     80  C   UNL     1       6.628   6.355  15.073  1.00  0.00     0.023 A 
ATOM     81  C   UNL     1       6.288   7.429  15.915  1.00  0.00     0.031 A 
ATOM     82  C   UNL     1       7.985   6.005  14.960  1.00  0.00     0.131 A 
ATOM     83  C   UNL     1       7.299   8.152  16.566  1.00  0.00     0.055 A 
ATOM     84  C   UNL     1       8.981   6.694  15.653  1.00  0.00     0.041 A 
ATOM     85  F   UNL     1       8.365   4.990  14.168  1.00  0.00    -0.206 F 
ATOM     86  C   UNL     1       8.642   7.784  16.450  1.00  0.00     0.022 A 
BRANCH  83  87
ATOM     87  S   UNL     1       6.846   9.647  17.490  1.00  0.00     0.124 S 
ATOM     88  O   UNL     1       6.179  10.447  16.468  1.00  0.00    -0.237 OA
ATOM     89  O   UNL     1       5.988   9.114  18.543  1.00  0.00    -0.237 OA
ATOM     90  O   UNL     1       8.132  10.172  17.946  1.00  0.00    -0.744 OA
ENDBRANCH  83  87
ENDBRANCH  57  80
ENDBRANCH  31  32
ENDBRANCH  24  26
ENDBRANCH  23  24
ENDBRANCH   1  23
TORSDOF 16
