REMARK SMILES O=C(OCCOC(=O)[C@H]1CCC(=O)N(CCc2ccccc2F)[C@@H]1c1cccs1)c1ccc(-c2c3nc(c(-c4cc(S(=O)(=O)[O-])ccc4F)c4ccc([nH]4)c(-c4cc(S(=O)(=O)[O-])ccc4F)c4nc(c(-c5cc(S(=O)(=O)[O-])ccc5F)c5ccc2[nH]5)C=C4)C=C3)cc1
REMARK SMILES IDX 4 1 3 2 2 3 1 4 30 5 31 6 92 7 32 8 91 9 33 10 34 11 35 12
REMARK SMILES IDX 85 13 36 14 90 15 84 16 86 17 37 18 89 19 83 20 82 21 38 23
REMARK SMILES IDX 70 24 50 25 69 26 51 27 54 28 68 29 87 30 52 31 53 32 67 34
REMARK SMILES IDX 88 35 55 36 39 37 40 38 48 39 41 40 47 41 49 42 46 43 42 44
REMARK SMILES IDX 43 45 44 46 45 47 71 48 72 49 80 50 73 51 79 52 81 53 78 54
REMARK SMILES IDX 74 55 75 56 76 57 77 58 56 59 57 60 65 61 58 62 64 63 66 64
REMARK SMILES IDX 63 65 59 66 60 67 61 68 62 69 5 70 6 71 7 72 8 73 9 74 10 75
REMARK SMILES IDX 24 76 11 77 14 78 12 79 13 80 25 81 26 82 29 83 27 84 28 85
REMARK SMILES IDX 15 86 16 87 17 88 18 89 22 90 19 91 21 92 23 93 20 94
REMARK H PARENT 86 22 54 33
REMARK Flexibility Score: inf
ROOT
ATOM      1  C   UNL     1       4.886   3.470  -1.351  1.00  0.00     0.275 C 
ENDROOT
BRANCH   1   2
ATOM      2  O   UNL     1       5.066   2.104  -0.937  1.00  0.00    -0.458 OA
BRANCH   2   3
ATOM      3  C   UNL     1       4.367   1.561   0.094  1.00  0.00     0.338 C 
ATOM      4  O   UNL     1       4.910   0.866   0.942  1.00  0.00    -0.246 OA
BRANCH   3   5
ATOM      5  C   UNL     1       2.886   1.546  -0.040  1.00  0.00     0.060 A 
ATOM      6  C   UNL     1       2.118   2.709  -0.126  1.00  0.00     0.016 A 
ATOM      7  C   UNL     1       2.247   0.295  -0.027  1.00  0.00     0.016 A 
ATOM      8  C   UNL     1       0.733   2.631  -0.248  1.00  0.00     0.010 A 
ATOM      9  C   UNL     1       0.856   0.211  -0.126  1.00  0.00     0.010 A 
ATOM     10  C   UNL     1       0.095   1.386  -0.209  1.00  0.00    -0.014 A 
BRANCH  10  11
ATOM     11  C   UNL     1      -1.352   1.364   0.093  1.00  0.00     0.031 A 
ATOM     12  C   UNL     1      -1.729   1.270   1.548  1.00  0.00     0.074 A 
ATOM     13  C   UNL     1      -2.276   1.549  -0.867  1.00  0.00     0.049 A 
ATOM     14  N   UNL     1      -2.909   1.243   2.102  1.00  0.00    -0.248 NA
ATOM     15  C   UNL     1      -0.612   1.214   2.511  1.00  0.00     0.031 C 
ATOM     16  C   UNL     1      -1.993   1.746  -2.290  1.00  0.00     0.029 A 
ATOM     17  N   UNL     1      -3.642   1.632  -0.786  1.00  0.00    -0.354 N 
ATOM     18  C   UNL     1      -2.675   1.179   3.472  1.00  0.00     0.074 A 
ATOM     19  C   UNL     1      -1.247   1.129   3.667  1.00  0.00     0.031 C 
ATOM     20  C   UNL     1      -3.153   1.942  -2.945  1.00  0.00     0.029 A 
ATOM     21  C   UNL     1      -4.260   1.856  -1.996  1.00  0.00     0.049 A 
ATOM     22  H   UNL     1      -4.136   1.539   0.060  1.00  0.00     0.167 HD
ATOM     23  C   UNL     1      -3.576   1.180   4.480  1.00  0.00     0.034 A 
ATOM     24  C   UNL     1      -5.572   1.971  -2.287  1.00  0.00     0.034 A 
ATOM     25  C   UNL     1      -4.994   1.214   4.261  1.00  0.00     0.049 A 
ATOM     26  C   UNL     1      -6.561   1.864  -1.149  1.00  0.00     0.074 A 
ATOM     27  C   UNL     1      -6.016   1.121   5.186  1.00  0.00     0.029 A 
ATOM     28  N   UNL     1      -5.586   1.363   3.014  1.00  0.00    -0.354 N 
ATOM     29  N   UNL     1      -6.328   1.713   0.137  1.00  0.00    -0.248 NA
ATOM     30  C   UNL     1      -7.986   1.941  -1.497  1.00  0.00     0.031 C 
ATOM     31  C   UNL     1      -7.229   1.184   4.493  1.00  0.00     0.029 A 
ATOM     32  C   UNL     1      -6.961   1.369   3.144  1.00  0.00     0.049 A 
ATOM     33  H   UNL     1      -5.098   1.451   2.164  1.00  0.00     0.167 HD
ATOM     34  C   UNL     1      -7.577   1.700   0.751  1.00  0.00     0.074 A 
ATOM     35  C   UNL     1      -8.557   1.877  -0.303  1.00  0.00     0.031 C 
ATOM     36  C   UNL     1      -7.896   1.551   2.062  1.00  0.00     0.034 A 
BRANCH  23  37
ATOM     37  C   UNL     1      -3.036   1.104   5.880  1.00  0.00     0.023 A 
ATOM     38  C   UNL     1      -2.357   2.192   6.458  1.00  0.00     0.031 A 
ATOM     39  C   UNL     1      -3.154  -0.079   6.627  1.00  0.00     0.131 A 
ATOM     40  C   UNL     1      -1.781   2.058   7.730  1.00  0.00     0.055 A 
ATOM     41  C   UNL     1      -2.630  -0.187   7.916  1.00  0.00     0.041 A 
ATOM     42  F   UNL     1      -3.765  -1.156   6.107  1.00  0.00    -0.206 F 
ATOM     43  C   UNL     1      -1.933   0.883   8.472  1.00  0.00     0.022 A 
BRANCH  40  44
ATOM     44  S   UNL     1      -0.769   3.414   8.380  1.00  0.00     0.124 S 
ATOM     45  O   UNL     1       0.422   3.319   7.540  1.00  0.00    -0.237 OA
ATOM     46  O   UNL     1      -1.613   4.582   8.158  1.00  0.00    -0.237 OA
ATOM     47  O   UNL     1      -0.570   3.049   9.782  1.00  0.00    -0.744 OA
ENDBRANCH  40  44
ENDBRANCH  23  37
BRANCH  24  48
ATOM     48  C   UNL     1      -6.042   2.168  -3.691  1.00  0.00     0.023 A 
ATOM     49  C   UNL     1      -6.742   3.326  -4.071  1.00  0.00     0.031 A 
ATOM     50  C   UNL     1      -5.856   1.167  -4.662  1.00  0.00     0.131 A 
ATOM     51  C   UNL     1      -7.263   3.437  -5.372  1.00  0.00     0.055 A 
ATOM     52  C   UNL     1      -6.339   1.301  -5.966  1.00  0.00     0.041 A 
ATOM     53  F   UNL     1      -5.196   0.039  -4.356  1.00  0.00    -0.206 F 
ATOM     54  C   UNL     1      -7.058   2.437  -6.324  1.00  0.00     0.022 A 
BRANCH  51  55
ATOM     55  S   UNL     1      -8.274   4.886  -5.788  1.00  0.00     0.124 S 
ATOM     56  O   UNL     1      -9.366   4.773  -4.827  1.00  0.00    -0.237 OA
ATOM     57  O   UNL     1      -7.336   5.982  -5.569  1.00  0.00    -0.237 OA
ATOM     58  O   UNL     1      -8.643   4.656  -7.183  1.00  0.00    -0.744 OA
ENDBRANCH  51  55
ENDBRANCH  24  48
BRANCH  36  59
ATOM     59  C   UNL     1      -9.354   1.610   2.418  1.00  0.00     0.023 A 
ATOM     60  C   UNL     1     -10.229   0.568   2.072  1.00  0.00     0.031 A 
ATOM     61  C   UNL     1      -9.864   2.706   3.134  1.00  0.00     0.131 A 
ATOM     62  C   UNL     1     -11.586   0.665   2.404  1.00  0.00     0.055 A 
ATOM     63  C   UNL     1     -11.205   2.772   3.509  1.00  0.00     0.041 A 
ATOM     64  F   UNL     1      -9.061   3.721   3.491  1.00  0.00    -0.206 F 
ATOM     65  C   UNL     1     -12.076   1.752   3.135  1.00  0.00     0.022 A 
BRANCH  62  66
ATOM     66  S   UNL     1     -12.714  -0.624   1.815  1.00  0.00     0.124 S 
ATOM     67  O   UNL     1     -12.600  -0.486   0.367  1.00  0.00    -0.237 OA
ATOM     68  O   UNL     1     -12.133  -1.835   2.387  1.00  0.00    -0.237 OA
ATOM     69  O   UNL     1     -14.005  -0.233   2.377  1.00  0.00    -0.744 OA
ENDBRANCH  62  66
ENDBRANCH  36  59
ENDBRANCH  10  11
ENDBRANCH   3   5
ENDBRANCH   2   3
ENDBRANCH   1   2
BRANCH   1  70
ATOM     70  C   UNL     1       4.038   3.625  -2.623  1.00  0.00     0.274 C 
BRANCH  70  71
ATOM     71  O   UNL     1       3.269   2.446  -2.901  1.00  0.00    -0.462 OA
BRANCH  71  72
ATOM     72  C   UNL     1       3.937   1.508  -3.631  1.00  0.00     0.311 C 
ATOM     73  O   UNL     1       4.971   1.735  -4.233  1.00  0.00    -0.252 OA
BRANCH  72  74
ATOM     74  C   UNL     1       3.296   0.133  -3.463  1.00  0.00     0.127 C 
ATOM     75  C   UNL     1       1.802   0.128  -3.748  1.00  0.00     0.028 C 
ATOM     76  C   UNL     1       4.037  -0.885  -4.353  1.00  0.00     0.139 C 
ATOM     77  C   UNL     1       1.292  -1.277  -3.482  1.00  0.00     0.101 C 
ATOM     78  N   UNL     1       3.215  -2.021  -4.857  1.00  0.00    -0.334 N 
ATOM     79  C   UNL     1       1.903  -2.257  -4.452  1.00  0.00     0.223 C 
ATOM     80  O   UNL     1       1.243  -3.217  -4.852  1.00  0.00    -0.275 OA
BRANCH  76  81
ATOM     81  C   UNL     1       5.425  -1.297  -3.833  1.00  0.00     0.028 A 
ATOM     82  C   UNL     1       6.519  -1.719  -4.575  1.00  0.00     0.017 A 
ATOM     83  S   UNL     1       5.919  -1.058  -2.199  1.00  0.00    -0.147 S 
ATOM     84  C   UNL     1       7.757  -1.599  -3.886  1.00  0.00     0.012 A 
ATOM     85  C   UNL     1       7.575  -1.157  -2.600  1.00  0.00     0.065 A 
ENDBRANCH  76  81
BRANCH  78  86
ATOM     86  C   UNL     1       3.678  -2.784  -6.034  1.00  0.00     0.125 C 
BRANCH  86  87
ATOM     87  C   UNL     1       3.438  -2.109  -7.413  1.00  0.00     0.060 C 
BRANCH  87  88
ATOM     88  C   UNL     1       4.033  -0.732  -7.600  1.00  0.00    -0.010 A 
ATOM     89  C   UNL     1       3.218   0.409  -7.513  1.00  0.00     0.007 A 
ATOM     90  C   UNL     1       5.414  -0.550  -7.726  1.00  0.00     0.126 A 
ATOM     91  C   UNL     1       3.788   1.685  -7.459  1.00  0.00     0.000 A 
ATOM     92  C   UNL     1       5.989   0.717  -7.651  1.00  0.00     0.039 A 
ATOM     93  F   UNL     1       6.218  -1.616  -7.845  1.00  0.00    -0.207 F 
ATOM     94  C   UNL     1       5.174   1.837  -7.503  1.00  0.00     0.003 A 
ENDBRANCH  87  88
ENDBRANCH  86  87
ENDBRANCH  78  86
ENDBRANCH  72  74
ENDBRANCH  71  72
ENDBRANCH  70  71
ENDBRANCH   1  70
TORSDOF 18
