REMARK SMILES CCSc1nc(CC(=O)N[C@@H](C(=O)OCCOC(=O)c2ccc(-c3c4nc(c(-c5cc(S(=O)(=O)[O-])ccc5F)c5ccc([nH]5)c(-c5cc(S(=O)(=O)[O-])ccc5F)c5nc(c(-c6cc(S(=O)(=O)[O-])ccc6F)c6ccc3[nH]6)C=C5)C=C4)cc2)C2=C(C)N=N[C@@H]2C)cs1
REMARK SMILES IDX 15 1 14 2 12 3 13 4 11 5 10 6 8 7 9 8 7 10 6 11 4 12 5 13
REMARK SMILES IDX 91 14 90 15 3 16 2 17 1 18 83 19 84 20 88 21 85 22 86 23
REMARK SMILES IDX 87 24 89 25 16 26 17 27 18 28 19 29 20 30 21 31 82 32 22 33
REMARK SMILES IDX 81 34 23 35 24 36 25 37 75 38 26 39 80 40 74 41 76 42 27 43
REMARK SMILES IDX 79 44 73 45 72 46 28 48 60 49 40 50 59 51 41 52 44 53 58 54
REMARK SMILES IDX 77 55 42 56 43 57 57 59 78 60 45 61 29 62 30 63 38 64 31 65
REMARK SMILES IDX 37 66 39 67 36 68 32 69 33 70 34 71 35 72 61 73 62 74 70 75
REMARK SMILES IDX 63 76 69 77 71 78 68 79 64 80 65 81 66 82 67 83 46 84 47 85
REMARK SMILES IDX 55 86 48 87 54 88 56 89 53 90 49 91 50 92 51 93 52 94
REMARK H PARENT 10 9 76 47 44 58
REMARK Flexibility Score: inf
ROOT
ATOM      1  C   UNL     1       3.829  -1.816  -3.826  1.00  0.00     0.274 C 
ENDROOT
BRANCH   1   2
ATOM      2  O   UNL     1       4.753  -2.862  -3.459  1.00  0.00    -0.460 OA
BRANCH   2   3
ATOM      3  C   UNL     1       4.234  -4.121  -3.330  1.00  0.00     0.333 C 
ATOM      4  O   UNL     1       3.083  -4.424  -3.619  1.00  0.00    -0.249 OA
BRANCH   3   5
ATOM      5  C   UNL     1       5.250  -5.106  -2.678  1.00  0.00     0.223 C 
BRANCH   5   6
ATOM      6  N   UNL     1       6.603  -4.581  -2.522  1.00  0.00    -0.339 N 
ATOM      7  C   UNL     1       7.160  -4.022  -1.410  1.00  0.00     0.226 C 
ATOM      8  O   UNL     1       8.267  -3.486  -1.498  1.00  0.00    -0.275 OA
ATOM      9  H   UNL     1       7.184  -4.638  -3.315  1.00  0.00     0.164 HD
BRANCH   7  10
ATOM     10  C   UNL     1       6.417  -4.061  -0.090  1.00  0.00     0.157 C 
BRANCH  10  11
ATOM     11  C   UNL     1       5.378  -2.993  -0.033  1.00  0.00     0.062 A 
ATOM     12  C   UNL     1       3.272  -2.296   0.080  1.00  0.00     0.150 A 
ATOM     13  N   UNL     1       4.042  -3.361   0.020  1.00  0.00    -0.234 NA
ATOM     14  S   UNL     1       4.107  -0.797   0.070  1.00  0.00    -0.116 S 
ATOM     15  C   UNL     1       5.597  -1.629  -0.033  1.00  0.00     0.092 A 
BRANCH  12  16
ATOM     16  S   UNL     1       1.540  -2.493   0.236  1.00  0.00    -0.096 SA
BRANCH  16  17
ATOM     17  C   UNL     1       0.854  -1.122  -0.732  1.00  0.00     0.074 C 
ATOM     18  C   UNL     1       0.573   0.090   0.142  1.00  0.00     0.016 C 
ENDBRANCH  16  17
ENDBRANCH  12  16
ENDBRANCH  10  11
ENDBRANCH   7  10
ENDBRANCH   5   6
BRANCH   5  19
ATOM     19  C   UNL     1       5.350  -6.426  -3.359  1.00  0.00     0.012 C 
ATOM     20  C   UNL     1       5.323  -7.661  -2.842  1.00  0.00     0.064 C 
ATOM     21  C   UNL     1       5.367  -6.635  -4.832  1.00  0.00     0.156 C 
ATOM     22  C   UNL     1       5.256  -8.086  -1.419  1.00  0.00     0.069 C 
ATOM     23  N   UNL     1       5.354  -8.635  -3.807  1.00  0.00    -0.160 NA
ATOM     24  N   UNL     1       5.381  -8.114  -4.954  1.00  0.00    -0.181 NA
ATOM     25  C   UNL     1       6.559  -6.069  -5.583  1.00  0.00     0.040 C 
ENDBRANCH   5  19
ENDBRANCH   3   5
ENDBRANCH   2   3
ENDBRANCH   1   2
BRANCH   1  26
ATOM     26  C   UNL     1       4.005  -1.401  -5.282  1.00  0.00     0.275 C 
BRANCH  26  27
ATOM     27  O   UNL     1       3.569  -2.475  -6.126  1.00  0.00    -0.458 OA
BRANCH  27  28
ATOM     28  C   UNL     1       4.440  -2.885  -7.073  1.00  0.00     0.338 C 
ATOM     29  O   UNL     1       5.516  -2.367  -7.345  1.00  0.00    -0.246 OA
BRANCH  28  30
ATOM     30  C   UNL     1       3.940  -4.113  -7.727  1.00  0.00     0.060 A 
ATOM     31  C   UNL     1       3.158  -5.030  -7.025  1.00  0.00     0.016 A 
ATOM     32  C   UNL     1       4.373  -4.425  -9.017  1.00  0.00     0.016 A 
ATOM     33  C   UNL     1       2.933  -6.304  -7.550  1.00  0.00     0.010 A 
ATOM     34  C   UNL     1       4.034  -5.657  -9.587  1.00  0.00     0.010 A 
ATOM     35  C   UNL     1       3.349  -6.637  -8.845  1.00  0.00    -0.014 A 
BRANCH  35  36
ATOM     36  C   UNL     1       3.124  -7.996  -9.427  1.00  0.00     0.031 A 
ATOM     37  C   UNL     1       4.275  -8.734 -10.066  1.00  0.00     0.074 A 
ATOM     38  C   UNL     1       1.907  -8.579  -9.421  1.00  0.00     0.049 A 
ATOM     39  N   UNL     1       4.259  -9.689 -10.959  1.00  0.00    -0.248 NA
ATOM     40  C   UNL     1       5.626  -8.315  -9.662  1.00  0.00     0.031 C 
ATOM     41  C   UNL     1       0.708  -8.059  -8.761  1.00  0.00     0.029 A 
ATOM     42  N   UNL     1       1.474  -9.746 -10.009  1.00  0.00    -0.354 N 
ATOM     43  C   UNL     1       5.591  -9.924 -11.291  1.00  0.00     0.074 A 
ATOM     44  C   UNL     1       6.388  -9.021 -10.486  1.00  0.00     0.031 C 
ATOM     45  C   UNL     1      -0.308  -8.911  -8.952  1.00  0.00     0.029 A 
ATOM     46  C   UNL     1       0.122  -9.960  -9.866  1.00  0.00     0.049 A 
ATOM     47  H   UNL     1       2.073 -10.366 -10.485  1.00  0.00     0.167 HD
ATOM     48  C   UNL     1       6.091 -10.800 -12.199  1.00  0.00     0.034 A 
ATOM     49  C   UNL     1      -0.708 -10.833 -10.471  1.00  0.00     0.034 A 
ATOM     50  C   UNL     1       5.277 -11.745 -12.928  1.00  0.00     0.049 A 
ATOM     51  C   UNL     1      -0.154 -11.761 -11.515  1.00  0.00     0.074 A 
ATOM     52  C   UNL     1       5.671 -12.682 -13.870  1.00  0.00     0.029 A 
ATOM     53  N   UNL     1       3.904 -11.891 -12.778  1.00  0.00    -0.354 N 
ATOM     54  N   UNL     1       1.080 -11.866 -11.951  1.00  0.00    -0.248 NA
ATOM     55  C   UNL     1      -1.108 -12.662 -12.172  1.00  0.00     0.031 C 
ATOM     56  C   UNL     1       4.533 -13.361 -14.320  1.00  0.00     0.029 A 
ATOM     57  C   UNL     1       3.436 -12.891 -13.616  1.00  0.00     0.049 A 
ATOM     58  H   UNL     1       3.345 -11.362 -12.165  1.00  0.00     0.167 HD
ATOM     59  C   UNL     1       1.050 -12.851 -12.932  1.00  0.00     0.074 A 
ATOM     60  C   UNL     1      -0.320 -13.316 -13.015  1.00  0.00     0.031 C 
ATOM     61  C   UNL     1       2.064 -13.328 -13.696  1.00  0.00     0.034 A 
BRANCH  48  62
ATOM     62  C   UNL     1       7.565 -10.725 -12.515  1.00  0.00     0.023 A 
ATOM     63  C   UNL     1       8.562 -11.070 -11.588  1.00  0.00     0.031 A 
ATOM     64  C   UNL     1       7.976 -10.289 -13.790  1.00  0.00     0.131 A 
ATOM     65  C   UNL     1       9.917 -10.926 -11.931  1.00  0.00     0.055 A 
ATOM     66  C   UNL     1       9.323 -10.214 -14.149  1.00  0.00     0.041 A 
ATOM     67  F   UNL     1       7.070  -9.924 -14.712  1.00  0.00    -0.206 F 
ATOM     68  C   UNL     1      10.303 -10.524 -13.213  1.00  0.00     0.022 A 
BRANCH  65  69
ATOM     69  S   UNL     1      11.175 -11.164 -10.646  1.00  0.00     0.124 S 
ATOM     70  O   UNL     1      10.780 -10.163  -9.657  1.00  0.00    -0.237 OA
ATOM     71  O   UNL     1      10.976 -12.556 -10.263  1.00  0.00    -0.237 OA
ATOM     72  O   UNL     1      12.431 -10.881 -11.338  1.00  0.00    -0.744 OA
ENDBRANCH  65  69
ENDBRANCH  48  62
BRANCH  49  73
ATOM     73  C   UNL     1      -2.172 -10.774 -10.194  1.00  0.00     0.023 A 
ATOM     74  C   UNL     1      -2.835 -11.826  -9.546  1.00  0.00     0.031 A 
ATOM     75  C   UNL     1      -2.927  -9.647 -10.571  1.00  0.00     0.131 A 
ATOM     76  C   UNL     1      -4.215 -11.734  -9.303  1.00  0.00     0.055 A 
ATOM     77  C   UNL     1      -4.286  -9.538 -10.281  1.00  0.00     0.041 A 
ATOM     78  F   UNL     1      -2.340  -8.615 -11.197  1.00  0.00    -0.206 F 
ATOM     79  C   UNL     1      -4.940 -10.589  -9.648  1.00  0.00     0.022 A 
BRANCH  76  80
ATOM     80  S   UNL     1      -5.068 -13.155  -8.568  1.00  0.00     0.124 S 
ATOM     81  O   UNL     1      -4.817 -14.197  -9.557  1.00  0.00    -0.237 OA
ATOM     82  O   UNL     1      -4.376 -13.300  -7.292  1.00  0.00    -0.237 OA
ATOM     83  O   UNL     1      -6.456 -12.707  -8.473  1.00  0.00    -0.744 OA
ENDBRANCH  76  80
ENDBRANCH  49  73
BRANCH  61  84
ATOM     84  C   UNL     1       1.726 -14.444 -14.647  1.00  0.00     0.023 A 
ATOM     85  C   UNL     1       0.990 -14.212 -15.822  1.00  0.00     0.031 A 
ATOM     86  C   UNL     1       2.134 -15.757 -14.361  1.00  0.00     0.131 A 
ATOM     87  C   UNL     1       0.646 -15.291 -16.649  1.00  0.00     0.055 A 
ATOM     88  C   UNL     1       1.826 -16.820 -15.210  1.00  0.00     0.041 A 
ATOM     89  F   UNL     1       2.837 -16.026 -13.250  1.00  0.00    -0.206 F 
ATOM     90  C   UNL     1       1.071 -16.591 -16.357  1.00  0.00     0.022 A 
BRANCH  87  91
ATOM     91  S   UNL     1      -0.413 -14.986 -18.089  1.00  0.00     0.124 S 
ATOM     92  O   UNL     1      -1.645 -14.513 -17.465  1.00  0.00    -0.237 OA
ATOM     93  O   UNL     1       0.347 -13.989 -18.835  1.00  0.00    -0.237 OA
ATOM     94  O   UNL     1      -0.507 -16.297 -18.730  1.00  0.00    -0.744 OA
ENDBRANCH  87  91
ENDBRANCH  61  84
ENDBRANCH  35  36
ENDBRANCH  28  30
ENDBRANCH  27  28
ENDBRANCH  26  27
ENDBRANCH   1  26
TORSDOF 20
