REMARK SMILES CCCCCNC(=O)Oc1cccc(-c2ccc([C@@H](C)C(=O)OCCOC(=O)c3ccc(-c4c5nc(c(-c6cc(S(=O)(=O)[O-])ccc6F)c6ccc([nH]6)c(-c6cc(S(=O)(=O)[O-])ccc6F)c6nc(c(-c7cc(S(=O)(=O)[O-])ccc7F)c7ccc4[nH]7)C=C6)C=C5)cc3)cc2F)c1
REMARK SMILES IDX 21 1 22 2 19 3 20 4 18 5 15 6 16 7 93 8 17 9 92 10 94 11
REMARK SMILES IDX 14 12 10 13 11 14 95 15 12 16 13 17 9 18 7 19 6 20 8 22 5 23
REMARK SMILES IDX 4 24 3 25 2 26 1 27 23 28 24 29 25 30 26 31 27 32 28 33
REMARK SMILES IDX 29 34 30 35 91 36 31 37 90 38 32 39 33 40 34 41 84 42 35 43
REMARK SMILES IDX 89 44 83 45 85 46 36 47 88 48 82 49 81 50 37 52 69 53 49 54
REMARK SMILES IDX 68 55 50 56 53 57 67 58 86 59 51 60 52 61 66 63 87 64 54 65
REMARK SMILES IDX 38 66 39 67 47 68 40 69 46 70 48 71 45 72 41 73 42 74 43 75
REMARK SMILES IDX 44 76 70 77 71 78 79 79 72 80 78 81 80 82 77 83 73 84 74 85
REMARK SMILES IDX 75 86 76 87 55 88 56 89 64 90 57 91 63 92 65 93 62 94 58 95
REMARK SMILES IDX 59 96 60 97 61 98
REMARK H PARENT 6 21 85 51 53 62
REMARK Flexibility Score: inf
ROOT
ATOM      1  C   UNL     1      -3.384  14.148   3.835  1.00  0.00     0.313 C 
ATOM      2  O   UNL     1      -2.812  15.059   4.425  1.00  0.00    -0.252 OA
ENDROOT
BRANCH   1   3
ATOM      3  C   UNL     1      -3.241  13.944   2.331  1.00  0.00     0.126 C 
ATOM      4  C   UNL     1      -4.092  14.973   1.589  1.00  0.00     0.025 C 
BRANCH   3   5
ATOM      5  C   UNL     1      -3.471  12.531   1.814  1.00  0.00    -0.031 A 
ATOM      6  C   UNL     1      -3.869   9.928   0.715  1.00  0.00     0.018 A 
ATOM      7  C   UNL     1      -4.932  10.658   1.274  1.00  0.00     0.012 A 
ATOM      8  C   UNL     1      -2.599  10.519   0.757  1.00  0.00     0.131 A 
ATOM      9  C   UNL     1      -4.740  11.938   1.807  1.00  0.00     0.005 A 
ATOM     10  C   UNL     1      -2.398  11.793   1.292  1.00  0.00     0.044 A 
ATOM     11  F   UNL     1      -1.540   9.886   0.230  1.00  0.00    -0.206 F 
BRANCH   6  12
ATOM     12  C   UNL     1      -4.107   8.630   0.057  1.00  0.00    -0.012 A 
ATOM     13  C   UNL     1      -3.559   6.301  -0.348  1.00  0.00     0.133 A 
ATOM     14  C   UNL     1      -4.568   6.196  -1.303  1.00  0.00     0.047 A 
ATOM     15  C   UNL     1      -3.313   7.501   0.323  1.00  0.00     0.056 A 
ATOM     16  C   UNL     1      -5.364   7.302  -1.576  1.00  0.00     0.004 A 
ATOM     17  C   UNL     1      -5.133   8.505  -0.902  1.00  0.00     0.009 A 
BRANCH  13  18
ATOM     18  O   UNL     1      -2.721   5.184  -0.200  1.00  0.00    -0.410 OA
BRANCH  18  19
ATOM     19  C   UNL     1      -2.581   4.635   1.066  1.00  0.00     0.412 C 
ATOM     20  N   UNL     1      -1.748   3.548   1.085  1.00  0.00    -0.321 N 
ATOM     21  H   UNL     1      -1.575   3.140   1.964  1.00  0.00     0.167 HD
ATOM     22  O   UNL     1      -3.148   5.013   2.083  1.00  0.00    -0.224 OA
BRANCH  20  23
ATOM     23  C   UNL     1      -1.094   2.936  -0.055  1.00  0.00     0.119 C 
BRANCH  23  24
ATOM     24  C   UNL     1       0.427   2.912   0.080  1.00  0.00     0.021 C 
BRANCH  24  25
ATOM     25  C   UNL     1       0.965   2.079   1.250  1.00  0.00     0.002 C 
BRANCH  25  26
ATOM     26  C   UNL     1       0.533   0.610   1.279  1.00  0.00    -0.003 C 
ATOM     27  C   UNL     1       0.951  -0.175   0.045  1.00  0.00     0.004 C 
ENDBRANCH  25  26
ENDBRANCH  24  25
ENDBRANCH  23  24
ENDBRANCH  20  23
ENDBRANCH  18  19
ENDBRANCH  13  18
ENDBRANCH   6  12
ENDBRANCH   3   5
ENDBRANCH   1   3
BRANCH   1  28
ATOM     28  O   UNL     1      -4.237  13.275   4.431  1.00  0.00    -0.462 OA
BRANCH  28  29
ATOM     29  C   UNL     1      -4.363  13.367   5.863  1.00  0.00     0.274 C 
BRANCH  29  30
ATOM     30  C   UNL     1      -3.565  12.265   6.563  1.00  0.00     0.275 C 
BRANCH  30  31
ATOM     31  O   UNL     1      -2.148  12.474   6.427  1.00  0.00    -0.458 OA
BRANCH  31  32
ATOM     32  C   UNL     1      -1.573  11.819   5.389  1.00  0.00     0.338 C 
ATOM     33  O   UNL     1      -2.116  11.060   4.608  1.00  0.00    -0.246 OA
BRANCH  32  34
ATOM     34  C   UNL     1      -0.178  12.260   5.244  1.00  0.00     0.060 A 
ATOM     35  C   UNL     1       0.165  12.986   4.102  1.00  0.00     0.016 A 
ATOM     36  C   UNL     1       0.796  11.894   6.173  1.00  0.00     0.016 A 
ATOM     37  C   UNL     1       1.490  13.342   3.872  1.00  0.00     0.010 A 
ATOM     38  C   UNL     1       2.127  12.261   5.946  1.00  0.00     0.010 A 
ATOM     39  C   UNL     1       2.483  12.976   4.788  1.00  0.00    -0.014 A 
BRANCH  39  40
ATOM     40  C   UNL     1       3.902  13.294   4.499  1.00  0.00     0.031 A 
ATOM     41  C   UNL     1       4.835  12.199   4.065  1.00  0.00     0.074 A 
ATOM     42  C   UNL     1       4.340  14.563   4.600  1.00  0.00     0.049 A 
ATOM     43  N   UNL     1       6.125  12.243   3.856  1.00  0.00    -0.248 NA
ATOM     44  C   UNL     1       4.230  10.878   3.839  1.00  0.00     0.031 C 
ATOM     45  C   UNL     1       3.509  15.714   4.955  1.00  0.00     0.029 A 
ATOM     46  N   UNL     1       5.590  15.096   4.416  1.00  0.00    -0.354 N 
ATOM     47  C   UNL     1       6.493  10.954   3.485  1.00  0.00     0.074 A 
ATOM     48  C   UNL     1       5.290  10.147   3.526  1.00  0.00     0.031 C 
ATOM     49  C   UNL     1       4.274  16.818   4.967  1.00  0.00     0.029 A 
ATOM     50  C   UNL     1       5.655  16.446   4.674  1.00  0.00     0.049 A 
ATOM     51  H   UNL     1       6.366  14.564   4.127  1.00  0.00     0.167 HD
ATOM     52  C   UNL     1       7.720  10.491   3.138  1.00  0.00     0.034 A 
ATOM     53  C   UNL     1       6.715  17.278   4.706  1.00  0.00     0.034 A 
ATOM     54  C   UNL     1       8.908  11.311   3.113  1.00  0.00     0.049 A 
ATOM     55  C   UNL     1       8.083  16.723   4.400  1.00  0.00     0.074 A 
ATOM     56  C   UNL     1      10.206  10.945   2.798  1.00  0.00     0.029 A 
ATOM     57  N   UNL     1       8.944  12.666   3.420  1.00  0.00    -0.354 N 
ATOM     58  N   UNL     1       8.425  15.494   4.087  1.00  0.00    -0.248 NA
ATOM     59  C   UNL     1       9.207  17.666   4.452  1.00  0.00     0.031 C 
ATOM     60  C   UNL     1      11.033  12.062   2.968  1.00  0.00     0.029 A 
ATOM     61  C   UNL     1      10.243  13.144   3.324  1.00  0.00     0.049 A 
ATOM     62  H   UNL     1       8.162  13.208   3.669  1.00  0.00     0.167 HD
ATOM     63  C   UNL     1       9.802  15.524   3.883  1.00  0.00     0.074 A 
ATOM     64  C   UNL     1      10.222  16.895   4.093  1.00  0.00     0.031 C 
ATOM     65  C   UNL     1      10.644  14.513   3.551  1.00  0.00     0.034 A 
BRANCH  52  66
ATOM     66  C   UNL     1       7.837   9.020   2.821  1.00  0.00     0.023 A 
ATOM     67  C   UNL     1       7.200   8.447   1.705  1.00  0.00     0.031 A 
ATOM     68  C   UNL     1       8.566   8.169   3.671  1.00  0.00     0.131 A 
ATOM     69  C   UNL     1       7.248   7.058   1.508  1.00  0.00     0.055 A 
ATOM     70  C   UNL     1       8.671   6.798   3.428  1.00  0.00     0.041 A 
ATOM     71  F   UNL     1       9.176   8.654   4.764  1.00  0.00    -0.206 F 
ATOM     72  C   UNL     1       7.999   6.233   2.349  1.00  0.00     0.022 A 
BRANCH  69  73
ATOM     73  S   UNL     1       6.210   6.325   0.213  1.00  0.00     0.124 S 
ATOM     74  O   UNL     1       4.873   6.725   0.644  1.00  0.00    -0.237 OA
ATOM     75  O   UNL     1       6.712   6.966  -0.996  1.00  0.00    -0.237 OA
ATOM     76  O   UNL     1       6.486   4.893   0.320  1.00  0.00    -0.744 OA
ENDBRANCH  69  73
ENDBRANCH  52  66
BRANCH  53  77
ATOM     77  C   UNL     1       6.542  18.706   5.097  1.00  0.00     0.023 A 
ATOM     78  C   UNL     1       6.824  19.747   4.199  1.00  0.00     0.031 A 
ATOM     79  C   UNL     1       6.141  19.050   6.401  1.00  0.00     0.131 A 
ATOM     80  C   UNL     1       6.742  21.081   4.628  1.00  0.00     0.055 A 
ATOM     81  C   UNL     1       6.010  20.379   6.807  1.00  0.00     0.041 A 
ATOM     82  F   UNL     1       5.862  18.093   7.301  1.00  0.00    -0.206 F 
ATOM     83  C   UNL     1       6.325  21.404   5.921  1.00  0.00     0.022 A 
BRANCH  80  84
ATOM     84  S   UNL     1       7.275  22.393   3.494  1.00  0.00     0.124 S 
ATOM     85  O   UNL     1       8.646  21.992   3.196  1.00  0.00    -0.237 OA
ATOM     86  O   UNL     1       6.316  22.258   2.403  1.00  0.00    -0.237 OA
ATOM     87  O   UNL     1       7.141  23.609   4.293  1.00  0.00    -0.744 OA
ENDBRANCH  80  84
ENDBRANCH  53  77
BRANCH  65  88
ATOM     88  C   UNL     1      12.094  14.875   3.353  1.00  0.00     0.023 A 
ATOM     89  C   UNL     1      12.912  15.264   4.428  1.00  0.00     0.031 A 
ATOM     90  C   UNL     1      12.657  14.853   2.065  1.00  0.00     0.131 A 
ATOM     91  C   UNL     1      14.235  15.667   4.189  1.00  0.00     0.055 A 
ATOM     92  C   UNL     1      13.988  15.205   1.840  1.00  0.00     0.041 A 
ATOM     93  F   UNL     1      11.919  14.491   1.003  1.00  0.00    -0.206 F 
ATOM     94  C   UNL     1      14.781  15.627   2.903  1.00  0.00     0.022 A 
BRANCH  91  95
ATOM     95  S   UNL     1      15.210  16.325   5.570  1.00  0.00     0.124 S 
ATOM     96  O   UNL     1      14.407  17.467   5.993  1.00  0.00    -0.237 OA
ATOM     97  O   UNL     1      15.248  15.195   6.492  1.00  0.00    -0.237 OA
ATOM     98  O   UNL     1      16.492  16.663   4.954  1.00  0.00    -0.744 OA
ENDBRANCH  91  95
ENDBRANCH  65  88
ENDBRANCH  39  40
ENDBRANCH  32  34
ENDBRANCH  31  32
ENDBRANCH  30  31
ENDBRANCH  29  30
ENDBRANCH  28  29
ENDBRANCH   1  28
TORSDOF 22
