REMARK SMILES O=C(OCCOC(=O)c1ccc(-c2c3nc(c(-c4cc(S(=O)(=O)[O-])ccc4F)c4ccc([nH]4)c(-c4cc(S(=O)(=O)[O-])ccc4F)c4nc(c(-c5cc(S(=O)(=O)[O-])ccc5F)c5ccc2[nH]5)C=C4)C=C3)cc1)C1=Cc2c(ccc(Cl)c2Cl)O[C@H]1C(F)(F)F
REMARK SMILES IDX 5 1 4 2 3 3 2 4 1 5 72 6 73 7 83 8 74 9 82 10 75 11 80 12
REMARK SMILES IDX 76 13 78 14 81 15 77 16 79 17 84 18 85 19 86 20 87 21 6 22
REMARK SMILES IDX 7 23 8 24 9 25 10 26 71 27 11 28 70 29 12 30 13 31 14 32
REMARK SMILES IDX 64 33 15 34 69 35 63 36 65 37 16 38 68 39 62 40 61 41 17 43
REMARK SMILES IDX 49 44 29 45 48 46 30 47 33 48 47 49 66 50 31 51 32 52 46 54
REMARK SMILES IDX 67 55 34 56 18 57 19 58 27 59 20 60 26 61 28 62 25 63 21 64
REMARK SMILES IDX 22 65 23 66 24 67 50 68 51 69 59 70 52 71 58 72 60 73 57 74
REMARK SMILES IDX 53 75 54 76 55 77 56 78 35 79 36 80 44 81 37 82 43 83 45 84
REMARK SMILES IDX 42 85 38 86 39 87 40 88 41 89
REMARK H PARENT 65 42 33 53
REMARK Flexibility Score: inf
ROOT
ATOM      1  C   UNL     1       2.741  -1.938  -2.012  1.00  0.00     0.275 C 
ENDROOT
BRANCH   1   2
ATOM      2  C   UNL     1       2.591  -1.813  -0.488  1.00  0.00     0.275 C 
BRANCH   2   3
ATOM      3  O   UNL     1       2.080  -0.539  -0.036  1.00  0.00    -0.459 OA
BRANCH   3   4
ATOM      4  C   UNL     1       2.737   0.619   0.189  1.00  0.00     0.338 C 
ATOM      5  O   UNL     1       2.140   1.543   0.737  1.00  0.00    -0.246 OA
BRANCH   4   6
ATOM      6  C   UNL     1       4.165   0.816  -0.160  1.00  0.00     0.087 C 
ATOM      7  C   UNL     1       4.951  -0.144  -0.671  1.00  0.00     0.029 C 
ATOM      8  C   UNL     1       4.787   2.049   0.478  1.00  0.00     0.316 C 
ATOM      9  C   UNL     1       6.131  -0.440   0.162  1.00  0.00     0.037 A 
ATOM     10  O   UNL     1       6.164   1.866   0.919  1.00  0.00    -0.475 OA
ATOM     11  C   UNL     1       6.637   0.585   0.966  1.00  0.00     0.129 A 
ATOM     12  C   UNL     1       6.696  -1.729   0.233  1.00  0.00     0.070 A 
ATOM     13  C   UNL     1       7.685   0.337   1.847  1.00  0.00     0.049 A 
ATOM     14  C   UNL     1       7.718  -1.983   1.157  1.00  0.00     0.060 A 
ATOM     15  Cl  UNL     1       6.126  -2.997  -0.808  1.00  0.00    -0.082 Cl
ATOM     16  C   UNL     1       8.206  -0.951   1.962  1.00  0.00     0.026 A 
ATOM     17  Cl  UNL     1       8.403  -3.557   1.373  1.00  0.00    -0.083 Cl
BRANCH   8  18
ATOM     18  C   UNL     1       4.717   3.235  -0.499  1.00  0.00     0.430 C 
ATOM     19  F   UNL     1       3.461   3.464  -0.934  1.00  0.00    -0.167 F 
ATOM     20  F   UNL     1       5.163   4.375   0.076  1.00  0.00    -0.167 F 
ATOM     21  F   UNL     1       5.484   3.006  -1.596  1.00  0.00    -0.167 F 
ENDBRANCH   8  18
ENDBRANCH   4   6
ENDBRANCH   3   4
ENDBRANCH   2   3
ENDBRANCH   1   2
BRANCH   1  22
ATOM     22  O   UNL     1       2.651  -0.673  -2.672  1.00  0.00    -0.458 OA
BRANCH  22  23
ATOM     23  C   UNL     1       1.371  -0.249  -2.828  1.00  0.00     0.338 C 
ATOM     24  O   UNL     1       0.366  -0.918  -2.647  1.00  0.00    -0.246 OA
BRANCH  23  25
ATOM     25  C   UNL     1       1.372   1.210  -3.045  1.00  0.00     0.060 A 
ATOM     26  C   UNL     1       0.363   1.948  -2.421  1.00  0.00     0.016 A 
ATOM     27  C   UNL     1       2.337   1.847  -3.834  1.00  0.00     0.016 A 
ATOM     28  C   UNL     1       0.273   3.319  -2.638  1.00  0.00     0.010 A 
ATOM     29  C   UNL     1       2.253   3.226  -4.039  1.00  0.00     0.010 A 
ATOM     30  C   UNL     1       1.194   3.960  -3.477  1.00  0.00    -0.014 A 
BRANCH  30  31
ATOM     31  C   UNL     1       0.936   5.362  -3.885  1.00  0.00     0.031 A 
ATOM     32  C   UNL     1       0.349   5.614  -5.247  1.00  0.00     0.074 A 
ATOM     33  C   UNL     1       1.157   6.379  -3.031  1.00  0.00     0.049 A 
ATOM     34  N   UNL     1      -0.016   6.742  -5.797  1.00  0.00    -0.248 NA
ATOM     35  C   UNL     1       0.143   4.435  -6.105  1.00  0.00     0.031 C 
ATOM     36  C   UNL     1       1.691   6.241  -1.677  1.00  0.00     0.029 A 
ATOM     37  N   UNL     1       0.955   7.728  -3.174  1.00  0.00    -0.354 N 
ATOM     38  C   UNL     1      -0.504   6.409  -7.056  1.00  0.00     0.074 A 
ATOM     39  C   UNL     1      -0.337   4.981  -7.211  1.00  0.00     0.031 C 
ATOM     40  C   UNL     1       1.782   7.458  -1.115  1.00  0.00     0.029 A 
ATOM     41  C   UNL     1       1.333   8.464  -2.074  1.00  0.00     0.049 A 
ATOM     42  H   UNL     1       0.574   8.132  -3.987  1.00  0.00     0.167 HD
ATOM     43  C   UNL     1      -1.062   7.219  -7.987  1.00  0.00     0.034 A 
ATOM     44  C   UNL     1       1.327   9.798  -1.875  1.00  0.00     0.034 A 
ATOM     45  C   UNL     1      -1.216   8.641  -7.816  1.00  0.00     0.049 A 
ATOM     46  C   UNL     1       0.784  10.688  -2.970  1.00  0.00     0.074 A 
ATOM     47  C   UNL     1      -1.795   9.554  -8.678  1.00  0.00     0.029 A 
ATOM     48  N   UNL     1      -0.773   9.359  -6.713  1.00  0.00    -0.354 N 
ATOM     49  N   UNL     1       0.269  10.350  -4.132  1.00  0.00    -0.248 NA
ATOM     50  C   UNL     1       0.805  12.135  -2.723  1.00  0.00     0.031 C 
ATOM     51  C   UNL     1      -1.631  10.832  -8.134  1.00  0.00     0.029 A 
ATOM     52  C   UNL     1      -1.022  10.710  -6.895  1.00  0.00     0.049 A 
ATOM     53  H   UNL     1      -0.345   8.966  -5.918  1.00  0.00     0.167 HD
ATOM     54  C   UNL     1      -0.123  11.543  -4.735  1.00  0.00     0.074 A 
ATOM     55  C   UNL     1       0.193  12.603  -3.800  1.00  0.00     0.031 C 
ATOM     56  C   UNL     1      -0.691  11.750  -5.950  1.00  0.00     0.034 A 
BRANCH  43  57
ATOM     57  C   UNL     1      -1.501   6.590  -9.286  1.00  0.00     0.023 A 
ATOM     58  C   UNL     1      -2.552   5.657  -9.340  1.00  0.00     0.031 A 
ATOM     59  C   UNL     1      -0.849   6.921 -10.486  1.00  0.00     0.131 A 
ATOM     60  C   UNL     1      -2.882   5.047 -10.560  1.00  0.00     0.055 A 
ATOM     61  C   UNL     1      -1.230   6.364 -11.708  1.00  0.00     0.041 A 
ATOM     62  F   UNL     1       0.177   7.786 -10.490  1.00  0.00    -0.206 F 
ATOM     63  C   UNL     1      -2.245   5.412 -11.748  1.00  0.00     0.022 A 
BRANCH  60  64
ATOM     64  S   UNL     1      -4.077   3.682 -10.555  1.00  0.00     0.124 S 
ATOM     65  O   UNL     1      -3.406   2.706  -9.699  1.00  0.00    -0.237 OA
ATOM     66  O   UNL     1      -5.270   4.307  -9.999  1.00  0.00    -0.237 OA
ATOM     67  O   UNL     1      -4.170   3.303 -11.964  1.00  0.00    -0.744 OA
ENDBRANCH  60  64
ENDBRANCH  43  57
BRANCH  44  68
ATOM     68  C   UNL     1       1.885  10.392  -0.623  1.00  0.00     0.023 A 
ATOM     69  C   UNL     1       1.095  11.184   0.226  1.00  0.00     0.031 A 
ATOM     70  C   UNL     1       3.250  10.257  -0.310  1.00  0.00     0.131 A 
ATOM     71  C   UNL     1       1.687  11.867   1.300  1.00  0.00     0.055 A 
ATOM     72  C   UNL     1       3.821  10.886   0.797  1.00  0.00     0.041 A 
ATOM     73  F   UNL     1       4.057   9.518  -1.088  1.00  0.00    -0.206 F 
ATOM     74  C   UNL     1       3.043  11.714   1.599  1.00  0.00     0.022 A 
BRANCH  71  75
ATOM     75  S   UNL     1       0.688  13.071   2.221  1.00  0.00     0.124 S 
ATOM     76  O   UNL     1       0.213  13.942   1.153  1.00  0.00    -0.237 OA
ATOM     77  O   UNL     1      -0.315  12.216   2.846  1.00  0.00    -0.237 OA
ATOM     78  O   UNL     1       1.649  13.677   3.141  1.00  0.00    -0.744 OA
ENDBRANCH  71  75
ENDBRANCH  44  68
BRANCH  56  79
ATOM     79  C   UNL     1      -1.034  13.173  -6.315  1.00  0.00     0.023 A 
ATOM     80  C   UNL     1      -0.036  14.141  -6.522  1.00  0.00     0.031 A 
ATOM     81  C   UNL     1      -2.377  13.565  -6.460  1.00  0.00     0.131 A 
ATOM     82  C   UNL     1      -0.397  15.465  -6.810  1.00  0.00     0.055 A 
ATOM     83  C   UNL     1      -2.728  14.868  -6.812  1.00  0.00     0.041 A 
ATOM     84  F   UNL     1      -3.371  12.682  -6.273  1.00  0.00    -0.206 F 
ATOM     85  C   UNL     1      -1.735  15.831  -6.976  1.00  0.00     0.022 A 
BRANCH  82  86
ATOM     86  S   UNL     1       0.905  16.725  -6.881  1.00  0.00     0.124 S 
ATOM     87  O   UNL     1       1.476  16.648  -5.541  1.00  0.00    -0.237 OA
ATOM     88  O   UNL     1       1.754  16.237  -7.964  1.00  0.00    -0.237 OA
ATOM     89  O   UNL     1       0.175  17.957  -7.175  1.00  0.00    -0.744 OA
ENDBRANCH  82  86
ENDBRANCH  56  79
ENDBRANCH  30  31
ENDBRANCH  23  25
ENDBRANCH  22  23
ENDBRANCH   1  22
TORSDOF 15
