REMARK SMILES Cc1cc(Cl)c2c(c1)C=C(C(=O)OCCOC(=O)c1ccc(-c3c4nc(c(-c5cc(S(=O)(=O)[O-])ccc5F)c5ccc([nH]5)c(-c5cc(S(=O)(=O)[O-])ccc5F)c5nc(c(-c6cc(S(=O)(=O)[O-])ccc6F)c6ccc3[nH]6)C=C5)C=C4)cc1)[C@@H](C(F)(F)F)O2
REMARK SMILES IDX 15 1 14 2 13 3 11 4 12 5 10 6 1 7 2 8 3 9 8 10 4 11 7 12
REMARK SMILES IDX 5 13 6 14 9 15 87 16 82 17 83 18 84 19 85 20 86 21 16 22
REMARK SMILES IDX 17 23 18 24 19 25 20 26 81 27 21 28 80 29 22 30 23 31 24 32
REMARK SMILES IDX 74 33 25 34 79 35 73 36 75 37 26 38 78 39 72 40 71 41 27 43
REMARK SMILES IDX 59 44 39 45 58 46 40 47 43 48 57 49 76 50 41 51 42 52 56 54
REMARK SMILES IDX 77 55 44 56 28 57 29 58 37 59 30 60 36 61 38 62 35 63 31 64
REMARK SMILES IDX 32 65 33 66 34 67 60 68 61 69 69 70 62 71 68 72 70 73 67 74
REMARK SMILES IDX 63 75 64 76 65 77 66 78 45 79 46 80 54 81 47 82 53 83 55 84
REMARK SMILES IDX 52 85 48 86 49 87 50 88 51 89
REMARK H PARENT 75 42 43 53
REMARK Flexibility Score: inf
ROOT
ATOM      1  C   UNL     1      -6.179  -5.360  -4.440  1.00  0.00     0.275 C 
ENDROOT
BRANCH   1   2
ATOM      2  C   UNL     1      -4.854  -6.020  -4.819  1.00  0.00     0.275 C 
BRANCH   2   3
ATOM      3  O   UNL     1      -3.847  -5.800  -3.808  1.00  0.00    -0.459 OA
BRANCH   3   4
ATOM      4  C   UNL     1      -2.920  -4.862  -4.110  1.00  0.00     0.338 C 
ATOM      5  O   UNL     1      -2.845  -4.223  -5.147  1.00  0.00    -0.246 OA
BRANCH   4   6
ATOM      6  C   UNL     1      -1.970  -4.689  -2.997  1.00  0.00     0.087 C 
ATOM      7  C   UNL     1       1.067  -0.275   0.048  1.00  0.00     0.044 C 
ATOM      8  C   UNL     1       0.717  -1.680  -0.349  1.00  0.00    -0.049 A 
ATOM      9  C   UNL     1       1.422  -2.771   0.170  1.00  0.00     0.028 A 
ATOM     10  C   UNL     1      -0.348  -1.922  -1.220  1.00  0.00     0.015 A 
ATOM     11  C   UNL     1       1.078  -4.079  -0.195  1.00  0.00     0.084 A 
ATOM     12  C   UNL     1      -0.678  -3.231  -1.601  1.00  0.00     0.019 A 
ATOM     13  Cl  UNL     1       2.000  -5.383   0.468  1.00  0.00    -0.080 Cl
ATOM     14  C   UNL     1       0.029  -4.319  -1.090  1.00  0.00     0.146 A 
ATOM     15  C   UNL     1      -1.734  -3.445  -2.569  1.00  0.00     0.027 C 
ATOM     16  O   UNL     1      -0.277  -5.615  -1.416  1.00  0.00    -0.474 OA
ATOM     17  C   UNL     1      -1.200  -5.879  -2.509  1.00  0.00     0.316 C 
BRANCH  17  18
ATOM     18  C   UNL     1      -0.436  -6.559  -3.656  1.00  0.00     0.430 C 
ATOM     19  F   UNL     1       0.269  -7.629  -3.217  1.00  0.00    -0.167 F 
ATOM     20  F   UNL     1      -1.283  -7.028  -4.607  1.00  0.00    -0.167 F 
ATOM     21  F   UNL     1       0.432  -5.722  -4.266  1.00  0.00    -0.167 F 
ENDBRANCH  17  18
ENDBRANCH   4   6
ENDBRANCH   3   4
ENDBRANCH   2   3
ENDBRANCH   1   2
BRANCH   1  22
ATOM     22  O   UNL     1      -6.041  -3.928  -4.437  1.00  0.00    -0.458 OA
BRANCH  22  23
ATOM     23  C   UNL     1      -6.014  -3.356  -3.211  1.00  0.00     0.338 C 
ATOM     24  O   UNL     1      -6.147  -3.913  -2.135  1.00  0.00    -0.246 OA
BRANCH  23  25
ATOM     25  C   UNL     1      -5.718  -1.920  -3.328  1.00  0.00     0.060 A 
ATOM     26  C   UNL     1      -4.468  -1.535  -3.797  1.00  0.00     0.016 A 
ATOM     27  C   UNL     1      -6.583  -0.970  -2.791  1.00  0.00     0.016 A 
ATOM     28  C   UNL     1      -4.008  -0.243  -3.567  1.00  0.00     0.010 A 
ATOM     29  C   UNL     1      -6.175   0.368  -2.713  1.00  0.00     0.010 A 
ATOM     30  C   UNL     1      -4.859   0.741  -3.045  1.00  0.00    -0.014 A 
BRANCH  30  31
ATOM     31  C   UNL     1      -4.359   2.132  -2.821  1.00  0.00     0.031 A 
ATOM     32  C   UNL     1      -4.497   2.784  -1.464  1.00  0.00     0.074 A 
ATOM     33  C   UNL     1      -3.741   2.807  -3.815  1.00  0.00     0.049 A 
ATOM     34  N   UNL     1      -4.299   4.032  -1.123  1.00  0.00    -0.248 NA
ATOM     35  C   UNL     1      -4.926   1.925  -0.349  1.00  0.00     0.031 C 
ATOM     36  C   UNL     1      -3.473   2.284  -5.158  1.00  0.00     0.029 A 
ATOM     37  N   UNL     1      -3.202   4.070  -3.849  1.00  0.00    -0.354 N 
ATOM     38  C   UNL     1      -4.631   4.119   0.226  1.00  0.00     0.074 A 
ATOM     39  C   UNL     1      -5.057   2.800   0.638  1.00  0.00     0.031 C 
ATOM     40  C   UNL     1      -2.759   3.181  -5.851  1.00  0.00     0.029 A 
ATOM     41  C   UNL     1      -2.629   4.395  -5.058  1.00  0.00     0.049 A 
ATOM     42  H   UNL     1      -3.223   4.685  -3.081  1.00  0.00     0.167 HD
ATOM     43  C   UNL     1      -4.579   5.199   1.044  1.00  0.00     0.034 A 
ATOM     44  C   UNL     1      -2.105   5.552  -5.510  1.00  0.00     0.034 A 
ATOM     45  C   UNL     1      -4.098   6.495   0.635  1.00  0.00     0.049 A 
ATOM     46  C   UNL     1      -2.136   6.758  -4.613  1.00  0.00     0.074 A 
ATOM     47  C   UNL     1      -4.003   7.655   1.386  1.00  0.00     0.029 A 
ATOM     48  N   UNL     1      -3.614   6.801  -0.630  1.00  0.00    -0.354 N 
ATOM     49  N   UNL     1      -2.554   6.848  -3.373  1.00  0.00    -0.248 NA
ATOM     50  C   UNL     1      -1.659   8.023  -5.186  1.00  0.00     0.031 C 
ATOM     51  C   UNL     1      -3.514   8.673   0.561  1.00  0.00     0.029 A 
ATOM     52  C   UNL     1      -3.243   8.135  -0.686  1.00  0.00     0.049 A 
ATOM     53  H   UNL     1      -3.544   6.163  -1.377  1.00  0.00     0.167 HD
ATOM     54  C   UNL     1      -2.387   8.181  -3.015  1.00  0.00     0.074 A 
ATOM     55  C   UNL     1      -1.813   8.853  -4.163  1.00  0.00     0.031 C 
ATOM     56  C   UNL     1      -2.688   8.793  -1.843  1.00  0.00     0.034 A 
BRANCH  43  57
ATOM     57  C   UNL     1      -5.093   5.044   2.454  1.00  0.00     0.023 A 
ATOM     58  C   UNL     1      -4.422   4.262   3.408  1.00  0.00     0.031 A 
ATOM     59  C   UNL     1      -6.264   5.715   2.854  1.00  0.00     0.131 A 
ATOM     60  C   UNL     1      -4.950   4.135   4.702  1.00  0.00     0.055 A 
ATOM     61  C   UNL     1      -6.748   5.636   4.160  1.00  0.00     0.041 A 
ATOM     62  F   UNL     1      -6.954   6.463   1.979  1.00  0.00    -0.206 F 
ATOM     63  C   UNL     1      -6.095   4.836   5.092  1.00  0.00     0.022 A 
BRANCH  60  64
ATOM     64  S   UNL     1      -4.165   2.972   5.851  1.00  0.00     0.124 S 
ATOM     65  O   UNL     1      -4.389   1.696   5.175  1.00  0.00    -0.237 OA
ATOM     66  O   UNL     1      -2.785   3.442   5.885  1.00  0.00    -0.237 OA
ATOM     67  O   UNL     1      -4.917   3.155   7.091  1.00  0.00    -0.744 OA
ENDBRANCH  60  64
ENDBRANCH  43  57
BRANCH  44  68
ATOM     68  C   UNL     1      -1.578   5.641  -6.901  1.00  0.00     0.023 A 
ATOM     69  C   UNL     1      -0.214   5.863  -7.143  1.00  0.00     0.031 A 
ATOM     70  C   UNL     1      -2.431   5.495  -8.011  1.00  0.00     0.131 A 
ATOM     71  C   UNL     1       0.256   5.942  -8.463  1.00  0.00     0.055 A 
ATOM     72  C   UNL     1      -1.951   5.526  -9.321  1.00  0.00     0.041 A 
ATOM     73  F   UNL     1      -3.745   5.281  -7.835  1.00  0.00    -0.206 F 
ATOM     74  C   UNL     1      -0.599   5.756  -9.552  1.00  0.00     0.022 A 
BRANCH  71  75
ATOM     75  S   UNL     1       2.007   6.326  -8.742  1.00  0.00     0.124 S 
ATOM     76  O   UNL     1       2.109   7.667  -8.178  1.00  0.00    -0.237 OA
ATOM     77  O   UNL     1       2.674   5.263  -7.997  1.00  0.00    -0.237 OA
ATOM     78  O   UNL     1       2.145   6.246 -10.194  1.00  0.00    -0.744 OA
ENDBRANCH  71  75
ENDBRANCH  44  68
BRANCH  56  79
ATOM     79  C   UNL     1      -2.386  10.263  -1.737  1.00  0.00     0.023 A 
ATOM     80  C   UNL     1      -3.156  11.215  -2.425  1.00  0.00     0.031 A 
ATOM     81  C   UNL     1      -1.345  10.716  -0.909  1.00  0.00     0.131 A 
ATOM     82  C   UNL     1      -2.856  12.578  -2.293  1.00  0.00     0.055 A 
ATOM     83  C   UNL     1      -1.081  12.076  -0.745  1.00  0.00     0.041 A 
ATOM     84  F   UNL     1      -0.583   9.844  -0.231  1.00  0.00    -0.206 F 
ATOM     85  C   UNL     1      -1.835  13.015  -1.443  1.00  0.00     0.022 A 
BRANCH  82  86
ATOM     86  S   UNL     1      -3.797  13.776  -3.276  1.00  0.00     0.124 S 
ATOM     87  O   UNL     1      -3.414  13.415  -4.637  1.00  0.00    -0.237 OA
ATOM     88  O   UNL     1      -5.176  13.478  -2.902  1.00  0.00    -0.237 OA
ATOM     89  O   UNL     1      -3.296  15.068  -2.813  1.00  0.00    -0.744 OA
ENDBRANCH  82  86
ENDBRANCH  56  79
ENDBRANCH  30  31
ENDBRANCH  23  25
ENDBRANCH  22  23
ENDBRANCH   1  22
TORSDOF 15
