REMARK SMILES CN(Cc1ncc(C(=O)OCCOC(=O)c2ccc(-c3c4nc(c(-c5cc(S(=O)(=O)[O-])ccc5F)c5ccc([nH]5)c(-c5cc(S(=O)(=O)[O-])ccc5F)c5nc(c(-c6cc(S(=O)(=O)[O-])ccc6F)c6ccc3[nH]6)C=C5)C=C4)cc2)cn1)S(=O)(=O)c1ccc(Cl)cc1
REMARK SMILES IDX 11 1 10 2 8 3 9 4 7 5 4 6 5 7 80 8 6 9 79 10 3 11 2 12 1 13
REMARK SMILES IDX 81 14 82 15 83 16 84 17 85 18 90 19 86 20 89 21 87 22 88 23
REMARK SMILES IDX 12 24 13 25 14 26 15 27 16 28 17 29 78 30 18 31 77 32 19 33
REMARK SMILES IDX 20 34 21 35 71 36 22 37 76 38 70 39 72 40 23 41 75 42 69 43
REMARK SMILES IDX 68 44 24 46 56 47 36 48 55 49 37 50 40 51 54 52 73 53 38 54
REMARK SMILES IDX 39 55 53 57 74 58 41 59 25 60 26 61 34 62 27 63 33 64 35 65
REMARK SMILES IDX 32 66 28 67 29 68 30 69 31 70 57 71 58 72 66 73 59 74 65 75
REMARK SMILES IDX 67 76 64 77 60 78 61 79 62 80 63 81 42 82 43 83 51 84 44 85
REMARK SMILES IDX 50 86 52 87 49 88 45 89 46 90 47 91 48 92
REMARK H PARENT 72 45 40 56
REMARK Flexibility Score: inf
ROOT
ATOM      1  C   UNL     1      -4.698   6.130  -1.226  1.00  0.00     0.275 C 
ENDROOT
BRANCH   1   2
ATOM      2  O   UNL     1      -4.322   4.755  -1.000  1.00  0.00    -0.458 OA
BRANCH   2   3
ATOM      3  C   UNL     1      -3.311   4.311  -1.778  1.00  0.00     0.341 C 
ATOM      4  O   UNL     1      -2.752   4.918  -2.675  1.00  0.00    -0.246 OA
BRANCH   3   5
ATOM      5  C   UNL     1      -2.925   2.958  -1.408  1.00  0.00     0.096 A 
ATOM      6  C   UNL     1      -1.790   0.510  -1.219  1.00  0.00     0.143 A 
ATOM      7  N   UNL     1      -2.918   0.625  -1.961  1.00  0.00    -0.239 NA
ATOM      8  N   UNL     1      -1.286   1.497  -0.456  1.00  0.00    -0.239 NA
ATOM      9  C   UNL     1      -3.461   1.863  -2.039  1.00  0.00     0.130 A 
ATOM     10  C   UNL     1      -1.842   2.716  -0.601  1.00  0.00     0.130 A 
BRANCH   6  11
ATOM     11  C   UNL     1      -1.025  -0.802  -1.281  1.00  0.00     0.179 C 
BRANCH  11  12
ATOM     12  N   UNL     1       0.472  -0.759  -1.378  1.00  0.00    -0.193 NA
ATOM     13  C   UNL     1       1.122  -0.360  -0.103  1.00  0.00     0.125 C 
BRANCH  12  14
ATOM     14  S   UNL     1       1.144   0.045  -2.726  1.00  0.00     0.243 S 
ATOM     15  O   UNL     1       0.598   1.376  -2.809  1.00  0.00    -0.207 OA
ATOM     16  O   UNL     1       2.577  -0.182  -2.701  1.00  0.00    -0.207 OA
BRANCH  14  17
ATOM     17  C   UNL     1       0.525  -0.887  -4.108  1.00  0.00     0.082 A 
ATOM     18  C   UNL     1      -0.275  -0.259  -5.067  1.00  0.00     0.023 A 
ATOM     19  C   UNL     1       0.894  -2.229  -4.246  1.00  0.00     0.023 A 
ATOM     20  C   UNL     1      -0.722  -0.988  -6.171  1.00  0.00     0.022 A 
ATOM     21  C   UNL     1       0.440  -2.954  -5.349  1.00  0.00     0.022 A 
ATOM     22  C   UNL     1      -0.366  -2.331  -6.305  1.00  0.00     0.041 A 
ATOM     23  Cl  UNL     1      -0.923  -3.227  -7.665  1.00  0.00    -0.084 Cl
ENDBRANCH  14  17
ENDBRANCH  12  14
ENDBRANCH  11  12
ENDBRANCH   6  11
ENDBRANCH   3   5
ENDBRANCH   2   3
ENDBRANCH   1   2
BRANCH   1  24
ATOM     24  C   UNL     1      -4.105   7.047  -0.156  1.00  0.00     0.275 C 
BRANCH  24  25
ATOM     25  O   UNL     1      -2.672   7.143  -0.277  1.00  0.00    -0.458 OA
BRANCH  25  26
ATOM     26  C   UNL     1      -1.978   6.362   0.580  1.00  0.00     0.338 C 
ATOM     27  O   UNL     1      -2.439   5.595   1.410  1.00  0.00    -0.246 OA
BRANCH  26  28
ATOM     28  C   UNL     1      -0.529   6.479   0.353  1.00  0.00     0.060 A 
ATOM     29  C   UNL     1       0.055   5.718  -0.657  1.00  0.00     0.016 A 
ATOM     30  C   UNL     1       0.270   7.147   1.281  1.00  0.00     0.016 A 
ATOM     31  C   UNL     1       1.435   5.522  -0.663  1.00  0.00     0.010 A 
ATOM     32  C   UNL     1       1.665   7.048   1.190  1.00  0.00     0.010 A 
ATOM     33  C   UNL     1       2.268   6.200   0.242  1.00  0.00    -0.014 A 
BRANCH  33  34
ATOM     34  C   UNL     1       3.752   6.005   0.203  1.00  0.00     0.031 A 
ATOM     35  C   UNL     1       4.509   5.571   1.437  1.00  0.00     0.074 A 
ATOM     36  C   UNL     1       4.432   6.208  -0.945  1.00  0.00     0.049 A 
ATOM     37  N   UNL     1       5.801   5.532   1.649  1.00  0.00    -0.248 NA
ATOM     38  C   UNL     1       3.705   5.146   2.592  1.00  0.00     0.031 C 
ATOM     39  C   UNL     1       3.836   6.590  -2.227  1.00  0.00     0.029 A 
ATOM     40  N   UNL     1       5.774   6.110  -1.228  1.00  0.00    -0.354 N 
ATOM     41  C   UNL     1       5.965   5.136   2.974  1.00  0.00     0.074 A 
ATOM     42  C   UNL     1       4.634   4.962   3.520  1.00  0.00     0.031 C 
ATOM     43  C   UNL     1       4.791   6.636  -3.165  1.00  0.00     0.029 A 
ATOM     44  C   UNL     1       6.085   6.403  -2.537  1.00  0.00     0.049 A 
ATOM     45  H   UNL     1       6.449   5.855  -0.558  1.00  0.00     0.167 HD
ATOM     46  C   UNL     1       7.116   4.939   3.669  1.00  0.00     0.034 A 
ATOM     47  C   UNL     1       7.273   6.528  -3.161  1.00  0.00     0.034 A 
ATOM     48  C   UNL     1       8.437   5.062   3.093  1.00  0.00     0.049 A 
ATOM     49  C   UNL     1       8.535   6.340  -2.364  1.00  0.00     0.074 A 
ATOM     50  C   UNL     1       9.665   4.862   3.701  1.00  0.00     0.029 A 
ATOM     51  N   UNL     1       8.704   5.404   1.773  1.00  0.00    -0.354 N 
ATOM     52  N   UNL     1       8.672   6.043  -1.092  1.00  0.00    -0.248 NA
ATOM     53  C   UNL     1       9.802   6.523  -3.082  1.00  0.00     0.031 C 
ATOM     54  C   UNL     1      10.672   5.141   2.769  1.00  0.00     0.029 A 
ATOM     55  C   UNL     1      10.075   5.446   1.557  1.00  0.00     0.049 A 
ATOM     56  H   UNL     1       8.020   5.591   1.090  1.00  0.00     0.167 HD
ATOM     57  C   UNL     1      10.042   5.991  -0.863  1.00  0.00     0.074 A 
ATOM     58  C   UNL     1      10.688   6.266  -2.131  1.00  0.00     0.031 C 
ATOM     59  C   UNL     1      10.708   5.742   0.293  1.00  0.00     0.034 A 
BRANCH  46  60
ATOM     60  C   UNL     1       7.001   4.631   5.146  1.00  0.00     0.023 A 
ATOM     61  C   UNL     1       6.403   3.453   5.626  1.00  0.00     0.031 A 
ATOM     62  C   UNL     1       7.489   5.551   6.093  1.00  0.00     0.131 A 
ATOM     63  C   UNL     1       6.245   3.261   7.009  1.00  0.00     0.055 A 
ATOM     64  C   UNL     1       7.401   5.317   7.467  1.00  0.00     0.041 A 
ATOM     65  F   UNL     1       8.054   6.704   5.699  1.00  0.00    -0.206 F 
ATOM     66  C   UNL     1       6.763   4.173   7.933  1.00  0.00     0.022 A 
BRANCH  63  67
ATOM     67  S   UNL     1       5.230   1.871   7.584  1.00  0.00     0.124 S 
ATOM     68  O   UNL     1       3.954   2.145   6.926  1.00  0.00    -0.237 OA
ATOM     69  O   UNL     1       5.968   0.715   7.091  1.00  0.00    -0.237 OA
ATOM     70  O   UNL     1       5.218   2.032   9.037  1.00  0.00    -0.744 OA
ENDBRANCH  63  67
ENDBRANCH  46  60
BRANCH  47  71
ATOM     71  C   UNL     1       7.328   6.926  -4.598  1.00  0.00     0.023 A 
ATOM     72  C   UNL     1       7.867   6.070  -5.571  1.00  0.00     0.031 A 
ATOM     73  C   UNL     1       6.862   8.187  -5.014  1.00  0.00     0.131 A 
ATOM     74  C   UNL     1       7.956   6.499  -6.905  1.00  0.00     0.055 A 
ATOM     75  C   UNL     1       6.896   8.584  -6.351  1.00  0.00     0.041 A 
ATOM     76  F   UNL     1       6.341   9.047  -4.124  1.00  0.00    -0.206 F 
ATOM     77  C   UNL     1       7.457   7.741  -7.304  1.00  0.00     0.022 A 
BRANCH  74  78
ATOM     78  S   UNL     1       8.812   5.441  -8.105  1.00  0.00     0.124 S 
ATOM     79  O   UNL     1      10.133   5.314  -7.500  1.00  0.00    -0.237 OA
ATOM     80  O   UNL     1       7.984   4.240  -8.098  1.00  0.00    -0.237 OA
ATOM     81  O   UNL     1       8.764   6.221  -9.340  1.00  0.00    -0.744 OA
ENDBRANCH  74  78
ENDBRANCH  47  71
BRANCH  59  82
ATOM     82  C   UNL     1      12.214   5.719   0.216  1.00  0.00     0.023 A 
ATOM     83  C   UNL     1      12.958   6.886  -0.034  1.00  0.00     0.031 A 
ATOM     84  C   UNL     1      12.910   4.506   0.360  1.00  0.00     0.131 A 
ATOM     85  C   UNL     1      14.350   6.806  -0.190  1.00  0.00     0.055 A 
ATOM     86  C   UNL     1      14.301   4.442   0.260  1.00  0.00     0.041 A 
ATOM     87  F   UNL     1      12.249   3.362   0.597  1.00  0.00    -0.206 F 
ATOM     88  C   UNL     1      15.027   5.594  -0.030  1.00  0.00     0.022 A 
BRANCH  85  89
ATOM     89  S   UNL     1      15.259   8.293  -0.694  1.00  0.00     0.124 S 
ATOM     90  O   UNL     1      14.624   8.619  -1.967  1.00  0.00    -0.237 OA
ATOM     91  O   UNL     1      14.990   9.212   0.406  1.00  0.00    -0.237 OA
ATOM     92  O   UNL     1      16.643   7.833  -0.792  1.00  0.00    -0.744 OA
ENDBRANCH  85  89
ENDBRANCH  59  82
ENDBRANCH  33  34
ENDBRANCH  26  28
ENDBRANCH  25  26
ENDBRANCH  24  25
ENDBRANCH   1  24
TORSDOF 18
