REMARK SMILES C[C@@H]1[NH2+]CC[C@H]1C(=O)NCc1cccc(C(=O)OCCOC(=O)c2ccc(-c3c4nc(c(-c5cc(S(=O)(=O)[O-])ccc5F)c5ccc([nH]5)c(-c5cc(S(=O)(=O)[O-])ccc5F)c5nc(c(-c6cc(S(=O)(=O)[O-])ccc6F)c6ccc3[nH]6)C=C5)C=C4)cc2)c1
REMARK SMILES IDX 19 1 18 2 16 3 17 4 15 5 11 6 12 7 87 8 13 9 14 10 10 11
REMARK SMILES IDX 9 12 7 13 8 14 6 16 1 17 2 18 3 19 4 20 5 23 20 24 21 25
REMARK SMILES IDX 22 26 23 27 24 28 25 29 86 30 26 31 85 32 27 33 28 34 29 35
REMARK SMILES IDX 79 36 30 37 84 38 78 39 80 40 31 41 83 42 77 43 76 44 32 46
REMARK SMILES IDX 64 47 44 48 63 49 45 50 48 51 62 52 81 53 46 54 47 55 61 57
REMARK SMILES IDX 82 58 49 59 33 60 34 61 42 62 35 63 41 64 43 65 40 66 36 67
REMARK SMILES IDX 37 68 38 69 39 70 65 71 66 72 74 73 67 74 73 75 75 76 72 77
REMARK SMILES IDX 68 78 69 79 70 80 71 81 50 82 51 83 59 84 52 85 58 86 60 87
REMARK SMILES IDX 57 88 53 89 54 90 55 91 56 92
REMARK H PARENT 9 15 3 21 3 22 80 45 48 56
REMARK Flexibility Score: inf
ROOT
ATOM      1  C   UNL     1       2.775   3.062   7.485  1.00  0.00     0.275 C 
ENDROOT
BRANCH   1   2
ATOM      2  O   UNL     1       2.039   2.289   6.518  1.00  0.00    -0.458 OA
BRANCH   2   3
ATOM      3  C   UNL     1       2.606   1.120   6.125  1.00  0.00     0.338 C 
ATOM      4  O   UNL     1       3.690   0.687   6.481  1.00  0.00    -0.246 OA
BRANCH   3   5
ATOM      5  C   UNL     1       1.670   0.356   5.260  1.00  0.00     0.060 A 
ATOM      6  C   UNL     1      -0.262   0.220   3.785  1.00  0.00    -0.028 A 
ATOM      7  C   UNL     1      -0.162  -1.180   3.815  1.00  0.00     0.005 A 
ATOM      8  C   UNL     1       0.635   0.980   4.553  1.00  0.00     0.021 A 
ATOM      9  C   UNL     1       0.883  -1.804   4.495  1.00  0.00     0.001 A 
ATOM     10  C   UNL     1       1.818  -1.034   5.182  1.00  0.00     0.016 A 
BRANCH   6  11
ATOM     11  C   UNL     1      -1.337   0.873   2.953  1.00  0.00     0.151 C 
BRANCH  11  12
ATOM     12  N   UNL     1      -0.871   2.087   2.304  1.00  0.00    -0.352 N 
ATOM     13  C   UNL     1      -0.319   2.320   1.087  1.00  0.00     0.229 C 
ATOM     14  O   UNL     1       0.077   3.471   0.867  1.00  0.00    -0.275 OA
ATOM     15  H   UNL     1      -0.976   2.897   2.854  1.00  0.00     0.163 HD
BRANCH  13  16
ATOM     16  C   UNL     1      -0.198   1.265  -0.002  1.00  0.00     0.142 C 
ATOM     17  C   UNL     1       1.970   0.050  -0.519  1.00  0.00     0.076 C 
ATOM     18  C   UNL     1       0.710   0.086   0.348  1.00  0.00     0.192 C 
ATOM     19  N   UNL     1      -0.068  -1.141   0.107  1.00  0.00    -0.343 N 
ATOM     20  C   UNL     1      -1.209  -0.784  -0.733  1.00  0.00     0.261 C 
ATOM     21  H   UNL     1      -0.396  -1.524   0.994  1.00  0.00     0.346 HD
ATOM     22  H   UNL     1       0.508  -1.846  -0.353  1.00  0.00     0.346 HD
ATOM     23  C   UNL     1      -1.524   0.669  -0.447  1.00  0.00     0.081 C 
ENDBRANCH  13  16
ENDBRANCH  11  12
ENDBRANCH   6  11
ENDBRANCH   3   5
ENDBRANCH   2   3
ENDBRANCH   1   2
BRANCH   1  24
ATOM     24  C   UNL     1       2.109   2.988   8.859  1.00  0.00     0.275 C 
BRANCH  24  25
ATOM     25  O   UNL     1       2.229   1.661   9.406  1.00  0.00    -0.458 OA
BRANCH  25  26
ATOM     26  C   UNL     1       1.084   0.940   9.443  1.00  0.00     0.338 C 
ATOM     27  O   UNL     1      -0.035   1.307   9.129  1.00  0.00    -0.246 OA
BRANCH  26  28
ATOM     28  C   UNL     1       1.401  -0.445   9.823  1.00  0.00     0.060 A 
ATOM     29  C   UNL     1       1.628  -1.359   8.797  1.00  0.00     0.016 A 
ATOM     30  C   UNL     1       1.366  -0.872  11.149  1.00  0.00     0.016 A 
ATOM     31  C   UNL     1       1.791  -2.712   9.077  1.00  0.00     0.010 A 
ATOM     32  C   UNL     1       1.566  -2.230  11.436  1.00  0.00     0.010 A 
ATOM     33  C   UNL     1       1.756  -3.167  10.401  1.00  0.00    -0.014 A 
BRANCH  33  34
ATOM     34  C   UNL     1       1.827  -4.630  10.678  1.00  0.00     0.031 A 
ATOM     35  C   UNL     1       0.628  -5.340  11.252  1.00  0.00     0.074 A 
ATOM     36  C   UNL     1       2.933  -5.335  10.371  1.00  0.00     0.049 A 
ATOM     37  N   UNL     1       0.512  -6.574  11.669  1.00  0.00    -0.248 NA
ATOM     38  C   UNL     1      -0.603  -4.545  11.378  1.00  0.00     0.031 C 
ATOM     39  C   UNL     1       4.141  -4.785   9.752  1.00  0.00     0.029 A 
ATOM     40  N   UNL     1       3.220  -6.670  10.525  1.00  0.00    -0.354 N 
ATOM     41  C   UNL     1      -0.788  -6.695  12.149  1.00  0.00     0.074 A 
ATOM     42  C   UNL     1      -1.415  -5.399  11.984  1.00  0.00     0.031 C 
ATOM     43  C   UNL     1       5.025  -5.777   9.557  1.00  0.00     0.029 A 
ATOM     44  C   UNL     1       4.482  -7.018  10.101  1.00  0.00     0.049 A 
ATOM     45  H   UNL     1       2.582  -7.317  10.903  1.00  0.00     0.167 HD
ATOM     46  C   UNL     1      -1.402  -7.785  12.676  1.00  0.00     0.034 A 
ATOM     47  C   UNL     1       5.142  -8.192  10.174  1.00  0.00     0.034 A 
ATOM     48  C   UNL     1      -0.776  -9.079  12.804  1.00  0.00     0.049 A 
ATOM     49  C   UNL     1       4.457  -9.377  10.806  1.00  0.00     0.074 A 
ATOM     50  C   UNL     1      -1.307 -10.248  13.322  1.00  0.00     0.029 A 
ATOM     51  N   UNL     1       0.519  -9.380  12.401  1.00  0.00    -0.354 N 
ATOM     52  N   UNL     1       3.249  -9.460  11.313  1.00  0.00    -0.248 NA
ATOM     53  C   UNL     1       5.229 -10.625  10.883  1.00  0.00     0.031 C 
ATOM     54  C   UNL     1      -0.318 -11.238  13.284  1.00  0.00     0.029 A 
ATOM     55  C   UNL     1       0.810 -10.708  12.678  1.00  0.00     0.049 A 
ATOM     56  H   UNL     1       1.141  -8.743  11.980  1.00  0.00     0.167 HD
ATOM     57  C   UNL     1       3.111 -10.774  11.753  1.00  0.00     0.074 A 
ATOM     58  C   UNL     1       4.351 -11.451  11.433  1.00  0.00     0.031 C 
ATOM     59  C   UNL     1       2.055 -11.368  12.365  1.00  0.00     0.034 A 
BRANCH  46  60
ATOM     60  C   UNL     1      -2.801  -7.598  13.213  1.00  0.00     0.023 A 
ATOM     61  C   UNL     1      -3.885  -7.272  12.379  1.00  0.00     0.031 A 
ATOM     62  C   UNL     1      -3.045  -7.710  14.594  1.00  0.00     0.131 A 
ATOM     63  C   UNL     1      -5.142  -6.996  12.940  1.00  0.00     0.055 A 
ATOM     64  C   UNL     1      -4.316  -7.514  15.137  1.00  0.00     0.041 A 
ATOM     65  F   UNL     1      -2.046  -7.999  15.443  1.00  0.00    -0.206 F 
ATOM     66  C   UNL     1      -5.370  -7.139  14.311  1.00  0.00     0.022 A 
BRANCH  63  67
ATOM     67  S   UNL     1      -6.437  -6.306  11.873  1.00  0.00     0.124 S 
ATOM     68  O   UNL     1      -5.797  -5.088  11.382  1.00  0.00    -0.237 OA
ATOM     69  O   UNL     1      -6.633  -7.365  10.890  1.00  0.00    -0.237 OA
ATOM     70  O   UNL     1      -7.556  -6.088  12.788  1.00  0.00    -0.744 OA
ENDBRANCH  63  67
ENDBRANCH  46  60
BRANCH  47  71
ATOM     71  C   UNL     1       6.551  -8.297   9.693  1.00  0.00     0.023 A 
ATOM     72  C   UNL     1       6.896  -9.140   8.624  1.00  0.00     0.031 A 
ATOM     73  C   UNL     1       7.583  -7.586  10.331  1.00  0.00     0.131 A 
ATOM     74  C   UNL     1       8.242  -9.277   8.250  1.00  0.00     0.055 A 
ATOM     75  C   UNL     1       8.913  -7.684   9.920  1.00  0.00     0.041 A 
ATOM     76  F   UNL     1       7.309  -6.770  11.362  1.00  0.00    -0.206 F 
ATOM     77  C   UNL     1       9.250  -8.544   8.880  1.00  0.00     0.022 A 
BRANCH  74  78
ATOM     78  S   UNL     1       8.671 -10.494   6.974  1.00  0.00     0.124 S 
ATOM     79  O   UNL     1       8.168 -11.730   7.561  1.00  0.00    -0.237 OA
ATOM     80  O   UNL     1       7.940  -9.989   5.816  1.00  0.00    -0.237 OA
ATOM     81  O   UNL     1      10.126 -10.393   6.882  1.00  0.00    -0.744 OA
ENDBRANCH  74  78
ENDBRANCH  47  71
BRANCH  59  82
ATOM     82  C   UNL     1       2.189 -12.836  12.684  1.00  0.00     0.023 A 
ATOM     83  C   UNL     1       3.082 -13.303  13.664  1.00  0.00     0.031 A 
ATOM     84  C   UNL     1       1.421 -13.782  11.982  1.00  0.00     0.131 A 
ATOM     85  C   UNL     1       3.225 -14.682  13.878  1.00  0.00     0.055 A 
ATOM     86  C   UNL     1       1.530 -15.150  12.236  1.00  0.00     0.041 A 
ATOM     87  F   UNL     1       0.554 -13.391  11.035  1.00  0.00    -0.206 F 
ATOM     88  C   UNL     1       2.445 -15.608  13.180  1.00  0.00     0.022 A 
BRANCH  85  89
ATOM     89  S   UNL     1       4.509 -15.259  15.023  1.00  0.00     0.124 S 
ATOM     90  O   UNL     1       5.720 -14.704  14.428  1.00  0.00    -0.237 OA
ATOM     91  O   UNL     1       4.089 -14.665  16.288  1.00  0.00    -0.237 OA
ATOM     92  O   UNL     1       4.398 -16.716  14.957  1.00  0.00    -0.744 OA
ENDBRANCH  85  89
ENDBRANCH  59  82
ENDBRANCH  33  34
ENDBRANCH  26  28
ENDBRANCH  25  26
ENDBRANCH  24  25
ENDBRANCH   1  24
TORSDOF 17
