REMARK SMILES Cc1ccc(C(=O)OCCOC(=O)c2ccc(-c3c4nc(c(-c5cc(S(=O)(=O)[O-])ccc5F)c5ccc([nH]5)c(-c5cc(S(=O)(=O)[O-])ccc5F)c5nc(c(-c6cc(S(=O)(=O)[O-])ccc6F)c6ccc3[nH]6)C=C5)C=C4)cc2)cc1S(=O)(=O)N(C)[C@H]1CCSC1
REMARK SMILES IDX 9 1 8 2 6 3 7 4 5 5 1 6 2 7 3 8 78 9 4 10 77 11 79 12 80 13
REMARK SMILES IDX 81 14 82 15 83 16 84 17 85 18 88 19 86 20 87 21 10 22 11 23
REMARK SMILES IDX 12 24 13 25 14 26 15 27 76 28 16 29 75 30 17 31 18 32 19 33
REMARK SMILES IDX 69 34 20 35 74 36 68 37 70 38 21 39 73 40 67 41 66 42 22 44
REMARK SMILES IDX 54 45 34 46 53 47 35 48 38 49 52 50 71 51 36 52 37 53 51 55
REMARK SMILES IDX 72 56 39 57 23 58 24 59 32 60 25 61 31 62 33 63 30 64 26 65
REMARK SMILES IDX 27 66 28 67 29 68 55 69 56 70 64 71 57 72 63 73 65 74 62 75
REMARK SMILES IDX 58 76 59 77 60 78 61 79 40 80 41 81 49 82 42 83 48 84 50 85
REMARK SMILES IDX 47 86 43 87 44 88 45 89 46 90
REMARK H PARENT 70 43 38 54
REMARK Flexibility Score: inf
ROOT
ATOM      1  C   UNL     1      -4.110   4.234  -4.282  1.00  0.00     0.275 C 
ENDROOT
BRANCH   1   2
ATOM      2  O   UNL     1      -2.893   3.518  -4.043  1.00  0.00    -0.458 OA
BRANCH   2   3
ATOM      3  C   UNL     1      -2.169   4.064  -3.041  1.00  0.00     0.338 C 
ATOM      4  O   UNL     1      -2.426   5.107  -2.455  1.00  0.00    -0.246 OA
BRANCH   3   5
ATOM      5  C   UNL     1      -0.922   3.330  -2.768  1.00  0.00     0.061 A 
ATOM      6  C   UNL     1       2.607   1.439  -1.173  1.00  0.00     0.046 C 
ATOM      7  C   UNL     1       1.497   2.199  -1.830  1.00  0.00    -0.031 A 
ATOM      8  C   UNL     1       0.376   1.402  -2.159  1.00  0.00     0.006 A 
ATOM      9  C   UNL     1       1.404   3.581  -2.075  1.00  0.00     0.086 A 
ATOM     10  C   UNL     1      -0.799   1.953  -2.679  1.00  0.00     0.016 A 
ATOM     11  C   UNL     1       0.179   4.126  -2.490  1.00  0.00     0.037 A 
BRANCH   9  12
ATOM     12  S   UNL     1       2.656   4.848  -2.038  1.00  0.00     0.243 S 
ATOM     13  O   UNL     1       3.063   5.043  -3.409  1.00  0.00    -0.207 OA
ATOM     14  O   UNL     1       2.096   5.949  -1.269  1.00  0.00    -0.207 OA
BRANCH  12  15
ATOM     15  N   UNL     1       3.978   4.288  -1.178  1.00  0.00    -0.197 NA
ATOM     16  C   UNL     1       5.076   3.705  -1.946  1.00  0.00     0.125 C 
BRANCH  15  17
ATOM     17  C   UNL     1       3.924   4.364   0.297  1.00  0.00     0.083 C 
ATOM     18  C   UNL     1       4.778   3.348   1.044  1.00  0.00     0.032 C 
ATOM     19  C   UNL     1       4.364   5.738   0.816  1.00  0.00     0.089 C 
ATOM     20  C   UNL     1       4.571   3.675   2.514  1.00  0.00     0.071 C 
ATOM     21  S   UNL     1       4.749   5.477   2.579  1.00  0.00    -0.160 SA
ENDBRANCH  15  17
ENDBRANCH  12  15
ENDBRANCH   9  12
ENDBRANCH   3   5
ENDBRANCH   2   3
ENDBRANCH   1   2
BRANCH   1  22
ATOM     22  C   UNL     1      -5.175   3.380  -4.988  1.00  0.00     0.275 C 
BRANCH  22  23
ATOM     23  O   UNL     1      -5.530   2.066  -4.488  1.00  0.00    -0.458 OA
BRANCH  23  24
ATOM     24  C   UNL     1      -4.662   1.377  -3.703  1.00  0.00     0.338 C 
ATOM     25  O   UNL     1      -3.801   0.627  -4.135  1.00  0.00    -0.246 OA
BRANCH  24  26
ATOM     26  C   UNL     1      -4.737   1.840  -2.296  1.00  0.00     0.060 A 
ATOM     27  C   UNL     1      -3.741   1.444  -1.389  1.00  0.00     0.016 A 
ATOM     28  C   UNL     1      -5.616   2.876  -1.984  1.00  0.00     0.016 A 
ATOM     29  C   UNL     1      -3.539   2.161  -0.221  1.00  0.00     0.010 A 
ATOM     30  C   UNL     1      -5.329   3.685  -0.922  1.00  0.00     0.010 A 
ATOM     31  C   UNL     1      -4.340   3.279  -0.015  1.00  0.00    -0.014 A 
BRANCH  31  32
ATOM     32  C   UNL     1      -4.585   3.820   1.305  1.00  0.00     0.031 A 
ATOM     33  C   UNL     1      -3.791   4.943   1.810  1.00  0.00     0.074 A 
ATOM     34  C   UNL     1      -5.732   3.289   1.787  1.00  0.00     0.049 A 
ATOM     35  N   UNL     1      -3.625   5.218   3.054  1.00  0.00    -0.248 NA
ATOM     36  C   UNL     1      -3.019   5.832   0.937  1.00  0.00     0.031 C 
ATOM     37  C   UNL     1      -6.674   3.715   2.798  1.00  0.00     0.029 A 
ATOM     38  N   UNL     1      -6.227   2.040   1.408  1.00  0.00    -0.354 N 
ATOM     39  C   UNL     1      -3.180   6.527   3.095  1.00  0.00     0.074 A 
ATOM     40  C   UNL     1      -2.599   6.766   1.800  1.00  0.00     0.031 C 
ATOM     41  C   UNL     1      -7.423   2.649   3.159  1.00  0.00     0.029 A 
ATOM     42  C   UNL     1      -6.885   1.470   2.479  1.00  0.00     0.049 A 
ATOM     43  H   UNL     1      -6.124   1.632   0.518  1.00  0.00     0.167 HD
ATOM     44  C   UNL     1      -3.639   7.337   4.093  1.00  0.00     0.034 A 
ATOM     45  C   UNL     1      -6.247   0.418   3.079  1.00  0.00     0.034 A 
ATOM     46  C   UNL     1      -4.548   6.574   4.952  1.00  0.00     0.049 A 
ATOM     47  C   UNL     1      -5.724   0.863   4.426  1.00  0.00     0.074 A 
ATOM     48  C   UNL     1      -5.931   6.499   4.979  1.00  0.00     0.029 A 
ATOM     49  N   UNL     1      -4.076   5.464   5.640  1.00  0.00    -0.354 N 
ATOM     50  N   UNL     1      -5.267   2.061   4.687  1.00  0.00    -0.248 NA
ATOM     51  C   UNL     1      -5.828   0.018   5.606  1.00  0.00     0.031 C 
ATOM     52  C   UNL     1      -6.284   5.279   5.613  1.00  0.00     0.029 A 
ATOM     53  C   UNL     1      -5.118   4.612   5.950  1.00  0.00     0.049 A 
ATOM     54  H   UNL     1      -3.133   5.306   5.873  1.00  0.00     0.167 HD
ATOM     55  C   UNL     1      -5.149   2.201   6.045  1.00  0.00     0.074 A 
ATOM     56  C   UNL     1      -5.476   0.882   6.571  1.00  0.00     0.031 C 
ATOM     57  C   UNL     1      -4.862   3.383   6.673  1.00  0.00     0.034 A 
BRANCH  44  58
ATOM     58  C   UNL     1      -3.630   8.853   4.087  1.00  0.00     0.023 A 
ATOM     59  C   UNL     1      -4.615   9.530   4.842  1.00  0.00     0.031 A 
ATOM     60  C   UNL     1      -2.745   9.687   3.380  1.00  0.00     0.131 A 
ATOM     61  C   UNL     1      -4.758  10.927   4.808  1.00  0.00     0.055 A 
ATOM     62  C   UNL     1      -2.894  11.085   3.330  1.00  0.00     0.041 A 
ATOM     63  F   UNL     1      -1.673   9.199   2.742  1.00  0.00    -0.206 F 
ATOM     64  C   UNL     1      -3.911  11.712   4.037  1.00  0.00     0.022 A 
BRANCH  61  65
ATOM     65  S   UNL     1      -6.077  11.688   5.793  1.00  0.00     0.124 S 
ATOM     66  O   UNL     1      -7.279  11.132   5.179  1.00  0.00    -0.237 OA
ATOM     67  O   UNL     1      -5.769  11.225   7.141  1.00  0.00    -0.237 OA
ATOM     68  O   UNL     1      -5.880  13.121   5.575  1.00  0.00    -0.744 OA
ENDBRANCH  61  65
ENDBRANCH  44  58
BRANCH  45  69
ATOM     69  C   UNL     1      -5.544  -0.514   2.120  1.00  0.00     0.023 A 
ATOM     70  C   UNL     1      -6.272  -0.984   0.998  1.00  0.00     0.031 A 
ATOM     71  C   UNL     1      -4.159  -0.734   2.107  1.00  0.00     0.131 A 
ATOM     72  C   UNL     1      -5.619  -1.518  -0.126  1.00  0.00     0.055 A 
ATOM     73  C   UNL     1      -3.514  -1.329   1.005  1.00  0.00     0.041 A 
ATOM     74  F   UNL     1      -3.385  -0.306   3.114  1.00  0.00    -0.206 F 
ATOM     75  C   UNL     1      -4.238  -1.701  -0.129  1.00  0.00     0.022 A 
BRANCH  72  76
ATOM     76  S   UNL     1      -6.573  -1.720  -1.663  1.00  0.00     0.124 S 
ATOM     77  O   UNL     1      -7.362  -2.913  -1.380  1.00  0.00    -0.237 OA
ATOM     78  O   UNL     1      -7.315  -0.462  -1.731  1.00  0.00    -0.237 OA
ATOM     79  O   UNL     1      -5.543  -1.878  -2.684  1.00  0.00    -0.744 OA
ENDBRANCH  72  76
ENDBRANCH  45  69
BRANCH  57  80
ATOM     80  C   UNL     1      -4.402   3.497   8.101  1.00  0.00     0.023 A 
ATOM     81  C   UNL     1      -3.870   2.406   8.790  1.00  0.00     0.031 A 
ATOM     82  C   UNL     1      -4.369   4.739   8.780  1.00  0.00     0.131 A 
ATOM     83  C   UNL     1      -3.458   2.529  10.121  1.00  0.00     0.055 A 
ATOM     84  C   UNL     1      -3.837   4.885  10.061  1.00  0.00     0.041 A 
ATOM     85  F   UNL     1      -4.836   5.869   8.229  1.00  0.00    -0.206 F 
ATOM     86  C   UNL     1      -3.401   3.767  10.754  1.00  0.00     0.022 A 
BRANCH  83  87
ATOM     87  S   UNL     1      -3.124   1.003  11.025  1.00  0.00     0.124 S 
ATOM     88  O   UNL     1      -4.417   0.326  10.950  1.00  0.00    -0.237 OA
ATOM     89  O   UNL     1      -2.050   0.401  10.242  1.00  0.00    -0.237 OA
ATOM     90  O   UNL     1      -2.743   1.469  12.356  1.00  0.00    -0.744 OA
ENDBRANCH  83  87
ENDBRANCH  57  80
ENDBRANCH  31  32
ENDBRANCH  24  26
ENDBRANCH  23  24
ENDBRANCH  22  23
ENDBRANCH   1  22
TORSDOF 17
