REMARK SMILES CCNC(=O)N1CC[C@@H](C(=O)OCCOC(=O)c2ccc(-c3c4nc(c(-c5cc(S(=O)(=O)[O-])ccc5F)c5ccc([nH]5)c(-c5cc(S(=O)(=O)[O-])ccc5F)c5nc(c(-c6cc(S(=O)(=O)[O-])ccc6F)c6ccc3[nH]6)C=C5)C=C4)cc2)[C@H]1C
REMARK SMILES IDX 14 1 13 2 12 3 10 4 11 5 9 6 6 7 7 8 81 9 8 10 82 11 4 12
REMARK SMILES IDX 3 13 5 15 2 16 1 17 15 18 16 19 17 20 18 21 19 22 80 23
REMARK SMILES IDX 20 24 79 25 21 26 22 27 23 28 73 29 24 30 78 31 72 32 74 33
REMARK SMILES IDX 25 34 77 35 71 36 70 37 26 39 58 40 38 41 57 42 39 43 42 44
REMARK SMILES IDX 56 45 75 46 40 47 41 48 55 50 76 51 43 52 27 53 28 54 36 55
REMARK SMILES IDX 29 56 35 57 37 58 34 59 30 60 31 61 32 62 33 63 59 64 60 65
REMARK SMILES IDX 68 66 61 67 67 68 69 69 66 70 62 71 63 72 64 73 65 74 44 75
REMARK SMILES IDX 45 76 53 77 46 78 52 79 54 80 51 81 47 82 48 83 49 84 50 85
REMARK H PARENT 3 14 74 38 42 49
REMARK Flexibility Score: inf
ROOT
ATOM      1  C   UNL     1      -5.601   1.760   3.125  1.00  0.00     0.275 C 
ENDROOT
BRANCH   1   2
ATOM      2  C   UNL     1      -5.948   1.099   1.784  1.00  0.00     0.274 C 
BRANCH   2   3
ATOM      3  O   UNL     1      -4.890   1.278   0.821  1.00  0.00    -0.462 OA
BRANCH   3   4
ATOM      4  C   UNL     1      -4.955   2.390   0.055  1.00  0.00     0.311 C 
ATOM      5  O   UNL     1      -5.949   3.103  -0.030  1.00  0.00    -0.252 OA
BRANCH   4   6
ATOM      6  C   UNL     1      -3.700   2.668  -0.742  1.00  0.00     0.123 C 
ATOM      7  N   UNL     1      -1.446   2.242  -1.373  1.00  0.00    -0.321 N 
ATOM      8  C   UNL     1      -2.285   2.271  -2.562  1.00  0.00     0.122 C 
ATOM      9  C   UNL     1      -2.280   2.459  -0.155  1.00  0.00     0.098 C 
ATOM     10  C   UNL     1      -3.669   1.914  -2.064  1.00  0.00     0.039 C 
ATOM     11  C   UNL     1      -2.135   1.345   0.871  1.00  0.00     0.032 C 
BRANCH   7  12
ATOM     12  C   UNL     1      -0.155   2.688  -1.516  1.00  0.00     0.317 C 
ATOM     13  N   UNL     1       0.801   2.242  -0.669  1.00  0.00    -0.338 N 
ATOM     14  H   UNL     1       1.542   2.866  -0.493  1.00  0.00     0.165 HD
ATOM     15  O   UNL     1       0.191   3.435  -2.431  1.00  0.00    -0.249 OA
BRANCH  13  16
ATOM     16  C   UNL     1       0.878   0.967   0.010  1.00  0.00     0.114 C 
ATOM     17  C   UNL     1       2.054   0.137  -0.472  1.00  0.00     0.027 C 
ENDBRANCH  13  16
ENDBRANCH   7  12
ENDBRANCH   4   6
ENDBRANCH   3   4
ENDBRANCH   2   3
ENDBRANCH   1   2
BRANCH   1  18
ATOM     18  O   UNL     1      -5.713   3.195   3.053  1.00  0.00    -0.458 OA
BRANCH  18  19
ATOM     19  C   UNL     1      -4.554   3.881   2.937  1.00  0.00     0.338 C 
ATOM     20  O   UNL     1      -3.419   3.419   2.930  1.00  0.00    -0.246 OA
BRANCH  19  21
ATOM     21  C   UNL     1      -4.835   5.294   2.665  1.00  0.00     0.060 A 
ATOM     22  C   UNL     1      -4.511   5.799   1.404  1.00  0.00     0.016 A 
ATOM     23  C   UNL     1      -5.347   6.131   3.656  1.00  0.00     0.016 A 
ATOM     24  C   UNL     1      -4.715   7.143   1.115  1.00  0.00     0.010 A 
ATOM     25  C   UNL     1      -5.551   7.483   3.366  1.00  0.00     0.010 A 
ATOM     26  C   UNL     1      -5.237   7.995   2.095  1.00  0.00    -0.014 A 
BRANCH  26  27
ATOM     27  C   UNL     1      -5.422   9.433   1.788  1.00  0.00     0.031 A 
ATOM     28  C   UNL     1      -4.471  10.443   2.357  1.00  0.00     0.074 A 
ATOM     29  C   UNL     1      -6.431   9.815   0.984  1.00  0.00     0.049 A 
ATOM     30  N   UNL     1      -4.511  11.748   2.292  1.00  0.00    -0.248 NA
ATOM     31  C   UNL     1      -3.323   9.909   3.105  1.00  0.00     0.031 C 
ATOM     32  C   UNL     1      -7.378   8.907   0.333  1.00  0.00     0.029 A 
ATOM     33  N   UNL     1      -6.831  11.062   0.580  1.00  0.00    -0.354 N 
ATOM     34  C   UNL     1      -3.405  12.197   3.004  1.00  0.00     0.074 A 
ATOM     35  C   UNL     1      -2.728  11.021   3.511  1.00  0.00     0.031 C 
ATOM     36  C   UNL     1      -8.251   9.630  -0.387  1.00  0.00     0.029 A 
ATOM     37  C   UNL     1      -7.961  11.049  -0.204  1.00  0.00     0.049 A 
ATOM     38  H   UNL     1      -6.356  11.888   0.828  1.00  0.00     0.167 HD
ATOM     39  C   UNL     1      -2.998  13.474   3.212  1.00  0.00     0.034 A 
ATOM     40  C   UNL     1      -8.699  12.067  -0.687  1.00  0.00     0.034 A 
ATOM     41  C   UNL     1      -3.696  14.629   2.697  1.00  0.00     0.049 A 
ATOM     42  C   UNL     1      -8.270  13.479  -0.379  1.00  0.00     0.074 A 
ATOM     43  C   UNL     1      -3.376  15.968   2.842  1.00  0.00     0.029 A 
ATOM     44  N   UNL     1      -4.862  14.582   1.942  1.00  0.00    -0.354 N 
ATOM     45  N   UNL     1      -7.239  13.895   0.319  1.00  0.00    -0.248 NA
ATOM     46  C   UNL     1      -9.105  14.557  -0.923  1.00  0.00     0.031 C 
ATOM     47  C   UNL     1      -4.381  16.729   2.231  1.00  0.00     0.029 A 
ATOM     48  C   UNL     1      -5.291  15.866   1.641  1.00  0.00     0.049 A 
ATOM     49  H   UNL     1      -5.318  13.755   1.661  1.00  0.00     0.167 HD
ATOM     50  C   UNL     1      -7.290  15.285   0.281  1.00  0.00     0.074 A 
ATOM     51  C   UNL     1      -8.445  15.634  -0.522  1.00  0.00     0.031 C 
ATOM     52  C   UNL     1      -6.459  16.192   0.855  1.00  0.00     0.034 A 
BRANCH  39  53
ATOM     53  C   UNL     1      -1.784  13.679   4.086  1.00  0.00     0.023 A 
ATOM     54  C   UNL     1      -0.508  13.222   3.710  1.00  0.00     0.031 A 
ATOM     55  C   UNL     1      -1.916  14.303   5.340  1.00  0.00     0.131 A 
ATOM     56  C   UNL     1       0.567  13.332   4.606  1.00  0.00     0.055 A 
ATOM     57  C   UNL     1      -0.826  14.478   6.195  1.00  0.00     0.041 A 
ATOM     58  F   UNL     1      -3.113  14.738   5.764  1.00  0.00    -0.206 F 
ATOM     59  C   UNL     1       0.422  13.978   5.836  1.00  0.00     0.022 A 
BRANCH  56  60
ATOM     60  S   UNL     1       2.124  12.492   4.204  1.00  0.00     0.124 S 
ATOM     61  O   UNL     1       1.686  11.105   4.068  1.00  0.00    -0.237 OA
ATOM     62  O   UNL     1       2.533  13.158   2.973  1.00  0.00    -0.237 OA
ATOM     63  O   UNL     1       2.968  12.759   5.368  1.00  0.00    -0.744 OA
ENDBRANCH  56  60
ENDBRANCH  39  53
BRANCH  40  64
ATOM     64  C   UNL     1      -9.945  11.793  -1.457  1.00  0.00     0.023 A 
ATOM     65  C   UNL     1     -10.064  12.158  -2.806  1.00  0.00     0.031 A 
ATOM     66  C   UNL     1     -11.053  11.185  -0.836  1.00  0.00     0.131 A 
ATOM     67  C   UNL     1     -11.275  11.943  -3.483  1.00  0.00     0.055 A 
ATOM     68  C   UNL     1     -12.237  10.928  -1.528  1.00  0.00     0.041 A 
ATOM     69  F   UNL     1     -10.992  10.818   0.454  1.00  0.00    -0.206 F 
ATOM     70  C   UNL     1     -12.357  11.318  -2.857  1.00  0.00     0.022 A 
BRANCH  67  71
ATOM     71  S   UNL     1     -11.444  12.556  -5.182  1.00  0.00     0.124 S 
ATOM     72  O   UNL     1     -11.192  13.982  -5.010  1.00  0.00    -0.237 OA
ATOM     73  O   UNL     1     -10.410  11.801  -5.881  1.00  0.00    -0.237 OA
ATOM     74  O   UNL     1     -12.817  12.203  -5.537  1.00  0.00    -0.744 OA
ENDBRANCH  67  71
ENDBRANCH  40  64
BRANCH  52  75
ATOM     75  C   UNL     1      -6.761  17.646   0.594  1.00  0.00     0.023 A 
ATOM     76  C   UNL     1      -7.901  18.271   1.129  1.00  0.00     0.031 A 
ATOM     77  C   UNL     1      -5.905  18.410  -0.219  1.00  0.00     0.131 A 
ATOM     78  C   UNL     1      -8.184  19.605   0.799  1.00  0.00     0.055 A 
ATOM     79  C   UNL     1      -6.162  19.753  -0.498  1.00  0.00     0.041 A 
ATOM     80  F   UNL     1      -4.803  17.861  -0.756  1.00  0.00    -0.206 F 
ATOM     81  C   UNL     1      -7.314  20.354   0.002  1.00  0.00     0.022 A 
BRANCH  78  82
ATOM     82  S   UNL     1      -9.752  20.327   1.357  1.00  0.00     0.124 S 
ATOM     83  O   UNL     1     -10.732  19.436   0.744  1.00  0.00    -0.237 OA
ATOM     84  O   UNL     1      -9.636  20.244   2.809  1.00  0.00    -0.237 OA
ATOM     85  O   UNL     1      -9.720  21.682   0.810  1.00  0.00    -0.744 OA
ENDBRANCH  78  82
ENDBRANCH  52  75
ENDBRANCH  26  27
ENDBRANCH  19  21
ENDBRANCH  18  19
ENDBRANCH   1  18
TORSDOF 16
