REMARK SMILES O=C(OCCOC(=O)c1ccc(CNC(=O)c2ccc(F)cc2Br)o1)c1ccc(-c2c3nc(c(-c4cc(S(=O)(=O)[O-])ccc4F)c4ccc([nH]4)c(-c4cc(S(=O)(=O)[O-])ccc4F)c4nc(c(-c5cc(S(=O)(=O)[O-])ccc5F)c5ccc2[nH]5)C=C4)C=C3)cc1
REMARK SMILES IDX 4 1 3 2 2 3 1 4 26 5 27 6 88 7 28 8 87 9 29 10 30 11 31 12
REMARK SMILES IDX 81 13 32 14 86 15 80 16 82 17 33 18 85 19 79 20 78 21 34 23
REMARK SMILES IDX 66 24 46 25 65 26 47 27 50 28 64 29 83 30 48 31 49 32 63 34
REMARK SMILES IDX 84 35 51 36 35 37 36 38 44 39 37 40 43 41 45 42 42 43 38 44
REMARK SMILES IDX 39 45 40 46 41 47 67 48 68 49 76 50 69 51 75 52 77 53 74 54
REMARK SMILES IDX 70 55 71 56 72 57 73 58 52 59 53 60 61 61 54 62 60 63 62 64
REMARK SMILES IDX 59 65 55 66 56 67 57 68 58 69 5 70 6 71 7 72 8 73 9 74 10 75
REMARK SMILES IDX 25 76 11 77 12 78 13 79 14 80 15 81 16 83 17 84 18 85 23 86
REMARK SMILES IDX 19 87 22 88 24 89 20 90 21 91
REMARK H PARENT 82 22 50 33 14 82
REMARK Flexibility Score: inf
ROOT
ATOM      1  C   UNL     1       4.053   0.796  -1.452  1.00  0.00     0.275 C 
ENDROOT
BRANCH   1   2
ATOM      2  O   UNL     1       3.087  -0.204  -1.084  1.00  0.00    -0.458 OA
BRANCH   2   3
ATOM      3  C   UNL     1       3.168  -1.111  -0.080  1.00  0.00     0.338 C 
ATOM      4  O   UNL     1       2.539  -2.164  -0.153  1.00  0.00    -0.246 OA
BRANCH   3   5
ATOM      5  C   UNL     1       3.835  -0.785   1.211  1.00  0.00     0.060 A 
ATOM      6  C   UNL     1       5.163  -0.372   1.339  1.00  0.00     0.016 A 
ATOM      7  C   UNL     1       3.101  -1.054   2.378  1.00  0.00     0.016 A 
ATOM      8  C   UNL     1       5.724  -0.156   2.605  1.00  0.00     0.010 A 
ATOM      9  C   UNL     1       3.668  -0.865   3.643  1.00  0.00     0.010 A 
ATOM     10  C   UNL     1       4.984  -0.408   3.765  1.00  0.00    -0.014 A 
BRANCH  10  11
ATOM     11  C   UNL     1       5.628  -0.311   5.096  1.00  0.00     0.031 A 
ATOM     12  C   UNL     1       6.159  -1.553   5.749  1.00  0.00     0.074 A 
ATOM     13  C   UNL     1       5.738   0.877   5.718  1.00  0.00     0.049 A 
ATOM     14  N   UNL     1       6.806  -1.681   6.878  1.00  0.00    -0.248 NA
ATOM     15  C   UNL     1       5.931  -2.815   5.031  1.00  0.00     0.031 C 
ATOM     16  C   UNL     1       5.263   2.153   5.186  1.00  0.00     0.029 A 
ATOM     17  N   UNL     1       6.272   1.202   6.938  1.00  0.00    -0.354 N 
ATOM     18  C   UNL     1       7.112  -3.033   6.983  1.00  0.00     0.074 A 
ATOM     19  C   UNL     1       6.502  -3.690   5.845  1.00  0.00     0.031 C 
ATOM     20  C   UNL     1       5.488   3.118   6.094  1.00  0.00     0.029 A 
ATOM     21  C   UNL     1       6.135   2.530   7.264  1.00  0.00     0.049 A 
ATOM     22  H   UNL     1       6.712   0.546   7.526  1.00  0.00     0.167 HD
ATOM     23  C   UNL     1       7.863  -3.664   7.919  1.00  0.00     0.034 A 
ATOM     24  C   UNL     1       6.490   3.195   8.382  1.00  0.00     0.034 A 
ATOM     25  C   UNL     1       8.423  -3.013   9.075  1.00  0.00     0.049 A 
ATOM     26  C   UNL     1       7.230   2.459   9.467  1.00  0.00     0.074 A 
ATOM     27  C   UNL     1       9.201  -3.552  10.085  1.00  0.00     0.029 A 
ATOM     28  N   UNL     1       8.242  -1.672   9.389  1.00  0.00    -0.354 N 
ATOM     29  N   UNL     1       7.571   1.192   9.519  1.00  0.00    -0.248 NA
ATOM     30  C   UNL     1       7.657   3.248  10.630  1.00  0.00     0.031 C 
ATOM     31  C   UNL     1       9.449  -2.549  11.032  1.00  0.00     0.029 A 
ATOM     32  C   UNL     1       8.866  -1.372  10.589  1.00  0.00     0.049 A 
ATOM     33  H   UNL     1       7.742  -1.027   8.838  1.00  0.00     0.167 HD
ATOM     34  C   UNL     1       8.287   1.041  10.703  1.00  0.00     0.074 A 
ATOM     35  C   UNL     1       8.320   2.344  11.338  1.00  0.00     0.031 C 
ATOM     36  C   UNL     1       8.878  -0.070  11.211  1.00  0.00     0.034 A 
BRANCH  23  37
ATOM     37  C   UNL     1       8.089  -5.138   7.710  1.00  0.00     0.023 A 
ATOM     38  C   UNL     1       8.833  -5.603   6.610  1.00  0.00     0.031 A 
ATOM     39  C   UNL     1       7.493  -6.087   8.555  1.00  0.00     0.131 A 
ATOM     40  C   UNL     1       8.891  -6.976   6.335  1.00  0.00     0.055 A 
ATOM     41  C   UNL     1       7.614  -7.458   8.316  1.00  0.00     0.041 A 
ATOM     42  F   UNL     1       6.755  -5.698   9.606  1.00  0.00    -0.206 F 
ATOM     43  C   UNL     1       8.300  -7.908   7.190  1.00  0.00     0.022 A 
BRANCH  40  44
ATOM     44  S   UNL     1       9.618  -7.510   4.761  1.00  0.00     0.124 S 
ATOM     45  O   UNL     1       8.781  -6.803   3.794  1.00  0.00    -0.237 OA
ATOM     46  O   UNL     1      10.995  -7.043   4.875  1.00  0.00    -0.237 OA
ATOM     47  O   UNL     1       9.447  -8.961   4.780  1.00  0.00    -0.744 OA
ENDBRANCH  40  44
ENDBRANCH  23  37
BRANCH  24  48
ATOM     48  C   UNL     1       6.137   4.631   8.538  1.00  0.00     0.023 A 
ATOM     49  C   UNL     1       7.117   5.633   8.507  1.00  0.00     0.031 A 
ATOM     50  C   UNL     1       4.800   5.013   8.748  1.00  0.00     0.131 A 
ATOM     51  C   UNL     1       6.749   6.972   8.715  1.00  0.00     0.055 A 
ATOM     52  C   UNL     1       4.436   6.348   8.928  1.00  0.00     0.041 A 
ATOM     53  F   UNL     1       3.826   4.088   8.771  1.00  0.00    -0.206 F 
ATOM     54  C   UNL     1       5.416   7.336   8.921  1.00  0.00     0.022 A 
BRANCH  51  55
ATOM     55  S   UNL     1       8.051   8.234   8.759  1.00  0.00     0.124 S 
ATOM     56  O   UNL     1       8.919   7.733   9.819  1.00  0.00    -0.237 OA
ATOM     57  O   UNL     1       8.584   8.161   7.403  1.00  0.00    -0.237 OA
ATOM     58  O   UNL     1       7.324   9.461   9.075  1.00  0.00    -0.744 OA
ENDBRANCH  51  55
ENDBRANCH  24  48
BRANCH  36  59
ATOM     59  C   UNL     1       9.647   0.101  12.493  1.00  0.00     0.023 A 
ATOM     60  C   UNL     1       8.994   0.296  13.722  1.00  0.00     0.031 A 
ATOM     61  C   UNL     1      11.053   0.087  12.478  1.00  0.00     0.131 A 
ATOM     62  C   UNL     1       9.750   0.515  14.883  1.00  0.00     0.055 A 
ATOM     63  C   UNL     1      11.799   0.264  13.644  1.00  0.00     0.041 A 
ATOM     64  F   UNL     1      11.721  -0.094  11.328  1.00  0.00    -0.206 F 
ATOM     65  C   UNL     1      11.147   0.489  14.854  1.00  0.00     0.022 A 
BRANCH  62  66
ATOM     66  S   UNL     1       8.880   0.897  16.428  1.00  0.00     0.124 S 
ATOM     67  O   UNL     1       8.192   2.138  16.089  1.00  0.00    -0.237 OA
ATOM     68  O   UNL     1       8.030  -0.276  16.607  1.00  0.00    -0.237 OA
ATOM     69  O   UNL     1       9.960   1.032  17.405  1.00  0.00    -0.744 OA
ENDBRANCH  62  66
ENDBRANCH  36  59
ENDBRANCH  10  11
ENDBRANCH   3   5
ENDBRANCH   2   3
ENDBRANCH   1   2
BRANCH   1  70
ATOM     70  C   UNL     1       3.604   2.221  -1.134  1.00  0.00     0.275 C 
BRANCH  70  71
ATOM     71  O   UNL     1       3.256   2.390   0.246  1.00  0.00    -0.456 OA
BRANCH  71  72
ATOM     72  C   UNL     1       1.929   2.221   0.533  1.00  0.00     0.374 C 
ATOM     73  O   UNL     1       1.059   1.997  -0.299  1.00  0.00    -0.242 OA
BRANCH  72  74
ATOM     74  C   UNL     1       1.739   2.285   1.958  1.00  0.00     0.211 A 
ATOM     75  C   UNL     1       2.292   3.083   2.942  1.00  0.00     0.058 A 
ATOM     76  O   UNL     1       0.909   1.363   2.536  1.00  0.00    -0.452 OA
ATOM     77  C   UNL     1       1.794   2.607   4.181  1.00  0.00     0.048 A 
ATOM     78  C   UNL     1       0.997   1.523   3.887  1.00  0.00     0.124 A 
BRANCH  78  79
ATOM     79  C   UNL     1       0.355   0.479   4.720  1.00  0.00     0.191 C 
BRANCH  79  80
ATOM     80  N   UNL     1      -1.077   0.477   4.526  1.00  0.00    -0.345 N 
ATOM     81  C   UNL     1      -1.914  -0.608   4.474  1.00  0.00     0.252 C 
ATOM     82  H   UNL     1      -1.501   1.358   4.418  1.00  0.00     0.164 HD
ATOM     83  O   UNL     1      -3.126  -0.467   4.351  1.00  0.00    -0.269 OA
BRANCH  81  84
ATOM     84  C   UNL     1      -1.346  -1.968   4.595  1.00  0.00     0.054 A 
ATOM     85  C   UNL     1      -0.791  -2.356   5.825  1.00  0.00     0.018 A 
ATOM     86  C   UNL     1      -1.383  -2.872   3.524  1.00  0.00     0.033 A 
ATOM     87  C   UNL     1      -0.257  -3.636   5.974  1.00  0.00     0.040 A 
ATOM     88  C   UNL     1      -0.855  -4.157   3.683  1.00  0.00     0.055 A 
ATOM     89  Br  UNL     1      -2.089  -2.422   1.822  1.00  0.00    -0.050 Br
ATOM     90  C   UNL     1      -0.299  -4.524   4.904  1.00  0.00     0.124 A 
ATOM     91  F   UNL     1       0.199  -5.758   5.054  1.00  0.00    -0.207 F 
ENDBRANCH  81  84
ENDBRANCH  79  80
ENDBRANCH  78  79
ENDBRANCH  72  74
ENDBRANCH  71  72
ENDBRANCH  70  71
ENDBRANCH   1  70
TORSDOF 17
