REMARK SMILES O=C(CC1(CC(=O)OCCOC(=O)c2ccc(-c3c4nc(c(-c5cc(S(=O)(=O)[O-])ccc5F)c5ccc([nH]5)c(-c5cc(S(=O)(=O)[O-])ccc5F)c5nc(c(-c6cc(S(=O)(=O)[O-])ccc6F)c6ccc3[nH]6)C=C5)C=C4)cc2)CCCC1)NNc1ccc([N+](=O)[O-])cc1
REMARK SMILES IDX 8 1 6 2 7 3 5 4 4 5 77 6 80 7 78 8 79 9 3 10 2 11 1 12 81 13
REMARK SMILES IDX 82 15 83 17 84 18 91 19 85 20 90 21 86 22 87 23 88 24 89 25
REMARK SMILES IDX 9 26 10 27 11 28 12 29 13 30 14 31 15 32 76 33 16 34 75 35
REMARK SMILES IDX 17 36 18 37 19 38 69 39 20 40 74 41 68 42 70 43 21 44 73 45
REMARK SMILES IDX 67 46 66 47 22 49 54 50 34 51 53 52 35 53 38 54 52 55 71 56
REMARK SMILES IDX 36 57 37 58 51 60 72 61 39 62 23 63 24 64 32 65 25 66 31 67
REMARK SMILES IDX 33 68 30 69 26 70 27 71 28 72 29 73 55 74 56 75 64 76 57 77
REMARK SMILES IDX 63 78 65 79 62 80 58 81 59 82 60 83 61 84 40 85 41 86 49 87
REMARK SMILES IDX 42 88 48 89 50 90 47 91 43 92 44 93 45 94 46 95
REMARK H PARENT 81 14 82 16 70 48 38 59
REMARK Flexibility Score: inf
ROOT
ATOM      1  O   UNL     1       2.493   2.237   1.111  1.00  0.00    -0.462 OA
ENDROOT
BRANCH   1   2
ATOM      2  C   UNL     1       3.687   2.887   1.298  1.00  0.00     0.306 C 
ATOM      3  O   UNL     1       3.993   3.444   2.350  1.00  0.00    -0.252 OA
BRANCH   2   4
ATOM      4  C   UNL     1       4.729   2.791   0.113  1.00  0.00     0.130 C 
BRANCH   4   5
ATOM      5  C   UNL     1       4.341   2.122  -1.242  1.00  0.00    -0.010 C 
ATOM      6  C   UNL     1       5.383   2.183  -2.393  1.00  0.00     0.008 C 
ATOM      7  C   UNL     1       3.219   2.959  -1.892  1.00  0.00     0.008 C 
ATOM      8  C   UNL     1       5.304   3.554  -3.021  1.00  0.00     0.001 C 
ATOM      9  C   UNL     1       3.978   4.129  -2.544  1.00  0.00     0.001 C 
BRANCH   5  10
ATOM     10  C   UNL     1       4.161   0.609  -1.110  1.00  0.00     0.109 C 
BRANCH  10  11
ATOM     11  C   UNL     1       3.599   0.172   0.182  1.00  0.00     0.238 C 
ATOM     12  O   UNL     1       2.400  -0.075   0.154  1.00  0.00    -0.273 OA
ATOM     13  N   UNL     1       4.468   0.088   1.284  1.00  0.00    -0.270 N 
ATOM     14  H   UNL     1       5.396   0.411   1.226  1.00  0.00     0.191 HD
BRANCH  13  15
ATOM     15  N   UNL     1       3.971  -0.467   2.457  1.00  0.00    -0.299 N 
ATOM     16  H   UNL     1       3.324  -1.200   2.348  1.00  0.00     0.188 HD
BRANCH  15  17
ATOM     17  C   UNL     1       4.280  -0.109   3.778  1.00  0.00     0.055 A 
ATOM     18  C   UNL     1       3.599  -0.829   4.792  1.00  0.00     0.034 A 
ATOM     19  C   UNL     1       5.234   0.821   4.173  1.00  0.00     0.034 A 
ATOM     20  C   UNL     1       3.860  -0.643   6.150  1.00  0.00     0.088 A 
ATOM     21  C   UNL     1       5.507   1.026   5.541  1.00  0.00     0.088 A 
ATOM     22  C   UNL     1       4.833   0.280   6.522  1.00  0.00     0.269 A 
BRANCH  22  23
ATOM     23  N   UNL     1       5.156   0.452   7.945  1.00  0.00     0.062 N 
ATOM     24  O   UNL     1       4.510  -0.212   8.770  1.00  0.00    -0.258 OA
ATOM     25  O   UNL     1       6.049   1.258   8.243  1.00  0.00    -0.258 OA
ENDBRANCH  22  23
ENDBRANCH  15  17
ENDBRANCH  13  15
ENDBRANCH  10  11
ENDBRANCH   5  10
ENDBRANCH   4   5
ENDBRANCH   2   4
ENDBRANCH   1   2
BRANCH   1  26
ATOM     26  C   UNL     1       1.688   1.819   2.282  1.00  0.00     0.274 C 
BRANCH  26  27
ATOM     27  C   UNL     1       0.771   0.496   2.124  1.00  0.00     0.275 C 
BRANCH  27  28
ATOM     28  O   UNL     1       1.455  -0.830   2.266  1.00  0.00    -0.458 OA
BRANCH  28  29
ATOM     29  C   UNL     1       1.103  -1.919   1.487  1.00  0.00     0.338 C 
ATOM     30  O   UNL     1       0.026  -2.035   0.887  1.00  0.00    -0.246 OA
BRANCH  29  31
ATOM     31  C   UNL     1       2.220  -2.962   1.403  1.00  0.00     0.060 A 
ATOM     32  C   UNL     1       3.310  -2.799   0.528  1.00  0.00     0.016 A 
ATOM     33  C   UNL     1       2.209  -4.151   2.129  1.00  0.00     0.016 A 
ATOM     34  C   UNL     1       4.454  -3.615   0.536  1.00  0.00     0.010 A 
ATOM     35  C   UNL     1       3.299  -5.066   2.039  1.00  0.00     0.010 A 
ATOM     36  C   UNL     1       4.453  -4.790   1.274  1.00  0.00    -0.014 A 
BRANCH  36  37
ATOM     37  C   UNL     1       5.511  -5.816   0.999  1.00  0.00     0.031 A 
ATOM     38  C   UNL     1       5.247  -6.817  -0.100  1.00  0.00     0.074 A 
ATOM     39  C   UNL     1       6.718  -5.837   1.607  1.00  0.00     0.049 A 
ATOM     40  N   UNL     1       5.874  -7.926  -0.396  1.00  0.00    -0.248 NA
ATOM     41  C   UNL     1       4.122  -6.506  -0.994  1.00  0.00     0.031 C 
ATOM     42  C   UNL     1       7.221  -4.828   2.537  1.00  0.00     0.029 A 
ATOM     43  N   UNL     1       7.745  -6.757   1.534  1.00  0.00    -0.354 N 
ATOM     44  C   UNL     1       5.186  -8.474  -1.475  1.00  0.00     0.074 A 
ATOM     45  C   UNL     1       4.112  -7.559  -1.797  1.00  0.00     0.031 C 
ATOM     46  C   UNL     1       8.435  -5.207   2.982  1.00  0.00     0.029 A 
ATOM     47  C   UNL     1       8.771  -6.519   2.426  1.00  0.00     0.049 A 
ATOM     48  H   UNL     1       7.746  -7.513   0.903  1.00  0.00     0.167 HD
ATOM     49  C   UNL     1       5.410  -9.645  -2.119  1.00  0.00     0.034 A 
ATOM     50  C   UNL     1       9.817  -7.295   2.800  1.00  0.00     0.034 A 
ATOM     51  C   UNL     1       6.488 -10.545  -1.792  1.00  0.00     0.049 A 
ATOM     52  C   UNL     1       9.975  -8.668   2.172  1.00  0.00     0.074 A 
ATOM     53  C   UNL     1       6.781 -11.780  -2.346  1.00  0.00     0.029 A 
ATOM     54  N   UNL     1       7.453 -10.308  -0.823  1.00  0.00    -0.354 N 
ATOM     55  N   UNL     1       9.251  -9.238   1.235  1.00  0.00    -0.248 NA
ATOM     56  C   UNL     1      11.080  -9.506   2.661  1.00  0.00     0.031 C 
ATOM     57  C   UNL     1       7.876 -12.319  -1.663  1.00  0.00     0.029 A 
ATOM     58  C   UNL     1       8.322 -11.384  -0.743  1.00  0.00     0.049 A 
ATOM     59  H   UNL     1       7.511  -9.494  -0.272  1.00  0.00     0.167 HD
ATOM     60  C   UNL     1       9.834 -10.485   1.006  1.00  0.00     0.074 A 
ATOM     61  C   UNL     1      10.976 -10.578   1.889  1.00  0.00     0.031 C 
ATOM     62  C   UNL     1       9.460 -11.465   0.142  1.00  0.00     0.034 A 
BRANCH  49  63
ATOM     63  C   UNL     1       4.403 -10.067  -3.162  1.00  0.00     0.023 A 
ATOM     64  C   UNL     1       4.227  -9.368  -4.368  1.00  0.00     0.031 A 
ATOM     65  C   UNL     1       3.572 -11.177  -2.915  1.00  0.00     0.131 A 
ATOM     66  C   UNL     1       3.204  -9.749  -5.252  1.00  0.00     0.055 A 
ATOM     67  C   UNL     1       2.610 -11.597  -3.833  1.00  0.00     0.041 A 
ATOM     68  F   UNL     1       3.676 -11.865  -1.767  1.00  0.00    -0.206 F 
ATOM     69  C   UNL     1       2.412 -10.873  -5.005  1.00  0.00     0.022 A 
BRANCH  66  70
ATOM     70  S   UNL     1       2.832  -8.676  -6.666  1.00  0.00     0.124 S 
ATOM     71  O   UNL     1       2.491  -7.420  -6.002  1.00  0.00    -0.237 OA
ATOM     72  O   UNL     1       4.088  -8.684  -7.408  1.00  0.00    -0.237 OA
ATOM     73  O   UNL     1       1.714  -9.349  -7.324  1.00  0.00    -0.744 OA
ENDBRANCH  66  70
ENDBRANCH  49  63
BRANCH  50  74
ATOM     74  C   UNL     1      10.740  -6.874   3.906  1.00  0.00     0.023 A 
ATOM     75  C   UNL     1      12.128  -6.756   3.711  1.00  0.00     0.031 A 
ATOM     76  C   UNL     1      10.251  -6.683   5.213  1.00  0.00     0.131 A 
ATOM     77  C   UNL     1      12.976  -6.500   4.805  1.00  0.00     0.055 A 
ATOM     78  C   UNL     1      11.090  -6.369   6.285  1.00  0.00     0.041 A 
ATOM     79  F   UNL     1       8.940  -6.808   5.472  1.00  0.00    -0.206 F 
ATOM     80  C   UNL     1      12.464  -6.290   6.087  1.00  0.00     0.022 A 
BRANCH  77  81
ATOM     81  S   UNL     1      14.775  -6.550   4.554  1.00  0.00     0.124 S 
ATOM     82  O   UNL     1      14.965  -7.898   4.032  1.00  0.00    -0.237 OA
ATOM     83  O   UNL     1      14.976  -5.459   3.605  1.00  0.00    -0.237 OA
ATOM     84  O   UNL     1      15.313  -6.316   5.892  1.00  0.00    -0.744 OA
ENDBRANCH  77  81
ENDBRANCH  50  74
BRANCH  62  85
ATOM     85  C   UNL     1      10.335 -12.695   0.064  1.00  0.00     0.023 A 
ATOM     86  C   UNL     1      10.446 -13.600   1.134  1.00  0.00     0.031 A 
ATOM     87  C   UNL     1      11.067 -12.963  -1.107  1.00  0.00     0.131 A 
ATOM     88  C   UNL     1      11.313 -14.700   1.031  1.00  0.00     0.055 A 
ATOM     89  C   UNL     1      11.879 -14.092  -1.226  1.00  0.00     0.041 A 
ATOM     90  F   UNL     1      10.999 -12.133  -2.161  1.00  0.00    -0.206 F 
ATOM     91  C   UNL     1      12.016 -14.961  -0.148  1.00  0.00     0.022 A 
BRANCH  88  92
ATOM     92  S   UNL     1      11.583 -15.738   2.494  1.00  0.00     0.124 S 
ATOM     93  O   UNL     1      12.079 -14.769   3.466  1.00  0.00    -0.237 OA
ATOM     94  O   UNL     1      10.249 -16.272   2.749  1.00  0.00    -0.237 OA
ATOM     95  O   UNL     1      12.566 -16.721   2.041  1.00  0.00    -0.744 OA
ENDBRANCH  88  92
ENDBRANCH  62  85
ENDBRANCH  36  37
ENDBRANCH  29  31
ENDBRANCH  28  29
ENDBRANCH  27  28
ENDBRANCH  26  27
ENDBRANCH   1  26
TORSDOF 20
