REMARK SMILES CC[C@@](C)(NC(=O)Nc1cccc(C[NH2+]C)c1)C(=O)OCCOC(=O)c1ccc(-c2c3nc(c(-c4cc(S(=O)(=O)[O-])ccc4F)c4ccc([nH]4)c(-c4cc(S(=O)(=O)[O-])ccc4F)c4nc(c(-c5cc(S(=O)(=O)[O-])ccc5F)c5ccc2[nH]5)C=C4)C=C3)cc1
REMARK SMILES IDX 21 1 20 2 18 3 19 4 3 5 4 6 2 7 1 8 5 9 6 10 7 12 8 13 9 15
REMARK SMILES IDX 10 16 17 17 11 18 13 19 12 20 14 21 15 22 16 23 22 26 23 27
REMARK SMILES IDX 24 28 25 29 26 30 27 31 88 32 28 33 87 34 29 35 30 36 31 37
REMARK SMILES IDX 81 38 32 39 86 40 80 41 82 42 33 43 85 44 79 45 78 46 34 48
REMARK SMILES IDX 66 49 46 50 65 51 47 52 50 53 64 54 83 55 48 56 49 57 63 59
REMARK SMILES IDX 84 60 51 61 35 62 36 63 44 64 37 65 43 66 45 67 42 68 38 69
REMARK SMILES IDX 39 70 40 71 41 72 67 73 68 74 76 75 69 76 75 77 77 78 74 79
REMARK SMILES IDX 70 80 71 81 72 82 73 83 52 84 53 85 61 86 54 87 60 88 62 89
REMARK SMILES IDX 59 90 55 91 56 92 57 93 58 94
REMARK H PARENT 5 11 8 14 15 24 15 25 82 47 50 58
REMARK Flexibility Score: inf
ROOT
ATOM      1  C   UNL     1       3.979  -0.412   4.570  1.00  0.00     0.274 C 
ENDROOT
BRANCH   1   2
ATOM      2  O   UNL     1       2.520  -0.142   4.675  1.00  0.00    -0.460 OA
BRANCH   2   3
ATOM      3  C   UNL     1       1.868   0.945   4.055  1.00  0.00     0.331 C 
ATOM      4  O   UNL     1       2.257   2.101   4.198  1.00  0.00    -0.249 OA
BRANCH   3   5
ATOM      5  C   UNL     1       0.461   0.509   3.193  1.00  0.00     0.136 C 
ATOM      6  C   UNL     1      -0.719   1.166   3.922  1.00  0.00     0.047 C 
BRANCH   5   7
ATOM      7  C   UNL     1      -0.003   0.376   1.660  1.00  0.00     0.037 C 
ATOM      8  C   UNL     1       0.153   1.366   0.527  1.00  0.00     0.007 C 
ENDBRANCH   5   7
BRANCH   5   9
ATOM      9  N   UNL     1       0.569  -0.879   3.476  1.00  0.00    -0.322 N 
ATOM     10  C   UNL     1       1.579  -1.583   2.955  1.00  0.00     0.320 C 
ATOM     11  H   UNL     1      -0.097  -1.320   4.052  1.00  0.00     0.166 HD
ATOM     12  O   UNL     1       1.640  -2.751   3.351  1.00  0.00    -0.248 OA
ATOM     13  N   UNL     1       2.548  -1.077   2.115  1.00  0.00    -0.308 N 
ATOM     14  H   UNL     1       3.063  -1.879   1.868  1.00  0.00     0.171 HD
BRANCH  13  15
ATOM     15  C   UNL     1       3.225  -0.032   1.401  1.00  0.00     0.043 A 
ATOM     16  C   UNL     1       4.297  -0.453   0.582  1.00  0.00     0.026 A 
ATOM     17  C   UNL     1       3.031   1.341   1.422  1.00  0.00     0.035 A 
ATOM     18  C   UNL     1       5.067   0.423  -0.195  1.00  0.00     0.003 A 
ATOM     19  C   UNL     1       3.758   2.248   0.615  1.00  0.00     0.008 A 
ATOM     20  C   UNL     1       4.792   1.780  -0.186  1.00  0.00     0.010 A 
BRANCH  19  21
ATOM     21  C   UNL     1       3.307   3.689   0.563  1.00  0.00     0.297 C 
BRANCH  21  22
ATOM     22  N   UNL     1       4.134   4.581   1.373  1.00  0.00    -0.345 N 
ATOM     23  C   UNL     1       3.401   5.820   1.621  1.00  0.00     0.331 C 
ATOM     24  H   UNL     1       4.999   4.790   0.875  1.00  0.00     0.346 HD
ATOM     25  H   UNL     1       4.356   4.130   2.260  1.00  0.00     0.346 HD
ENDBRANCH  21  22
ENDBRANCH  19  21
ENDBRANCH  13  15
ENDBRANCH   5   9
ENDBRANCH   3   5
ENDBRANCH   2   3
ENDBRANCH   1   2
BRANCH   1  26
ATOM     26  C   UNL     1       4.408  -1.973   4.307  1.00  0.00     0.275 C 
BRANCH  26  27
ATOM     27  O   UNL     1       4.336  -2.478   2.893  1.00  0.00    -0.458 OA
BRANCH  27  28
ATOM     28  C   UNL     1       4.230  -3.819   2.552  1.00  0.00     0.338 C 
ATOM     29  O   UNL     1       4.533  -4.739   3.298  1.00  0.00    -0.246 OA
BRANCH  28  30
ATOM     30  C   UNL     1       3.753  -4.018   1.083  1.00  0.00     0.060 A 
ATOM     31  C   UNL     1       2.528  -3.523   0.589  1.00  0.00     0.016 A 
ATOM     32  C   UNL     1       4.504  -4.736   0.154  1.00  0.00     0.016 A 
ATOM     33  C   UNL     1       2.151  -3.513  -0.763  1.00  0.00     0.010 A 
ATOM     34  C   UNL     1       4.071  -4.853  -1.202  1.00  0.00     0.010 A 
ATOM     35  C   UNL     1       2.907  -4.213  -1.684  1.00  0.00    -0.014 A 
BRANCH  35  36
ATOM     36  C   UNL     1       2.305  -4.521  -3.018  1.00  0.00     0.031 A 
ATOM     37  C   UNL     1       1.556  -5.820  -3.152  1.00  0.00     0.074 A 
ATOM     38  C   UNL     1       2.299  -3.678  -4.071  1.00  0.00     0.049 A 
ATOM     39  N   UNL     1       1.191  -6.474  -4.223  1.00  0.00    -0.248 NA
ATOM     40  C   UNL     1       1.166  -6.460  -1.888  1.00  0.00     0.031 C 
ATOM     41  C   UNL     1       2.762  -2.293  -4.064  1.00  0.00     0.029 A 
ATOM     42  N   UNL     1       1.896  -3.886  -5.376  1.00  0.00    -0.354 N 
ATOM     43  C   UNL     1       0.597  -7.644  -3.762  1.00  0.00     0.074 A 
ATOM     44  C   UNL     1       0.625  -7.588  -2.316  1.00  0.00     0.031 C 
ATOM     45  C   UNL     1       2.676  -1.798  -5.314  1.00  0.00     0.029 A 
ATOM     46  C   UNL     1       2.226  -2.852  -6.226  1.00  0.00     0.049 A 
ATOM     47  H   UNL     1       1.419  -4.695  -5.671  1.00  0.00     0.167 HD
ATOM     48  C   UNL     1       0.105  -8.683  -4.481  1.00  0.00     0.034 A 
ATOM     49  C   UNL     1       2.246  -2.791  -7.578  1.00  0.00     0.034 A 
ATOM     50  C   UNL     1       0.070  -8.712  -5.922  1.00  0.00     0.049 A 
ATOM     51  C   UNL     1       1.837  -4.008  -8.385  1.00  0.00     0.074 A 
ATOM     52  C   UNL     1      -0.373  -9.725  -6.754  1.00  0.00     0.029 A 
ATOM     53  N   UNL     1       0.497  -7.680  -6.747  1.00  0.00    -0.354 N 
ATOM     54  N   UNL     1       1.405  -5.174  -7.961  1.00  0.00    -0.248 NA
ATOM     55  C   UNL     1       1.938  -3.910  -9.850  1.00  0.00     0.031 C 
ATOM     56  C   UNL     1      -0.139  -9.338  -8.078  1.00  0.00     0.029 A 
ATOM     57  C   UNL     1       0.364  -8.046  -8.077  1.00  0.00     0.049 A 
ATOM     58  H   UNL     1       0.845  -6.814  -6.433  1.00  0.00     0.167 HD
ATOM     59  C   UNL     1       1.161  -5.935  -9.105  1.00  0.00     0.074 A 
ATOM     60  C   UNL     1       1.490  -5.098 -10.239  1.00  0.00     0.031 C 
ATOM     61  C   UNL     1       0.697  -7.207  -9.206  1.00  0.00     0.034 A 
BRANCH  48  62
ATOM     62  C   UNL     1      -0.300  -9.915  -3.708  1.00  0.00     0.023 A 
ATOM     63  C   UNL     1      -1.352  -9.910  -2.777  1.00  0.00     0.031 A 
ATOM     64  C   UNL     1       0.453 -11.096  -3.845  1.00  0.00     0.131 A 
ATOM     65  C   UNL     1      -1.555 -11.026  -1.951  1.00  0.00     0.055 A 
ATOM     66  C   UNL     1       0.183 -12.236  -3.087  1.00  0.00     0.041 A 
ATOM     67  F   UNL     1       1.488 -11.152  -4.699  1.00  0.00    -0.206 F 
ATOM     68  C   UNL     1      -0.812 -12.197  -2.116  1.00  0.00     0.022 A 
BRANCH  65  69
ATOM     69  S   UNL     1      -2.669 -10.855  -0.528  1.00  0.00     0.124 S 
ATOM     70  O   UNL     1      -2.090  -9.708   0.166  1.00  0.00    -0.237 OA
ATOM     71  O   UNL     1      -3.961 -10.630  -1.166  1.00  0.00    -0.237 OA
ATOM     72  O   UNL     1      -2.530 -12.132   0.171  1.00  0.00    -0.744 OA
ENDBRANCH  65  69
ENDBRANCH  48  62
BRANCH  49  73
ATOM     73  C   UNL     1       2.811  -1.589  -8.273  1.00  0.00     0.023 A 
ATOM     74  C   UNL     1       2.044  -0.798  -9.145  1.00  0.00     0.031 A 
ATOM     75  C   UNL     1       4.170  -1.255  -8.113  1.00  0.00     0.131 A 
ATOM     76  C   UNL     1       2.646   0.270  -9.836  1.00  0.00     0.055 A 
ATOM     77  C   UNL     1       4.750  -0.163  -8.762  1.00  0.00     0.041 A 
ATOM     78  F   UNL     1       4.960  -1.988  -7.313  1.00  0.00    -0.206 F 
ATOM     79  C   UNL     1       3.988   0.602  -9.636  1.00  0.00     0.022 A 
BRANCH  76  80
ATOM     80  S   UNL     1       1.668   1.192 -11.059  1.00  0.00     0.124 S 
ATOM     81  O   UNL     1       1.347   0.151 -12.028  1.00  0.00    -0.237 OA
ATOM     82  O   UNL     1       0.557   1.683 -10.251  1.00  0.00    -0.237 OA
ATOM     83  O   UNL     1       2.593   2.220 -11.530  1.00  0.00    -0.744 OA
ENDBRANCH  76  80
ENDBRANCH  49  73
BRANCH  61  84
ATOM     84  C   UNL     1       0.446  -7.764 -10.589  1.00  0.00     0.023 A 
ATOM     85  C   UNL     1       1.492  -8.081 -11.473  1.00  0.00     0.031 A 
ATOM     86  C   UNL     1      -0.873  -8.027 -11.005  1.00  0.00     0.131 A 
ATOM     87  C   UNL     1       1.199  -8.619 -12.738  1.00  0.00     0.055 A 
ATOM     88  C   UNL     1      -1.154  -8.610 -12.242  1.00  0.00     0.041 A 
ATOM     89  F   UNL     1      -1.911  -7.744 -10.202  1.00  0.00    -0.206 F 
ATOM     90  C   UNL     1      -0.116  -8.903 -13.119  1.00  0.00     0.022 A 
BRANCH  87  91
ATOM     91  S   UNL     1       2.556  -8.901 -13.910  1.00  0.00     0.124 S 
ATOM     92  O   UNL     1       3.094  -7.556 -14.081  1.00  0.00    -0.237 OA
ATOM     93  O   UNL     1       3.405  -9.842 -13.188  1.00  0.00    -0.237 OA
ATOM     94  O   UNL     1       1.885  -9.453 -15.086  1.00  0.00    -0.744 OA
ENDBRANCH  87  91
ENDBRANCH  61  84
ENDBRANCH  35  36
ENDBRANCH  28  30
ENDBRANCH  27  28
ENDBRANCH  26  27
ENDBRANCH   1  26
TORSDOF 19
