REMARK SMILES CN(C)C(=O)c1cccc(N2CCC3(CC2)[C@H](C(=O)OCCOC(=O)c2ccc(-c4c5nc(c(-c6cc(S(=O)(=O)[O-])ccc6F)c6ccc([nH]6)c(-c6cc(S(=O)(=O)[O-])ccc6F)c6nc(c(-c7cc(S(=O)(=O)[O-])ccc7F)c7ccc4[nH]7)C=C6)C=C5)cc2)CC(=O)N3C)n1
REMARK SMILES IDX 22 1 21 2 20 3 18 4 19 5 17 6 11 7 12 8 16 9 13 10 15 11
REMARK SMILES IDX 14 12 92 13 89 14 90 15 93 16 91 17 10 18 6 19 7 20 94 21
REMARK SMILES IDX 8 22 9 23 4 24 1 25 2 26 3 27 5 28 23 29 24 30 25 31 26 32
REMARK SMILES IDX 27 33 88 34 28 35 87 36 29 37 30 38 31 39 81 40 32 41 86 42
REMARK SMILES IDX 80 43 82 44 33 45 85 46 79 47 78 48 34 50 66 51 46 52 65 53
REMARK SMILES IDX 47 54 50 55 64 56 83 57 48 58 49 59 63 61 84 62 51 63 35 64
REMARK SMILES IDX 36 65 44 66 37 67 43 68 45 69 42 70 38 71 39 72 40 73 41 74
REMARK SMILES IDX 67 75 68 76 76 77 69 78 75 79 77 80 74 81 70 82 71 83 72 84
REMARK SMILES IDX 73 85 52 86 53 87 61 88 54 89 60 90 62 91 59 92 55 93 56 94
REMARK SMILES IDX 57 95 58 96
REMARK H PARENT 82 49 50 60
REMARK Flexibility Score: inf
ROOT
ATOM      1  C   UNL     1       2.118  -2.735  10.605  1.00  0.00     0.275 C 
ENDROOT
BRANCH   1   2
ATOM      2  C   UNL     1       3.287  -3.700  10.833  1.00  0.00     0.274 C 
BRANCH   2   3
ATOM      3  O   UNL     1       3.317  -4.750   9.844  1.00  0.00    -0.462 OA
BRANCH   3   4
ATOM      4  C   UNL     1       2.602  -5.854  10.146  1.00  0.00     0.311 C 
ATOM      5  O   UNL     1       2.089  -6.051  11.245  1.00  0.00    -0.252 OA
BRANCH   4   6
ATOM      6  C   UNL     1       2.510  -6.904   9.057  1.00  0.00     0.134 C 
ATOM      7  N   UNL     1       1.265  -5.080   5.457  1.00  0.00    -0.356 N 
ATOM      8  C   UNL     1       2.652  -4.737   5.697  1.00  0.00     0.120 C 
ATOM      9  C   UNL     1       0.948  -6.497   5.504  1.00  0.00     0.120 C 
ATOM     10  C   UNL     1       2.994  -5.158   7.135  1.00  0.00     0.051 C 
ATOM     11  C   UNL     1       1.241  -7.010   6.907  1.00  0.00     0.051 C 
ATOM     12  C   UNL     1       2.624  -6.614   7.515  1.00  0.00     0.060 C 
ATOM     13  N   UNL     1       3.689  -7.564   7.113  1.00  0.00    -0.339 N 
ATOM     14  C   UNL     1       3.461  -8.046   9.399  1.00  0.00     0.118 C 
ATOM     15  C   UNL     1       4.220  -8.315   8.146  1.00  0.00     0.223 C 
ATOM     16  C   UNL     1       4.279  -7.641   5.792  1.00  0.00     0.147 C 
ATOM     17  O   UNL     1       5.157  -9.096   8.072  1.00  0.00    -0.275 OA
BRANCH   7  18
ATOM     18  C   UNL     1       0.484  -4.264   4.653  1.00  0.00     0.129 A 
ATOM     19  C   UNL     1       0.239  -2.780   2.889  1.00  0.00     0.130 A 
ATOM     20  C   UNL     1      -1.147  -2.753   3.007  1.00  0.00     0.034 A 
ATOM     21  N   UNL     1       1.061  -3.508   3.695  1.00  0.00    -0.226 NA
ATOM     22  C   UNL     1      -1.724  -3.477   4.034  1.00  0.00     0.006 A 
ATOM     23  C   UNL     1      -0.900  -4.234   4.859  1.00  0.00     0.047 A 
BRANCH  19  24
ATOM     24  C   UNL     1       0.889  -2.055   1.748  1.00  0.00     0.272 C 
ATOM     25  C   UNL     1       0.926  -0.170   0.197  1.00  0.00     0.146 C 
ATOM     26  N   UNL     1       0.510  -0.733   1.467  1.00  0.00    -0.343 N 
ATOM     27  C   UNL     1      -0.152   0.161   2.405  1.00  0.00     0.146 C 
ATOM     28  O   UNL     1       1.707  -2.652   1.045  1.00  0.00    -0.267 OA
ENDBRANCH  19  24
ENDBRANCH   7  18
ENDBRANCH   4   6
ENDBRANCH   3   4
ENDBRANCH   2   3
ENDBRANCH   1   2
BRANCH   1  29
ATOM     29  O   UNL     1       0.848  -3.373  10.843  1.00  0.00    -0.458 OA
BRANCH  29  30
ATOM     30  C   UNL     1       0.097  -3.603   9.742  1.00  0.00     0.338 C 
ATOM     31  O   UNL     1       0.369  -3.316   8.591  1.00  0.00    -0.246 OA
BRANCH  30  32
ATOM     32  C   UNL     1      -1.142  -4.308  10.099  1.00  0.00     0.060 A 
ATOM     33  C   UNL     1      -1.163  -5.704  10.075  1.00  0.00     0.016 A 
ATOM     34  C   UNL     1      -2.319  -3.586  10.294  1.00  0.00     0.016 A 
ATOM     35  C   UNL     1      -2.369  -6.386  10.208  1.00  0.00     0.010 A 
ATOM     36  C   UNL     1      -3.523  -4.273  10.469  1.00  0.00     0.010 A 
ATOM     37  C   UNL     1      -3.562  -5.678  10.406  1.00  0.00    -0.014 A 
BRANCH  37  38
ATOM     38  C   UNL     1      -4.854  -6.400  10.518  1.00  0.00     0.031 A 
ATOM     39  C   UNL     1      -5.879  -6.279   9.425  1.00  0.00     0.074 A 
ATOM     40  C   UNL     1      -5.102  -7.160  11.602  1.00  0.00     0.049 A 
ATOM     41  N   UNL     1      -7.117  -6.698   9.399  1.00  0.00    -0.248 NA
ATOM     42  C   UNL     1      -5.450  -5.591   8.197  1.00  0.00     0.031 C 
ATOM     43  C   UNL     1      -4.162  -7.396  12.699  1.00  0.00     0.029 A 
ATOM     44  N   UNL     1      -6.221  -7.865  11.967  1.00  0.00    -0.354 N 
ATOM     45  C   UNL     1      -7.627  -6.307   8.165  1.00  0.00     0.074 A 
ATOM     46  C   UNL     1      -6.564  -5.601   7.479  1.00  0.00     0.031 C 
ATOM     47  C   UNL     1      -4.744  -8.186  13.614  1.00  0.00     0.029 A 
ATOM     48  C   UNL     1      -6.118  -8.457  13.204  1.00  0.00     0.049 A 
ATOM     49  H   UNL     1      -7.021  -7.940  11.397  1.00  0.00     0.167 HD
ATOM     50  C   UNL     1      -8.867  -6.519   7.656  1.00  0.00     0.034 A 
ATOM     51  C   UNL     1      -7.040  -9.103  13.945  1.00  0.00     0.034 A 
ATOM     52  C   UNL     1      -9.911  -7.226   8.359  1.00  0.00     0.049 A 
ATOM     53  C   UNL     1      -8.432  -9.261  13.389  1.00  0.00     0.074 A 
ATOM     54  C   UNL     1     -11.209  -7.483   7.950  1.00  0.00     0.029 A 
ATOM     55  N   UNL     1      -9.777  -7.792   9.621  1.00  0.00    -0.354 N 
ATOM     56  N   UNL     1      -8.915  -8.845  12.240  1.00  0.00    -0.248 NA
ATOM     57  C   UNL     1      -9.403  -9.973  14.229  1.00  0.00     0.031 C 
ATOM     58  C   UNL     1     -11.872  -8.156   8.983  1.00  0.00     0.029 A 
ATOM     59  C   UNL     1     -10.971  -8.378  10.011  1.00  0.00     0.049 A 
ATOM     60  H   UNL     1      -8.953  -7.778  10.159  1.00  0.00     0.167 HD
ATOM     61  C   UNL     1     -10.240  -9.268  12.213  1.00  0.00     0.074 A 
ATOM     62  C   UNL     1     -10.474  -9.984  13.449  1.00  0.00     0.031 C 
ATOM     63  C   UNL     1     -11.182  -9.081  11.253  1.00  0.00     0.034 A 
BRANCH  50  64
ATOM     64  C   UNL     1      -9.174  -5.930   6.301  1.00  0.00     0.023 A 
ATOM     65  C   UNL     1      -8.536  -6.383   5.133  1.00  0.00     0.031 A 
ATOM     66  C   UNL     1     -10.109  -4.886   6.178  1.00  0.00     0.131 A 
ATOM     67  C   UNL     1      -8.797  -5.755   3.905  1.00  0.00     0.055 A 
ATOM     68  C   UNL     1     -10.419  -4.316   4.942  1.00  0.00     0.041 A 
ATOM     69  F   UNL     1     -10.731  -4.396   7.262  1.00  0.00    -0.206 F 
ATOM     70  C   UNL     1      -9.753  -4.742   3.797  1.00  0.00     0.022 A 
BRANCH  67  71
ATOM     71  S   UNL     1      -7.779  -6.196   2.470  1.00  0.00     0.124 S 
ATOM     72  O   UNL     1      -6.448  -5.793   2.921  1.00  0.00    -0.237 OA
ATOM     73  O   UNL     1      -8.006  -7.631   2.350  1.00  0.00    -0.237 OA
ATOM     74  O   UNL     1      -8.336  -5.383   1.392  1.00  0.00    -0.744 OA
ENDBRANCH  67  71
ENDBRANCH  50  64
BRANCH  51  75
ATOM     75  C   UNL     1      -6.705  -9.590  15.313  1.00  0.00     0.023 A 
ATOM     76  C   UNL     1      -6.745 -10.957  15.627  1.00  0.00     0.031 A 
ATOM     77  C   UNL     1      -6.391  -8.686  16.344  1.00  0.00     0.131 A 
ATOM     78  C   UNL     1      -6.521 -11.377  16.948  1.00  0.00     0.055 A 
ATOM     79  C   UNL     1      -6.113  -9.113  17.643  1.00  0.00     0.041 A 
ATOM     80  F   UNL     1      -6.341  -7.366  16.099  1.00  0.00    -0.206 F 
ATOM     81  C   UNL     1      -6.192 -10.467  17.954  1.00  0.00     0.022 A 
BRANCH  78  82
ATOM     82  S   UNL     1      -6.767 -13.128  17.354  1.00  0.00     0.124 S 
ATOM     83  O   UNL     1      -8.129 -13.355  16.886  1.00  0.00    -0.237 OA
ATOM     84  O   UNL     1      -5.708 -13.768  16.581  1.00  0.00    -0.237 OA
ATOM     85  O   UNL     1      -6.590 -13.168  18.804  1.00  0.00    -0.744 OA
ENDBRANCH  78  82
ENDBRANCH  51  75
BRANCH  63  86
ATOM     86  C   UNL     1     -12.530  -9.709  11.499  1.00  0.00     0.023 A 
ATOM     87  C   UNL     1     -13.392  -9.234  12.502  1.00  0.00     0.031 A 
ATOM     88  C   UNL     1     -12.941 -10.817  10.738  1.00  0.00     0.131 A 
ATOM     89  C   UNL     1     -14.600  -9.902  12.756  1.00  0.00     0.055 A 
ATOM     90  C   UNL     1     -14.166 -11.445  10.960  1.00  0.00     0.041 A 
ATOM     91  F   UNL     1     -12.153 -11.309   9.768  1.00  0.00    -0.206 F 
ATOM     92  C   UNL     1     -14.998 -10.996  11.983  1.00  0.00     0.022 A 
BRANCH  89  93
ATOM     93  S   UNL     1     -15.606  -9.373  14.169  1.00  0.00     0.124 S 
ATOM     94  O   UNL     1     -14.684  -9.559  15.285  1.00  0.00    -0.237 OA
ATOM     95  O   UNL     1     -15.921  -7.989  13.828  1.00  0.00    -0.237 OA
ATOM     96  O   UNL     1     -16.743 -10.290  14.143  1.00  0.00    -0.744 OA
ENDBRANCH  89  93
ENDBRANCH  63  86
ENDBRANCH  37  38
ENDBRANCH  30  32
ENDBRANCH  29  30
ENDBRANCH   1  29
TORSDOF 16
