REMARK SMILES O=C(OCCOC(=O)c1ccc(-c2c3nc(c(-c4cc(S(=O)(=O)[O-])ccc4F)c4ccc([nH]4)c(-c4cc(S(=O)(=O)[O-])ccc4F)c4nc(c(-c5cc(S(=O)(=O)[O-])ccc5F)c5ccc2[nH]5)C=C4)C=C3)cc1)C1=Cc2cc(Cl)cc(-c3ccccc3)c2O[C@@H]1C(F)(F)F
REMARK SMILES IDX 5 1 4 2 3 3 2 4 1 5 72 6 73 7 88 8 74 9 87 10 75 11 86 12
REMARK SMILES IDX 76 13 79 14 77 15 78 16 89 17 90 18 91 19 92 20 80 21 81 22
REMARK SMILES IDX 85 23 82 24 84 25 83 26 6 27 7 28 8 29 9 30 10 31 71 32
REMARK SMILES IDX 11 33 70 34 12 35 13 36 14 37 64 38 15 39 69 40 63 41 65 42
REMARK SMILES IDX 16 43 68 44 62 45 61 46 17 48 49 49 29 50 48 51 30 52 33 53
REMARK SMILES IDX 47 54 66 55 31 56 32 57 46 59 67 60 34 61 18 62 19 63 27 64
REMARK SMILES IDX 20 65 26 66 28 67 25 68 21 69 22 70 23 71 24 72 50 73 51 74
REMARK SMILES IDX 59 75 52 76 58 77 60 78 57 79 53 80 54 81 55 82 56 83 35 84
REMARK SMILES IDX 36 85 44 86 37 87 43 88 45 89 42 90 38 91 39 92 40 93 41 94
REMARK H PARENT 65 47 33 58
REMARK Flexibility Score: inf
ROOT
ATOM      1  C   UNL     1       4.622  -0.021   0.871  1.00  0.00     0.275 C 
ENDROOT
BRANCH   1   2
ATOM      2  C   UNL     1       3.894  -0.734  -1.033  1.00  0.00     0.275 C 
BRANCH   2   3
ATOM      3  O   UNL     1       3.102  -2.060  -1.287  1.00  0.00    -0.459 OA
BRANCH   3   4
ATOM      4  C   UNL     1       3.286  -2.978  -0.334  1.00  0.00     0.338 C 
ATOM      5  O   UNL     1       2.818  -4.078  -0.194  1.00  0.00    -0.246 OA
BRANCH   4   6
ATOM      6  C   UNL     1       4.029  -2.107   0.537  1.00  0.00     0.087 C 
ATOM      7  C   UNL     1       5.418  -1.978   0.052  1.00  0.00     0.027 C 
ATOM      8  C   UNL     1       2.739  -0.669   0.612  1.00  0.00     0.316 C 
ATOM      9  C   UNL     1       6.069  -0.461  -0.689  1.00  0.00     0.019 A 
ATOM     10  O   UNL     1       3.407   0.943  -0.207  1.00  0.00    -0.475 OA
ATOM     11  C   UNL     1       7.288  -0.564  -1.306  1.00  0.00     0.032 A 
ATOM     12  C   UNL     1       5.083   0.964  -0.927  1.00  0.00     0.135 A 
ATOM     13  C   UNL     1       7.629   0.523  -2.110  1.00  0.00     0.042 A 
ATOM     14  C   UNL     1       5.495   1.966  -1.778  1.00  0.00     0.026 A 
ATOM     15  Cl  UNL     1       9.119   0.419  -2.991  1.00  0.00    -0.084 Cl
ATOM     16  C   UNL     1       6.799   1.691  -2.323  1.00  0.00     0.033 A 
BRANCH   8  17
ATOM     17  C   UNL     1       2.108  -0.994   2.013  1.00  0.00     0.430 C 
ATOM     18  F   UNL     1       0.889  -0.457   2.152  1.00  0.00    -0.167 F 
ATOM     19  F   UNL     1       1.893  -2.345   2.066  1.00  0.00    -0.167 F 
ATOM     20  F   UNL     1       2.876  -0.772   3.092  1.00  0.00    -0.167 F 
ENDBRANCH   8  17
BRANCH  14  21
ATOM     21  C   UNL     1       4.800   3.128  -2.312  1.00  0.00    -0.015 A 
ATOM     22  C   UNL     1       4.433   3.130  -3.675  1.00  0.00     0.009 A 
ATOM     23  C   UNL     1       4.731   4.333  -1.606  1.00  0.00     0.009 A 
ATOM     24  C   UNL     1       4.031   4.302  -4.317  1.00  0.00     0.001 A 
ATOM     25  C   UNL     1       4.327   5.508  -2.251  1.00  0.00     0.001 A 
ATOM     26  C   UNL     1       3.985   5.494  -3.604  1.00  0.00     0.000 A 
ENDBRANCH  14  21
ENDBRANCH   4   6
ENDBRANCH   3   4
ENDBRANCH   2   3
ENDBRANCH   1   2
BRANCH   1  27
ATOM     27  O   UNL     1       3.784   0.951   1.974  1.00  0.00    -0.458 OA
BRANCH  27  28
ATOM     28  C   UNL     1       3.033   2.086   2.099  1.00  0.00     0.338 C 
ATOM     29  O   UNL     1       2.756   2.925   1.266  1.00  0.00    -0.246 OA
BRANCH  28  30
ATOM     30  C   UNL     1       2.329   1.925   3.413  1.00  0.00     0.060 A 
ATOM     31  C   UNL     1       0.945   1.687   3.419  1.00  0.00     0.016 A 
ATOM     32  C   UNL     1       3.083   1.629   4.552  1.00  0.00     0.016 A 
ATOM     33  C   UNL     1       0.366   0.950   4.471  1.00  0.00     0.010 A 
ATOM     34  C   UNL     1       2.499   0.920   5.607  1.00  0.00     0.010 A 
ATOM     35  C   UNL     1       1.153   0.514   5.548  1.00  0.00    -0.014 A 
BRANCH  35  36
ATOM     36  C   UNL     1       0.532  -0.113   6.749  1.00  0.00     0.031 A 
ATOM     37  C   UNL     1       0.071   0.846   7.808  1.00  0.00     0.074 A 
ATOM     38  C   UNL     1       0.435  -1.445   6.948  1.00  0.00     0.049 A 
ATOM     39  N   UNL     1      -0.442   0.618   8.986  1.00  0.00    -0.248 NA
ATOM     40  C   UNL     1       0.258   2.271   7.490  1.00  0.00     0.031 C 
ATOM     41  C   UNL     1       0.851  -2.488   6.009  1.00  0.00     0.029 A 
ATOM     42  N   UNL     1      -0.043  -2.155   8.030  1.00  0.00    -0.354 N 
ATOM     43  C   UNL     1      -0.650   1.874   9.542  1.00  0.00     0.074 A 
ATOM     44  C   UNL     1      -0.121   2.846   8.613  1.00  0.00     0.031 C 
ATOM     45  C   UNL     1       0.611  -3.698   6.557  1.00  0.00     0.029 A 
ATOM     46  C   UNL     1       0.040  -3.527   7.893  1.00  0.00     0.049 A 
ATOM     47  H   UNL     1      -0.411  -1.720   8.832  1.00  0.00     0.167 HD
ATOM     48  C   UNL     1      -1.254   2.201  10.709  1.00  0.00     0.034 A 
ATOM     49  C   UNL     1      -0.308  -4.514   8.751  1.00  0.00     0.034 A 
ATOM     50  C   UNL     1      -1.722   1.226  11.654  1.00  0.00     0.049 A 
ATOM     51  C   UNL     1      -0.893  -4.130  10.101  1.00  0.00     0.074 A 
ATOM     52  C   UNL     1      -2.322   1.429  12.881  1.00  0.00     0.029 A 
ATOM     53  N   UNL     1      -1.614  -0.149  11.480  1.00  0.00    -0.354 N 
ATOM     54  N   UNL     1      -1.143  -2.936  10.589  1.00  0.00    -0.248 NA
ATOM     55  C   UNL     1      -1.253  -5.230  11.009  1.00  0.00     0.031 C 
ATOM     56  C   UNL     1      -2.519   0.178  13.478  1.00  0.00     0.029 A 
ATOM     57  C   UNL     1      -2.116  -0.807  12.589  1.00  0.00     0.049 A 
ATOM     58  H   UNL     1      -1.236  -0.590  10.685  1.00  0.00     0.167 HD
ATOM     59  C   UNL     1      -1.739  -3.147  11.833  1.00  0.00     0.074 A 
ATOM     60  C   UNL     1      -1.813  -4.580  12.018  1.00  0.00     0.031 C 
ATOM     61  C   UNL     1      -2.194  -2.242  12.740  1.00  0.00     0.034 A 
BRANCH  48  62
ATOM     62  C   UNL     1      -1.367   3.676  11.002  1.00  0.00     0.023 A 
ATOM     63  C   UNL     1      -2.077   4.531  10.136  1.00  0.00     0.031 A 
ATOM     64  C   UNL     1      -0.633   4.255  12.048  1.00  0.00     0.131 A 
ATOM     65  C   UNL     1      -1.925   5.919  10.250  1.00  0.00     0.055 A 
ATOM     66  C   UNL     1      -0.576   5.640  12.220  1.00  0.00     0.041 A 
ATOM     67  F   UNL     1       0.088   3.492  12.884  1.00  0.00    -0.206 F 
ATOM     68  C   UNL     1      -1.201   6.481  11.303  1.00  0.00     0.022 A 
BRANCH  65  69
ATOM     69  S   UNL     1      -2.494   6.962   8.877  1.00  0.00     0.124 S 
ATOM     70  O   UNL     1      -1.679   6.461   7.772  1.00  0.00    -0.237 OA
ATOM     71  O   UNL     1      -3.917   6.654   8.812  1.00  0.00    -0.237 OA
ATOM     72  O   UNL     1      -2.167   8.316   9.318  1.00  0.00    -0.744 OA
ENDBRANCH  65  69
ENDBRANCH  48  62
BRANCH  49  73
ATOM     73  C   UNL     1      -0.127  -5.966   8.414  1.00  0.00     0.023 A 
ATOM     74  C   UNL     1      -1.228  -6.842   8.351  1.00  0.00     0.031 A 
ATOM     75  C   UNL     1       1.154  -6.528   8.272  1.00  0.00     0.131 A 
ATOM     76  C   UNL     1      -1.028  -8.228   8.216  1.00  0.00     0.055 A 
ATOM     77  C   UNL     1       1.346  -7.902   8.084  1.00  0.00     0.041 A 
ATOM     78  F   UNL     1       2.248  -5.752   8.336  1.00  0.00    -0.206 F 
ATOM     79  C   UNL     1       0.253  -8.763   8.071  1.00  0.00     0.022 A 
BRANCH  76  80
ATOM     80  S   UNL     1      -2.461  -9.340   8.342  1.00  0.00     0.124 S 
ATOM     81  O   UNL     1      -2.962  -9.028   9.675  1.00  0.00    -0.237 OA
ATOM     82  O   UNL     1      -3.288  -8.898   7.224  1.00  0.00    -0.237 OA
ATOM     83  O   UNL     1      -1.875 -10.671   8.191  1.00  0.00    -0.744 OA
ENDBRANCH  76  80
ENDBRANCH  49  73
BRANCH  61  84
ATOM     84  C   UNL     1      -2.883  -2.776  13.973  1.00  0.00     0.023 A 
ATOM     85  C   UNL     1      -2.197  -3.508  14.957  1.00  0.00     0.031 A 
ATOM     86  C   UNL     1      -4.252  -2.521  14.173  1.00  0.00     0.131 A 
ATOM     87  C   UNL     1      -2.893  -4.001  16.072  1.00  0.00     0.055 A 
ATOM     88  C   UNL     1      -4.924  -2.958  15.314  1.00  0.00     0.041 A 
ATOM     89  F   UNL     1      -4.957  -1.826  13.265  1.00  0.00    -0.206 F 
ATOM     90  C   UNL     1      -4.247  -3.714  16.266  1.00  0.00     0.022 A 
BRANCH  87  91
ATOM     91  S   UNL     1      -2.026  -5.098  17.227  1.00  0.00     0.124 S 
ATOM     92  O   UNL     1      -1.585  -6.177  16.349  1.00  0.00    -0.237 OA
ATOM     93  O   UNL     1      -0.974  -4.232  17.750  1.00  0.00    -0.237 OA
ATOM     94  O   UNL     1      -3.060  -5.467  18.192  1.00  0.00    -0.744 OA
ENDBRANCH  87  91
ENDBRANCH  61  84
ENDBRANCH  35  36
ENDBRANCH  28  30
ENDBRANCH  27  28
ENDBRANCH   1  27
TORSDOF 16
