REMARK SMILES Cc1cc(N2N=C(C(=O)OCCOC(=O)c3ccc(-c4c5nc(c(-c6cc(S(=O)(=O)[O-])ccc6F)c6ccc([nH]6)c(-c6cc(S(=O)(=O)[O-])ccc6F)c6nc(c(-c7cc(S(=O)(=O)[O-])ccc7F)c7ccc4[nH]7)C=C6)C=C5)cc3)C[C@H]2c2ccccc2)c([N+](=O)[O-])cc1C
REMARK SMILES IDX 12 1 11 2 10 3 8 4 9 5 7 6 5 7 6 8 80 9 79 10 4 11 1 12 2 13
REMARK SMILES IDX 3 14 92 15 91 16 93 17 87 18 88 19 89 20 90 21 81 22 82 23
REMARK SMILES IDX 86 24 83 25 85 26 84 27 13 28 14 29 15 30 16 31 17 32 78 33
REMARK SMILES IDX 18 34 77 35 19 36 20 37 21 38 71 39 22 40 76 41 70 42 72 43
REMARK SMILES IDX 23 44 75 45 69 46 68 47 24 49 56 50 36 51 55 52 37 53 40 54
REMARK SMILES IDX 54 55 73 56 38 57 39 58 53 60 74 61 41 62 25 63 26 64 34 65
REMARK SMILES IDX 27 66 33 67 35 68 32 69 28 70 29 71 30 72 31 73 57 74 58 75
REMARK SMILES IDX 66 76 59 77 65 78 67 79 64 80 60 81 61 82 62 83 63 84 42 85
REMARK SMILES IDX 43 86 51 87 44 88 50 89 52 90 49 91 45 92 46 93 47 94 48 95
REMARK H PARENT 72 48 40 59
REMARK Flexibility Score: inf
ROOT
ATOM      1  C   UNL     1      -8.870   1.407   2.415  1.00  0.00     0.275 C 
ENDROOT
BRANCH   1   2
ATOM      2  C   UNL     1      -8.184   2.754   2.168  1.00  0.00     0.275 C 
BRANCH   2   3
ATOM      3  O   UNL     1      -7.085   2.591   1.254  1.00  0.00    -0.458 OA
BRANCH   3   4
ATOM      4  C   UNL     1      -5.897   3.075   1.665  1.00  0.00     0.354 C 
ATOM      5  O   UNL     1      -5.671   3.760   2.645  1.00  0.00    -0.245 OA
BRANCH   4   6
ATOM      6  C   UNL     1      -4.809   2.630   0.720  1.00  0.00     0.148 C 
ATOM      7  N   UNL     1      -2.979   1.863  -0.001  1.00  0.00    -0.250 N 
ATOM      8  N   UNL     1      -3.693   2.101   1.129  1.00  0.00    -0.169 NA
ATOM      9  C   UNL     1      -3.534   2.514  -1.191  1.00  0.00     0.144 C 
ATOM     10  C   UNL     1      -4.995   2.716  -0.762  1.00  0.00     0.098 C 
BRANCH   7  11
ATOM     11  C   UNL     1      -1.889   1.007   0.007  1.00  0.00     0.138 A 
ATOM     12  C   UNL     1       1.889   1.447   0.398  1.00  0.00     0.045 C 
ATOM     13  C   UNL     1       0.561   0.763   0.214  1.00  0.00    -0.046 A 
ATOM     14  C   UNL     1      -0.610   1.548   0.221  1.00  0.00     0.039 A 
ATOM     15  C   UNL     1       0.459  -0.627   0.032  1.00  0.00    -0.041 A 
ATOM     16  C   UNL     1      -0.812  -1.194  -0.146  1.00  0.00     0.091 A 
ATOM     17  C   UNL     1       1.646  -1.553   0.066  1.00  0.00     0.045 C 
ATOM     18  C   UNL     1      -1.959  -0.381  -0.178  1.00  0.00     0.294 A 
BRANCH  18  19
ATOM     19  N   UNL     1      -3.231  -1.041  -0.441  1.00  0.00     0.065 N 
ATOM     20  O   UNL     1      -3.446  -2.117   0.136  1.00  0.00    -0.258 OA
ATOM     21  O   UNL     1      -3.993  -0.524  -1.273  1.00  0.00    -0.258 OA
ENDBRANCH  18  19
ENDBRANCH   7  11
BRANCH   9  22
ATOM     22  C   UNL     1      -2.747   3.789  -1.485  1.00  0.00    -0.023 A 
ATOM     23  C   UNL     1      -3.081   5.044  -0.950  1.00  0.00     0.006 A 
ATOM     24  C   UNL     1      -1.567   3.690  -2.247  1.00  0.00     0.006 A 
ATOM     25  C   UNL     1      -2.267   6.158  -1.169  1.00  0.00     0.000 A 
ATOM     26  C   UNL     1      -0.743   4.798  -2.446  1.00  0.00     0.000 A 
ATOM     27  C   UNL     1      -1.095   6.033  -1.909  1.00  0.00     0.000 A 
ENDBRANCH   9  22
ENDBRANCH   4   6
ENDBRANCH   3   4
ENDBRANCH   2   3
ENDBRANCH   1   2
BRANCH   1  28
ATOM     28  O   UNL     1      -7.970   0.481   3.054  1.00  0.00    -0.458 OA
BRANCH  28  29
ATOM     29  C   UNL     1      -7.274  -0.307   2.197  1.00  0.00     0.338 C 
ATOM     30  O   UNL     1      -7.383  -0.335   0.983  1.00  0.00    -0.246 OA
BRANCH  29  31
ATOM     31  C   UNL     1      -6.217  -1.021   2.932  1.00  0.00     0.060 A 
ATOM     32  C   UNL     1      -4.903  -0.636   2.683  1.00  0.00     0.016 A 
ATOM     33  C   UNL     1      -6.484  -2.098   3.775  1.00  0.00     0.016 A 
ATOM     34  C   UNL     1      -3.841  -1.331   3.248  1.00  0.00     0.010 A 
ATOM     35  C   UNL     1      -5.413  -2.797   4.353  1.00  0.00     0.010 A 
ATOM     36  C   UNL     1      -4.082  -2.430   4.078  1.00  0.00    -0.014 A 
BRANCH  36  37
ATOM     37  C   UNL     1      -2.925  -3.206   4.596  1.00  0.00     0.031 A 
ATOM     38  C   UNL     1      -2.644  -4.586   4.067  1.00  0.00     0.074 A 
ATOM     39  C   UNL     1      -2.095  -2.646   5.499  1.00  0.00     0.049 A 
ATOM     40  N   UNL     1      -1.727  -5.443   4.439  1.00  0.00    -0.248 NA
ATOM     41  C   UNL     1      -3.512  -5.068   2.982  1.00  0.00     0.031 C 
ATOM     42  C   UNL     1      -2.232  -1.293   6.043  1.00  0.00     0.029 A 
ATOM     43  N   UNL     1      -0.969  -3.137   6.111  1.00  0.00    -0.354 N 
ATOM     44  C   UNL     1      -1.934  -6.582   3.668  1.00  0.00     0.074 A 
ATOM     45  C   UNL     1      -3.066  -6.305   2.808  1.00  0.00     0.031 C 
ATOM     46  C   UNL     1      -1.223  -1.059   6.897  1.00  0.00     0.029 A 
ATOM     47  C   UNL     1      -0.401  -2.260   7.006  1.00  0.00     0.049 A 
ATOM     48  H   UNL     1      -0.602  -4.032   5.926  1.00  0.00     0.167 HD
ATOM     49  C   UNL     1      -1.242  -7.748   3.681  1.00  0.00     0.034 A 
ATOM     50  C   UNL     1       0.645  -2.416   7.843  1.00  0.00     0.034 A 
ATOM     51  C   UNL     1      -0.082  -7.990   4.506  1.00  0.00     0.049 A 
ATOM     52  C   UNL     1       1.382  -3.731   7.848  1.00  0.00     0.074 A 
ATOM     53  C   UNL     1       0.720  -9.118   4.553  1.00  0.00     0.029 A 
ATOM     54  N   UNL     1       0.443  -7.093   5.426  1.00  0.00    -0.354 N 
ATOM     55  N   UNL     1       1.166  -4.802   7.121  1.00  0.00    -0.248 NA
ATOM     56  C   UNL     1       2.503  -3.857   8.788  1.00  0.00     0.031 C 
ATOM     57  C   UNL     1       1.695  -8.925   5.539  1.00  0.00     0.029 A 
ATOM     58  C   UNL     1       1.539  -7.653   6.066  1.00  0.00     0.049 A 
ATOM     59  H   UNL     1       0.089  -6.190   5.598  1.00  0.00     0.167 HD
ATOM     60  C   UNL     1       2.135  -5.723   7.507  1.00  0.00     0.074 A 
ATOM     61  C   UNL     1       2.951  -5.072   8.510  1.00  0.00     0.031 C 
ATOM     62  C   UNL     1       2.333  -6.994   7.075  1.00  0.00     0.034 A 
BRANCH  49  63
ATOM     63  C   UNL     1      -1.756  -8.877   2.824  1.00  0.00     0.023 A 
ATOM     64  C   UNL     1      -1.686  -8.849   1.421  1.00  0.00     0.031 A 
ATOM     65  C   UNL     1      -2.319 -10.011   3.437  1.00  0.00     0.131 A 
ATOM     66  C   UNL     1      -2.211  -9.918   0.676  1.00  0.00     0.055 A 
ATOM     67  C   UNL     1      -2.787 -11.095   2.693  1.00  0.00     0.041 A 
ATOM     68  F   UNL     1      -2.425 -10.082   4.774  1.00  0.00    -0.206 F 
ATOM     69  C   UNL     1      -2.741 -11.049   1.304  1.00  0.00     0.022 A 
BRANCH  66  70
ATOM     70  S   UNL     1      -2.264  -9.783  -1.132  1.00  0.00     0.124 S 
ATOM     71  O   UNL     1      -3.178  -8.660  -1.319  1.00  0.00    -0.237 OA
ATOM     72  O   UNL     1      -0.868  -9.534  -1.473  1.00  0.00    -0.237 OA
ATOM     73  O   UNL     1      -2.786 -11.081  -1.558  1.00  0.00    -0.744 OA
ENDBRANCH  66  70
ENDBRANCH  49  63
BRANCH  50  74
ATOM     74  C   UNL     1       1.025  -1.331   8.792  1.00  0.00     0.023 A 
ATOM     75  C   UNL     1       2.283  -0.711   8.726  1.00  0.00     0.031 A 
ATOM     76  C   UNL     1       0.154  -0.946   9.828  1.00  0.00     0.131 A 
ATOM     77  C   UNL     1       2.655   0.223   9.706  1.00  0.00     0.055 A 
ATOM     78  C   UNL     1       0.507   0.024  10.767  1.00  0.00     0.041 A 
ATOM     79  F   UNL     1      -1.059  -1.510   9.941  1.00  0.00    -0.206 F 
ATOM     80  C   UNL     1       1.770   0.604  10.718  1.00  0.00     0.022 A 
BRANCH  77  81
ATOM     81  S   UNL     1       4.355   0.857   9.704  1.00  0.00     0.124 S 
ATOM     82  O   UNL     1       5.135  -0.376   9.720  1.00  0.00    -0.237 OA
ATOM     83  O   UNL     1       4.391   1.622   8.462  1.00  0.00    -0.237 OA
ATOM     84  O   UNL     1       4.423   1.653  10.927  1.00  0.00    -0.744 OA
ENDBRANCH  77  81
ENDBRANCH  50  74
BRANCH  62  85
ATOM     85  C   UNL     1       3.500  -7.737   7.673  1.00  0.00     0.023 A 
ATOM     86  C   UNL     1       3.504  -8.135   9.021  1.00  0.00     0.031 A 
ATOM     87  C   UNL     1       4.635  -8.018   6.894  1.00  0.00     0.131 A 
ATOM     88  C   UNL     1       4.646  -8.741   9.566  1.00  0.00     0.055 A 
ATOM     89  C   UNL     1       5.748  -8.669   7.428  1.00  0.00     0.041 A 
ATOM     90  F   UNL     1       4.683  -7.658   5.601  1.00  0.00    -0.206 F 
ATOM     91  C   UNL     1       5.763  -9.022   8.775  1.00  0.00     0.022 A 
BRANCH  88  92
ATOM     92  S   UNL     1       4.688  -9.076  11.349  1.00  0.00     0.124 S 
ATOM     93  O   UNL     1       4.486  -7.746  11.914  1.00  0.00    -0.237 OA
ATOM     94  O   UNL     1       3.582 -10.014  11.517  1.00  0.00    -0.237 OA
ATOM     95  O   UNL     1       6.018  -9.644  11.560  1.00  0.00    -0.744 OA
ENDBRANCH  88  92
ENDBRANCH  62  85
ENDBRANCH  36  37
ENDBRANCH  29  31
ENDBRANCH  28  29
ENDBRANCH   1  28
TORSDOF 17
