REMARK SMILES CCN(CCC#N)C(=O)c1ccncc1/C=C/C(=O)OCCOC(=O)c1ccc(-c2c3nc(c(-c4cc(S(=O)(=O)[O-])ccc4F)c4ccc([nH]4)c(-c4cc(S(=O)(=O)[O-])ccc4F)c4nc(c(-c5cc(S(=O)(=O)[O-])ccc5F)c5ccc2[nH]5)C=C4)C=C3)cc1
REMARK SMILES IDX 20 1 18 2 19 3 17 4 16 5 15 6 10 7 11 8 12 9 14 10 13 11
REMARK SMILES IDX 8 12 9 13 3 14 2 15 1 16 4 17 5 18 6 19 7 20 21 21 22 22
REMARK SMILES IDX 23 23 24 24 25 25 26 26 27 27 88 28 28 29 87 30 29 31 30 32
REMARK SMILES IDX 31 33 81 34 32 35 86 36 80 37 82 38 33 39 85 40 79 41 78 42
REMARK SMILES IDX 34 44 66 45 46 46 65 47 47 48 50 49 64 50 83 51 48 52 49 53
REMARK SMILES IDX 63 55 84 56 51 57 35 58 36 59 44 60 37 61 43 62 45 63 42 64
REMARK SMILES IDX 38 65 39 66 40 67 41 68 67 69 68 70 76 71 69 72 75 73 77 74
REMARK SMILES IDX 74 75 70 76 71 77 72 78 73 79 52 80 53 81 61 82 54 83 60 84
REMARK SMILES IDX 62 85 59 86 55 87 56 88 57 89 58 90
REMARK H PARENT 82 43 50 54
REMARK Flexibility Score: inf
ROOT
ATOM      1  O   UNL     1       5.660   2.362  -0.711  1.00  0.00    -0.459 OA
ENDROOT
BRANCH   1   2
ATOM      2  C   UNL     1       6.459   2.654   0.340  1.00  0.00     0.330 C 
ATOM      3  O   UNL     1       7.632   2.996   0.283  1.00  0.00    -0.247 OA
BRANCH   2   4
ATOM      4  C   UNL     1       5.747   2.596   1.629  1.00  0.00     0.094 C 
ATOM      5  C   UNL     1       4.432   2.383   1.813  1.00  0.00     0.018 C 
BRANCH   5   6
ATOM      6  C   UNL     1       3.890   2.368   3.180  1.00  0.00     0.006 A 
ATOM      7  C   UNL     1       3.168   1.298   3.715  1.00  0.00     0.050 A 
ATOM      8  C   UNL     1       2.991   1.194   5.092  1.00  0.00     0.034 A 
ATOM      9  C   UNL     1       3.336   2.272   5.880  1.00  0.00     0.112 A 
ATOM     10  C   UNL     1       4.160   3.414   4.061  1.00  0.00     0.119 A 
ATOM     11  N   UNL     1       3.872   3.400   5.384  1.00  0.00    -0.264 NA
BRANCH   7  12
ATOM     12  C   UNL     1       2.566   0.259   2.854  1.00  0.00     0.254 C 
ATOM     13  O   UNL     1       3.316  -0.490   2.235  1.00  0.00    -0.269 OA
BRANCH  12  14
ATOM     14  N   UNL     1       1.163   0.206   2.742  1.00  0.00    -0.338 N 
BRANCH  14  15
ATOM     15  C   UNL     1       0.621  -0.652   1.683  1.00  0.00     0.116 C 
ATOM     16  C   UNL     1       0.842  -0.064   0.293  1.00  0.00     0.027 C 
ENDBRANCH  14  15
BRANCH  14  17
ATOM     17  C   UNL     1       0.187   1.030   3.495  1.00  0.00     0.135 C 
BRANCH  17  18
ATOM     18  C   UNL     1      -0.618   0.237   4.541  1.00  0.00     0.141 C 
BRANCH  18  19
ATOM     19  C   UNL     1      -0.023   0.251   5.884  1.00  0.00     0.064 C 
ATOM     20  N   UNL     1       0.421   0.242   6.953  1.00  0.00    -0.198 NA
ENDBRANCH  18  19
ENDBRANCH  17  18
ENDBRANCH  14  17
ENDBRANCH  12  14
ENDBRANCH   7  12
ENDBRANCH   5   6
ENDBRANCH   2   4
ENDBRANCH   1   2
BRANCH   1  21
ATOM     21  C   UNL     1       6.227   2.640  -2.003  1.00  0.00     0.275 C 
BRANCH  21  22
ATOM     22  C   UNL     1       5.758   4.001  -2.530  1.00  0.00     0.275 C 
BRANCH  22  23
ATOM     23  O   UNL     1       6.268   5.101  -1.750  1.00  0.00    -0.458 OA
BRANCH  23  24
ATOM     24  C   UNL     1       5.474   5.479  -0.718  1.00  0.00     0.338 C 
ATOM     25  O   UNL     1       4.399   4.989  -0.409  1.00  0.00    -0.246 OA
BRANCH  24  26
ATOM     26  C   UNL     1       6.121   6.527   0.091  1.00  0.00     0.060 A 
ATOM     27  C   UNL     1       6.221   6.315   1.468  1.00  0.00     0.016 A 
ATOM     28  C   UNL     1       6.489   7.755  -0.462  1.00  0.00     0.016 A 
ATOM     29  C   UNL     1       6.630   7.347   2.308  1.00  0.00     0.010 A 
ATOM     30  C   UNL     1       6.924   8.785   0.383  1.00  0.00     0.010 A 
ATOM     31  C   UNL     1       6.960   8.602   1.778  1.00  0.00    -0.014 A 
BRANCH  31  32
ATOM     32  C   UNL     1       7.240   9.731   2.707  1.00  0.00     0.031 A 
ATOM     33  C   UNL     1       6.257  10.868   2.821  1.00  0.00     0.074 A 
ATOM     34  C   UNL     1       8.329   9.701   3.499  1.00  0.00     0.049 A 
ATOM     35  N   UNL     1       6.311  11.942   3.568  1.00  0.00    -0.248 NA
ATOM     36  C   UNL     1       5.057  10.788   1.976  1.00  0.00     0.031 C 
ATOM     37  C   UNL     1       9.330   8.633   3.513  1.00  0.00     0.029 A 
ATOM     38  N   UNL     1       8.771  10.582   4.455  1.00  0.00    -0.354 N 
ATOM     39  C   UNL     1       5.160  12.669   3.278  1.00  0.00     0.074 A 
ATOM     40  C   UNL     1       4.455  11.936   2.247  1.00  0.00     0.031 C 
ATOM     41  C   UNL     1      10.250   8.906   4.451  1.00  0.00     0.029 A 
ATOM     42  C   UNL     1       9.944  10.196   5.062  1.00  0.00     0.049 A 
ATOM     43  H   UNL     1       8.293  11.411   4.685  1.00  0.00     0.167 HD
ATOM     44  C   UNL     1       4.724  13.829   3.831  1.00  0.00     0.034 A 
ATOM     45  C   UNL     1      10.698  10.820   5.989  1.00  0.00     0.034 A 
ATOM     46  C   UNL     1       5.441  14.548   4.858  1.00  0.00     0.049 A 
ATOM     47  C   UNL     1      10.236  12.155   6.521  1.00  0.00     0.074 A 
ATOM     48  C   UNL     1       5.089  15.728   5.490  1.00  0.00     0.029 A 
ATOM     49  N   UNL     1       6.662  14.161   5.399  1.00  0.00    -0.354 N 
ATOM     50  N   UNL     1       9.146  12.831   6.234  1.00  0.00    -0.248 NA
ATOM     51  C   UNL     1      11.104  12.806   7.510  1.00  0.00     0.031 C 
ATOM     52  C   UNL     1       6.133  16.100   6.343  1.00  0.00     0.029 A 
ATOM     53  C   UNL     1       7.092  15.100   6.326  1.00  0.00     0.049 A 
ATOM     54  H   UNL     1       7.150  13.341   5.160  1.00  0.00     0.167 HD
ATOM     55  C   UNL     1       9.184  13.969   7.037  1.00  0.00     0.074 A 
ATOM     56  C   UNL     1      10.388  13.870   7.836  1.00  0.00     0.031 C 
ATOM     57  C   UNL     1       8.304  15.003   7.108  1.00  0.00     0.034 A 
BRANCH  44  58
ATOM     58  C   UNL     1       3.438  14.417   3.295  1.00  0.00     0.023 A 
ATOM     59  C   UNL     1       2.209  13.740   3.398  1.00  0.00     0.031 A 
ATOM     60  C   UNL     1       3.445  15.665   2.645  1.00  0.00     0.131 A 
ATOM     61  C   UNL     1       1.061  14.275   2.795  1.00  0.00     0.055 A 
ATOM     62  C   UNL     1       2.280  16.235   2.128  1.00  0.00     0.041 A 
ATOM     63  F   UNL     1       4.589  16.349   2.490  1.00  0.00    -0.206 F 
ATOM     64  C   UNL     1       1.081  15.532   2.186  1.00  0.00     0.022 A 
BRANCH  61  65
ATOM     65  S   UNL     1      -0.420  13.234   2.672  1.00  0.00     0.124 S 
ATOM     66  O   UNL     1       0.092  12.077   1.940  1.00  0.00    -0.237 OA
ATOM     67  O   UNL     1      -0.763  13.004   4.071  1.00  0.00    -0.237 OA
ATOM     68  O   UNL     1      -1.363  14.064   1.926  1.00  0.00    -0.744 OA
ENDBRANCH  61  65
ENDBRANCH  44  58
BRANCH  45  69
ATOM     69  C   UNL     1      11.988  10.224   6.451  1.00  0.00     0.023 A 
ATOM     70  C   UNL     1      12.204   9.911   7.803  1.00  0.00     0.031 A 
ATOM     71  C   UNL     1      13.055  10.030   5.555  1.00  0.00     0.131 A 
ATOM     72  C   UNL     1      13.471   9.480   8.228  1.00  0.00     0.055 A 
ATOM     73  C   UNL     1      14.291   9.533   5.971  1.00  0.00     0.041 A 
ATOM     74  F   UNL     1      12.911  10.323   4.252  1.00  0.00    -0.206 F 
ATOM     75  C   UNL     1      14.510   9.271   7.319  1.00  0.00     0.022 A 
BRANCH  72  76
ATOM     76  S   UNL     1      13.780   9.316  10.009  1.00  0.00     0.124 S 
ATOM     77  O   UNL     1      13.471  10.659  10.487  1.00  0.00    -0.237 OA
ATOM     78  O   UNL     1      12.839   8.268  10.386  1.00  0.00    -0.237 OA
ATOM     79  O   UNL     1      15.191   8.938  10.075  1.00  0.00    -0.744 OA
ENDBRANCH  72  76
ENDBRANCH  45  69
BRANCH  57  80
ATOM     80  C   UNL     1       8.598  16.083   8.126  1.00  0.00     0.023 A 
ATOM     81  C   UNL     1       9.764  16.866   8.061  1.00  0.00     0.031 A 
ATOM     82  C   UNL     1       7.722  16.299   9.206  1.00  0.00     0.131 A 
ATOM     83  C   UNL     1      10.069  17.755   9.102  1.00  0.00     0.055 A 
ATOM     84  C   UNL     1       7.987  17.251  10.191  1.00  0.00     0.041 A 
ATOM     85  F   UNL     1       6.594  15.581   9.327  1.00  0.00    -0.206 F 
ATOM     86  C   UNL     1       9.178  17.970  10.156  1.00  0.00     0.022 A 
BRANCH  83  87
ATOM     87  S   UNL     1      11.719  18.509   9.142  1.00  0.00     0.124 S 
ATOM     88  O   UNL     1      12.586  17.335   9.109  1.00  0.00    -0.237 OA
ATOM     89  O   UNL     1      11.715  19.332   7.938  1.00  0.00    -0.237 OA
ATOM     90  O   UNL     1      11.726  19.251  10.401  1.00  0.00    -0.744 OA
ENDBRANCH  83  87
ENDBRANCH  57  80
ENDBRANCH  31  32
ENDBRANCH  24  26
ENDBRANCH  23  24
ENDBRANCH  22  23
ENDBRANCH  21  22
ENDBRANCH   1  21
TORSDOF 21
