REMARK SMILES COc1ccc(Br)cc1CNc1ccc(N2CCOCC2)c(C(=O)OCCOC(=O)c2ccc(-c3c4nc(c(-c5cc(S(=O)(=O)[O-])ccc5F)c5ccc([nH]5)c(-c5cc(S(=O)(=O)[O-])ccc5F)c5nc(c(-c6cc(S(=O)(=O)[O-])ccc6F)c6ccc3[nH]6)C=C5)C=C4)cc2)c1
REMARK SMILES IDX 26 1 25 2 23 3 24 4 22 5 12 6 13 7 94 8 14 9 15 10 11 11
REMARK SMILES IDX 10 13 9 14 3 15 4 16 5 17 8 18 6 19 7 20 2 21 1 22 16 23
REMARK SMILES IDX 17 24 21 25 18 26 20 27 19 28 27 29 28 30 29 31 30 32 31 33
REMARK SMILES IDX 32 34 93 35 33 36 92 37 34 38 35 39 36 40 86 41 37 42 91 43
REMARK SMILES IDX 85 44 87 45 38 46 90 47 84 48 83 49 39 51 71 52 51 53 70 54
REMARK SMILES IDX 52 55 55 56 69 57 88 58 53 59 54 60 68 62 89 63 56 64 40 65
REMARK SMILES IDX 41 66 49 67 42 68 48 69 50 70 47 71 43 72 44 73 45 74 46 75
REMARK SMILES IDX 72 76 73 77 81 78 74 79 80 80 82 81 79 82 75 83 76 84 77 85
REMARK SMILES IDX 78 86 57 87 58 88 66 89 59 90 65 91 67 92 64 93 60 94 61 95
REMARK SMILES IDX 62 96 63 97
REMARK H PARENT 11 12 87 50 55 61
REMARK Flexibility Score: inf
ROOT
ATOM      1  C   UNL     1      -6.197   0.354   5.546  1.00  0.00     0.275 C 
ENDROOT
BRANCH   1   2
ATOM      2  O   UNL     1      -5.894  -0.672   4.579  1.00  0.00    -0.458 OA
BRANCH   2   3
ATOM      3  C   UNL     1      -5.540  -1.887   5.077  1.00  0.00     0.340 C 
ATOM      4  O   UNL     1      -5.324  -2.143   6.250  1.00  0.00    -0.246 OA
BRANCH   3   5
ATOM      5  C   UNL     1      -5.257  -2.802   3.952  1.00  0.00     0.085 A 
ATOM      6  C   UNL     1      -3.480  -3.175   2.321  1.00  0.00     0.035 A 
ATOM      7  C   UNL     1      -4.043  -4.426   2.069  1.00  0.00     0.028 A 
ATOM      8  C   UNL     1      -4.142  -2.358   3.222  1.00  0.00     0.043 A 
ATOM      9  C   UNL     1      -5.204  -4.859   2.742  1.00  0.00     0.029 A 
ATOM     10  C   UNL     1      -5.825  -4.076   3.726  1.00  0.00     0.052 A 
BRANCH   6  11
ATOM     11  N   UNL     1      -2.248  -2.830   1.803  1.00  0.00    -0.381 N 
ATOM     12  H   UNL     1      -1.926  -3.303   1.002  1.00  0.00     0.160 HD
BRANCH  11  13
ATOM     13  C   UNL     1      -1.402  -1.797   2.389  1.00  0.00     0.152 C 
BRANCH  13  14
ATOM     14  C   UNL     1       0.035  -2.251   2.370  1.00  0.00     0.014 A 
ATOM     15  C   UNL     1       1.044  -1.498   1.756  1.00  0.00     0.123 A 
ATOM     16  C   UNL     1       2.362  -1.964   1.750  1.00  0.00     0.048 A 
ATOM     17  C   UNL     1       2.680  -3.183   2.357  1.00  0.00     0.019 A 
ATOM     18  C   UNL     1       0.374  -3.458   3.012  1.00  0.00     0.025 A 
ATOM     19  C   UNL     1       1.687  -3.918   2.997  1.00  0.00     0.018 A 
ATOM     20  Br  UNL     1       2.122  -5.541   3.860  1.00  0.00    -0.051 Br
BRANCH  15  21
ATOM     21  O   UNL     1       0.715  -0.262   1.268  1.00  0.00    -0.496 OA
ATOM     22  C   UNL     1       1.120  -0.062  -0.083  1.00  0.00     0.278 C 
ENDBRANCH  15  21
ENDBRANCH  13  14
ENDBRANCH  11  13
ENDBRANCH   6  11
BRANCH  10  23
ATOM     23  N   UNL     1      -6.813  -4.694   4.502  1.00  0.00    -0.366 N 
ATOM     24  C   UNL     1      -8.638  -4.446   4.151  1.00  0.00     0.145 C 
ATOM     25  C   UNL     1      -6.262  -5.096   6.071  1.00  0.00     0.145 C 
ATOM     26  C   UNL     1      -9.883  -4.251   5.968  1.00  0.00     0.181 C 
ATOM     27  C   UNL     1      -7.324  -4.883   7.556  1.00  0.00     0.181 C 
ATOM     28  O   UNL     1      -8.975  -4.508   7.538  1.00  0.00    -0.378 OA
ENDBRANCH  10  23
ENDBRANCH   3   5
ENDBRANCH   2   3
ENDBRANCH   1   2
BRANCH   1  29
ATOM     29  C   UNL     1      -7.671   0.716   5.420  1.00  0.00     0.275 C 
BRANCH  29  30
ATOM     30  O   UNL     1      -8.425  -0.474   5.701  1.00  0.00    -0.458 OA
BRANCH  30  31
ATOM     31  C   UNL     1      -8.824  -1.125   4.594  1.00  0.00     0.338 C 
ATOM     32  O   UNL     1      -8.871  -0.708   3.449  1.00  0.00    -0.246 OA
BRANCH  31  33
ATOM     33  C   UNL     1      -9.184  -2.498   4.916  1.00  0.00     0.060 A 
ATOM     34  C   UNL     1      -8.139  -3.611   5.785  1.00  0.00     0.016 A 
ATOM     35  C   UNL     1     -10.529  -3.168   4.093  1.00  0.00     0.016 A 
ATOM     36  C   UNL     1      -8.537  -5.535   5.691  1.00  0.00     0.010 A 
ATOM     37  C   UNL     1     -10.904  -4.845   4.065  1.00  0.00     0.010 A 
ATOM     38  C   UNL     1      -9.972  -6.086   4.824  1.00  0.00    -0.014 A 
BRANCH  38  39
ATOM     39  C   UNL     1     -10.459  -7.506   4.863  1.00  0.00     0.031 A 
ATOM     40  C   UNL     1     -11.111  -8.146   3.656  1.00  0.00     0.074 A 
ATOM     41  C   UNL     1     -10.398  -8.215   6.013  1.00  0.00     0.049 A 
ATOM     42  N   UNL     1     -11.783  -9.270   3.576  1.00  0.00    -0.248 NA
ATOM     43  C   UNL     1     -11.060  -7.403   2.390  1.00  0.00     0.031 C 
ATOM     44  C   UNL     1      -9.912  -7.709   7.292  1.00  0.00     0.029 A 
ATOM     45  N   UNL     1     -10.739  -9.515   6.310  1.00  0.00    -0.354 N 
ATOM     46  C   UNL     1     -12.292  -9.327   2.280  1.00  0.00     0.074 A 
ATOM     47  C   UNL     1     -11.888  -8.102   1.626  1.00  0.00     0.031 C 
ATOM     48  C   UNL     1      -9.838  -8.699   8.185  1.00  0.00     0.029 A 
ATOM     49  C   UNL     1     -10.443  -9.884   7.607  1.00  0.00     0.049 A 
ATOM     50  H   UNL     1     -11.156 -10.124   5.659  1.00  0.00     0.167 HD
ATOM     51  C   UNL     1     -13.013 -10.316   1.689  1.00  0.00     0.034 A 
ATOM     52  C   UNL     1     -10.679 -11.018   8.298  1.00  0.00     0.034 A 
ATOM     53  C   UNL     1     -13.332 -11.569   2.337  1.00  0.00     0.049 A 
ATOM     54  C   UNL     1     -11.437 -12.113   7.610  1.00  0.00     0.074 A 
ATOM     55  C   UNL     1     -13.992 -12.668   1.814  1.00  0.00     0.029 A 
ATOM     56  N   UNL     1     -12.998 -11.898   3.646  1.00  0.00    -0.354 N 
ATOM     57  N   UNL     1     -11.929 -12.129   6.393  1.00  0.00    -0.248 NA
ATOM     58  C   UNL     1     -11.694 -13.327   8.389  1.00  0.00     0.031 C 
ATOM     59  C   UNL     1     -14.110 -13.633   2.819  1.00  0.00     0.029 A 
ATOM     60  C   UNL     1     -13.456 -13.173   3.950  1.00  0.00     0.049 A 
ATOM     61  H   UNL     1     -12.509 -11.312   4.268  1.00  0.00     0.167 HD
ATOM     62  C   UNL     1     -12.558 -13.360   6.261  1.00  0.00     0.074 A 
ATOM     63  C   UNL     1     -12.347 -14.070   7.508  1.00  0.00     0.031 C 
ATOM     64  C   UNL     1     -13.256 -13.855   5.207  1.00  0.00     0.034 A 
BRANCH  51  65
ATOM     65  C   UNL     1     -13.528 -10.078   0.282  1.00  0.00     0.023 A 
ATOM     66  C   UNL     1     -12.666  -9.861  -0.808  1.00  0.00     0.031 A 
ATOM     67  C   UNL     1     -14.913 -10.056   0.030  1.00  0.00     0.131 A 
ATOM     68  C   UNL     1     -13.194  -9.554  -2.073  1.00  0.00     0.055 A 
ATOM     69  C   UNL     1     -15.431  -9.837  -1.250  1.00  0.00     0.041 A 
ATOM     70  F   UNL     1     -15.793 -10.238   1.027  1.00  0.00    -0.206 F 
ATOM     71  C   UNL     1     -14.570  -9.567  -2.308  1.00  0.00     0.022 A 
BRANCH  68  72
ATOM     72  S   UNL     1     -12.060  -8.989  -3.372  1.00  0.00     0.124 S 
ATOM     73  O   UNL     1     -11.463  -7.810  -2.748  1.00  0.00    -0.237 OA
ATOM     74  O   UNL     1     -11.178 -10.137  -3.543  1.00  0.00    -0.237 OA
ATOM     75  O   UNL     1     -12.944  -8.707  -4.502  1.00  0.00    -0.744 OA
ENDBRANCH  68  72
ENDBRANCH  51  65
BRANCH  52  76
ATOM     76  C   UNL     1     -10.249 -11.142   9.725  1.00  0.00     0.023 A 
ATOM     77  C   UNL     1      -9.304 -12.102  10.118  1.00  0.00     0.031 A 
ATOM     78  C   UNL     1     -10.770 -10.292  10.720  1.00  0.00     0.131 A 
ATOM     79  C   UNL     1      -8.922 -12.201  11.467  1.00  0.00     0.055 A 
ATOM     80  C   UNL     1     -10.336 -10.347  12.045  1.00  0.00     0.041 A 
ATOM     81  F   UNL     1     -11.684  -9.360  10.407  1.00  0.00    -0.206 F 
ATOM     82  C   UNL     1      -9.413 -11.314  12.428  1.00  0.00     0.022 A 
BRANCH  79  83
ATOM     83  S   UNL     1      -7.832 -13.562  11.969  1.00  0.00     0.124 S 
ATOM     84  O   UNL     1      -8.583 -14.727  11.517  1.00  0.00    -0.237 OA
ATOM     85  O   UNL     1      -6.610 -13.260  11.232  1.00  0.00    -0.237 OA
ATOM     86  O   UNL     1      -7.738 -13.405  13.419  1.00  0.00    -0.744 OA
ENDBRANCH  79  83
ENDBRANCH  52  76
BRANCH  64  87
ATOM     87  C   UNL     1     -13.803 -15.249   5.368  1.00  0.00     0.023 A 
ATOM     88  C   UNL     1     -14.818 -15.536   6.298  1.00  0.00     0.031 A 
ATOM     89  C   UNL     1     -13.264 -16.310   4.621  1.00  0.00     0.131 A 
ATOM     90  C   UNL     1     -15.211 -16.864   6.508  1.00  0.00     0.055 A 
ATOM     91  C   UNL     1     -13.709 -17.621   4.787  1.00  0.00     0.041 A 
ATOM     92  F   UNL     1     -12.288 -16.089   3.726  1.00  0.00    -0.206 F 
ATOM     93  C   UNL     1     -14.676 -17.907   5.747  1.00  0.00     0.022 A 
BRANCH  90  94
ATOM     94  S   UNL     1     -16.347 -17.225   7.875  1.00  0.00     0.124 S 
ATOM     95  O   UNL     1     -15.603 -16.723   9.026  1.00  0.00    -0.237 OA
ATOM     96  O   UNL     1     -17.536 -16.465   7.504  1.00  0.00    -0.237 OA
ATOM     97  O   UNL     1     -16.498 -18.678   7.820  1.00  0.00    -0.744 OA
ENDBRANCH  90  94
ENDBRANCH  64  87
ENDBRANCH  38  39
ENDBRANCH  31  33
ENDBRANCH  30  31
ENDBRANCH  29  30
ENDBRANCH   1  29
TORSDOF 19
