REMARK SMILES Cc1cc(OC(F)F)ccc1NC(=O)[C@@H]1CCCC[C@@H]1C(=O)OCCOC(=O)c1ccc(-c2c3nc(c(-c4cc(S(=O)(=O)[O-])ccc4F)c4ccc([nH]4)c(-c4cc(S(=O)(=O)[O-])ccc4F)c4nc(c(-c5cc(S(=O)(=O)[O-])ccc5F)c5ccc2[nH]5)C=C4)C=C3)cc1
REMARK SMILES IDX 24 1 23 2 21 3 22 4 20 5 15 6 16 7 17 8 19 9 18 10 13 11
REMARK SMILES IDX 12 12 14 14 11 15 1 16 2 17 3 18 4 19 10 20 9 21 5 22 6 23
REMARK SMILES IDX 7 24 8 25 25 26 26 27 27 28 28 29 29 30 30 31 91 32 31 33
REMARK SMILES IDX 90 34 32 35 33 36 34 37 84 38 35 39 89 40 83 41 85 42 36 43
REMARK SMILES IDX 88 44 82 45 81 46 37 48 69 49 49 50 68 51 50 52 53 53 67 54
REMARK SMILES IDX 86 55 51 56 52 57 66 59 87 60 54 61 38 62 39 63 47 64 40 65
REMARK SMILES IDX 46 66 48 67 45 68 41 69 42 70 43 71 44 72 70 73 71 74 79 75
REMARK SMILES IDX 72 76 78 77 80 78 77 79 73 80 74 81 75 82 76 83 55 84 56 85
REMARK SMILES IDX 64 86 57 87 63 88 65 89 62 90 58 91 59 92 60 93 61 94
REMARK H PARENT 12 13 85 47 53 58
REMARK Flexibility Score: inf
ROOT
ATOM      1  C   UNL     1       1.855   2.977   3.787  1.00  0.00     0.274 C 
ENDROOT
BRANCH   1   2
ATOM      2  O   UNL     1       1.353   2.050   2.818  1.00  0.00    -0.462 OA
BRANCH   2   3
ATOM      3  C   UNL     1       0.889   2.709   1.750  1.00  0.00     0.309 C 
ATOM      4  O   UNL     1       1.657   3.464   1.169  1.00  0.00    -0.252 OA
BRANCH   3   5
ATOM      5  C   UNL     1      -0.729   2.445   1.378  1.00  0.00     0.111 C 
ATOM      6  C   UNL     1      -0.583   3.548  -0.257  1.00  0.00     0.093 C 
ATOM      7  C   UNL     1      -1.506   5.083  -0.318  1.00  0.00     0.014 C 
ATOM      8  C   UNL     1      -3.051   5.342   0.554  1.00  0.00     0.001 C 
ATOM      9  C   UNL     1      -2.621   2.786   2.499  1.00  0.00     0.016 C 
ATOM     10  C   UNL     1      -3.597   4.380   1.974  1.00  0.00     0.001 C 
BRANCH   6  11
ATOM     11  C   UNL     1       0.730   3.630  -1.058  1.00  0.00     0.228 C 
ATOM     12  N   UNL     1       1.307   2.444  -1.469  1.00  0.00    -0.326 N 
ATOM     13  H   UNL     1       2.260   2.487  -1.713  1.00  0.00     0.169 HD
ATOM     14  O   UNL     1       1.270   4.702  -1.333  1.00  0.00    -0.274 OA
BRANCH  12  15
ATOM     15  C   UNL     1       0.694   1.184  -1.581  1.00  0.00     0.044 A 
ATOM     16  C   UNL     1       2.671   0.033  -0.429  1.00  0.00     0.047 C 
ATOM     17  C   UNL     1       1.319   0.036  -1.086  1.00  0.00    -0.024 A 
ATOM     18  C   UNL     1       0.606  -1.178  -1.127  1.00  0.00     0.052 A 
ATOM     19  C   UNL     1      -0.717  -1.243  -1.575  1.00  0.00     0.126 A 
ATOM     20  C   UNL     1      -0.562   1.070  -2.196  1.00  0.00     0.030 A 
ATOM     21  C   UNL     1      -1.286  -0.122  -2.158  1.00  0.00     0.049 A 
BRANCH  19  22
ATOM     22  O   UNL     1      -1.341  -2.449  -1.434  1.00  0.00    -0.435 OA
BRANCH  22  23
ATOM     23  C   UNL     1      -2.729  -2.410  -1.095  1.00  0.00     0.542 C 
ATOM     24  F   UNL     1      -2.976  -1.434  -0.192  1.00  0.00    -0.167 F 
ATOM     25  F   UNL     1      -3.446  -2.115  -2.211  1.00  0.00    -0.167 F 
ENDBRANCH  22  23
ENDBRANCH  19  22
ENDBRANCH  12  15
ENDBRANCH   6  11
ENDBRANCH   3   5
ENDBRANCH   2   3
ENDBRANCH   1   2
BRANCH   1  26
ATOM     26  C   UNL     1       1.631   4.553   3.660  1.00  0.00     0.275 C 
BRANCH  26  27
ATOM     27  O   UNL     1       0.589   5.377   2.887  1.00  0.00    -0.458 OA
BRANCH  27  28
ATOM     28  C   UNL     1      -0.663   5.454   2.306  1.00  0.00     0.338 C 
ATOM     29  O   UNL     1      -1.180   6.546   2.123  1.00  0.00    -0.246 OA
BRANCH  28  30
ATOM     30  C   UNL     1      -1.363   4.138   1.997  1.00  0.00     0.060 A 
ATOM     31  C   UNL     1      -2.385   3.086   0.697  1.00  0.00     0.016 A 
ATOM     32  C   UNL     1      -0.841   3.312   3.432  1.00  0.00     0.016 A 
ATOM     33  C   UNL     1      -2.535   1.324   0.967  1.00  0.00     0.010 A 
ATOM     34  C   UNL     1      -1.000   1.682   3.541  1.00  0.00     0.010 A 
ATOM     35  C   UNL     1      -1.828   0.701   2.424  1.00  0.00    -0.014 A 
BRANCH  35  36
ATOM     36  C   UNL     1      -1.906  -0.629   3.034  1.00  0.00     0.031 A 
ATOM     37  C   UNL     1      -1.312  -1.811   2.421  1.00  0.00     0.074 A 
ATOM     38  C   UNL     1      -2.147  -0.674   4.371  1.00  0.00     0.049 A 
ATOM     39  N   UNL     1      -1.934  -2.921   2.207  1.00  0.00    -0.248 NA
ATOM     40  C   UNL     1       0.113  -1.835   2.104  1.00  0.00     0.031 C 
ATOM     41  C   UNL     1      -1.866  -1.733   5.329  1.00  0.00     0.029 A 
ATOM     42  N   UNL     1      -2.651   0.335   5.183  1.00  0.00    -0.354 N 
ATOM     43  C   UNL     1      -0.943  -3.858   2.007  1.00  0.00     0.074 A 
ATOM     44  C   UNL     1       0.283  -3.120   1.773  1.00  0.00     0.031 C 
ATOM     45  C   UNL     1      -2.413  -1.408   6.519  1.00  0.00     0.029 A 
ATOM     46  C   UNL     1      -3.148  -0.160   6.374  1.00  0.00     0.049 A 
ATOM     47  H   UNL     1      -2.653   1.289   4.939  1.00  0.00     0.167 HD
ATOM     48  C   UNL     1      -1.056  -5.141   2.454  1.00  0.00     0.034 A 
ATOM     49  C   UNL     1      -4.454   0.093   6.683  1.00  0.00     0.034 A 
ATOM     50  C   UNL     1      -2.031  -5.213   3.543  1.00  0.00     0.049 A 
ATOM     51  C   UNL     1      -5.281  -1.089   6.195  1.00  0.00     0.074 A 
ATOM     52  C   UNL     1      -1.854  -5.282   4.917  1.00  0.00     0.029 A 
ATOM     53  N   UNL     1      -3.357  -4.847   3.346  1.00  0.00    -0.354 N 
ATOM     54  N   UNL     1      -4.752  -2.200   5.754  1.00  0.00    -0.248 NA
ATOM     55  C   UNL     1      -6.738  -1.130   6.147  1.00  0.00     0.031 C 
ATOM     56  C   UNL     1      -3.060  -4.856   5.539  1.00  0.00     0.029 A 
ATOM     57  C   UNL     1      -3.990  -4.579   4.551  1.00  0.00     0.049 A 
ATOM     58  H   UNL     1      -3.791  -4.787   2.465  1.00  0.00     0.167 HD
ATOM     59  C   UNL     1      -5.713  -3.029   5.257  1.00  0.00     0.074 A 
ATOM     60  C   UNL     1      -6.951  -2.347   5.612  1.00  0.00     0.031 C 
ATOM     61  C   UNL     1      -5.396  -4.176   4.573  1.00  0.00     0.034 A 
BRANCH  48  62
ATOM     62  C   UNL     1      -0.002  -6.189   2.174  1.00  0.00     0.023 A 
ATOM     63  C   UNL     1       0.189  -7.285   3.035  1.00  0.00     0.031 A 
ATOM     64  C   UNL     1       0.785  -6.188   0.997  1.00  0.00     0.131 A 
ATOM     65  C   UNL     1       1.165  -8.265   2.763  1.00  0.00     0.055 A 
ATOM     66  C   UNL     1       1.780  -7.141   0.744  1.00  0.00     0.041 A 
ATOM     67  F   UNL     1       0.599  -5.263   0.040  1.00  0.00    -0.206 F 
ATOM     68  C   UNL     1       1.981  -8.184   1.636  1.00  0.00     0.022 A 
BRANCH  65  69
ATOM     69  S   UNL     1       1.334  -9.678   3.890  1.00  0.00     0.124 S 
ATOM     70  O   UNL     1       1.686  -9.027   5.147  1.00  0.00    -0.237 OA
ATOM     71  O   UNL     1       0.008 -10.284   3.824  1.00  0.00    -0.237 OA
ATOM     72  O   UNL     1       2.404 -10.470   3.284  1.00  0.00    -0.744 OA
ENDBRANCH  65  69
ENDBRANCH  48  62
BRANCH  49  73
ATOM     73  C   UNL     1      -4.759   1.564   6.534  1.00  0.00     0.023 A 
ATOM     74  C   UNL     1      -4.007   2.438   7.363  1.00  0.00     0.031 A 
ATOM     75  C   UNL     1      -5.322   2.110   5.371  1.00  0.00     0.131 A 
ATOM     76  C   UNL     1      -3.652   3.721   6.916  1.00  0.00     0.055 A 
ATOM     77  C   UNL     1      -5.034   3.424   4.973  1.00  0.00     0.041 A 
ATOM     78  F   UNL     1      -5.996   1.338   4.508  1.00  0.00    -0.206 F 
ATOM     79  C   UNL     1      -4.144   4.211   5.708  1.00  0.00     0.022 A 
BRANCH  76  80
ATOM     80  S   UNL     1      -2.310   4.635   7.749  1.00  0.00     0.124 S 
ATOM     81  O   UNL     1      -3.054   5.575   8.579  1.00  0.00    -0.237 OA
ATOM     82  O   UNL     1      -1.587   3.588   8.466  1.00  0.00    -0.237 OA
ATOM     83  O   UNL     1      -1.572   5.214   6.628  1.00  0.00    -0.744 OA
ENDBRANCH  76  80
ENDBRANCH  49  73
BRANCH  61  84
ATOM     84  C   UNL     1      -6.413  -5.090   3.936  1.00  0.00     0.023 A 
ATOM     85  C   UNL     1      -7.706  -4.674   3.620  1.00  0.00     0.031 A 
ATOM     86  C   UNL     1      -6.107  -6.439   3.632  1.00  0.00     0.131 A 
ATOM     87  C   UNL     1      -8.679  -5.599   3.222  1.00  0.00     0.055 A 
ATOM     88  C   UNL     1      -7.040  -7.325   3.091  1.00  0.00     0.041 A 
ATOM     89  F   UNL     1      -4.894  -6.964   3.865  1.00  0.00    -0.206 F 
ATOM     90  C   UNL     1      -8.352  -6.918   2.925  1.00  0.00     0.022 A 
BRANCH  87  91
ATOM     91  S   UNL     1     -10.406  -5.066   3.299  1.00  0.00     0.124 S 
ATOM     92  O   UNL     1     -10.546  -4.725   4.713  1.00  0.00    -0.237 OA
ATOM     93  O   UNL     1     -10.427  -3.939   2.373  1.00  0.00    -0.237 OA
ATOM     94  O   UNL     1     -11.148  -6.247   2.867  1.00  0.00    -0.744 OA
ENDBRANCH  87  91
ENDBRANCH  61  84
ENDBRANCH  35  36
ENDBRANCH  28  30
ENDBRANCH  27  28
ENDBRANCH  26  27
ENDBRANCH   1  26
TORSDOF 18
