REMARK SMILES CC[C@@H]1SC[C@@H](C(=O)OCCOC(=O)c2ccc(-c3c4nc(c(-c5cc(S(=O)(=O)[O-])ccc5F)c5ccc([nH]5)c(-c5cc(S(=O)(=O)[O-])ccc5F)c5nc(c(-c6cc(S(=O)(=O)[O-])ccc6F)c6ccc3[nH]6)C=C5)C=C4)cc2)N1C(=O)NC1C(C)(C)C1(C)C
REMARK SMILES IDX 11 1 10 2 9 3 7 4 8 5 6 6 3 7 4 8 78 9 5 10 2 11 1 12 79 13
REMARK SMILES IDX 80 14 81 15 82 17 83 18 86 19 84 20 85 21 87 22 88 23 12 24
REMARK SMILES IDX 13 25 14 26 15 27 16 28 77 29 17 30 76 31 18 32 19 33 20 34
REMARK SMILES IDX 70 35 21 36 75 37 69 38 71 39 22 40 74 41 68 42 67 43 23 45
REMARK SMILES IDX 55 46 35 47 54 48 36 49 39 50 53 51 72 52 37 53 38 54 52 56
REMARK SMILES IDX 73 57 40 58 24 59 25 60 33 61 26 62 32 63 34 64 31 65 27 66
REMARK SMILES IDX 28 67 29 68 30 69 56 70 57 71 65 72 58 73 64 74 66 75 63 76
REMARK SMILES IDX 59 77 60 78 61 79 62 80 41 81 42 82 50 83 43 84 49 85 51 86
REMARK SMILES IDX 48 87 44 88 45 89 46 90 47 91
REMARK H PARENT 81 16 71 44 39 55
REMARK Flexibility Score: inf
ROOT
ATOM      1  C   UNL     1      -4.021   0.783   1.352  1.00  0.00     0.275 C 
ENDROOT
BRANCH   1   2
ATOM      2  C   UNL     1      -2.846   0.764   0.378  1.00  0.00     0.274 C 
BRANCH   2   3
ATOM      3  O   UNL     1      -1.595   0.941   1.071  1.00  0.00    -0.461 OA
BRANCH   3   4
ATOM      4  C   UNL     1      -1.166   2.232   1.163  1.00  0.00     0.329 C 
ATOM      5  O   UNL     1      -1.716   3.182   0.610  1.00  0.00    -0.250 OA
BRANCH   4   6
ATOM      6  C   UNL     1       0.184   2.389   1.887  1.00  0.00     0.208 C 
ATOM      7  C   UNL     1       2.118   0.935   2.430  1.00  0.00     0.145 C 
ATOM      8  S   UNL     1       2.736   2.094   1.162  1.00  0.00    -0.134 SA
ATOM      9  N   UNL     1       0.702   1.243   2.660  1.00  0.00    -0.298 N 
ATOM     10  C   UNL     1       1.128   2.749   0.747  1.00  0.00     0.109 C 
BRANCH   7  11
ATOM     11  C   UNL     1       3.024   0.924   3.687  1.00  0.00     0.033 C 
ATOM     12  C   UNL     1       4.354   1.670   3.686  1.00  0.00     0.007 C 
ENDBRANCH   7  11
BRANCH   9  13
ATOM     13  C   UNL     1      -0.110   0.798   3.671  1.00  0.00     0.319 C 
ATOM     14  O   UNL     1      -1.113   1.440   3.997  1.00  0.00    -0.249 OA
ATOM     15  N   UNL     1       0.094  -0.364   4.334  1.00  0.00    -0.334 N 
ATOM     16  H   UNL     1      -0.488  -0.475   5.121  1.00  0.00     0.165 HD
BRANCH  15  17
ATOM     17  C   UNL     1       0.978  -1.454   4.123  1.00  0.00     0.096 C 
ATOM     18  C   UNL     1       0.603  -2.910   4.356  1.00  0.00    -0.007 C 
ATOM     19  C   UNL     1       0.846  -2.386   2.933  1.00  0.00    -0.007 C 
ATOM     20  C   UNL     1       1.656  -3.797   4.996  1.00  0.00     0.014 C 
ATOM     21  C   UNL     1      -0.794  -3.288   4.791  1.00  0.00     0.014 C 
ATOM     22  C   UNL     1      -0.334  -2.232   1.998  1.00  0.00     0.014 C 
ATOM     23  C   UNL     1       2.114  -2.771   2.205  1.00  0.00     0.014 C 
ENDBRANCH  15  17
ENDBRANCH   9  13
ENDBRANCH   4   6
ENDBRANCH   3   4
ENDBRANCH   2   3
ENDBRANCH   1   2
BRANCH   1  24
ATOM     24  O   UNL     1      -3.997   2.005   2.103  1.00  0.00    -0.458 OA
BRANCH  24  25
ATOM     25  C   UNL     1      -4.266   1.882   3.422  1.00  0.00     0.338 C 
ATOM     26  O   UNL     1      -4.655   0.874   4.000  1.00  0.00    -0.246 OA
BRANCH  25  27
ATOM     27  C   UNL     1      -4.128   3.199   4.070  1.00  0.00     0.060 A 
ATOM     28  C   UNL     1      -2.963   3.959   3.925  1.00  0.00     0.016 A 
ATOM     29  C   UNL     1      -5.160   3.654   4.889  1.00  0.00     0.016 A 
ATOM     30  C   UNL     1      -2.802   5.143   4.643  1.00  0.00     0.010 A 
ATOM     31  C   UNL     1      -5.027   4.873   5.554  1.00  0.00     0.010 A 
ATOM     32  C   UNL     1      -3.834   5.613   5.464  1.00  0.00    -0.014 A 
BRANCH  32  33
ATOM     33  C   UNL     1      -3.649   6.831   6.295  1.00  0.00     0.031 A 
ATOM     34  C   UNL     1      -3.650   6.708   7.794  1.00  0.00     0.074 A 
ATOM     35  C   UNL     1      -3.494   8.037   5.716  1.00  0.00     0.049 A 
ATOM     36  N   UNL     1      -3.679   7.645   8.707  1.00  0.00    -0.248 NA
ATOM     37  C   UNL     1      -3.635   5.341   8.335  1.00  0.00     0.031 C 
ATOM     38  C   UNL     1      -3.434   8.281   4.274  1.00  0.00     0.029 A 
ATOM     39  N   UNL     1      -3.372   9.286   6.271  1.00  0.00    -0.354 N 
ATOM     40  C   UNL     1      -3.721   6.983   9.929  1.00  0.00     0.074 A 
ATOM     41  C   UNL     1      -3.748   5.565   9.635  1.00  0.00     0.031 C 
ATOM     42  C   UNL     1      -3.285   9.597   4.058  1.00  0.00     0.029 A 
ATOM     43  C   UNL     1      -3.306  10.296   5.340  1.00  0.00     0.049 A 
ATOM     44  H   UNL     1      -3.335   9.444   7.242  1.00  0.00     0.167 HD
ATOM     45  C   UNL     1      -3.730   7.510  11.179  1.00  0.00     0.034 A 
ATOM     46  C   UNL     1      -3.307  11.635   5.497  1.00  0.00     0.034 A 
ATOM     47  C   UNL     1      -3.689   8.928  11.450  1.00  0.00     0.049 A 
ATOM     48  C   UNL     1      -3.372  12.204   6.891  1.00  0.00     0.074 A 
ATOM     49  C   UNL     1      -3.690   9.576  12.673  1.00  0.00     0.029 A 
ATOM     50  N   UNL     1      -3.640   9.921  10.478  1.00  0.00    -0.354 N 
ATOM     51  N   UNL     1      -3.452  11.570   8.039  1.00  0.00    -0.248 NA
ATOM     52  C   UNL     1      -3.347  13.667   7.010  1.00  0.00     0.031 C 
ATOM     53  C   UNL     1      -3.700  10.956  12.441  1.00  0.00     0.029 A 
ATOM     54  C   UNL     1      -3.632  11.174  11.074  1.00  0.00     0.049 A 
ATOM     55  H   UNL     1      -3.614   9.759   9.507  1.00  0.00     0.167 HD
ATOM     56  C   UNL     1      -3.469  12.560   9.018  1.00  0.00     0.074 A 
ATOM     57  C   UNL     1      -3.373  13.829   8.325  1.00  0.00     0.031 C 
ATOM     58  C   UNL     1      -3.554  12.432  10.367  1.00  0.00     0.034 A 
BRANCH  45  59
ATOM     59  C   UNL     1      -3.842   6.543  12.335  1.00  0.00     0.023 A 
ATOM     60  C   UNL     1      -2.849   5.584  12.602  1.00  0.00     0.031 A 
ATOM     61  C   UNL     1      -4.987   6.546  13.152  1.00  0.00     0.131 A 
ATOM     62  C   UNL     1      -3.056   4.619  13.600  1.00  0.00     0.055 A 
ATOM     63  C   UNL     1      -5.149   5.635  14.198  1.00  0.00     0.041 A 
ATOM     64  F   UNL     1      -5.980   7.423  12.934  1.00  0.00    -0.206 F 
ATOM     65  C   UNL     1      -4.189   4.653  14.416  1.00  0.00     0.022 A 
BRANCH  62  66
ATOM     66  S   UNL     1      -1.898   3.226  13.715  1.00  0.00     0.124 S 
ATOM     67  O   UNL     1      -2.001   2.644  12.379  1.00  0.00    -0.237 OA
ATOM     68  O   UNL     1      -0.637   3.888  14.028  1.00  0.00    -0.237 OA
ATOM     69  O   UNL     1      -2.455   2.404  14.788  1.00  0.00    -0.744 OA
ENDBRANCH  62  66
ENDBRANCH  45  59
BRANCH  46  70
ATOM     70  C   UNL     1      -3.304  12.527   4.304  1.00  0.00     0.023 A 
ATOM     71  C   UNL     1      -2.218  13.371   4.027  1.00  0.00     0.031 A 
ATOM     72  C   UNL     1      -4.407  12.562   3.431  1.00  0.00     0.131 A 
ATOM     73  C   UNL     1      -2.270  14.236   2.922  1.00  0.00     0.055 A 
ATOM     74  C   UNL     1      -4.433  13.387   2.306  1.00  0.00     0.041 A 
ATOM     75  F   UNL     1      -5.472  11.773   3.651  1.00  0.00    -0.206 F 
ATOM     76  C   UNL     1      -3.363  14.239   2.052  1.00  0.00     0.022 A 
BRANCH  73  77
ATOM     77  S   UNL     1      -0.909  15.408   2.670  1.00  0.00     0.124 S 
ATOM     78  O   UNL     1      -0.945  16.177   3.908  1.00  0.00    -0.237 OA
ATOM     79  O   UNL     1       0.233  14.516   2.501  1.00  0.00    -0.237 OA
ATOM     80  O   UNL     1      -1.307  16.139   1.469  1.00  0.00    -0.744 OA
ENDBRANCH  73  77
ENDBRANCH  46  70
BRANCH  58  81
ATOM     81  C   UNL     1      -3.504  13.704  11.176  1.00  0.00     0.023 A 
ATOM     82  C   UNL     1      -4.549  14.644  11.143  1.00  0.00     0.031 A 
ATOM     83  C   UNL     1      -2.385  13.985  11.980  1.00  0.00     0.131 A 
ATOM     84  C   UNL     1      -4.430  15.846  11.858  1.00  0.00     0.055 A 
ATOM     85  C   UNL     1      -2.297  15.157  12.733  1.00  0.00     0.041 A 
ATOM     86  F   UNL     1      -1.358  13.123  12.046  1.00  0.00    -0.206 F 
ATOM     87  C   UNL     1      -3.318  16.101  12.665  1.00  0.00     0.022 A 
BRANCH  84  88
ATOM     88  S   UNL     1      -5.712  17.114  11.655  1.00  0.00     0.124 S 
ATOM     89  O   UNL     1      -5.662  17.368  10.219  1.00  0.00    -0.237 OA
ATOM     90  O   UNL     1      -6.907  16.432  12.141  1.00  0.00    -0.237 OA
ATOM     91  O   UNL     1      -5.242  18.214  12.495  1.00  0.00    -0.744 OA
ENDBRANCH  84  88
ENDBRANCH  58  81
ENDBRANCH  32  33
ENDBRANCH  25  27
ENDBRANCH  24  25
ENDBRANCH   1  24
TORSDOF 17
