REMARK SMILES CN(CCS(C)(=O)=O)C(=O)Nc1cccc(C(=O)OCCOC(=O)c2ccc(-c3c4nc(c(-c5cc(S(=O)(=O)[O-])ccc5F)c5ccc([nH]5)c(-c5cc(S(=O)(=O)[O-])ccc5F)c5nc(c(-c6cc(S(=O)(=O)[O-])ccc6F)c6ccc3[nH]6)C=C5)C=C4)cc2)c1
REMARK SMILES IDX 20 1 19 2 17 3 18 4 16 5 12 6 13 7 88 8 14 9 15 10 11 11
REMARK SMILES IDX 9 12 10 13 2 15 1 16 3 17 4 18 5 19 6 20 7 21 8 22 21 23
REMARK SMILES IDX 22 24 23 25 24 26 25 27 26 28 87 29 27 30 86 31 28 32 29 33
REMARK SMILES IDX 30 34 80 35 31 36 85 37 79 38 81 39 32 40 84 41 78 42 77 43
REMARK SMILES IDX 33 45 65 46 45 47 64 48 46 49 49 50 63 51 82 52 47 53 48 54
REMARK SMILES IDX 62 56 83 57 50 58 34 59 35 60 43 61 36 62 42 63 44 64 41 65
REMARK SMILES IDX 37 66 38 67 39 68 40 69 66 70 67 71 75 72 68 73 74 74 76 75
REMARK SMILES IDX 73 76 69 77 70 78 71 79 72 80 51 81 52 82 60 83 53 84 59 85
REMARK SMILES IDX 61 86 58 87 54 88 55 89 56 90 57 91
REMARK H PARENT 11 14 81 44 49 55
REMARK Flexibility Score: inf
ROOT
ATOM      1  C   UNL     1      -4.438   2.787  -0.848  1.00  0.00     0.275 C 
ENDROOT
BRANCH   1   2
ATOM      2  O   UNL     1      -3.379   3.406  -0.083  1.00  0.00    -0.458 OA
BRANCH   2   3
ATOM      3  C   UNL     1      -2.690   4.427  -0.672  1.00  0.00     0.338 C 
ATOM      4  O   UNL     1      -2.937   4.965  -1.729  1.00  0.00    -0.246 OA
BRANCH   3   5
ATOM      5  C   UNL     1      -1.551   4.794   0.209  1.00  0.00     0.062 A 
ATOM      6  C   UNL     1       0.348   3.944   1.455  1.00  0.00     0.043 A 
ATOM      7  C   UNL     1       0.591   5.250   1.907  1.00  0.00     0.026 A 
ATOM      8  C   UNL     1      -0.713   3.756   0.602  1.00  0.00     0.041 A 
ATOM      9  C   UNL     1      -0.207   6.321   1.485  1.00  0.00     0.003 A 
ATOM     10  C   UNL     1      -1.272   6.095   0.614  1.00  0.00     0.016 A 
BRANCH   6  11
ATOM     11  N   UNL     1       1.198   2.933   1.911  1.00  0.00    -0.308 N 
ATOM     12  C   UNL     1       1.474   1.628   1.763  1.00  0.00     0.321 C 
ATOM     13  O   UNL     1       2.554   1.325   2.297  1.00  0.00    -0.248 OA
ATOM     14  H   UNL     1       1.815   3.314   2.577  1.00  0.00     0.171 HD
BRANCH  12  15
ATOM     15  N   UNL     1       0.762   0.684   1.086  1.00  0.00    -0.327 N 
ATOM     16  C   UNL     1       1.557  -0.467   0.646  1.00  0.00     0.148 C 
BRANCH  15  17
ATOM     17  C   UNL     1      -0.627   0.572   0.650  1.00  0.00     0.137 C 
BRANCH  17  18
ATOM     18  C   UNL     1      -1.857   0.651   1.548  1.00  0.00     0.158 C 
BRANCH  18  19
ATOM     19  S   UNL     1      -1.809   0.828   3.300  1.00  0.00     0.149 S 
ATOM     20  C   UNL     1      -1.725   2.570   3.656  1.00  0.00     0.158 C 
ATOM     21  O   UNL     1      -3.122   0.394   3.754  1.00  0.00    -0.229 OA
ATOM     22  O   UNL     1      -0.627   0.173   3.820  1.00  0.00    -0.229 OA
ENDBRANCH  18  19
ENDBRANCH  17  18
ENDBRANCH  15  17
ENDBRANCH  12  15
ENDBRANCH   6  11
ENDBRANCH   3   5
ENDBRANCH   2   3
ENDBRANCH   1   2
BRANCH   1  23
ATOM     23  C   UNL     1      -5.797   2.880  -0.147  1.00  0.00     0.275 C 
BRANCH  23  24
ATOM     24  O   UNL     1      -6.212   4.252  -0.083  1.00  0.00    -0.458 OA
BRANCH  24  25
ATOM     25  C   UNL     1      -6.078   4.833   1.133  1.00  0.00     0.338 C 
ATOM     26  O   UNL     1      -5.807   4.291   2.190  1.00  0.00    -0.246 OA
BRANCH  25  27
ATOM     27  C   UNL     1      -6.030   6.285   0.937  1.00  0.00     0.060 A 
ATOM     28  C   UNL     1      -4.790   6.797   0.581  1.00  0.00     0.016 A 
ATOM     29  C   UNL     1      -7.088   7.142   1.210  1.00  0.00     0.016 A 
ATOM     30  C   UNL     1      -4.560   8.157   0.545  1.00  0.00     0.010 A 
ATOM     31  C   UNL     1      -6.878   8.526   1.103  1.00  0.00     0.010 A 
ATOM     32  C   UNL     1      -5.604   9.045   0.791  1.00  0.00    -0.014 A 
BRANCH  32  33
ATOM     33  C   UNL     1      -5.295  10.498   0.830  1.00  0.00     0.031 A 
ATOM     34  C   UNL     1      -5.508  11.253   2.110  1.00  0.00     0.074 A 
ATOM     35  C   UNL     1      -4.734  11.110  -0.234  1.00  0.00     0.049 A 
ATOM     36  N   UNL     1      -5.494  12.540   2.324  1.00  0.00    -0.248 NA
ATOM     37  C   UNL     1      -5.788  10.446   3.308  1.00  0.00     0.031 C 
ATOM     38  C   UNL     1      -4.356  10.453  -1.489  1.00  0.00     0.029 A 
ATOM     39  N   UNL     1      -4.361  12.416  -0.426  1.00  0.00    -0.354 N 
ATOM     40  C   UNL     1      -5.834  12.704   3.663  1.00  0.00     0.074 A 
ATOM     41  C   UNL     1      -6.049  11.381   4.208  1.00  0.00     0.031 C 
ATOM     42  C   UNL     1      -3.771  11.348  -2.299  1.00  0.00     0.029 A 
ATOM     43  C   UNL     1      -3.850  12.664  -1.680  1.00  0.00     0.049 A 
ATOM     44  H   UNL     1      -4.449  13.110   0.267  1.00  0.00     0.167 HD
ATOM     45  C   UNL     1      -5.962  13.859   4.359  1.00  0.00     0.034 A 
ATOM     46  C   UNL     1      -3.551  13.828  -2.292  1.00  0.00     0.034 A 
ATOM     47  C   UNL     1      -5.692  15.156   3.788  1.00  0.00     0.049 A 
ATOM     48  C   UNL     1      -3.793  15.107  -1.533  1.00  0.00     0.074 A 
ATOM     49  C   UNL     1      -5.796  16.400   4.383  1.00  0.00     0.029 A 
ATOM     50  N   UNL     1      -5.254  15.374   2.486  1.00  0.00    -0.354 N 
ATOM     51  N   UNL     1      -4.221  15.264  -0.300  1.00  0.00    -0.248 NA
ATOM     52  C   UNL     1      -3.538  16.362  -2.249  1.00  0.00     0.031 C 
ATOM     53  C   UNL     1      -5.491  17.370   3.422  1.00  0.00     0.029 A 
ATOM     54  C   UNL     1      -5.113  16.732   2.252  1.00  0.00     0.049 A 
ATOM     55  H   UNL     1      -5.071  14.666   1.827  1.00  0.00     0.167 HD
ATOM     56  C   UNL     1      -4.266  16.638  -0.088  1.00  0.00     0.074 A 
ATOM     57  C   UNL     1      -3.806  17.261  -1.313  1.00  0.00     0.031 C 
ATOM     58  C   UNL     1      -4.654  17.325   1.017  1.00  0.00     0.034 A 
BRANCH  45  59
ATOM     59  C   UNL     1      -6.494  13.769   5.769  1.00  0.00     0.023 A 
ATOM     60  C   UNL     1      -5.802  13.103   6.795  1.00  0.00     0.031 A 
ATOM     61  C   UNL     1      -7.751  14.322   6.077  1.00  0.00     0.131 A 
ATOM     62  C   UNL     1      -6.404  12.940   8.053  1.00  0.00     0.055 A 
ATOM     63  C   UNL     1      -8.306  14.232   7.354  1.00  0.00     0.041 A 
ATOM     64  F   UNL     1      -8.473  14.945   5.132  1.00  0.00    -0.206 F 
ATOM     65  C   UNL     1      -7.638  13.523   8.348  1.00  0.00     0.022 A 
BRANCH  62  66
ATOM     66  S   UNL     1      -5.622  11.822   9.248  1.00  0.00     0.124 S 
ATOM     67  O   UNL     1      -5.598  10.565   8.503  1.00  0.00    -0.237 OA
ATOM     68  O   UNL     1      -4.328  12.456   9.473  1.00  0.00    -0.237 OA
ATOM     69  O   UNL     1      -6.535  11.845  10.389  1.00  0.00    -0.744 OA
ENDBRANCH  62  66
ENDBRANCH  45  59
BRANCH  46  70
ATOM     70  C   UNL     1      -3.098  13.845  -3.715  1.00  0.00     0.023 A 
ATOM     71  C   UNL     1      -1.855  14.384  -4.079  1.00  0.00     0.031 A 
ATOM     72  C   UNL     1      -3.925  13.353  -4.744  1.00  0.00     0.131 A 
ATOM     73  C   UNL     1      -1.489  14.449  -5.434  1.00  0.00     0.055 A 
ATOM     74  C   UNL     1      -3.529  13.359  -6.082  1.00  0.00     0.041 A 
ATOM     75  F   UNL     1      -5.132  12.837  -4.460  1.00  0.00    -0.206 F 
ATOM     76  C   UNL     1      -2.308  13.922  -6.435  1.00  0.00     0.022 A 
BRANCH  73  77
ATOM     77  S   UNL     1       0.038  15.320  -5.881  1.00  0.00     0.124 S 
ATOM     78  O   UNL     1      -0.200  16.643  -5.315  1.00  0.00    -0.237 OA
ATOM     79  O   UNL     1       1.053  14.511  -5.217  1.00  0.00    -0.237 OA
ATOM     80  O   UNL     1       0.050  15.258  -7.341  1.00  0.00    -0.744 OA
ENDBRANCH  73  77
ENDBRANCH  46  70
BRANCH  58  81
ATOM     81  C   UNL     1      -4.540  18.826   0.960  1.00  0.00     0.023 A 
ATOM     82  C   UNL     1      -5.368  19.600   0.131  1.00  0.00     0.031 A 
ATOM     83  C   UNL     1      -3.590  19.487   1.759  1.00  0.00     0.131 A 
ATOM     84  C   UNL     1      -5.199  20.991   0.085  1.00  0.00     0.055 A 
ATOM     85  C   UNL     1      -3.470  20.876   1.755  1.00  0.00     0.041 A 
ATOM     86  F   UNL     1      -2.772  18.792   2.565  1.00  0.00    -0.206 F 
ATOM     87  C   UNL     1      -4.270  21.636   0.907  1.00  0.00     0.022 A 
BRANCH  84  88
ATOM     88  S   UNL     1      -6.159  21.944  -1.122  1.00  0.00     0.124 S 
ATOM     89  O   UNL     1      -5.716  21.364  -2.386  1.00  0.00    -0.237 OA
ATOM     90  O   UNL     1      -7.534  21.649  -0.733  1.00  0.00    -0.237 OA
ATOM     91  O   UNL     1      -5.731  23.322  -0.889  1.00  0.00    -0.744 OA
ENDBRANCH  84  88
ENDBRANCH  58  81
ENDBRANCH  32  33
ENDBRANCH  25  27
ENDBRANCH  24  25
ENDBRANCH  23  24
ENDBRANCH   1  23
TORSDOF 19
