REMARK SMILES O=C(OCCOC(=O)c1cn(C2C[NH+](Cc3cc(F)ccc3F)C2)nn1)c1ccc(-c2c3nc(c(-c4cc(S(=O)(=O)[O-])ccc4F)c4ccc([nH]4)c(-c4cc(S(=O)(=O)[O-])ccc4F)c4nc(c(-c5cc(S(=O)(=O)[O-])ccc5F)c5ccc2[nH]5)C=C4)C=C3)cc1
REMARK SMILES IDX 4 1 3 2 2 3 1 4 27 5 28 6 89 7 29 8 88 9 30 10 31 11 32 12
REMARK SMILES IDX 82 13 33 14 87 15 81 16 83 17 34 18 86 19 80 20 79 21 35 23
REMARK SMILES IDX 67 24 47 25 66 26 48 27 51 28 65 29 84 30 49 31 50 32 64 34
REMARK SMILES IDX 85 35 52 36 36 37 37 38 45 39 38 40 44 41 46 42 43 43 39 44
REMARK SMILES IDX 40 45 41 46 42 47 68 48 69 49 77 50 70 51 76 52 78 53 75 54
REMARK SMILES IDX 71 55 72 56 73 57 74 58 53 59 54 60 62 61 55 62 61 63 63 64
REMARK SMILES IDX 60 65 56 66 57 67 58 68 59 69 5 70 6 71 7 72 8 73 9 74 10 75
REMARK SMILES IDX 26 76 11 77 25 78 12 79 13 80 24 81 14 82 15 84 16 85 17 86
REMARK SMILES IDX 22 87 18 88 21 89 23 90 19 91 20 92
REMARK H PARENT 83 22 51 33 14 83
REMARK Flexibility Score: inf
ROOT
ATOM      1  C   UNL     1       4.612  -0.954   0.525  1.00  0.00     0.275 C 
ENDROOT
BRANCH   1   2
ATOM      2  O   UNL     1       3.362  -0.797   1.226  1.00  0.00    -0.458 OA
BRANCH   2   3
ATOM      3  C   UNL     1       2.339  -0.147   0.623  1.00  0.00     0.338 C 
ATOM      4  O   UNL     1       1.529  -0.686  -0.112  1.00  0.00    -0.246 OA
BRANCH   3   5
ATOM      5  C   UNL     1       2.198   1.231   1.147  1.00  0.00     0.060 A 
ATOM      6  C   UNL     1       3.316   1.992   1.506  1.00  0.00     0.016 A 
ATOM      7  C   UNL     1       0.912   1.764   1.288  1.00  0.00     0.016 A 
ATOM      8  C   UNL     1       3.149   3.244   2.077  1.00  0.00     0.010 A 
ATOM      9  C   UNL     1       0.743   3.022   1.861  1.00  0.00     0.010 A 
ATOM     10  C   UNL     1       1.862   3.747   2.281  1.00  0.00    -0.014 A 
BRANCH  10  11
ATOM     11  C   UNL     1       1.749   5.108   2.806  1.00  0.00     0.031 A 
ATOM     12  C   UNL     1       2.290   6.172   1.913  1.00  0.00     0.074 A 
ATOM     13  C   UNL     1       1.091   5.421   3.941  1.00  0.00     0.049 A 
ATOM     14  N   UNL     1       3.212   7.043   2.168  1.00  0.00    -0.248 NA
ATOM     15  C   UNL     1       1.806   6.209   0.523  1.00  0.00     0.031 C 
ATOM     16  C   UNL     1       0.300   4.524   4.784  1.00  0.00     0.029 A 
ATOM     17  N   UNL     1       0.899   6.643   4.521  1.00  0.00    -0.354 N 
ATOM     18  C   UNL     1       3.258   7.887   1.060  1.00  0.00     0.074 A 
ATOM     19  C   UNL     1       2.493   7.240   0.030  1.00  0.00     0.031 C 
ATOM     20  C   UNL     1      -0.462   5.261   5.623  1.00  0.00     0.029 A 
ATOM     21  C   UNL     1      -0.128   6.668   5.461  1.00  0.00     0.049 A 
ATOM     22  H   UNL     1       1.439   7.435   4.295  1.00  0.00     0.167 HD
ATOM     23  C   UNL     1       3.727   9.162   1.150  1.00  0.00     0.034 A 
ATOM     24  C   UNL     1      -0.716   7.760   6.019  1.00  0.00     0.034 A 
ATOM     25  C   UNL     1       4.612   9.326   2.275  1.00  0.00     0.049 A 
ATOM     26  C   UNL     1       0.232   8.891   5.886  1.00  0.00     0.074 A 
ATOM     27  C   UNL     1       5.757   8.679   2.701  1.00  0.00     0.029 A 
ATOM     28  N   UNL     1       4.178  10.047   3.364  1.00  0.00    -0.354 N 
ATOM     29  N   UNL     1       1.373   8.953   6.514  1.00  0.00    -0.248 NA
ATOM     30  C   UNL     1       0.124   9.748   4.714  1.00  0.00     0.031 C 
ATOM     31  C   UNL     1       5.617   8.598   4.116  1.00  0.00     0.029 A 
ATOM     32  C   UNL     1       4.448   9.276   4.467  1.00  0.00     0.049 A 
ATOM     33  H   UNL     1       3.757  10.937   3.354  1.00  0.00     0.167 HD
ATOM     34  C   UNL     1       2.257   9.497   5.597  1.00  0.00     0.074 A 
ATOM     35  C   UNL     1       1.411  10.065   4.549  1.00  0.00     0.031 C 
ATOM     36  C   UNL     1       3.589   9.196   5.630  1.00  0.00     0.034 A 
BRANCH  23  37
ATOM     37  C   UNL     1       3.097  10.341   0.441  1.00  0.00     0.023 A 
ATOM     38  C   UNL     1       3.694  11.604   0.618  1.00  0.00     0.031 A 
ATOM     39  C   UNL     1       1.792  10.349  -0.101  1.00  0.00     0.131 A 
ATOM     40  C   UNL     1       2.967  12.782   0.375  1.00  0.00     0.055 A 
ATOM     41  C   UNL     1       1.118  11.522  -0.448  1.00  0.00     0.041 A 
ATOM     42  F   UNL     1       1.053   9.239  -0.204  1.00  0.00    -0.206 F 
ATOM     43  C   UNL     1       1.689  12.752  -0.174  1.00  0.00     0.022 A 
BRANCH  40  44
ATOM     44  S   UNL     1       3.626  14.336   1.038  1.00  0.00     0.124 S 
ATOM     45  O   UNL     1       3.830  13.985   2.439  1.00  0.00    -0.237 OA
ATOM     46  O   UNL     1       4.832  14.517   0.237  1.00  0.00    -0.237 OA
ATOM     47  O   UNL     1       2.554  15.295   0.781  1.00  0.00    -0.744 OA
ENDBRANCH  40  44
ENDBRANCH  23  37
BRANCH  24  48
ATOM     48  C   UNL     1      -2.146   7.924   6.406  1.00  0.00     0.023 A 
ATOM     49  C   UNL     1      -2.591   8.932   7.288  1.00  0.00     0.031 A 
ATOM     50  C   UNL     1      -3.146   7.209   5.709  1.00  0.00     0.131 A 
ATOM     51  C   UNL     1      -3.977   9.180   7.447  1.00  0.00     0.055 A 
ATOM     52  C   UNL     1      -4.511   7.449   5.878  1.00  0.00     0.041 A 
ATOM     53  F   UNL     1      -2.829   6.305   4.769  1.00  0.00    -0.206 F 
ATOM     54  C   UNL     1      -4.933   8.444   6.743  1.00  0.00     0.022 A 
BRANCH  51  55
ATOM     55  S   UNL     1      -4.561  10.547   8.503  1.00  0.00     0.124 S 
ATOM     56  O   UNL     1      -4.265  10.053   9.843  1.00  0.00    -0.237 OA
ATOM     57  O   UNL     1      -3.762  11.673   8.034  1.00  0.00    -0.237 OA
ATOM     58  O   UNL     1      -5.987  10.638   8.185  1.00  0.00    -0.744 OA
ENDBRANCH  51  55
ENDBRANCH  24  48
BRANCH  36  59
ATOM     59  C   UNL     1       4.164   8.512   6.852  1.00  0.00     0.023 A 
ATOM     60  C   UNL     1       3.688   7.298   7.396  1.00  0.00     0.031 A 
ATOM     61  C   UNL     1       5.341   9.055   7.400  1.00  0.00     0.131 A 
ATOM     62  C   UNL     1       4.382   6.682   8.455  1.00  0.00     0.055 A 
ATOM     63  C   UNL     1       6.038   8.430   8.431  1.00  0.00     0.041 A 
ATOM     64  F   UNL     1       5.862  10.191   6.907  1.00  0.00    -0.206 F 
ATOM     65  C   UNL     1       5.557   7.243   8.968  1.00  0.00     0.022 A 
BRANCH  62  66
ATOM     66  S   UNL     1       3.764   5.140   9.201  1.00  0.00     0.124 S 
ATOM     67  O   UNL     1       2.337   5.386   9.369  1.00  0.00    -0.237 OA
ATOM     68  O   UNL     1       4.130   4.139   8.202  1.00  0.00    -0.237 OA
ATOM     69  O   UNL     1       4.516   5.047  10.454  1.00  0.00    -0.744 OA
ENDBRANCH  62  66
ENDBRANCH  36  59
ENDBRANCH  10  11
ENDBRANCH   3   5
ENDBRANCH   2   3
ENDBRANCH   1   2
BRANCH   1  70
ATOM     70  C   UNL     1       4.536  -1.192  -0.981  1.00  0.00     0.275 C 
BRANCH  70  71
ATOM     71  O   UNL     1       4.054  -0.005  -1.625  1.00  0.00    -0.457 OA
BRANCH  71  72
ATOM     72  C   UNL     1       3.080  -0.189  -2.564  1.00  0.00     0.360 C 
ATOM     73  O   UNL     1       2.758  -1.269  -3.049  1.00  0.00    -0.244 OA
BRANCH  72  74
ATOM     74  C   UNL     1       2.512   1.075  -2.963  1.00  0.00     0.190 A 
ATOM     75  C   UNL     1       3.029   1.972  -3.876  1.00  0.00     0.147 A 
ATOM     76  N   UNL     1       1.371   1.596  -2.413  1.00  0.00    -0.123 NA
ATOM     77  N   UNL     1       2.166   3.026  -3.818  1.00  0.00    -0.237 N 
ATOM     78  N   UNL     1       1.175   2.797  -2.938  1.00  0.00    -0.066 NA
BRANCH  77  79
ATOM     79  C   UNL     1       2.213   4.255  -4.543  1.00  0.00     0.218 C 
ATOM     80  C   UNL     1       3.596   4.744  -5.026  1.00  0.00     0.296 C 
ATOM     81  C   UNL     1       1.911   4.062  -6.050  1.00  0.00     0.296 C 
ATOM     82  N   UNL     1       3.047   4.946  -6.380  1.00  0.00    -0.327 N 
ATOM     83  H   UNL     1       3.616   4.759  -7.206  1.00  0.00     0.348 HD
BRANCH  82  84
ATOM     84  C   UNL     1       2.680   6.349  -6.683  1.00  0.00     0.302 C 
BRANCH  84  85
ATOM     85  C   UNL     1       1.581   7.026  -5.894  1.00  0.00     0.045 A 
ATOM     86  C   UNL     1       1.807   7.526  -4.604  1.00  0.00     0.051 A 
ATOM     87  C   UNL     1       0.287   7.133  -6.422  1.00  0.00     0.132 A 
ATOM     88  C   UNL     1       0.741   8.007  -3.850  1.00  0.00     0.123 A 
ATOM     89  C   UNL     1      -0.772   7.643  -5.672  1.00  0.00     0.043 A 
ATOM     90  F   UNL     1       0.038   6.713  -7.671  1.00  0.00    -0.206 F 
ATOM     91  F   UNL     1       0.957   8.396  -2.592  1.00  0.00    -0.207 F 
ATOM     92  C   UNL     1      -0.548   8.059  -4.364  1.00  0.00     0.042 A 
ENDBRANCH  84  85
ENDBRANCH  82  84
ENDBRANCH  77  79
ENDBRANCH  72  74
ENDBRANCH  71  72
ENDBRANCH  70  71
ENDBRANCH   1  70
TORSDOF 17
