REMARK SMILES CC1(C)CCC[C@@H]1NC(=O)CC1(C(=O)OCCOC(=O)c2ccc(-c3c4nc(c(-c5cc(S(=O)(=O)[O-])ccc5F)c5ccc([nH]5)c(-c5cc(S(=O)(=O)[O-])ccc5F)c5nc(c(-c6cc(S(=O)(=O)[O-])ccc6F)c6ccc3[nH]6)C=C5)C=C4)cc2)CCCCC1
REMARK SMILES IDX 16 1 15 2 13 3 14 4 12 5 84 6 88 7 85 8 87 9 86 10 11 11
REMARK SMILES IDX 9 12 8 13 10 15 7 16 1 17 2 18 3 19 4 20 5 21 6 22 17 23
REMARK SMILES IDX 18 24 19 25 20 26 21 27 22 28 83 29 23 30 82 31 24 32 25 33
REMARK SMILES IDX 26 34 76 35 27 36 81 37 75 38 77 39 28 40 80 41 74 42 73 43
REMARK SMILES IDX 29 45 61 46 41 47 60 48 42 49 45 50 59 51 78 52 43 53 44 54
REMARK SMILES IDX 58 56 79 57 46 58 30 59 31 60 39 61 32 62 38 63 40 64 37 65
REMARK SMILES IDX 33 66 34 67 35 68 36 69 62 70 63 71 71 72 64 73 70 74 72 75
REMARK SMILES IDX 69 76 65 77 66 78 67 79 68 80 47 81 48 82 56 83 49 84 55 85
REMARK SMILES IDX 57 86 54 87 50 88 51 89 52 90 53 91
REMARK H PARENT 8 14 77 44 45 55
REMARK Flexibility Score: inf
ROOT
ATOM      1  C   UNL     1      -4.485   1.544   3.000  1.00  0.00     0.274 C 
ENDROOT
BRANCH   1   2
ATOM      2  O   UNL     1      -3.969   1.905   1.704  1.00  0.00    -0.462 OA
BRANCH   2   3
ATOM      3  C   UNL     1      -3.469   3.165   1.618  1.00  0.00     0.312 C 
ATOM      4  O   UNL     1      -3.358   3.922   2.578  1.00  0.00    -0.252 OA
BRANCH   3   5
ATOM      5  C   UNL     1      -3.017   3.558   0.202  1.00  0.00     0.077 C 
ATOM      6  C   UNL     1      -3.594   4.974  -0.056  1.00  0.00     0.019 C 
ATOM      7  C   UNL     1      -3.530   2.640  -0.927  1.00  0.00     0.019 C 
ATOM      8  C   UNL     1      -5.128   4.953  -0.149  1.00  0.00     0.001 C 
ATOM      9  C   UNL     1      -5.044   2.619  -1.105  1.00  0.00     0.001 C 
ATOM     10  C   UNL     1      -5.619   4.018  -1.248  1.00  0.00     0.000 C 
BRANCH   5  11
ATOM     11  C   UNL     1      -1.468   3.562   0.306  1.00  0.00     0.118 C 
BRANCH  11  12
ATOM     12  C   UNL     1      -0.683   3.201  -0.936  1.00  0.00     0.221 C 
ATOM     13  N   UNL     1      -0.063   1.989  -1.036  1.00  0.00    -0.353 N 
ATOM     14  H   UNL     1       0.499   1.886  -1.837  1.00  0.00     0.163 HD
ATOM     15  O   UNL     1      -0.600   3.995  -1.875  1.00  0.00    -0.275 OA
BRANCH  13  16
ATOM     16  C   UNL     1      -0.085   0.815  -0.161  1.00  0.00     0.087 C 
ATOM     17  C   UNL     1       2.338   0.206   0.336  1.00  0.00     0.013 C 
ATOM     18  C   UNL     1       1.061  -0.205  -0.390  1.00  0.00    -0.015 C 
ATOM     19  C   UNL     1       1.380  -0.457  -1.873  1.00  0.00     0.013 C 
ATOM     20  C   UNL     1       0.482  -1.478   0.259  1.00  0.00     0.008 C 
ATOM     21  C   UNL     1      -0.982  -1.487  -0.141  1.00  0.00     0.003 C 
ATOM     22  C   UNL     1      -1.358  -0.024  -0.344  1.00  0.00     0.025 C 
ENDBRANCH  13  16
ENDBRANCH  11  12
ENDBRANCH   5  11
ENDBRANCH   3   5
ENDBRANCH   2   3
ENDBRANCH   1   2
BRANCH   1  23
ATOM     23  C   UNL     1      -3.474   0.713   3.782  1.00  0.00     0.275 C 
BRANCH  23  24
ATOM     24  O   UNL     1      -2.249   1.448   3.943  1.00  0.00    -0.458 OA
BRANCH  24  25
ATOM     25  C   UNL     1      -1.117   0.710   3.863  1.00  0.00     0.338 C 
ATOM     26  O   UNL     1      -1.056  -0.501   3.725  1.00  0.00    -0.246 OA
BRANCH  25  27
ATOM     27  C   UNL     1       0.088   1.571   3.939  1.00  0.00     0.060 A 
ATOM     28  C   UNL     1       0.085   2.884   3.468  1.00  0.00     0.016 A 
ATOM     29  C   UNL     1       1.283   1.010   4.396  1.00  0.00     0.016 A 
ATOM     30  C   UNL     1       1.288   3.583   3.335  1.00  0.00     0.010 A 
ATOM     31  C   UNL     1       2.465   1.761   4.379  1.00  0.00     0.010 A 
ATOM     32  C   UNL     1       2.495   3.045   3.811  1.00  0.00    -0.014 A 
BRANCH  32  33
ATOM     33  C   UNL     1       3.776   3.815   3.730  1.00  0.00     0.031 A 
ATOM     34  C   UNL     1       4.995   3.231   3.051  1.00  0.00     0.074 A 
ATOM     35  C   UNL     1       3.864   5.040   4.287  1.00  0.00     0.049 A 
ATOM     36  N   UNL     1       6.229   3.669   3.016  1.00  0.00    -0.248 NA
ATOM     37  C   UNL     1       4.797   1.974   2.324  1.00  0.00     0.031 C 
ATOM     38  C   UNL     1       2.773   5.746   4.963  1.00  0.00     0.029 A 
ATOM     39  N   UNL     1       4.924   5.908   4.383  1.00  0.00    -0.354 N 
ATOM     40  C   UNL     1       6.954   2.724   2.292  1.00  0.00     0.074 A 
ATOM     41  C   UNL     1       6.023   1.682   1.918  1.00  0.00     0.031 C 
ATOM     42  C   UNL     1       3.209   6.944   5.374  1.00  0.00     0.029 A 
ATOM     43  C   UNL     1       4.633   7.055   5.084  1.00  0.00     0.049 A 
ATOM     44  H   UNL     1       5.808   5.727   3.988  1.00  0.00     0.167 HD
ATOM     45  C   UNL     1       8.274   2.716   1.976  1.00  0.00     0.034 A 
ATOM     46  C   UNL     1       5.425   8.060   5.503  1.00  0.00     0.034 A 
ATOM     47  C   UNL     1       9.197   3.760   2.354  1.00  0.00     0.049 A 
ATOM     48  C   UNL     1       6.895   8.009   5.195  1.00  0.00     0.074 A 
ATOM     49  C   UNL     1      10.550   3.860   2.079  1.00  0.00     0.029 A 
ATOM     50  N   UNL     1       8.861   4.884   3.096  1.00  0.00    -0.354 N 
ATOM     51  N   UNL     1       7.571   7.089   4.547  1.00  0.00    -0.248 NA
ATOM     52  C   UNL     1       7.710   9.125   5.688  1.00  0.00     0.031 C 
ATOM     53  C   UNL     1      11.044   5.009   2.710  1.00  0.00     0.029 A 
ATOM     54  C   UNL     1       9.986   5.664   3.318  1.00  0.00     0.049 A 
ATOM     55  H   UNL     1       7.955   5.097   3.419  1.00  0.00     0.167 HD
ATOM     56  C   UNL     1       8.894   7.518   4.555  1.00  0.00     0.074 A 
ATOM     57  C   UNL     1       8.913   8.793   5.245  1.00  0.00     0.031 C 
ATOM     58  C   UNL     1       9.996   6.913   4.042  1.00  0.00     0.034 A 
BRANCH  45  59
ATOM     59  C   UNL     1       8.811   1.503   1.249  1.00  0.00     0.023 A 
ATOM     60  C   UNL     1       8.418   1.179  -0.062  1.00  0.00     0.031 A 
ATOM     61  C   UNL     1       9.713   0.639   1.897  1.00  0.00     0.131 A 
ATOM     62  C   UNL     1       8.877  -0.008  -0.658  1.00  0.00     0.055 A 
ATOM     63  C   UNL     1      10.223  -0.501   1.272  1.00  0.00     0.041 A 
ATOM     64  F   UNL     1      10.106   0.882   3.157  1.00  0.00    -0.206 F 
ATOM     65  C   UNL     1       9.795  -0.838  -0.009  1.00  0.00     0.022 A 
BRANCH  62  66
ATOM     66  S   UNL     1       8.157  -0.525  -2.241  1.00  0.00     0.124 S 
ATOM     67  O   UNL     1       6.734  -0.586  -1.915  1.00  0.00    -0.237 OA
ATOM     68  O   UNL     1       8.562   0.551  -3.138  1.00  0.00    -0.237 OA
ATOM     69  O   UNL     1       8.784  -1.820  -2.498  1.00  0.00    -0.744 OA
ENDBRANCH  62  66
ENDBRANCH  45  59
BRANCH  46  70
ATOM     70  C   UNL     1       4.853   9.156   6.336  1.00  0.00     0.023 A 
ATOM     71  C   UNL     1       4.793  10.475   5.863  1.00  0.00     0.031 A 
ATOM     72  C   UNL     1       4.359   8.890   7.627  1.00  0.00     0.131 A 
ATOM     73  C   UNL     1       4.270  11.485   6.686  1.00  0.00     0.055 A 
ATOM     74  C   UNL     1       3.793   9.888   8.420  1.00  0.00     0.041 A 
ATOM     75  F   UNL     1       4.393   7.644   8.124  1.00  0.00    -0.206 F 
ATOM     76  C   UNL     1       3.754  11.197   7.952  1.00  0.00     0.022 A 
BRANCH  73  77
ATOM     77  S   UNL     1       4.324  13.200   6.098  1.00  0.00     0.124 S 
ATOM     78  O   UNL     1       5.755  13.399   5.894  1.00  0.00    -0.237 OA
ATOM     79  O   UNL     1       3.506  13.133   4.892  1.00  0.00    -0.237 OA
ATOM     80  O   UNL     1       3.740  13.957   7.203  1.00  0.00    -0.744 OA
ENDBRANCH  73  77
ENDBRANCH  46  70
BRANCH  58  81
ATOM     81  C   UNL     1      11.303   7.645   4.206  1.00  0.00     0.023 A 
ATOM     82  C   UNL     1      11.894   7.813   5.470  1.00  0.00     0.031 A 
ATOM     83  C   UNL     1      11.938   8.222   3.093  1.00  0.00     0.131 A 
ATOM     84  C   UNL     1      13.051   8.595   5.601  1.00  0.00     0.055 A 
ATOM     85  C   UNL     1      13.120   8.952   3.222  1.00  0.00     0.041 A 
ATOM     86  F   UNL     1      11.414   8.094   1.864  1.00  0.00    -0.206 F 
ATOM     87  C   UNL     1      13.675   9.155   4.483  1.00  0.00     0.022 A 
BRANCH  84  88
ATOM     88  S   UNL     1      13.672   8.958   7.266  1.00  0.00     0.124 S 
ATOM     89  O   UNL     1      12.517   9.597   7.888  1.00  0.00    -0.237 OA
ATOM     90  O   UNL     1      14.015   7.632   7.768  1.00  0.00    -0.237 OA
ATOM     91  O   UNL     1      14.812   9.841   7.022  1.00  0.00    -0.744 OA
ENDBRANCH  84  88
ENDBRANCH  58  81
ENDBRANCH  32  33
ENDBRANCH  25  27
ENDBRANCH  24  25
ENDBRANCH  23  24
ENDBRANCH   1  23
TORSDOF 17
