REMARK SMILES [NH3+]CCn1cc(C(=O)N[C@@H]2CCCCC[C@H]2C(=O)OCCOC(=O)c2ccc(-c3c4nc(c(-c5cc(S(=O)(=O)[O-])ccc5F)c5ccc([nH]5)c(-c5cc(S(=O)(=O)[O-])ccc5F)c5nc(c(-c6cc(S(=O)(=O)[O-])ccc6F)c6ccc3[nH]6)C=C5)C=C4)cc2)nn1
REMARK SMILES IDX 19 1 17 2 18 3 16 4 10 5 9 6 7 7 8 8 6 10 4 11 5 12 89 13
REMARK SMILES IDX 88 14 3 15 2 16 1 17 11 21 15 23 14 24 13 25 12 26 20 28
REMARK SMILES IDX 21 29 22 30 23 31 24 32 25 33 26 34 87 35 27 36 86 37 28 38
REMARK SMILES IDX 29 39 30 40 80 41 31 42 85 43 79 44 81 45 32 46 84 47 78 48
REMARK SMILES IDX 77 49 33 51 65 52 45 53 64 54 46 55 49 56 63 57 82 58 47 59
REMARK SMILES IDX 48 60 62 62 83 63 50 64 34 65 35 66 43 67 36 68 42 69 44 70
REMARK SMILES IDX 41 71 37 72 38 73 39 74 40 75 66 76 67 77 75 78 68 79 74 80
REMARK SMILES IDX 76 81 73 82 69 83 70 84 71 85 72 86 51 87 52 88 60 89 53 90
REMARK SMILES IDX 59 91 61 92 58 93 54 94 55 95 56 96 57 97
REMARK H PARENT 9 9 1 18 1 19 1 20 81 50 49 61
REMARK Flexibility Score: 100.00
ROOT
ATOM      1  O   UNL     1      -5.713  -0.197   2.899  1.00  0.00    -0.462 OA
ENDROOT
BRANCH   1   2
ATOM      2  C   UNL     1      -5.424   0.815   2.041  1.00  0.00     0.311 C 
ATOM      3  O   UNL     1      -6.208   1.281   1.224  1.00  0.00    -0.252 OA
BRANCH   2   4
ATOM      4  C   UNL     1      -3.944   1.203   2.113  1.00  0.00     0.121 C 
BRANCH   4   5
ATOM      5  C   UNL     1      -3.473   1.551   3.546  1.00  0.00     0.096 C 
BRANCH   5   6
ATOM      6  N   UNL     1      -2.828   2.886   3.647  1.00  0.00    -0.347 N 
ATOM      7  C   UNL     1      -1.623   3.477   3.360  1.00  0.00     0.273 C 
ATOM      8  O   UNL     1      -1.572   4.699   3.513  1.00  0.00    -0.267 OA
ATOM      9  H   UNL     1      -3.451   3.542   4.036  1.00  0.00     0.164 HD
BRANCH   7  10
ATOM     10  C   UNL     1      -0.457   2.729   2.917  1.00  0.00     0.170 A 
ATOM     11  N   UNL     1       1.022   1.235   2.375  1.00  0.00    -0.246 N 
ATOM     12  C   UNL     1      -0.278   1.385   2.724  1.00  0.00     0.145 A 
ATOM     13  N   UNL     1       1.647   2.413   2.307  1.00  0.00    -0.066 NA
ATOM     14  N   UNL     1       0.756   3.342   2.642  1.00  0.00    -0.125 NA
BRANCH  11  15
ATOM     15  C   UNL     1       1.692  -0.015   2.109  1.00  0.00     0.207 C 
BRANCH  15  16
ATOM     16  C   UNL     1       1.075  -0.778   0.930  1.00  0.00     0.282 C 
BRANCH  16  17
ATOM     17  N   UNL     1       1.220  -0.114  -0.366  1.00  0.00    -0.356 N 
ATOM     18  H   UNL     1       0.785  -0.684  -1.091  1.00  0.00     0.344 HD
ATOM     19  H   UNL     1       2.211   0.007  -0.577  1.00  0.00     0.344 HD
ATOM     20  H   UNL     1       0.766   0.798  -0.333  1.00  0.00     0.344 HD
ENDBRANCH  16  17
ENDBRANCH  15  16
ENDBRANCH  11  15
ENDBRANCH   7  10
ENDBRANCH   5   6
BRANCH   5  21
ATOM     21  C   UNL     1      -2.865   0.514   4.505  1.00  0.00     0.026 CG0
ATOM     22  G   UNL     1      -3.219  -0.957   4.317  1.00  0.00     0.000 G0
ENDBRANCH   5  21
ENDBRANCH   4   5
BRANCH   4  23
ATOM     23  C   UNL     1      -3.169   0.185   1.280  1.00  0.00     0.017 C 
BRANCH  23  24
ATOM     24  C   UNL     1      -3.242  -1.276   1.716  1.00  0.00     0.001 C 
BRANCH  24  25
ATOM     25  C   UNL     1      -2.657  -1.642   3.075  1.00  0.00     0.000 C 
BRANCH  25  26
ATOM     26  C   UNL     1      -3.219  -0.957   4.317  1.00  0.00     0.002 CG0
ATOM     27  G   UNL     1      -2.865   0.514   4.505  1.00  0.00     0.000 G0
ENDBRANCH  25  26
ENDBRANCH  24  25
ENDBRANCH  23  24
ENDBRANCH   4  23
ENDBRANCH   2   4
ENDBRANCH   1   2
BRANCH   1  28
ATOM     28  C   UNL     1      -7.017  -0.804   2.850  1.00  0.00     0.274 C 
BRANCH  28  29
ATOM     29  C   UNL     1      -7.916  -0.242   3.936  1.00  0.00     0.275 C 
BRANCH  29  30
ATOM     30  O   UNL     1      -8.174   1.128   3.656  1.00  0.00    -0.458 OA
BRANCH  30  31
ATOM     31  C   UNL     1      -7.301   1.973   4.247  1.00  0.00     0.338 C 
ATOM     32  O   UNL     1      -6.346   1.673   4.939  1.00  0.00    -0.246 OA
BRANCH  31  33
ATOM     33  C   UNL     1      -7.740   3.348   4.051  1.00  0.00     0.060 A 
ATOM     34  C   UNL     1      -6.813   4.370   4.289  1.00  0.00     0.016 A 
ATOM     35  C   UNL     1      -9.118   3.571   4.002  1.00  0.00     0.016 A 
ATOM     36  C   UNL     1      -7.288   5.598   4.689  1.00  0.00     0.010 A 
ATOM     37  C   UNL     1      -9.587   4.776   4.444  1.00  0.00     0.010 A 
ATOM     38  C   UNL     1      -8.666   5.743   4.852  1.00  0.00    -0.014 A 
BRANCH  38  39
ATOM     39  C   UNL     1      -9.178   6.960   5.436  1.00  0.00     0.031 A 
ATOM     40  C   UNL     1      -9.330   8.062   4.468  1.00  0.00     0.074 A 
ATOM     41  C   UNL     1      -9.669   6.972   6.689  1.00  0.00     0.049 A 
ATOM     42  N   UNL     1      -8.750   9.213   4.472  1.00  0.00    -0.248 NA
ATOM     43  C   UNL     1     -10.105   7.784   3.246  1.00  0.00     0.031 C 
ATOM     44  C   UNL     1      -9.851   5.824   7.583  1.00  0.00     0.029 A 
ATOM     45  N   UNL     1     -10.259   7.991   7.364  1.00  0.00    -0.354 N 
ATOM     46  C   UNL     1      -9.274   9.888   3.377  1.00  0.00     0.074 A 
ATOM     47  C   UNL     1      -9.888   8.893   2.545  1.00  0.00     0.031 C 
ATOM     48  C   UNL     1     -10.715   6.167   8.564  1.00  0.00     0.029 A 
ATOM     49  C   UNL     1     -11.053   7.575   8.425  1.00  0.00     0.049 A 
ATOM     50  H   UNL     1     -10.136   8.938   7.124  1.00  0.00     0.167 HD
ATOM     51  C   UNL     1      -9.415  11.239   3.384  1.00  0.00     0.034 A 
ATOM     52  C   UNL     1     -11.998   8.310   9.067  1.00  0.00     0.034 A 
ATOM     53  C   UNL     1      -8.576  11.842   4.396  1.00  0.00     0.049 A 
ATOM     54  C   UNL     1     -11.714   9.740   8.777  1.00  0.00     0.074 A 
ATOM     55  C   UNL     1      -7.220  11.807   4.663  1.00  0.00     0.029 A 
ATOM     56  N   UNL     1      -9.169  12.300   5.553  1.00  0.00    -0.354 N 
ATOM     57  N   UNL     1     -10.643  10.363   9.188  1.00  0.00    -0.248 NA
ATOM     58  C   UNL     1     -12.383  10.361   7.641  1.00  0.00     0.031 C 
ATOM     59  C   UNL     1      -7.122  11.769   6.085  1.00  0.00     0.029 A 
ATOM     60  C   UNL     1      -8.413  11.853   6.610  1.00  0.00     0.049 A 
ATOM     61  H   UNL     1      -9.985  12.848   5.611  1.00  0.00     0.167 HD
ATOM     62  C   UNL     1     -10.264  11.172   8.127  1.00  0.00     0.074 A 
ATOM     63  C   UNL     1     -11.434  11.219   7.254  1.00  0.00     0.031 C 
ATOM     64  C   UNL     1      -8.953  11.486   7.908  1.00  0.00     0.034 A 
BRANCH  51  65
ATOM     65  C   UNL     1     -10.572  11.967   2.734  1.00  0.00     0.023 A 
ATOM     66  C   UNL     1     -10.567  13.369   2.819  1.00  0.00     0.031 A 
ATOM     67  C   UNL     1     -11.786  11.386   2.290  1.00  0.00     0.131 A 
ATOM     68  C   UNL     1     -11.735  14.111   2.578  1.00  0.00     0.055 A 
ATOM     69  C   UNL     1     -12.921  12.136   1.974  1.00  0.00     0.041 A 
ATOM     70  F   UNL     1     -11.988  10.066   2.224  1.00  0.00    -0.206 F 
ATOM     71  C   UNL     1     -12.912  13.506   2.151  1.00  0.00     0.022 A 
BRANCH  68  72
ATOM     72  S   UNL     1     -11.735  15.863   3.027  1.00  0.00     0.124 S 
ATOM     73  O   UNL     1     -11.263  15.812   4.407  1.00  0.00    -0.237 OA
ATOM     74  O   UNL     1     -10.810  16.422   2.047  1.00  0.00    -0.237 OA
ATOM     75  O   UNL     1     -13.133  16.253   2.860  1.00  0.00    -0.744 OA
ENDBRANCH  68  72
ENDBRANCH  51  65
BRANCH  52  76
ATOM     76  C   UNL     1     -13.283   7.815   9.627  1.00  0.00     0.023 A 
ATOM     77  C   UNL     1     -14.015   8.538  10.589  1.00  0.00     0.031 A 
ATOM     78  C   UNL     1     -13.929   6.696   9.051  1.00  0.00     0.131 A 
ATOM     79  C   UNL     1     -15.321   8.129  10.944  1.00  0.00     0.055 A 
ATOM     80  C   UNL     1     -15.211   6.285   9.418  1.00  0.00     0.041 A 
ATOM     81  F   UNL     1     -13.367   6.007   8.044  1.00  0.00    -0.206 F 
ATOM     82  C   UNL     1     -15.918   7.007  10.364  1.00  0.00     0.022 A 
BRANCH  79  83
ATOM     83  S   UNL     1     -16.312   9.127  12.101  1.00  0.00     0.124 S 
ATOM     84  O   UNL     1     -15.635   8.893  13.371  1.00  0.00    -0.237 OA
ATOM     85  O   UNL     1     -16.194  10.467  11.538  1.00  0.00    -0.237 OA
ATOM     86  O   UNL     1     -17.648   8.538  12.000  1.00  0.00    -0.744 OA
ENDBRANCH  79  83
ENDBRANCH  52  76
BRANCH  64  87
ATOM     87  C   UNL     1      -7.950  11.212   9.013  1.00  0.00     0.023 A 
ATOM     88  C   UNL     1      -7.720   9.945   9.596  1.00  0.00     0.031 A 
ATOM     89  C   UNL     1      -7.106  12.268   9.400  1.00  0.00     0.131 A 
ATOM     90  C   UNL     1      -6.685   9.777  10.537  1.00  0.00     0.055 A 
ATOM     91  C   UNL     1      -6.068  12.094  10.316  1.00  0.00     0.041 A 
ATOM     92  F   UNL     1      -7.253  13.491   8.862  1.00  0.00    -0.206 F 
ATOM     93  C   UNL     1      -5.858  10.847  10.893  1.00  0.00     0.022 A 
BRANCH  90  94
ATOM     94  S   UNL     1      -6.405   8.161  11.331  1.00  0.00     0.124 S 
ATOM     95  O   UNL     1      -7.741   7.741  11.736  1.00  0.00    -0.237 OA
ATOM     96  O   UNL     1      -5.787   7.385  10.259  1.00  0.00    -0.237 OA
ATOM     97  O   UNL     1      -5.506   8.481  12.443  1.00  0.00    -0.744 OA
ENDBRANCH  90  94
ENDBRANCH  64  87
ENDBRANCH  38  39
ENDBRANCH  31  33
ENDBRANCH  30  31
ENDBRANCH  29  30
ENDBRANCH  28  29
ENDBRANCH   1  28
TORSDOF 19
