REMARK SMILES [NH3+][C@@H](Cc1c[nH]c2ccccc12)C(=O)N[C@@H](CS)C(=O)N[C@@H](CO)C(=O)OCCOC(=O)c1ccc(-c2c3nc(c(-c4cc(S(=O)(=O)[O-])ccc4F)c4ccc([nH]4)c(-c4cc(S(=O)(=O)[O-])ccc4F)c4nc(c(-c5cc(S(=O)(=O)[O-])ccc5F)c5ccc2[nH]5)C=C4)C=C3)cc1
REMARK SMILES IDX 27 1 25 2 26 3 22 4 21 5 19 6 20 7 16 9 15 10 13 11 14 12
REMARK SMILES IDX 2 14 1 15 3 19 4 20 5 21 12 22 6 23 7 24 11 25 8 27 10 28
REMARK SMILES IDX 9 29 17 30 18 31 23 33 24 34 28 36 29 37 30 38 31 39 32 40
REMARK SMILES IDX 33 41 34 42 95 43 35 44 94 45 36 46 37 47 38 48 88 49 39 50
REMARK SMILES IDX 93 51 87 52 89 53 40 54 92 55 86 56 85 57 41 59 73 60 53 61
REMARK SMILES IDX 72 62 54 63 57 64 71 65 90 66 55 67 56 68 70 70 91 71 58 72
REMARK SMILES IDX 42 73 43 74 51 75 44 76 50 77 52 78 49 79 45 80 46 81 47 82
REMARK SMILES IDX 48 83 74 84 75 85 83 86 76 87 82 88 84 89 81 90 77 91 78 92
REMARK SMILES IDX 79 93 80 94 59 95 60 96 68 97 61 98 67 99 69 100 66 101
REMARK SMILES IDX 62 102 63 103 64 104 65 105
REMARK H PARENT 21 8 15 13 1 16 1 17 1 18 6 26 18 32 24 35 89 58 57 69
REMARK Flexibility Score: inf
ROOT
ATOM      1  O   UNL     1      -4.972   4.936  -1.352  1.00  0.00    -0.460 OA
ENDROOT
BRANCH   1   2
ATOM      2  C   UNL     1      -5.468   3.775  -0.836  1.00  0.00     0.331 C 
ATOM      3  O   UNL     1      -6.435   3.169  -1.282  1.00  0.00    -0.250 OA
BRANCH   2   4
ATOM      4  C   UNL     1      -4.715   3.337   0.426  1.00  0.00     0.218 C 
BRANCH   4   5
ATOM      5  N   UNL     1      -3.491   4.100   0.700  1.00  0.00    -0.339 N 
ATOM      6  C   UNL     1      -2.316   3.667   1.225  1.00  0.00     0.244 C 
ATOM      7  O   UNL     1      -1.852   4.368   2.131  1.00  0.00    -0.273 OA
ATOM      8  H   UNL     1      -3.528   5.057   0.471  1.00  0.00     0.164 HD
BRANCH   6   9
ATOM      9  C   UNL     1      -1.598   2.366   0.772  1.00  0.00     0.181 C 
BRANCH   9  10
ATOM     10  N   UNL     1      -1.560   1.383   1.846  1.00  0.00    -0.338 N 
ATOM     11  C   UNL     1      -0.576   0.556   2.287  1.00  0.00     0.279 C 
ATOM     12  O   UNL     1      -0.885  -0.161   3.249  1.00  0.00    -0.268 OA
ATOM     13  H   UNL     1      -2.404   1.301   2.345  1.00  0.00     0.164 HD
BRANCH  11  14
ATOM     14  C   UNL     1       0.841   0.444   1.664  1.00  0.00     0.275 C 
BRANCH  14  15
ATOM     15  N   UNL     1       0.780  -0.149   0.314  1.00  0.00    -0.347 N 
ATOM     16  H   UNL     1       1.721  -0.212  -0.073  1.00  0.00     0.345 HD
ATOM     17  H   UNL     1       0.203   0.437  -0.289  1.00  0.00     0.345 HD
ATOM     18  H   UNL     1       0.372  -1.083   0.371  1.00  0.00     0.345 HD
ENDBRANCH  14  15
BRANCH  14  19
ATOM     19  C   UNL     1       1.798   1.637   1.889  1.00  0.00     0.113 C 
BRANCH  19  20
ATOM     20  C   UNL     1       1.776   2.798   0.928  1.00  0.00    -0.016 A 
ATOM     21  C   UNL     1       1.901   2.775  -0.450  1.00  0.00     0.087 A 
ATOM     22  C   UNL     1       1.692   4.188   1.292  1.00  0.00     0.003 A 
ATOM     23  N   UNL     1       1.742   4.048  -0.928  1.00  0.00    -0.361 N 
ATOM     24  C   UNL     1       1.610   4.933   0.114  1.00  0.00     0.046 A 
ATOM     25  C   UNL     1       1.665   4.882   2.520  1.00  0.00     0.010 A 
ATOM     26  H   UNL     1       1.724   4.295  -1.882  1.00  0.00     0.166 HD
ATOM     27  C   UNL     1       1.449   6.324   0.103  1.00  0.00     0.026 A 
ATOM     28  C   UNL     1       1.544   6.276   2.528  1.00  0.00     0.001 A 
ATOM     29  C   UNL     1       1.421   6.983   1.335  1.00  0.00     0.002 A 
ENDBRANCH  19  20
ENDBRANCH  14  19
ENDBRANCH  11  14
ENDBRANCH   9  10
BRANCH   9  30
ATOM     30  C   UNL     1      -1.945   1.820  -0.617  1.00  0.00     0.101 C 
BRANCH  30  31
ATOM     31  S   UNL     1      -2.993   0.324  -0.599  1.00  0.00    -0.177 SA
ATOM     32  H   UNL     1      -2.330  -0.688   0.023  1.00  0.00     0.102 HD
ENDBRANCH  30  31
ENDBRANCH   9  30
ENDBRANCH   6   9
ENDBRANCH   4   5
BRANCH   4  33
ATOM     33  C   UNL     1      -5.676   3.463   1.620  1.00  0.00     0.193 C 
BRANCH  33  34
ATOM     34  O   UNL     1      -5.798   4.828   2.037  1.00  0.00    -0.394 OA
ATOM     35  H   UNL     1      -4.930   5.162   2.312  1.00  0.00     0.210 HD
ENDBRANCH  33  34
ENDBRANCH   4  33
ENDBRANCH   2   4
ENDBRANCH   1   2
BRANCH   1  36
ATOM     36  C   UNL     1      -5.661   5.479  -2.498  1.00  0.00     0.274 C 
BRANCH  36  37
ATOM     37  C   UNL     1      -4.669   5.658  -3.643  1.00  0.00     0.275 C 
BRANCH  37  38
ATOM     38  O   UNL     1      -4.234   4.354  -4.058  1.00  0.00    -0.458 OA
BRANCH  38  39
ATOM     39  C   UNL     1      -2.963   4.262  -4.517  1.00  0.00     0.338 C 
ATOM     40  O   UNL     1      -2.196   5.187  -4.716  1.00  0.00    -0.246 OA
BRANCH  39  41
ATOM     41  C   UNL     1      -2.610   2.832  -4.713  1.00  0.00     0.060 A 
ATOM     42  C   UNL     1      -3.256   1.832  -3.989  1.00  0.00     0.016 A 
ATOM     43  C   UNL     1      -1.558   2.484  -5.565  1.00  0.00     0.016 A 
ATOM     44  C   UNL     1      -2.795   0.515  -4.057  1.00  0.00     0.010 A 
ATOM     45  C   UNL     1      -1.165   1.139  -5.692  1.00  0.00     0.010 A 
ATOM     46  C   UNL     1      -1.750   0.129  -4.909  1.00  0.00    -0.014 A 
BRANCH  46  47
ATOM     47  C   UNL     1      -1.242  -1.290  -4.926  1.00  0.00     0.031 A 
ATOM     48  C   UNL     1       0.244  -1.574  -4.849  1.00  0.00     0.074 A 
ATOM     49  C   UNL     1      -2.078  -2.353  -4.962  1.00  0.00     0.049 A 
ATOM     50  N   UNL     1       0.900  -2.668  -5.147  1.00  0.00    -0.248 NA
ATOM     51  C   UNL     1       1.106  -0.472  -4.397  1.00  0.00     0.031 C 
ATOM     52  C   UNL     1      -3.540  -2.293  -4.960  1.00  0.00     0.029 A 
ATOM     53  N   UNL     1      -1.813  -3.706  -4.985  1.00  0.00    -0.354 N 
ATOM     54  C   UNL     1       2.251  -2.359  -5.015  1.00  0.00     0.074 A 
ATOM     55  C   UNL     1       2.318  -0.975  -4.593  1.00  0.00     0.031 C 
ATOM     56  C   UNL     1      -4.037  -3.535  -4.885  1.00  0.00     0.029 A 
ATOM     57  C   UNL     1      -2.945  -4.491  -5.012  1.00  0.00     0.049 A 
ATOM     58  H   UNL     1      -0.901  -4.076  -4.981  1.00  0.00     0.167 HD
ATOM     59  C   UNL     1       3.330  -3.154  -5.236  1.00  0.00     0.034 A 
ATOM     60  C   UNL     1      -3.115  -5.815  -5.208  1.00  0.00     0.034 A 
ATOM     61  C   UNL     1       3.251  -4.562  -5.552  1.00  0.00     0.049 A 
ATOM     62  C   UNL     1      -1.913  -6.672  -5.499  1.00  0.00     0.074 A 
ATOM     63  C   UNL     1       4.286  -5.458  -5.768  1.00  0.00     0.029 A 
ATOM     64  N   UNL     1       2.074  -5.290  -5.665  1.00  0.00    -0.354 N 
ATOM     65  N   UNL     1      -0.648  -6.330  -5.545  1.00  0.00    -0.248 NA
ATOM     66  C   UNL     1      -2.171  -8.083  -5.813  1.00  0.00     0.031 C 
ATOM     67  C   UNL     1       3.735  -6.710  -6.067  1.00  0.00     0.029 A 
ATOM     68  C   UNL     1       2.358  -6.614  -5.971  1.00  0.00     0.049 A 
ATOM     69  H   UNL     1       1.169  -4.920  -5.546  1.00  0.00     0.167 HD
ATOM     70  C   UNL     1       0.040  -7.482  -5.911  1.00  0.00     0.074 A 
ATOM     71  C   UNL     1      -0.945  -8.536  -6.034  1.00  0.00     0.031 C 
ATOM     72  C   UNL     1       1.368  -7.650  -6.137  1.00  0.00     0.034 A 
BRANCH  59  73
ATOM     73  C   UNL     1       4.697  -2.509  -5.219  1.00  0.00     0.023 A 
ATOM     74  C   UNL     1       5.267  -1.970  -4.055  1.00  0.00     0.031 A 
ATOM     75  C   UNL     1       5.446  -2.437  -6.410  1.00  0.00     0.131 A 
ATOM     76  C   UNL     1       6.516  -1.330  -4.120  1.00  0.00     0.055 A 
ATOM     77  C   UNL     1       6.721  -1.872  -6.451  1.00  0.00     0.041 A 
ATOM     78  F   UNL     1       4.945  -2.917  -7.560  1.00  0.00    -0.206 F 
ATOM     79  C   UNL     1       7.259  -1.301  -5.303  1.00  0.00     0.022 A 
BRANCH  76  80
ATOM     80  S   UNL     1       7.090  -0.406  -2.669  1.00  0.00     0.124 S 
ATOM     81  O   UNL     1       5.971   0.505  -2.439  1.00  0.00    -0.237 OA
ATOM     82  O   UNL     1       7.269  -1.460  -1.677  1.00  0.00    -0.237 OA
ATOM     83  O   UNL     1       8.320   0.233  -3.133  1.00  0.00    -0.744 OA
ENDBRANCH  76  80
ENDBRANCH  59  73
BRANCH  60  84
ATOM     84  C   UNL     1      -4.492  -6.388  -5.287  1.00  0.00     0.023 A 
ATOM     85  C   UNL     1      -4.943  -7.349  -4.370  1.00  0.00     0.031 A 
ATOM     86  C   UNL     1      -5.374  -5.989  -6.311  1.00  0.00     0.131 A 
ATOM     87  C   UNL     1      -6.236  -7.884  -4.500  1.00  0.00     0.055 A 
ATOM     88  C   UNL     1      -6.678  -6.474  -6.397  1.00  0.00     0.041 A 
ATOM     89  F   UNL     1      -4.986  -5.088  -7.228  1.00  0.00    -0.206 F 
ATOM     90  C   UNL     1      -7.113  -7.434  -5.491  1.00  0.00     0.022 A 
BRANCH  87  91
ATOM     91  S   UNL     1      -6.742  -9.233  -3.398  1.00  0.00     0.124 S 
ATOM     92  O   UNL     1      -5.754 -10.259  -3.712  1.00  0.00    -0.237 OA
ATOM     93  O   UNL     1      -6.628  -8.613  -2.083  1.00  0.00    -0.237 OA
ATOM     94  O   UNL     1      -8.107  -9.530  -3.828  1.00  0.00    -0.744 OA
ENDBRANCH  87  91
ENDBRANCH  60  84
BRANCH  72  95
ATOM     95  C   UNL     1       1.815  -9.034  -6.531  1.00  0.00     0.023 A 
ATOM     96  C   UNL     1       1.471  -9.585  -7.778  1.00  0.00     0.031 A 
ATOM     97  C   UNL     1       2.546  -9.830  -5.632  1.00  0.00     0.131 A 
ATOM     98  C   UNL     1       1.804 -10.917  -8.068  1.00  0.00     0.055 A 
ATOM     99  C   UNL     1       2.922 -11.136  -5.948  1.00  0.00     0.041 A 
ATOM    100  F   UNL     1       2.897  -9.353  -4.427  1.00  0.00    -0.206 F 
ATOM    101  C   UNL     1       2.538 -11.692  -7.166  1.00  0.00     0.022 A 
BRANCH  98 102
ATOM    102  S   UNL     1       1.180 -11.656  -9.603  1.00  0.00     0.124 S 
ATOM    103  O   UNL     1      -0.264 -11.520  -9.439  1.00  0.00    -0.237 OA
ATOM    104  O   UNL     1       1.788 -10.814 -10.627  1.00  0.00    -0.237 OA
ATOM    105  O   UNL     1       1.682 -13.028  -9.552  1.00  0.00    -0.744 OA
ENDBRANCH  98 102
ENDBRANCH  72  95
ENDBRANCH  46  47
ENDBRANCH  39  41
ENDBRANCH  38  39
ENDBRANCH  37  38
ENDBRANCH  36  37
ENDBRANCH   1  36
TORSDOF 25
