REMARK SMILES O=C(OCCOC(=O)c1cccc(Br)c1O[C@@H]1CCOC2(CCC2)C1)c1ccc(-c2c3nc(c(-c4cc(S(=O)(=O)[O-])ccc4F)c4ccc([nH]4)c(-c4cc(S(=O)(=O)[O-])ccc4F)c4nc(c(-c5cc(S(=O)(=O)[O-])ccc5F)c5ccc2[nH]5)C=C4)C=C3)cc1
REMARK SMILES IDX 4 1 3 2 2 3 1 4 26 5 27 6 88 7 28 8 87 9 29 10 30 11 31 12
REMARK SMILES IDX 81 13 32 14 86 15 80 16 82 17 33 18 85 19 79 20 78 21 34 23
REMARK SMILES IDX 66 24 46 25 65 26 47 27 50 28 64 29 83 30 48 31 49 32 63 34
REMARK SMILES IDX 84 35 51 36 35 37 36 38 44 39 37 40 43 41 45 42 42 43 38 44
REMARK SMILES IDX 39 45 40 46 41 47 67 48 68 49 76 50 69 51 75 52 77 53 74 54
REMARK SMILES IDX 70 55 71 56 72 57 73 58 52 59 53 60 61 61 54 62 60 63 62 64
REMARK SMILES IDX 59 65 55 66 56 67 57 68 58 69 5 70 6 71 7 72 8 73 9 74 10 75
REMARK SMILES IDX 15 76 11 77 13 78 12 79 14 80 16 81 17 82 18 83 25 84 19 85
REMARK SMILES IDX 21 86 20 87 22 88 24 89 23 90
REMARK H PARENT 82 22 50 33
REMARK Flexibility Score: inf
ROOT
ATOM      1  C   UNL     1       4.396  -1.905   0.655  1.00  0.00     0.275 C 
ENDROOT
BRANCH   1   2
ATOM      2  O   UNL     1       3.910  -0.752   1.351  1.00  0.00    -0.458 OA
BRANCH   2   3
ATOM      3  C   UNL     1       3.820   0.534   0.953  1.00  0.00     0.338 C 
ATOM      4  O   UNL     1       3.166   1.296   1.667  1.00  0.00    -0.246 OA
BRANCH   3   5
ATOM      5  C   UNL     1       4.431   1.103  -0.302  1.00  0.00     0.060 A 
ATOM      6  C   UNL     1       5.367   0.528  -1.171  1.00  0.00     0.016 A 
ATOM      7  C   UNL     1       3.992   2.389  -0.627  1.00  0.00     0.016 A 
ATOM      8  C   UNL     1       5.811   1.194  -2.337  1.00  0.00     0.010 A 
ATOM      9  C   UNL     1       4.374   3.016  -1.815  1.00  0.00     0.010 A 
ATOM     10  C   UNL     1       5.310   2.447  -2.682  1.00  0.00    -0.014 A 
BRANCH  10  11
ATOM     11  C   UNL     1       5.782   3.268  -3.839  1.00  0.00     0.031 A 
ATOM     12  C   UNL     1       6.264   4.673  -3.567  1.00  0.00     0.074 A 
ATOM     13  C   UNL     1       5.646   2.864  -5.117  1.00  0.00     0.049 A 
ATOM     14  N   UNL     1       6.418   5.682  -4.384  1.00  0.00    -0.248 NA
ATOM     15  C   UNL     1       6.526   4.994  -2.156  1.00  0.00     0.031 C 
ATOM     16  C   UNL     1       5.186   1.549  -5.548  1.00  0.00     0.029 A 
ATOM     17  N   UNL     1       5.829   3.549  -6.296  1.00  0.00    -0.354 N 
ATOM     18  C   UNL     1       6.739   6.767  -3.573  1.00  0.00     0.074 A 
ATOM     19  C   UNL     1       6.614   6.311  -2.206  1.00  0.00     0.031 C 
ATOM     20  C   UNL     1       5.051   1.540  -6.884  1.00  0.00     0.029 A 
ATOM     21  C   UNL     1       5.408   2.853  -7.407  1.00  0.00     0.049 A 
ATOM     22  H   UNL     1       6.224   4.450  -6.341  1.00  0.00     0.167 HD
ATOM     23  C   UNL     1       7.168   8.006  -3.926  1.00  0.00     0.034 A 
ATOM     24  C   UNL     1       5.299   3.232  -8.697  1.00  0.00     0.034 A 
ATOM     25  C   UNL     1       7.360   8.414  -5.293  1.00  0.00     0.049 A 
ATOM     26  C   UNL     1       5.776   4.602  -9.099  1.00  0.00     0.074 A 
ATOM     27  C   UNL     1       7.900   9.590  -5.782  1.00  0.00     0.029 A 
ATOM     28  N   UNL     1       7.019   7.643  -6.398  1.00  0.00    -0.354 N 
ATOM     29  N   UNL     1       6.167   5.593  -8.332  1.00  0.00    -0.248 NA
ATOM     30  C   UNL     1       5.848   4.889 -10.538  1.00  0.00     0.031 C 
ATOM     31  C   UNL     1       7.854   9.543  -7.181  1.00  0.00     0.029 A 
ATOM     32  C   UNL     1       7.335   8.316  -7.565  1.00  0.00     0.049 A 
ATOM     33  H   UNL     1       6.613   6.747  -6.356  1.00  0.00     0.167 HD
ATOM     34  C   UNL     1       6.598   6.594  -9.197  1.00  0.00     0.074 A 
ATOM     35  C   UNL     1       6.387   6.101 -10.543  1.00  0.00     0.031 C 
ATOM     36  C   UNL     1       7.148   7.798  -8.899  1.00  0.00     0.034 A 
BRANCH  23  37
ATOM     37  C   UNL     1       7.466   8.969  -2.798  1.00  0.00     0.023 A 
ATOM     38  C   UNL     1       8.386   8.637  -1.786  1.00  0.00     0.031 A 
ATOM     39  C   UNL     1       6.740  10.163  -2.654  1.00  0.00     0.131 A 
ATOM     40  C   UNL     1       8.418   9.380  -0.598  1.00  0.00     0.055 A 
ATOM     41  C   UNL     1       6.877  10.972  -1.522  1.00  0.00     0.041 A 
ATOM     42  F   UNL     1       5.850  10.541  -3.584  1.00  0.00    -0.206 F 
ATOM     43  C   UNL     1       7.690  10.563  -0.468  1.00  0.00     0.022 A 
BRANCH  40  44
ATOM     44  S   UNL     1       9.215   8.629   0.850  1.00  0.00     0.124 S 
ATOM     45  O   UNL     1       8.456   7.387   0.990  1.00  0.00    -0.237 OA
ATOM     46  O   UNL     1      10.597   8.483   0.410  1.00  0.00    -0.237 OA
ATOM     47  O   UNL     1       8.994   9.609   1.911  1.00  0.00    -0.744 OA
ENDBRANCH  40  44
ENDBRANCH  23  37
BRANCH  24  48
ATOM     48  C   UNL     1       4.725   2.295  -9.703  1.00  0.00     0.023 A 
ATOM     49  C   UNL     1       5.537   1.653 -10.648  1.00  0.00     0.031 A 
ATOM     50  C   UNL     1       3.344   2.030  -9.727  1.00  0.00     0.131 A 
ATOM     51  C   UNL     1       4.959   0.800 -11.603  1.00  0.00     0.055 A 
ATOM     52  C   UNL     1       2.776   1.163 -10.663  1.00  0.00     0.041 A 
ATOM     53  F   UNL     1       2.528   2.597  -8.823  1.00  0.00    -0.206 F 
ATOM     54  C   UNL     1       3.585   0.549 -11.615  1.00  0.00     0.022 A 
BRANCH  51  55
ATOM     55  S   UNL     1       6.031   0.042 -12.854  1.00  0.00     0.124 S 
ATOM     56  O   UNL     1       6.588   1.214 -13.520  1.00  0.00    -0.237 OA
ATOM     57  O   UNL     1       6.956  -0.729 -12.029  1.00  0.00    -0.237 OA
ATOM     58  O   UNL     1       5.106  -0.755 -13.658  1.00  0.00    -0.744 OA
ENDBRANCH  51  55
ENDBRANCH  24  48
BRANCH  36  59
ATOM     59  C   UNL     1       7.672   8.624 -10.043  1.00  0.00     0.023 A 
ATOM     60  C   UNL     1       6.822   9.298 -10.933  1.00  0.00     0.031 A 
ATOM     61  C   UNL     1       9.062   8.770 -10.206  1.00  0.00     0.131 A 
ATOM     62  C   UNL     1       7.373  10.073 -11.965  1.00  0.00     0.055 A 
ATOM     63  C   UNL     1       9.603   9.577 -11.206  1.00  0.00     0.041 A 
ATOM     64  F   UNL     1       9.915   8.143  -9.380  1.00  0.00    -0.206 F 
ATOM     65  C   UNL     1       8.756  10.231 -12.095  1.00  0.00     0.022 A 
BRANCH  62  66
ATOM     66  S   UNL     1       6.258  10.856 -13.163  1.00  0.00     0.124 S 
ATOM     67  O   UNL     1       5.656   9.697 -13.815  1.00  0.00    -0.237 OA
ATOM     68  O   UNL     1       5.373  11.637 -12.305  1.00  0.00    -0.237 OA
ATOM     69  O   UNL     1       7.157  11.644 -14.004  1.00  0.00    -0.744 OA
ENDBRANCH  62  66
ENDBRANCH  36  59
ENDBRANCH  10  11
ENDBRANCH   3   5
ENDBRANCH   2   3
ENDBRANCH   1   2
BRANCH   1  70
ATOM     70  C   UNL     1       3.425  -2.429  -0.399  1.00  0.00     0.275 C 
BRANCH  70  71
ATOM     71  O   UNL     1       3.123  -1.460  -1.417  1.00  0.00    -0.458 OA
BRANCH  71  72
ATOM     72  C   UNL     1       1.866  -0.918  -1.435  1.00  0.00     0.342 C 
ATOM     73  O   UNL     1       1.020  -1.098  -0.581  1.00  0.00    -0.246 OA
BRANCH  72  74
ATOM     74  C   UNL     1       1.665  -0.163  -2.718  1.00  0.00     0.103 A 
ATOM     75  C   UNL     1       2.489  -0.522  -3.809  1.00  0.00     0.020 A 
ATOM     76  C   UNL     1       0.587   0.731  -2.927  1.00  0.00     0.148 A 
ATOM     77  C   UNL     1       2.247  -0.034  -5.088  1.00  0.00     0.002 A 
ATOM     78  C   UNL     1       0.295   1.100  -4.253  1.00  0.00     0.060 A 
ATOM     79  C   UNL     1       1.152   0.782  -5.310  1.00  0.00     0.019 A 
ATOM     80  Br  UNL     1      -1.400   1.774  -4.777  1.00  0.00    -0.047 Br
BRANCH  76  81
ATOM     81  O   UNL     1      -0.308   1.021  -1.940  1.00  0.00    -0.488 OA
BRANCH  81  82
ATOM     82  C   UNL     1      -0.315   2.293  -1.239  1.00  0.00     0.178 C 
ATOM     83  C   UNL     1      -1.712   2.927  -1.304  1.00  0.00     0.074 C 
ATOM     84  C   UNL     1       0.845   3.296  -1.339  1.00  0.00     0.080 C 
ATOM     85  C   UNL     1      -1.817   4.160  -2.184  1.00  0.00     0.165 C 
ATOM     86  C   UNL     1       0.585   4.556  -2.175  1.00  0.00     0.072 C 
ATOM     87  O   UNL     1      -0.751   5.051  -1.932  1.00  0.00    -0.375 OA
ATOM     88  C   UNL     1       1.636   5.693  -1.953  1.00  0.00     0.036 C 
ATOM     89  C   UNL     1       1.090   4.462  -3.640  1.00  0.00     0.036 C 
ATOM     90  C   UNL     1       1.905   5.744  -3.458  1.00  0.00     0.006 C 
ENDBRANCH  81  82
ENDBRANCH  76  81
ENDBRANCH  72  74
ENDBRANCH  71  72
ENDBRANCH  70  71
ENDBRANCH   1  70
TORSDOF 16
