REMARK SMILES Cc1c(CC(=O)OCCOC(=O)c2ccc(-c3c4nc(c(-c5cc(S(=O)(=O)[O-])ccc5F)c5ccc([nH]5)c(-c5cc(S(=O)(=O)[O-])ccc5F)c5nc(c(-c6cc(S(=O)(=O)[O-])ccc6F)c6ccc3[nH]6)C=C5)C=C4)cc2)cc(-c2ccc(S(C)(=O)=O)cc2)n1-c1cccc(F)c1
REMARK SMILES IDX 8 1 7 2 5 3 6 4 4 5 3 6 1 7 2 8 88 9 76 10 77 11 89 12 90 13
REMARK SMILES IDX 95 14 91 15 93 16 92 17 94 18 78 19 79 20 87 21 80 22 86 23
REMARK SMILES IDX 81 24 82 25 83 26 84 27 85 28 9 29 10 30 11 31 12 32 13 33
REMARK SMILES IDX 14 34 75 35 15 36 74 37 16 38 17 39 18 40 68 41 19 42 73 43
REMARK SMILES IDX 67 44 69 45 20 46 72 47 66 48 65 49 21 51 53 52 33 53 52 54
REMARK SMILES IDX 34 55 37 56 51 57 70 58 35 59 36 60 50 62 71 63 38 64 22 65
REMARK SMILES IDX 23 66 31 67 24 68 30 69 32 70 29 71 25 72 26 73 27 74 28 75
REMARK SMILES IDX 54 76 55 77 63 78 56 79 62 80 64 81 61 82 57 83 58 84 59 85
REMARK SMILES IDX 60 86 39 87 40 88 48 89 41 90 47 91 49 92 46 93 42 94 43 95
REMARK SMILES IDX 44 96 45 97
REMARK H PARENT 69 50 37 61
REMARK Flexibility Score: inf
ROOT
ATOM      1  C   UNL     1       2.855  -3.164  -0.553  1.00  0.00     0.274 C 
ENDROOT
BRANCH   1   2
ATOM      2  O   UNL     1       1.841  -2.213  -0.997  1.00  0.00    -0.462 OA
BRANCH   2   3
ATOM      3  C   UNL     1       0.837  -2.676  -1.792  1.00  0.00     0.310 C 
ATOM      4  O   UNL     1       0.743  -3.851  -2.148  1.00  0.00    -0.252 OA
BRANCH   3   5
ATOM      5  C   UNL     1      -0.233  -1.653  -2.165  1.00  0.00     0.160 C 
BRANCH   5   6
ATOM      6  C   UNL     1       0.115  -0.185  -2.175  1.00  0.00    -0.015 A 
ATOM      7  C   UNL     1       0.669   0.185   0.335  1.00  0.00     0.065 C 
ATOM      8  C   UNL     1       0.515   0.593  -1.098  1.00  0.00     0.024 A 
ATOM      9  N   UNL     1       0.669   1.906  -1.521  1.00  0.00    -0.313 N 
ATOM     10  C   UNL     1      -0.081   0.726  -3.260  1.00  0.00     0.033 A 
ATOM     11  C   UNL     1       0.231   2.012  -2.842  1.00  0.00     0.053 A 
BRANCH   9  12
ATOM     12  C   UNL     1       1.204   2.962  -0.739  1.00  0.00     0.049 A 
ATOM     13  C   UNL     1       0.495   4.161  -0.589  1.00  0.00     0.027 A 
ATOM     14  C   UNL     1       2.475   2.809  -0.178  1.00  0.00     0.065 A 
ATOM     15  C   UNL     1       1.067   5.216   0.123  1.00  0.00     0.005 A 
ATOM     16  C   UNL     1       3.038   3.880   0.503  1.00  0.00     0.125 A 
ATOM     17  C   UNL     1       2.347   5.079   0.660  1.00  0.00     0.039 A 
ATOM     18  F   UNL     1       4.281   3.768   0.989  1.00  0.00    -0.207 F 
ENDBRANCH   9  12
BRANCH  11  19
ATOM     19  C   UNL     1       0.202   3.266  -3.614  1.00  0.00    -0.001 A 
ATOM     20  C   UNL     1       1.377   4.006  -3.827  1.00  0.00     0.011 A 
ATOM     21  C   UNL     1      -1.012   3.772  -4.101  1.00  0.00     0.011 A 
ATOM     22  C   UNL     1       1.338   5.245  -4.475  1.00  0.00     0.021 A 
ATOM     23  C   UNL     1      -1.059   5.011  -4.754  1.00  0.00     0.021 A 
ATOM     24  C   UNL     1       0.115   5.748  -4.923  1.00  0.00     0.067 A 
BRANCH  24  25
ATOM     25  S   UNL     1       0.088   7.318  -5.757  1.00  0.00     0.175 S 
ATOM     26  C   UNL     1       0.532   8.495  -4.506  1.00  0.00     0.163 C 
ATOM     27  O   UNL     1       1.125   7.295  -6.752  1.00  0.00    -0.224 OA
ATOM     28  O   UNL     1      -1.300   7.595  -6.135  1.00  0.00    -0.224 OA
ENDBRANCH  24  25
ENDBRANCH  11  19
ENDBRANCH   5   6
ENDBRANCH   3   5
ENDBRANCH   2   3
ENDBRANCH   1   2
BRANCH   1  29
ATOM     29  C   UNL     1       3.579  -2.663   0.738  1.00  0.00     0.275 C 
BRANCH  29  30
ATOM     30  O   UNL     1       3.477  -3.404   2.024  1.00  0.00    -0.458 OA
BRANCH  30  31
ATOM     31  C   UNL     1       2.421  -3.158   2.870  1.00  0.00     0.338 C 
ATOM     32  O   UNL     1       1.385  -2.646   2.466  1.00  0.00    -0.246 OA
BRANCH  31  33
ATOM     33  C   UNL     1       2.590  -3.650   4.349  1.00  0.00     0.060 A 
ATOM     34  C   UNL     1       1.616  -4.474   4.911  1.00  0.00     0.016 A 
ATOM     35  C   UNL     1       3.532  -3.190   5.298  1.00  0.00     0.016 A 
ATOM     36  C   UNL     1       1.632  -4.869   6.317  1.00  0.00     0.010 A 
ATOM     37  C   UNL     1       3.500  -3.542   6.758  1.00  0.00     0.010 A 
ATOM     38  C   UNL     1       2.556  -4.421   7.340  1.00  0.00    -0.014 A 
BRANCH  38  39
ATOM     39  C   UNL     1       2.051  -4.550   8.955  1.00  0.00     0.031 A 
ATOM     40  C   UNL     1       0.652  -4.036   8.828  1.00  0.00     0.074 A 
ATOM     41  C   UNL     1       2.428  -4.850  10.297  1.00  0.00     0.049 A 
ATOM     42  N   UNL     1       0.436  -2.853   8.321  1.00  0.00    -0.248 NA
ATOM     43  C   UNL     1      -0.517  -4.918   8.830  1.00  0.00     0.031 C 
ATOM     44  C   UNL     1       3.774  -5.179  10.811  1.00  0.00     0.029 A 
ATOM     45  N   UNL     1       1.702  -4.942  11.572  1.00  0.00    -0.354 N 
ATOM     46  C   UNL     1      -0.928  -2.708   8.251  1.00  0.00     0.074 A 
ATOM     47  C   UNL     1      -1.429  -4.077   8.329  1.00  0.00     0.031 C 
ATOM     48  C   UNL     1       3.770  -5.559  12.130  1.00  0.00     0.029 A 
ATOM     49  C   UNL     1       2.433  -5.489  12.734  1.00  0.00     0.049 A 
ATOM     50  H   UNL     1       0.766  -4.649  11.649  1.00  0.00     0.167 HD
ATOM     51  C   UNL     1      -1.427  -1.613   8.899  1.00  0.00     0.034 A 
ATOM     52  C   UNL     1       2.062  -5.794  14.075  1.00  0.00     0.034 A 
ATOM     53  C   UNL     1      -1.873  -1.941  10.228  1.00  0.00     0.049 A 
ATOM     54  C   UNL     1       0.907  -4.963  14.406  1.00  0.00     0.074 A 
ATOM     55  C   UNL     1      -2.657  -2.966  10.719  1.00  0.00     0.029 A 
ATOM     56  N   UNL     1      -1.131  -1.461  11.289  1.00  0.00    -0.354 N 
ATOM     57  N   UNL     1       1.028  -3.708  14.701  1.00  0.00    -0.248 NA
ATOM     58  C   UNL     1      -0.447  -5.496  14.454  1.00  0.00     0.031 C 
ATOM     59  C   UNL     1      -1.993  -3.389  11.888  1.00  0.00     0.029 A 
ATOM     60  C   UNL     1      -1.131  -2.384  12.313  1.00  0.00     0.049 A 
ATOM     61  H   UNL     1      -0.672  -0.591  11.310  1.00  0.00     0.167 HD
ATOM     62  C   UNL     1      -0.190  -3.220  14.345  1.00  0.00     0.074 A 
ATOM     63  C   UNL     1      -1.108  -4.337  14.501  1.00  0.00     0.031 C 
ATOM     64  C   UNL     1      -0.190  -2.239  13.407  1.00  0.00     0.034 A 
BRANCH  51  65
ATOM     65  C   UNL     1      -0.748  -0.326   8.527  1.00  0.00     0.023 A 
ATOM     66  C   UNL     1      -1.430   0.584   7.711  1.00  0.00     0.031 A 
ATOM     67  C   UNL     1       0.594  -0.040   8.858  1.00  0.00     0.131 A 
ATOM     68  C   UNL     1      -0.754   1.704   7.200  1.00  0.00     0.055 A 
ATOM     69  C   UNL     1       1.275   1.046   8.311  1.00  0.00     0.041 A 
ATOM     70  F   UNL     1       1.268  -0.812   9.725  1.00  0.00    -0.206 F 
ATOM     71  C   UNL     1       0.602   1.922   7.468  1.00  0.00     0.022 A 
BRANCH  68  72
ATOM     72  S   UNL     1      -1.679   2.884   6.183  1.00  0.00     0.124 S 
ATOM     73  O   UNL     1      -2.021   2.085   5.010  1.00  0.00    -0.237 OA
ATOM     74  O   UNL     1      -2.798   3.235   7.054  1.00  0.00    -0.237 OA
ATOM     75  O   UNL     1      -0.723   3.962   5.942  1.00  0.00    -0.744 OA
ENDBRANCH  68  72
ENDBRANCH  51  65
BRANCH  52  76
ATOM     76  C   UNL     1       2.473  -6.573  15.414  1.00  0.00     0.023 A 
ATOM     77  C   UNL     1       2.007  -6.212  16.764  1.00  0.00     0.031 A 
ATOM     78  C   UNL     1       2.963  -7.883  15.335  1.00  0.00     0.131 A 
ATOM     79  C   UNL     1       2.026  -7.125  17.879  1.00  0.00     0.055 A 
ATOM     80  C   UNL     1       2.977  -8.778  16.439  1.00  0.00     0.041 A 
ATOM     81  F   UNL     1       3.349  -8.383  14.153  1.00  0.00    -0.206 F 
ATOM     82  C   UNL     1       2.501  -8.416  17.699  1.00  0.00     0.022 A 
BRANCH  79  83
ATOM     83  S   UNL     1       1.298  -6.752  19.557  1.00  0.00     0.124 S 
ATOM     84  O   UNL     1       2.224  -5.775  20.115  1.00  0.00    -0.237 OA
ATOM     85  O   UNL     1      -0.043  -6.276  19.235  1.00  0.00    -0.237 OA
ATOM     86  O   UNL     1       1.316  -8.051  20.241  1.00  0.00    -0.744 OA
ENDBRANCH  79  83
ENDBRANCH  52  76
BRANCH  64  87
ATOM     87  C   UNL     1       0.905  -1.174  13.512  1.00  0.00     0.023 A 
ATOM     88  C   UNL     1       2.289  -1.403  13.749  1.00  0.00     0.031 A 
ATOM     89  C   UNL     1       0.501   0.170  13.461  1.00  0.00     0.131 A 
ATOM     90  C   UNL     1       3.182  -0.330  13.960  1.00  0.00     0.055 A 
ATOM     91  C   UNL     1       1.392   1.233  13.626  1.00  0.00     0.041 A 
ATOM     92  F   UNL     1      -0.789   0.479  13.258  1.00  0.00    -0.206 F 
ATOM     93  C   UNL     1       2.733   0.988  13.893  1.00  0.00     0.022 A 
BRANCH  90  94
ATOM     94  S   UNL     1       4.926  -0.639  14.412  1.00  0.00     0.124 S 
ATOM     95  O   UNL     1       4.832  -1.636  15.471  1.00  0.00    -0.237 OA
ATOM     96  O   UNL     1       5.503  -1.099  13.152  1.00  0.00    -0.237 OA
ATOM     97  O   UNL     1       5.399   0.674  14.855  1.00  0.00    -0.744 OA
ENDBRANCH  90  94
ENDBRANCH  64  87
ENDBRANCH  38  39
ENDBRANCH  31  33
ENDBRANCH  30  31
ENDBRANCH  29  30
ENDBRANCH   1  29
TORSDOF 18
