REMARK SMILES COc1cccc([C@@H]2[NH2+][C@@](C)(C(=O)OCCOC(=O)c3ccc(-c4c5nc(c(-c6cc(S(=O)(=O)[O-])ccc6F)c6ccc([nH]6)c(-c6cc(S(=O)(=O)[O-])ccc6F)c6nc(c(-c7cc(S(=O)(=O)[O-])ccc7F)c7ccc4[nH]7)C=C6)C=C5)cc3)[C@@H]3C(=O)N(C)C(=O)[C@@H]32)c1O
REMARK SMILES IDX 16 1 15 2 14 3 12 4 13 5 10 6 8 7 9 8 90 9 83 12 88 13 11 14
REMARK SMILES IDX 84 15 86 16 89 17 85 18 87 19 7 20 3 21 4 22 91 23 5 24 6 25
REMARK SMILES IDX 2 26 1 27 92 28 17 30 18 31 19 32 20 33 21 34 82 35 22 36
REMARK SMILES IDX 81 37 23 38 24 39 25 40 75 41 26 42 80 43 74 44 76 45 27 46
REMARK SMILES IDX 79 47 73 48 72 49 28 51 60 52 40 53 59 54 41 55 44 56 58 57
REMARK SMILES IDX 77 58 42 59 43 60 57 62 78 63 45 64 29 65 30 66 38 67 31 68
REMARK SMILES IDX 37 69 39 70 36 71 32 72 33 73 34 74 35 75 61 76 62 77 70 78
REMARK SMILES IDX 63 79 69 80 71 81 68 82 64 83 65 84 66 85 67 86 46 87 47 88
REMARK SMILES IDX 55 89 48 90 54 91 56 92 53 93 49 94 50 95 51 96 52 97
REMARK H PARENT 9 10 9 11 92 29 76 50 44 61
REMARK Flexibility Score: inf
ROOT
ATOM      1  C   UNL     1       3.625  -6.589   6.454  1.00  0.00     0.275 C 
ENDROOT
BRANCH   1   2
ATOM      2  C   UNL     1       2.511  -5.620   6.840  1.00  0.00     0.274 C 
BRANCH   2   3
ATOM      3  O   UNL     1       1.981  -4.961   5.673  1.00  0.00    -0.457 OA
BRANCH   3   4
ATOM      4  C   UNL     1       2.447  -3.702   5.448  1.00  0.00     0.368 C 
ATOM      5  O   UNL     1       3.254  -3.135   6.182  1.00  0.00    -0.245 OA
BRANCH   4   6
ATOM      6  C   UNL     1       1.841  -3.008   4.195  1.00  0.00     0.204 C 
ATOM      7  C   UNL     1       1.894  -4.218   2.093  1.00  0.00     0.232 C 
ATOM      8  N   UNL     1       1.095  -3.966   3.321  1.00  0.00    -0.325 N 
ATOM      9  C   UNL     1       3.262  -3.590   2.342  1.00  0.00     0.161 C 
ATOM     10  H   UNL     1       0.949  -4.843   3.821  1.00  0.00     0.347 HD
ATOM     11  H   UNL     1       0.189  -3.572   3.070  1.00  0.00     0.347 HD
ATOM     12  C   UNL     1       3.020  -2.507   3.376  1.00  0.00     0.170 C 
ATOM     13  C   UNL     1       3.898  -2.832   1.215  1.00  0.00     0.239 C 
ATOM     14  C   UNL     1       0.910  -1.942   4.780  1.00  0.00     0.093 C 
ATOM     15  C   UNL     1       2.937  -1.251   2.548  1.00  0.00     0.240 C 
ATOM     16  N   UNL     1       3.613  -1.503   1.381  1.00  0.00    -0.285 N 
ATOM     17  O   UNL     1       4.547  -3.344   0.318  1.00  0.00    -0.274 OA
ATOM     18  O   UNL     1       2.466  -0.185   2.910  1.00  0.00    -0.274 OA
ATOM     19  C   UNL     1       4.010  -0.497   0.425  1.00  0.00     0.156 C 
BRANCH   7  20
ATOM     20  C   UNL     1       1.224  -3.812   0.787  1.00  0.00     0.056 A 
ATOM     21  C   UNL     1       0.036  -2.231  -0.647  1.00  0.00     0.161 A 
ATOM     22  C   UNL     1       0.291  -3.007  -1.769  1.00  0.00     0.050 A 
ATOM     23  C   UNL     1       0.456  -2.655   0.619  1.00  0.00     0.166 A 
ATOM     24  C   UNL     1       1.014  -4.189  -1.625  1.00  0.00     0.005 A 
ATOM     25  C   UNL     1       1.485  -4.580  -0.366  1.00  0.00     0.014 A 
BRANCH  21  26
ATOM     26  O   UNL     1      -0.669  -1.063  -0.785  1.00  0.00    -0.493 OA
ATOM     27  C   UNL     1       0.202   0.075  -0.732  1.00  0.00     0.278 C 
ENDBRANCH  21  26
BRANCH  23  28
ATOM     28  O   UNL     1       0.101  -1.913   1.708  1.00  0.00    -0.504 OA
ATOM     29  H   UNL     1      -0.414  -1.138   1.599  1.00  0.00     0.293 HD
ENDBRANCH  23  28
ENDBRANCH   7  20
ENDBRANCH   4   6
ENDBRANCH   3   4
ENDBRANCH   2   3
ENDBRANCH   1   2
BRANCH   1  30
ATOM     30  O   UNL     1       4.692  -5.867   5.816  1.00  0.00    -0.458 OA
BRANCH  30  31
ATOM     31  C   UNL     1       5.290  -6.496   4.779  1.00  0.00     0.338 C 
ATOM     32  O   UNL     1       5.065  -7.641   4.404  1.00  0.00    -0.246 OA
BRANCH  31  33
ATOM     33  C   UNL     1       6.255  -5.595   4.101  1.00  0.00     0.060 A 
ATOM     34  C   UNL     1       6.135  -4.206   4.172  1.00  0.00     0.016 A 
ATOM     35  C   UNL     1       7.236  -6.150   3.279  1.00  0.00     0.016 A 
ATOM     36  C   UNL     1       6.893  -3.388   3.328  1.00  0.00     0.010 A 
ATOM     37  C   UNL     1       8.082  -5.319   2.534  1.00  0.00     0.010 A 
ATOM     38  C   UNL     1       7.899  -3.924   2.510  1.00  0.00    -0.014 A 
BRANCH  38  39
ATOM     39  C   UNL     1       8.752  -3.070   1.619  1.00  0.00     0.031 A 
ATOM     40  C   UNL     1       8.954  -3.460   0.171  1.00  0.00     0.074 A 
ATOM     41  C   UNL     1       9.396  -1.979   2.087  1.00  0.00     0.049 A 
ATOM     42  N   UNL     1       9.910  -3.118  -0.655  1.00  0.00    -0.248 NA
ATOM     43  C   UNL     1       7.968  -4.386  -0.407  1.00  0.00     0.031 C 
ATOM     44  C   UNL     1       9.272  -1.421   3.436  1.00  0.00     0.029 A 
ATOM     45  N   UNL     1      10.304  -1.143   1.475  1.00  0.00    -0.354 N 
ATOM     46  C   UNL     1       9.702  -3.867  -1.812  1.00  0.00     0.074 A 
ATOM     47  C   UNL     1       8.513  -4.662  -1.585  1.00  0.00     0.031 C 
ATOM     48  C   UNL     1      10.035  -0.323   3.535  1.00  0.00     0.029 A 
ATOM     49  C   UNL     1      10.808  -0.170   2.310  1.00  0.00     0.049 A 
ATOM     50  H   UNL     1      10.568  -1.234   0.531  1.00  0.00     0.167 HD
ATOM     51  C   UNL     1      10.447  -3.897  -2.945  1.00  0.00     0.034 A 
ATOM     52  C   UNL     1      11.827   0.699   2.151  1.00  0.00     0.034 A 
ATOM     53  C   UNL     1      11.563  -3.016  -3.201  1.00  0.00     0.049 A 
ATOM     54  C   UNL     1      12.638   0.654   0.883  1.00  0.00     0.074 A 
ATOM     55  C   UNL     1      12.349  -2.927  -4.338  1.00  0.00     0.029 A 
ATOM     56  N   UNL     1      12.034  -2.053  -2.320  1.00  0.00    -0.354 N 
ATOM     57  N   UNL     1      12.502  -0.135  -0.157  1.00  0.00    -0.248 NA
ATOM     58  C   UNL     1      13.758   1.600   0.780  1.00  0.00     0.031 C 
ATOM     59  C   UNL     1      13.320  -1.942  -4.128  1.00  0.00     0.029 A 
ATOM     60  C   UNL     1      13.105  -1.375  -2.884  1.00  0.00     0.049 A 
ATOM     61  H   UNL     1      11.662  -1.876  -1.426  1.00  0.00     0.167 HD
ATOM     62  C   UNL     1      13.512   0.231  -1.041  1.00  0.00     0.074 A 
ATOM     63  C   UNL     1      14.236   1.322  -0.424  1.00  0.00     0.031 C 
ATOM     64  C   UNL     1      13.818  -0.292  -2.255  1.00  0.00     0.034 A 
BRANCH  51  65
ATOM     65  C   UNL     1      10.134  -4.957  -3.974  1.00  0.00     0.023 A 
ATOM     66  C   UNL     1       8.961  -4.949  -4.745  1.00  0.00     0.031 A 
ATOM     67  C   UNL     1      11.065  -5.991  -4.200  1.00  0.00     0.131 A 
ATOM     68  C   UNL     1       8.728  -5.979  -5.672  1.00  0.00     0.055 A 
ATOM     69  C   UNL     1      10.857  -6.974  -5.168  1.00  0.00     0.041 A 
ATOM     70  F   UNL     1      12.197  -6.057  -3.482  1.00  0.00    -0.206 F 
ATOM     71  C   UNL     1       9.679  -6.976  -5.905  1.00  0.00     0.022 A 
BRANCH  68  72
ATOM     72  S   UNL     1       7.125  -6.048  -6.520  1.00  0.00     0.124 S 
ATOM     73  O   UNL     1       6.208  -6.263  -5.403  1.00  0.00    -0.237 OA
ATOM     74  O   UNL     1       7.050  -4.742  -7.165  1.00  0.00    -0.237 OA
ATOM     75  O   UNL     1       7.266  -7.184  -7.429  1.00  0.00    -0.744 OA
ENDBRANCH  68  72
ENDBRANCH  51  65
BRANCH  52  76
ATOM     76  C   UNL     1      12.211   1.625   3.257  1.00  0.00     0.023 A 
ATOM     77  C   UNL     1      12.128   3.016   3.096  1.00  0.00     0.031 A 
ATOM     78  C   UNL     1      12.716   1.131   4.474  1.00  0.00     0.131 A 
ATOM     79  C   UNL     1      12.578   3.866   4.118  1.00  0.00     0.055 A 
ATOM     80  C   UNL     1      13.104   1.980   5.511  1.00  0.00     0.041 A 
ATOM     81  F   UNL     1      12.824  -0.192   4.680  1.00  0.00    -0.206 F 
ATOM     82  C   UNL     1      13.049   3.358   5.331  1.00  0.00     0.022 A 
BRANCH  79  83
ATOM     83  S   UNL     1      12.629   5.651   3.802  1.00  0.00     0.124 S 
ATOM     84  O   UNL     1      13.457   5.718   2.603  1.00  0.00    -0.237 OA
ATOM     85  O   UNL     1      11.216   5.967   3.623  1.00  0.00    -0.237 OA
ATOM     86  O   UNL     1      13.240   6.194   5.013  1.00  0.00    -0.744 OA
ENDBRANCH  79  83
ENDBRANCH  52  76
BRANCH  64  87
ATOM     87  C   UNL     1      14.949   0.357  -3.007  1.00  0.00     0.023 A 
ATOM     88  C   UNL     1      16.286   0.217  -2.595  1.00  0.00     0.031 A 
ATOM     89  C   UNL     1      14.679   1.152  -4.135  1.00  0.00     0.131 A 
ATOM     90  C   UNL     1      17.300   0.905  -3.278  1.00  0.00     0.055 A 
ATOM     91  C   UNL     1      15.697   1.795  -4.839  1.00  0.00     0.041 A 
ATOM     92  F   UNL     1      13.418   1.319  -4.566  1.00  0.00    -0.206 F 
ATOM     93  C   UNL     1      17.015   1.683  -4.404  1.00  0.00     0.022 A 
BRANCH  90  94
ATOM     94  S   UNL     1      18.993   0.833  -2.630  1.00  0.00     0.124 S 
ATOM     95  O   UNL     1      18.833   1.408  -1.298  1.00  0.00    -0.237 OA
ATOM     96  O   UNL     1      19.285  -0.596  -2.676  1.00  0.00    -0.237 OA
ATOM     97  O   UNL     1      19.756   1.650  -3.571  1.00  0.00    -0.744 OA
ENDBRANCH  90  94
ENDBRANCH  64  87
ENDBRANCH  38  39
ENDBRANCH  31  33
ENDBRANCH  30  31
ENDBRANCH   1  30
TORSDOF 17
