REMARK SMILES O=C(OCCOC(=O)[C@@H]1CCC[N@@H+](Cc2ccc(F)cc2Cl)C1)c1ccc(-c2c3nc(c(-c4cc(S(=O)(=O)[O-])ccc4F)c4ccc([nH]4)c(-c4cc(S(=O)(=O)[O-])ccc4F)c4nc(c(-c5cc(S(=O)(=O)[O-])ccc5F)c5ccc2[nH]5)C=C4)C=C3)cc1
REMARK SMILES IDX 4 1 3 2 2 3 1 4 24 5 25 6 86 7 26 8 85 9 27 10 28 11 29 12
REMARK SMILES IDX 79 13 30 14 84 15 78 16 80 17 31 18 83 19 77 20 76 21 32 23
REMARK SMILES IDX 64 24 44 25 63 26 45 27 48 28 62 29 81 30 46 31 47 32 61 34
REMARK SMILES IDX 82 35 49 36 33 37 34 38 42 39 35 40 41 41 43 42 40 43 36 44
REMARK SMILES IDX 37 45 38 46 39 47 65 48 66 49 74 50 67 51 73 52 75 53 72 54
REMARK SMILES IDX 68 55 69 56 70 57 71 58 50 59 51 60 59 61 52 62 58 63 60 64
REMARK SMILES IDX 57 65 53 66 54 67 55 68 56 69 5 70 6 71 7 72 8 73 9 74 10 75
REMARK SMILES IDX 23 76 11 77 13 78 12 79 14 81 15 82 16 83 21 84 17 85 20 86
REMARK SMILES IDX 22 87 18 88 19 89
REMARK H PARENT 80 22 48 33 13 80
REMARK Flexibility Score: inf
ROOT
ATOM      1  C   UNL     1       3.735  -0.468  -1.630  1.00  0.00     0.275 C 
ENDROOT
BRANCH   1   2
ATOM      2  O   UNL     1       2.421  -0.900  -1.189  1.00  0.00    -0.458 OA
BRANCH   2   3
ATOM      3  C   UNL     1       1.944  -1.249   0.033  1.00  0.00     0.338 C 
ATOM      4  O   UNL     1       0.800  -1.687   0.139  1.00  0.00    -0.246 OA
BRANCH   3   5
ATOM      5  C   UNL     1       2.674  -1.029   1.301  1.00  0.00     0.060 A 
ATOM      6  C   UNL     1       4.458  -1.072   1.406  1.00  0.00     0.016 A 
ATOM      7  C   UNL     1       1.701  -0.666   2.827  1.00  0.00     0.016 A 
ATOM      8  C   UNL     1       5.314  -0.698   2.931  1.00  0.00     0.010 A 
ATOM      9  C   UNL     1       2.588  -0.146   4.368  1.00  0.00     0.010 A 
ATOM     10  C   UNL     1       4.407  -0.285   4.452  1.00  0.00    -0.014 A 
BRANCH  10  11
ATOM     11  C   UNL     1       5.241  -0.091   5.700  1.00  0.00     0.031 A 
ATOM     12  C   UNL     1       6.342  -1.082   6.070  1.00  0.00     0.074 A 
ATOM     13  C   UNL     1       5.135   1.033   6.438  1.00  0.00     0.049 A 
ATOM     14  N   UNL     1       6.970  -1.222   7.214  1.00  0.00    -0.248 NA
ATOM     15  C   UNL     1       6.738  -2.103   5.098  1.00  0.00     0.031 C 
ATOM     16  C   UNL     1       4.187   2.117   6.223  1.00  0.00     0.029 A 
ATOM     17  N   UNL     1       5.936   1.522   7.440  1.00  0.00    -0.354 N 
ATOM     18  C   UNL     1       7.631  -2.455   7.147  1.00  0.00     0.074 A 
ATOM     19  C   UNL     1       7.472  -2.936   5.811  1.00  0.00     0.031 C 
ATOM     20  C   UNL     1       4.620   3.222   6.843  1.00  0.00     0.029 A 
ATOM     21  C   UNL     1       5.732   2.861   7.708  1.00  0.00     0.049 A 
ATOM     22  H   UNL     1       6.594   0.971   7.922  1.00  0.00     0.167 HD
ATOM     23  C   UNL     1       8.195  -3.156   8.162  1.00  0.00     0.034 A 
ATOM     24  C   UNL     1       6.340   3.683   8.588  1.00  0.00     0.034 A 
ATOM     25  C   UNL     1       8.486  -2.522   9.422  1.00  0.00     0.049 A 
ATOM     26  C   UNL     1       7.284   3.028   9.563  1.00  0.00     0.074 A 
ATOM     27  C   UNL     1       9.004  -3.051  10.589  1.00  0.00     0.029 A 
ATOM     28  N   UNL     1       8.336  -1.157   9.633  1.00  0.00    -0.354 N 
ATOM     29  N   UNL     1       7.638   1.763   9.634  1.00  0.00    -0.248 NA
ATOM     30  C   UNL     1       7.843   3.873  10.622  1.00  0.00     0.031 C 
ATOM     31  C   UNL     1       9.156  -2.001  11.508  1.00  0.00     0.029 A 
ATOM     32  C   UNL     1       8.795  -0.814  10.887  1.00  0.00     0.049 A 
ATOM     33  H   UNL     1       7.957  -0.525   8.981  1.00  0.00     0.167 HD
ATOM     34  C   UNL     1       8.410   1.649  10.782  1.00  0.00     0.074 A 
ATOM     35  C   UNL     1       8.544   2.990  11.320  1.00  0.00     0.031 C 
ATOM     36  C   UNL     1       8.912   0.536  11.375  1.00  0.00     0.034 A 
BRANCH  23  37
ATOM     37  C   UNL     1       8.320  -4.663   7.998  1.00  0.00     0.023 A 
ATOM     38  C   UNL     1       9.050  -5.293   6.973  1.00  0.00     0.031 A 
ATOM     39  C   UNL     1       7.542  -5.497   8.831  1.00  0.00     0.131 A 
ATOM     40  C   UNL     1       8.879  -6.670   6.728  1.00  0.00     0.055 A 
ATOM     41  C   UNL     1       7.472  -6.882   8.656  1.00  0.00     0.041 A 
ATOM     42  F   UNL     1       6.790  -4.973   9.812  1.00  0.00    -0.206 F 
ATOM     43  C   UNL     1       8.121  -7.474   7.581  1.00  0.00     0.022 A 
BRANCH  40  44
ATOM     44  S   UNL     1       9.510  -7.370   5.173  1.00  0.00     0.124 S 
ATOM     45  O   UNL     1       8.652  -6.717   4.188  1.00  0.00    -0.237 OA
ATOM     46  O   UNL     1      10.906  -6.948   5.176  1.00  0.00    -0.237 OA
ATOM     47  O   UNL     1       9.294  -8.807   5.329  1.00  0.00    -0.744 OA
ENDBRANCH  40  44
ENDBRANCH  23  37
BRANCH  24  48
ATOM     48  C   UNL     1       6.009   5.143   8.664  1.00  0.00     0.023 A 
ATOM     49  C   UNL     1       7.006   6.125   8.516  1.00  0.00     0.031 A 
ATOM     50  C   UNL     1       4.694   5.593   8.892  1.00  0.00     0.131 A 
ATOM     51  C   UNL     1       6.674   7.490   8.608  1.00  0.00     0.055 A 
ATOM     52  C   UNL     1       4.357   6.948   8.900  1.00  0.00     0.041 A 
ATOM     53  F   UNL     1       3.697   4.715   9.086  1.00  0.00    -0.206 F 
ATOM     54  C   UNL     1       5.351   7.907   8.767  1.00  0.00     0.022 A 
BRANCH  51  55
ATOM     55  S   UNL     1       8.007   8.724   8.615  1.00  0.00     0.124 S 
ATOM     56  O   UNL     1       8.823   8.274   9.737  1.00  0.00    -0.237 OA
ATOM     57  O   UNL     1       8.588   8.552   7.288  1.00  0.00    -0.237 OA
ATOM     58  O   UNL     1       7.301   9.987   8.825  1.00  0.00    -0.744 OA
ENDBRANCH  51  55
ENDBRANCH  24  48
BRANCH  36  59
ATOM     59  C   UNL     1       9.667   0.742  12.651  1.00  0.00     0.023 A 
ATOM     60  C   UNL     1       9.004   1.113  13.831  1.00  0.00     0.031 A 
ATOM     61  C   UNL     1      11.058   0.562  12.682  1.00  0.00     0.131 A 
ATOM     62  C   UNL     1       9.747   1.353  14.991  1.00  0.00     0.055 A 
ATOM     63  C   UNL     1      11.786   0.753  13.854  1.00  0.00     0.041 A 
ATOM     64  F   UNL     1      11.725   0.203  11.574  1.00  0.00    -0.206 F 
ATOM     65  C   UNL     1      11.132   1.163  15.014  1.00  0.00     0.022 A 
BRANCH  62  66
ATOM     66  S   UNL     1       8.886   2.002  16.447  1.00  0.00     0.124 S 
ATOM     67  O   UNL     1       8.305   3.237  15.930  1.00  0.00    -0.237 OA
ATOM     68  O   UNL     1       7.942   0.932  16.754  1.00  0.00    -0.237 OA
ATOM     69  O   UNL     1       9.958   2.183  17.424  1.00  0.00    -0.744 OA
ENDBRANCH  62  66
ENDBRANCH  36  59
ENDBRANCH  10  11
ENDBRANCH   3   5
ENDBRANCH   2   3
ENDBRANCH   1   2
BRANCH   1  70
ATOM     70  C   UNL     1       3.966   1.037  -1.557  1.00  0.00     0.274 C 
BRANCH  70  71
ATOM     71  O   UNL     1       3.675   1.511  -0.248  1.00  0.00    -0.462 OA
BRANCH  71  72
ATOM     72  C   UNL     1       2.655   2.389  -0.112  1.00  0.00     0.314 C 
ATOM     73  O   UNL     1       2.014   2.884  -1.030  1.00  0.00    -0.252 OA
BRANCH  72  74
ATOM     74  C   UNL     1       2.404   2.701   1.343  1.00  0.00     0.154 C 
ATOM     75  C   UNL     1       3.417   3.629   1.940  1.00  0.00     0.027 C 
ATOM     76  C   UNL     1       2.209   1.426   2.168  1.00  0.00     0.277 C 
ATOM     77  C   UNL     1       4.704   2.873   2.147  1.00  0.00     0.062 C 
ATOM     78  N   UNL     1       3.497   0.388   2.597  1.00  0.00    -0.330 N 
ATOM     79  C   UNL     1       4.502   1.620   3.013  1.00  0.00     0.262 C 
ATOM     80  H   UNL     1       3.842  -0.383   2.026  1.00  0.00     0.348 HD
BRANCH  78  81
ATOM     81  C   UNL     1       3.416  -1.624   3.219  1.00  0.00     0.300 C 
BRANCH  81  82
ATOM     82  C   UNL     1       2.779  -2.487   4.681  1.00  0.00     0.025 A 
ATOM     83  C   UNL     1       1.442  -2.398   5.141  1.00  0.00     0.014 A 
ATOM     84  C   UNL     1       3.664  -3.177   5.524  1.00  0.00     0.052 A 
ATOM     85  C   UNL     1       1.181  -2.489   6.511  1.00  0.00     0.040 A 
ATOM     86  C   UNL     1       3.435  -3.224   6.903  1.00  0.00     0.060 A 
ATOM     87  Cl  UNL     1       4.682  -4.404   4.850  1.00  0.00    -0.084 Cl
ATOM     88  C   UNL     1       2.211  -2.796   7.390  1.00  0.00     0.124 A 
ATOM     89  F   UNL     1       1.978  -2.773   8.708  1.00  0.00    -0.207 F 
ENDBRANCH  81  82
ENDBRANCH  78  81
ENDBRANCH  72  74
ENDBRANCH  71  72
ENDBRANCH  70  71
ENDBRANCH   1  70
TORSDOF 16
