REMARK SMILES COc1ccc(/C=C/c2cc(OC)cc(OC)c2/C=C/C(=O)OCCOC(=O)c2ccc(-c3c4nc(c(-c5cc(S(=O)(=O)[O-])ccc5F)c5ccc([nH]5)c(-c5cc(S(=O)(=O)[O-])ccc5F)c5nc(c(-c6cc(S(=O)(=O)[O-])ccc6F)c6ccc3[nH]6)C=C5)C=C4)cc2)cc1
REMARK SMILES IDX 24 1 23 2 21 3 22 4 20 5 19 6 18 7 9 8 10 9 11 10 15 11
REMARK SMILES IDX 14 12 8 13 7 14 6 15 3 16 4 17 93 18 5 19 92 20 2 21 1 22
REMARK SMILES IDX 12 23 13 24 16 25 17 26 25 27 26 28 27 29 28 30 29 31 30 32
REMARK SMILES IDX 91 33 31 34 90 35 32 36 33 37 34 38 84 39 35 40 89 41 83 42
REMARK SMILES IDX 85 43 36 44 88 45 82 46 81 47 37 49 69 50 49 51 68 52 50 53
REMARK SMILES IDX 53 54 67 55 86 56 51 57 52 58 66 60 87 61 54 62 38 63 39 64
REMARK SMILES IDX 47 65 40 66 46 67 48 68 45 69 41 70 42 71 43 72 44 73 70 74
REMARK SMILES IDX 71 75 79 76 72 77 78 78 80 79 77 80 73 81 74 82 75 83 76 84
REMARK SMILES IDX 55 85 56 86 64 87 57 88 63 89 65 90 62 91 58 92 59 93 60 94
REMARK SMILES IDX 61 95
REMARK H PARENT 85 48 53 59
REMARK Flexibility Score: inf
ROOT
ATOM      1  C   UNL     1       6.280  -5.090   4.000  1.00  0.00     0.275 C 
ENDROOT
BRANCH   1   2
ATOM      2  O   UNL     1       5.412  -6.133   3.514  1.00  0.00    -0.459 OA
BRANCH   2   3
ATOM      3  C   UNL     1       5.952  -6.989   2.612  1.00  0.00     0.330 C 
ATOM      4  O   UNL     1       7.099  -6.964   2.196  1.00  0.00    -0.247 OA
BRANCH   3   5
ATOM      5  C   UNL     1       4.978  -7.983   2.115  1.00  0.00     0.094 C 
ATOM      6  C   UNL     1       3.753  -8.177   2.627  1.00  0.00     0.020 C 
BRANCH   6   7
ATOM      7  C   UNL     1       2.783  -9.143   2.064  1.00  0.00     0.024 A 
ATOM      8  C   UNL     1       1.520  -8.682   1.622  1.00  0.00    -0.011 A 
ATOM      9  C   UNL     1       0.569  -9.597   1.133  1.00  0.00     0.055 A 
ATOM     10  C   UNL     1       0.842 -10.964   1.073  1.00  0.00     0.123 A 
ATOM     11  C   UNL     1       3.043 -10.525   1.975  1.00  0.00     0.130 A 
ATOM     12  C   UNL     1       2.091 -11.420   1.472  1.00  0.00     0.093 A 
BRANCH   8  13
ATOM     13  C   UNL     1       1.115  -7.266   1.664  1.00  0.00     0.009 C 
ATOM     14  C   UNL     1       1.758  -6.307   0.976  1.00  0.00     0.009 C 
BRANCH  14  15
ATOM     15  C   UNL     1       1.431  -4.875   1.026  1.00  0.00    -0.025 A 
ATOM     16  C   UNL     1       0.887  -2.111   1.040  1.00  0.00     0.118 A 
ATOM     17  C   UNL     1      -0.109  -3.026   1.371  1.00  0.00     0.047 A 
ATOM     18  C   UNL     1       2.165  -2.568   0.726  1.00  0.00     0.047 A 
ATOM     19  C   UNL     1       0.154  -4.399   1.347  1.00  0.00     0.012 A 
ATOM     20  C   UNL     1       2.432  -3.943   0.713  1.00  0.00     0.012 A 
BRANCH  16  21
ATOM     21  O   UNL     1       0.524  -0.793   1.096  1.00  0.00    -0.497 OA
ATOM     22  C   UNL     1       1.120   0.023   0.093  1.00  0.00     0.278 C 
ENDBRANCH  16  21
ENDBRANCH  14  15
ENDBRANCH   8  13
BRANCH  10  23
ATOM     23  O   UNL     1      -0.175 -11.745   0.592  1.00  0.00    -0.497 OA
ATOM     24  C   UNL     1      -0.052 -13.145   0.827  1.00  0.00     0.278 C 
ENDBRANCH  10  23
BRANCH  11  25
ATOM     25  O   UNL     1       4.247 -11.102   2.279  1.00  0.00    -0.496 OA
ATOM     26  C   UNL     1       4.573 -11.016   3.661  1.00  0.00     0.278 C 
ENDBRANCH  11  25
ENDBRANCH   6   7
ENDBRANCH   3   5
ENDBRANCH   2   3
ENDBRANCH   1   2
BRANCH   1  27
ATOM     27  C   UNL     1       6.563  -5.261   5.490  1.00  0.00     0.275 C 
BRANCH  27  28
ATOM     28  O   UNL     1       7.287  -6.482   5.720  1.00  0.00    -0.458 OA
BRANCH  28  29
ATOM     29  C   UNL     1       6.572  -7.468   6.304  1.00  0.00     0.338 C 
ATOM     30  O   UNL     1       5.418  -7.416   6.703  1.00  0.00    -0.246 OA
BRANCH  29  31
ATOM     31  C   UNL     1       7.365  -8.702   6.339  1.00  0.00     0.060 A 
ATOM     32  C   UNL     1       7.407  -9.482   5.189  1.00  0.00     0.016 A 
ATOM     33  C   UNL     1       7.906  -9.177   7.532  1.00  0.00     0.016 A 
ATOM     34  C   UNL     1       7.874 -10.795   5.261  1.00  0.00     0.010 A 
ATOM     35  C   UNL     1       8.476 -10.458   7.570  1.00  0.00     0.010 A 
ATOM     36  C   UNL     1       8.421 -11.307   6.448  1.00  0.00    -0.014 A 
BRANCH  36  37
ATOM     37  C   UNL     1       8.885 -12.729   6.519  1.00  0.00     0.031 A 
ATOM     38  C   UNL     1       8.322 -13.674   7.557  1.00  0.00     0.074 A 
ATOM     39  C   UNL     1       9.791 -13.200   5.636  1.00  0.00     0.049 A 
ATOM     40  N   UNL     1       8.706 -14.886   7.874  1.00  0.00    -0.248 NA
ATOM     41  C   UNL     1       7.187 -13.184   8.352  1.00  0.00     0.031 C 
ATOM     42  C   UNL     1      10.396 -12.427   4.548  1.00  0.00     0.029 A 
ATOM     43  N   UNL     1      10.355 -14.447   5.501  1.00  0.00    -0.354 N 
ATOM     44  C   UNL     1       7.903 -15.280   8.941  1.00  0.00     0.074 A 
ATOM     45  C   UNL     1       7.016 -14.169   9.222  1.00  0.00     0.031 C 
ATOM     46  C   UNL     1      11.199 -13.225   3.831  1.00  0.00     0.029 A 
ATOM     47  C   UNL     1      11.253 -14.539   4.462  1.00  0.00     0.049 A 
ATOM     48  H   UNL     1      10.136 -15.203   6.092  1.00  0.00     0.167 HD
ATOM     49  C   UNL     1       7.904 -16.454   9.623  1.00  0.00     0.034 A 
ATOM     50  C   UNL     1      12.068 -15.542   4.079  1.00  0.00     0.034 A 
ATOM     51  C   UNL     1       8.753 -17.578   9.303  1.00  0.00     0.049 A 
ATOM     52  C   UNL     1      12.079 -16.821   4.871  1.00  0.00     0.074 A 
ATOM     53  C   UNL     1       8.811 -18.819   9.917  1.00  0.00     0.029 A 
ATOM     54  N   UNL     1       9.686 -17.607   8.274  1.00  0.00    -0.354 N 
ATOM     55  N   UNL     1      11.366 -17.146   5.923  1.00  0.00    -0.248 NA
ATOM     56  C   UNL     1      13.018 -17.861   4.432  1.00  0.00     0.031 C 
ATOM     57  C   UNL     1       9.815 -19.574   9.298  1.00  0.00     0.029 A 
ATOM     58  C   UNL     1      10.339 -18.831   8.253  1.00  0.00     0.049 A 
ATOM     59  H   UNL     1       9.859 -16.865   7.650  1.00  0.00     0.167 HD
ATOM     60  C   UNL     1      11.769 -18.432   6.269  1.00  0.00     0.074 A 
ATOM     61  C   UNL     1      12.768 -18.832   5.298  1.00  0.00     0.031 C 
ATOM     62  C   UNL     1      11.353 -19.211   7.300  1.00  0.00     0.034 A 
BRANCH  49  63
ATOM     63  C   UNL     1       6.998 -16.562  10.829  1.00  0.00     0.023 A 
ATOM     64  C   UNL     1       5.597 -16.541  10.721  1.00  0.00     0.031 A 
ATOM     65  C   UNL     1       7.556 -16.671  12.117  1.00  0.00     0.131 A 
ATOM     66  C   UNL     1       4.805 -16.557  11.881  1.00  0.00     0.055 A 
ATOM     67  C   UNL     1       6.762 -16.764  13.261  1.00  0.00     0.041 A 
ATOM     68  F   UNL     1       8.888 -16.679  12.285  1.00  0.00    -0.206 F 
ATOM     69  C   UNL     1       5.377 -16.692  13.148  1.00  0.00     0.022 A 
BRANCH  66  70
ATOM     70  S   UNL     1       3.023 -16.261  11.720  1.00  0.00     0.124 S 
ATOM     71  O   UNL     1       2.998 -14.959  11.056  1.00  0.00    -0.237 OA
ATOM     72  O   UNL     1       2.586 -17.396  10.916  1.00  0.00    -0.237 OA
ATOM     73  O   UNL     1       2.549 -16.255  13.103  1.00  0.00    -0.744 OA
ENDBRANCH  66  70
ENDBRANCH  49  63
BRANCH  50  74
ATOM     74  C   UNL     1      13.004 -15.350   2.934  1.00  0.00     0.023 A 
ATOM     75  C   UNL     1      12.882 -16.106   1.759  1.00  0.00     0.031 A 
ATOM     76  C   UNL     1      14.055 -14.417   3.014  1.00  0.00     0.131 A 
ATOM     77  C   UNL     1      13.812 -15.937   0.721  1.00  0.00     0.055 A 
ATOM     78  C   UNL     1      14.944 -14.215   1.959  1.00  0.00     0.041 A 
ATOM     79  F   UNL     1      14.218 -13.671   4.119  1.00  0.00    -0.206 F 
ATOM     80  C   UNL     1      14.831 -14.986   0.807  1.00  0.00     0.022 A 
BRANCH  77  81
ATOM     81  S   UNL     1      13.712 -17.030  -0.723  1.00  0.00     0.124 S 
ATOM     82  O   UNL     1      13.882 -18.344  -0.114  1.00  0.00    -0.237 OA
ATOM     83  O   UNL     1      12.382 -16.729  -1.241  1.00  0.00    -0.237 OA
ATOM     84  O   UNL     1      14.821 -16.584  -1.565  1.00  0.00    -0.744 OA
ENDBRANCH  77  81
ENDBRANCH  50  74
BRANCH  62  85
ATOM     85  C   UNL     1      11.967 -20.585   7.402  1.00  0.00     0.023 A 
ATOM     86  C   UNL     1      13.319 -20.763   7.745  1.00  0.00     0.031 A 
ATOM     87  C   UNL     1      11.198 -21.727   7.121  1.00  0.00     0.131 A 
ATOM     88  C   UNL     1      13.876 -22.051   7.745  1.00  0.00     0.055 A 
ATOM     89  C   UNL     1      11.744 -23.011   7.173  1.00  0.00     0.041 A 
ATOM     90  F   UNL     1       9.903 -21.613   6.785  1.00  0.00    -0.206 F 
ATOM     91  C   UNL     1      13.093 -23.177   7.473  1.00  0.00     0.022 A 
BRANCH  88  92
ATOM     92  S   UNL     1      15.660 -22.231   8.018  1.00  0.00     0.124 S 
ATOM     93  O   UNL     1      16.216 -21.433   6.930  1.00  0.00    -0.237 OA
ATOM     94  O   UNL     1      15.828 -21.684   9.361  1.00  0.00    -0.237 OA
ATOM     95  O   UNL     1      15.881 -23.672   7.906  1.00  0.00    -0.744 OA
ENDBRANCH  88  92
ENDBRANCH  62  85
ENDBRANCH  36  37
ENDBRANCH  29  31
ENDBRANCH  28  29
ENDBRANCH  27  28
ENDBRANCH   1  27
TORSDOF 20
