REMARK SMILES O=C(OCCOC(=O)c1nnn(-c2cccc(C(F)(F)F)c2)c1[C@H]1COc2ccccc2O1)c1ccc(-c2c3nc(c(-c4cc(S(=O)(=O)[O-])ccc4F)c4ccc([nH]4)c(-c4cc(S(=O)(=O)[O-])ccc4F)c4nc(c(-c5cc(S(=O)(=O)[O-])ccc5F)c5ccc2[nH]5)C=C4)C=C3)cc1
REMARK SMILES IDX 4 1 3 2 2 3 1 4 34 5 35 6 96 7 36 8 95 9 37 10 38 11 39 12
REMARK SMILES IDX 89 13 40 14 94 15 88 16 90 17 41 18 93 19 87 20 86 21 42 23
REMARK SMILES IDX 74 24 54 25 73 26 55 27 58 28 72 29 91 30 56 31 57 32 71 34
REMARK SMILES IDX 92 35 59 36 43 37 44 38 52 39 45 40 51 41 53 42 50 43 46 44
REMARK SMILES IDX 47 45 48 46 49 47 75 48 76 49 84 50 77 51 83 52 85 53 82 54
REMARK SMILES IDX 78 55 79 56 80 57 81 58 60 59 61 60 69 61 62 62 68 63 70 64
REMARK SMILES IDX 67 65 63 66 64 67 65 68 66 69 5 70 6 71 7 72 8 73 9 74 10 75
REMARK SMILES IDX 23 76 11 77 12 78 24 79 25 80 33 81 26 82 32 83 27 84 31 85
REMARK SMILES IDX 28 86 30 87 29 88 13 89 14 90 22 91 15 92 17 93 16 94 18 95
REMARK SMILES IDX 19 96 20 97 21 98
REMARK H PARENT 90 22 58 33
REMARK Flexibility Score: inf
ROOT
ATOM      1  C   UNL     1       8.423   3.517  -3.466  1.00  0.00     0.275 C 
ENDROOT
BRANCH   1   2
ATOM      2  O   UNL     1       9.270   2.986  -2.429  1.00  0.00    -0.458 OA
BRANCH   2   3
ATOM      3  C   UNL     1       9.052   1.730  -1.989  1.00  0.00     0.338 C 
ATOM      4  O   UNL     1       9.614   0.742  -2.450  1.00  0.00    -0.246 OA
BRANCH   3   5
ATOM      5  C   UNL     1       8.228   1.700  -0.763  1.00  0.00     0.060 A 
ATOM      6  C   UNL     1       7.290   2.698  -0.470  1.00  0.00     0.016 A 
ATOM      7  C   UNL     1       8.439   0.645   0.133  1.00  0.00     0.016 A 
ATOM      8  C   UNL     1       6.655   2.708   0.759  1.00  0.00     0.010 A 
ATOM      9  C   UNL     1       7.809   0.658   1.367  1.00  0.00     0.010 A 
ATOM     10  C   UNL     1       6.958   1.716   1.690  1.00  0.00    -0.014 A 
BRANCH  10  11
ATOM     11  C   UNL     1       6.300   1.776   2.986  1.00  0.00     0.031 A 
ATOM     12  C   UNL     1       4.853   1.436   2.970  1.00  0.00     0.074 A 
ATOM     13  C   UNL     1       6.979   2.000   4.128  1.00  0.00     0.049 A 
ATOM     14  N   UNL     1       3.852   2.195   3.270  1.00  0.00    -0.248 NA
ATOM     15  C   UNL     1       4.462   0.123   2.436  1.00  0.00     0.031 C 
ATOM     16  C   UNL     1       8.431   2.080   4.303  1.00  0.00     0.029 A 
ATOM     17  N   UNL     1       6.511   2.085   5.405  1.00  0.00    -0.354 N 
ATOM     18  C   UNL     1       2.716   1.392   3.182  1.00  0.00     0.074 A 
ATOM     19  C   UNL     1       3.132   0.194   2.503  1.00  0.00     0.031 C 
ATOM     20  C   UNL     1       8.727   1.958   5.617  1.00  0.00     0.029 A 
ATOM     21  C   UNL     1       7.489   1.922   6.381  1.00  0.00     0.049 A 
ATOM     22  H   UNL     1       5.564   2.248   5.618  1.00  0.00     0.167 HD
ATOM     23  C   UNL     1       1.577   1.692   3.867  1.00  0.00     0.034 A 
ATOM     24  C   UNL     1       7.294   1.693   7.709  1.00  0.00     0.034 A 
ATOM     25  C   UNL     1       1.583   3.065   4.313  1.00  0.00     0.049 A 
ATOM     26  C   UNL     1       5.923   2.163   8.033  1.00  0.00     0.074 A 
ATOM     27  C   UNL     1       1.661   4.290   3.679  1.00  0.00     0.029 A 
ATOM     28  N   UNL     1       1.868   3.318   5.636  1.00  0.00    -0.354 N 
ATOM     29  N   UNL     1       5.564   3.416   7.973  1.00  0.00    -0.248 NA
ATOM     30  C   UNL     1       4.830   1.205   7.945  1.00  0.00     0.031 C 
ATOM     31  C   UNL     1       2.485   5.087   4.527  1.00  0.00     0.029 A 
ATOM     32  C   UNL     1       2.792   4.332   5.661  1.00  0.00     0.049 A 
ATOM     33  H   UNL     1       1.481   2.859   6.417  1.00  0.00     0.167 HD
ATOM     34  C   UNL     1       4.300   3.401   7.403  1.00  0.00     0.074 A 
ATOM     35  C   UNL     1       3.859   2.010   7.501  1.00  0.00     0.031 C 
ATOM     36  C   UNL     1       3.847   4.447   6.650  1.00  0.00     0.034 A 
BRANCH  23  37
ATOM     37  C   UNL     1       0.614   0.677   4.445  1.00  0.00     0.023 A 
ATOM     38  C   UNL     1      -0.515   1.174   5.126  1.00  0.00     0.031 A 
ATOM     39  C   UNL     1       0.887  -0.696   4.633  1.00  0.00     0.131 A 
ATOM     40  C   UNL     1      -1.233   0.367   6.026  1.00  0.00     0.055 A 
ATOM     41  C   UNL     1       0.126  -1.514   5.475  1.00  0.00     0.041 A 
ATOM     42  F   UNL     1       1.951  -1.304   4.096  1.00  0.00    -0.206 F 
ATOM     43  C   UNL     1      -0.918  -0.976   6.206  1.00  0.00     0.022 A 
BRANCH  40  44
ATOM     44  S   UNL     1      -2.461   1.159   7.097  1.00  0.00     0.124 S 
ATOM     45  O   UNL     1      -1.668   2.209   7.725  1.00  0.00    -0.237 OA
ATOM     46  O   UNL     1      -3.463   1.597   6.130  1.00  0.00    -0.237 OA
ATOM     47  O   UNL     1      -2.882   0.077   7.984  1.00  0.00    -0.744 OA
ENDBRANCH  40  44
ENDBRANCH  23  37
BRANCH  24  48
ATOM     48  C   UNL     1       8.090   0.785   8.585  1.00  0.00     0.023 A 
ATOM     49  C   UNL     1       8.074   0.861   9.995  1.00  0.00     0.031 A 
ATOM     50  C   UNL     1       8.718  -0.350   8.023  1.00  0.00     0.131 A 
ATOM     51  C   UNL     1       8.675  -0.161  10.771  1.00  0.00     0.055 A 
ATOM     52  C   UNL     1       9.315  -1.351   8.792  1.00  0.00     0.041 A 
ATOM     53  F   UNL     1       8.699  -0.572   6.699  1.00  0.00    -0.206 F 
ATOM     54  C   UNL     1       9.289  -1.264  10.173  1.00  0.00     0.022 A 
BRANCH  51  55
ATOM     55  S   UNL     1       8.590  -0.119  12.593  1.00  0.00     0.124 S 
ATOM     56  O   UNL     1       9.452   1.010  12.920  1.00  0.00    -0.237 OA
ATOM     57  O   UNL     1       7.163   0.061  12.837  1.00  0.00    -0.237 OA
ATOM     58  O   UNL     1       9.115  -1.427  12.991  1.00  0.00    -0.744 OA
ENDBRANCH  51  55
ENDBRANCH  24  48
BRANCH  36  59
ATOM     59  C   UNL     1       4.620   5.750   6.672  1.00  0.00     0.023 A 
ATOM     60  C   UNL     1       5.980   5.889   6.309  1.00  0.00     0.031 A 
ATOM     61  C   UNL     1       3.894   6.923   6.944  1.00  0.00     0.131 A 
ATOM     62  C   UNL     1       6.561   7.171   6.240  1.00  0.00     0.055 A 
ATOM     63  C   UNL     1       4.468   8.190   6.854  1.00  0.00     0.041 A 
ATOM     64  F   UNL     1       2.591   6.859   7.263  1.00  0.00    -0.206 F 
ATOM     65  C   UNL     1       5.807   8.318   6.506  1.00  0.00     0.022 A 
BRANCH  62  66
ATOM     66  S   UNL     1       8.320   7.375   5.807  1.00  0.00     0.124 S 
ATOM     67  O   UNL     1       8.996   6.397   6.651  1.00  0.00    -0.237 OA
ATOM     68  O   UNL     1       8.326   7.098   4.373  1.00  0.00    -0.237 OA
ATOM     69  O   UNL     1       8.595   8.771   6.154  1.00  0.00    -0.744 OA
ENDBRANCH  62  66
ENDBRANCH  36  59
ENDBRANCH  10  11
ENDBRANCH   3   5
ENDBRANCH   2   3
ENDBRANCH   1   2
BRANCH   1  70
ATOM     70  C   UNL     1       7.771   2.512  -4.411  1.00  0.00     0.275 C 
BRANCH  70  71
ATOM     71  O   UNL     1       6.838   1.675  -3.706  1.00  0.00    -0.457 OA
BRANCH  71  72
ATOM     72  C   UNL     1       6.964   0.332  -3.900  1.00  0.00     0.361 C 
ATOM     73  O   UNL     1       7.795  -0.205  -4.647  1.00  0.00    -0.244 OA
BRANCH  72  74
ATOM     74  C   UNL     1       5.903  -0.409  -3.261  1.00  0.00     0.198 A 
ATOM     75  N   UNL     1       6.028  -1.156  -2.118  1.00  0.00    -0.122 NA
ATOM     76  C   UNL     1       4.597  -0.490  -3.713  1.00  0.00     0.123 A 
ATOM     77  N   UNL     1       4.844  -1.703  -1.850  1.00  0.00    -0.061 NA
ATOM     78  N   UNL     1       4.029  -1.432  -2.889  1.00  0.00    -0.213 N 
BRANCH  76  79
ATOM     79  C   UNL     1       3.870   0.250  -4.781  1.00  0.00     0.262 C 
ATOM     80  C   UNL     1       3.143   1.469  -4.199  1.00  0.00     0.281 C 
ATOM     81  O   UNL     1       4.868   0.603  -5.744  1.00  0.00    -0.477 OA
ATOM     82  O   UNL     1       2.551   2.254  -5.240  1.00  0.00    -0.485 OA
ATOM     83  C   UNL     1       4.618   1.767  -6.409  1.00  0.00     0.162 A 
ATOM     84  C   UNL     1       3.497   2.564  -6.180  1.00  0.00     0.161 A 
ATOM     85  C   UNL     1       5.578   2.157  -7.340  1.00  0.00     0.050 A 
ATOM     86  C   UNL     1       3.311   3.731  -6.914  1.00  0.00     0.050 A 
ATOM     87  C   UNL     1       5.415   3.346  -8.047  1.00  0.00     0.004 A 
ATOM     88  C   UNL     1       4.277   4.127  -7.842  1.00  0.00     0.004 A 
ENDBRANCH  76  79
BRANCH  78  89
ATOM     89  C   UNL     1       2.870  -2.181  -3.150  1.00  0.00     0.067 A 
ATOM     90  C   UNL     1       1.852  -2.262  -2.205  1.00  0.00     0.028 A 
ATOM     91  C   UNL     1       2.741  -2.778  -4.412  1.00  0.00     0.041 A 
ATOM     92  C   UNL     1       0.652  -2.874  -2.572  1.00  0.00     0.003 A 
ATOM     93  C   UNL     1       1.554  -3.418  -4.773  1.00  0.00     0.058 A 
ATOM     94  C   UNL     1       0.500  -3.439  -3.847  1.00  0.00     0.013 A 
BRANCH  93  95
ATOM     95  C   UNL     1       1.411  -4.045  -6.137  1.00  0.00     0.416 C 
ATOM     96  F   UNL     1       1.064  -5.360  -6.082  1.00  0.00    -0.166 F 
ATOM     97  F   UNL     1       0.457  -3.435  -6.893  1.00  0.00    -0.166 F 
ATOM     98  F   UNL     1       2.555  -3.994  -6.879  1.00  0.00    -0.166 F 
ENDBRANCH  93  95
ENDBRANCH  78  89
ENDBRANCH  72  74
ENDBRANCH  71  72
ENDBRANCH  70  71
ENDBRANCH   1  70
TORSDOF 17
