REMARK SMILES C[C@@H]1CCC[C@H]1NC(=O)c1csc(/C=C/C(=O)OCCOC(=O)c2ccc(-c3c4nc(c(-c5cc(S(=O)(=O)[O-])ccc5F)c5ccc([nH]5)c(-c5cc(S(=O)(=O)[O-])ccc5F)c5nc(c(-c6cc(S(=O)(=O)[O-])ccc6F)c6ccc3[nH]6)C=C5)C=C4)cc2)c1
REMARK SMILES IDX 19 1 18 2 16 3 17 4 15 5 14 6 13 7 10 8 11 9 87 10 12 11
REMARK SMILES IDX 8 12 7 13 9 15 6 16 1 17 2 18 3 19 4 20 5 21 20 22 21 23
REMARK SMILES IDX 22 24 23 25 24 26 25 27 86 28 26 29 85 30 27 31 28 32 29 33
REMARK SMILES IDX 79 34 30 35 84 36 78 37 80 38 31 39 83 40 77 41 76 42 32 44
REMARK SMILES IDX 64 45 44 46 63 47 45 48 48 49 62 50 81 51 46 52 47 53 61 55
REMARK SMILES IDX 82 56 49 57 33 58 34 59 42 60 35 61 41 62 43 63 40 64 36 65
REMARK SMILES IDX 37 66 38 67 39 68 65 69 66 70 74 71 67 72 73 73 75 74 72 75
REMARK SMILES IDX 68 76 69 77 70 78 71 79 50 80 51 81 59 82 52 83 58 84 60 85
REMARK SMILES IDX 57 86 53 87 54 88 55 89 56 90
REMARK H PARENT 7 14 80 43 48 54
REMARK Flexibility Score: inf
ROOT
ATOM      1  C   UNL     1       5.396   9.677   3.609  1.00  0.00     0.275 C 
ENDROOT
BRANCH   1   2
ATOM      2  O   UNL     1       4.376   8.699   3.337  1.00  0.00    -0.459 OA
BRANCH   2   3
ATOM      3  C   UNL     1       3.360   9.121   2.548  1.00  0.00     0.330 C 
ATOM      4  O   UNL     1       3.196  10.262   2.139  1.00  0.00    -0.247 OA
BRANCH   3   5
ATOM      5  C   UNL     1       2.440   8.034   2.162  1.00  0.00     0.095 C 
ATOM      6  C   UNL     1       2.526   6.757   2.566  1.00  0.00     0.026 C 
BRANCH   6   7
ATOM      7  C   UNL     1       1.617   5.748   2.116  1.00  0.00     0.028 A 
ATOM      8  C   UNL     1       0.306   3.766   2.056  1.00  0.00     0.051 A 
ATOM      9  C   UNL     1       0.008   4.349   0.841  1.00  0.00     0.079 A 
ATOM     10  C   UNL     1       1.220   4.604   2.790  1.00  0.00     0.033 A 
ATOM     11  S   UNL     1       0.884   5.783   0.557  1.00  0.00    -0.144 S 
BRANCH   8  12
ATOM     12  C   UNL     1      -0.296   2.548   2.588  1.00  0.00     0.252 C 
ATOM     13  N   UNL     1      -0.538   1.468   1.777  1.00  0.00    -0.349 N 
ATOM     14  H   UNL     1      -1.137   0.790   2.166  1.00  0.00     0.164 HD
ATOM     15  O   UNL     1      -0.591   2.450   3.779  1.00  0.00    -0.269 OA
BRANCH  13  16
ATOM     16  C   UNL     1      -0.056   1.155   0.432  1.00  0.00     0.085 C 
ATOM     17  C   UNL     1       1.799  -0.115  -0.751  1.00  0.00     0.010 C 
ATOM     18  C   UNL     1       0.868  -0.074   0.462  1.00  0.00     0.008 C 
ATOM     19  C   UNL     1      -0.110  -1.250   0.462  1.00  0.00     0.005 C 
ATOM     20  C   UNL     1      -1.285  -0.800  -0.400  1.00  0.00     0.002 C 
ATOM     21  C   UNL     1      -1.222   0.729  -0.464  1.00  0.00     0.025 C 
ENDBRANCH  13  16
ENDBRANCH   8  12
ENDBRANCH   6   7
ENDBRANCH   3   5
ENDBRANCH   2   3
ENDBRANCH   1   2
BRANCH   1  22
ATOM     22  C   UNL     1       6.628   9.470   2.720  1.00  0.00     0.275 C 
BRANCH  22  23
ATOM     23  O   UNL     1       6.353   9.745   1.335  1.00  0.00    -0.458 OA
BRANCH  23  24
ATOM     24  C   UNL     1       5.933   8.680   0.607  1.00  0.00     0.338 C 
ATOM     25  O   UNL     1       5.791   7.536   1.005  1.00  0.00    -0.246 OA
BRANCH  24  26
ATOM     26  C   UNL     1       5.544   9.123  -0.745  1.00  0.00     0.060 A 
ATOM     27  C   UNL     1       4.274   8.773  -1.215  1.00  0.00     0.016 A 
ATOM     28  C   UNL     1       6.432   9.826  -1.563  1.00  0.00     0.016 A 
ATOM     29  C   UNL     1       3.884   9.134  -2.504  1.00  0.00     0.010 A 
ATOM     30  C   UNL     1       6.040  10.182  -2.858  1.00  0.00     0.010 A 
ATOM     31  C   UNL     1       4.765   9.836  -3.339  1.00  0.00    -0.014 A 
BRANCH  31  32
ATOM     32  C   UNL     1       4.365  10.178  -4.727  1.00  0.00     0.031 A 
ATOM     33  C   UNL     1       4.912   9.386  -5.881  1.00  0.00     0.074 A 
ATOM     34  C   UNL     1       3.506  11.191  -4.949  1.00  0.00     0.049 A 
ATOM     35  N   UNL     1       4.750   9.572  -7.165  1.00  0.00    -0.248 NA
ATOM     36  C   UNL     1       5.753   8.230  -5.538  1.00  0.00     0.031 C 
ATOM     37  C   UNL     1       2.870  11.997  -3.906  1.00  0.00     0.029 A 
ATOM     38  N   UNL     1       3.023  11.718  -6.120  1.00  0.00    -0.354 N 
ATOM     39  C   UNL     1       5.465   8.556  -7.790  1.00  0.00     0.074 A 
ATOM     40  C   UNL     1       6.092   7.780  -6.738  1.00  0.00     0.031 C 
ATOM     41  C   UNL     1       2.081  12.918  -4.486  1.00  0.00     0.029 A 
ATOM     42  C   UNL     1       2.195  12.802  -5.938  1.00  0.00     0.049 A 
ATOM     43  H   UNL     1       3.247  11.354  -7.007  1.00  0.00     0.167 HD
ATOM     44  C   UNL     1       5.580   8.291  -9.115  1.00  0.00     0.034 A 
ATOM     45  C   UNL     1       1.623  13.626  -6.838  1.00  0.00     0.034 A 
ATOM     46  C   UNL     1       4.964   9.085 -10.152  1.00  0.00     0.049 A 
ATOM     47  C   UNL     1       1.865  13.384  -8.308  1.00  0.00     0.074 A 
ATOM     48  C   UNL     1       5.019   8.908 -11.524  1.00  0.00     0.029 A 
ATOM     49  N   UNL     1       4.189  10.217  -9.931  1.00  0.00    -0.354 N 
ATOM     50  N   UNL     1       2.556  12.427  -8.886  1.00  0.00    -0.248 NA
ATOM     51  C   UNL     1       1.255  14.335  -9.247  1.00  0.00     0.031 C 
ATOM     52  C   UNL     1       4.334   9.966 -12.133  1.00  0.00     0.029 A 
ATOM     53  C   UNL     1       3.791  10.766 -11.141  1.00  0.00     0.049 A 
ATOM     54  H   UNL     1       3.957  10.578  -9.045  1.00  0.00     0.167 HD
ATOM     55  C   UNL     1       2.438  12.648 -10.255  1.00  0.00     0.074 A 
ATOM     56  C   UNL     1       1.602  13.820 -10.418  1.00  0.00     0.031 C 
ATOM     57  C   UNL     1       2.967  11.943 -11.287  1.00  0.00     0.034 A 
BRANCH  44  58
ATOM     58  C   UNL     1       6.443   7.119  -9.514  1.00  0.00     0.023 A 
ATOM     59  C   UNL     1       6.095   5.798  -9.181  1.00  0.00     0.031 A 
ATOM     60  C   UNL     1       7.643   7.327 -10.219  1.00  0.00     0.131 A 
ATOM     61  C   UNL     1       6.967   4.745  -9.495  1.00  0.00     0.055 A 
ATOM     62  C   UNL     1       8.470   6.267 -10.592  1.00  0.00     0.041 A 
ATOM     63  F   UNL     1       8.036   8.568 -10.546  1.00  0.00    -0.206 F 
ATOM     64  C   UNL     1       8.141   4.967 -10.219  1.00  0.00     0.022 A 
BRANCH  61  65
ATOM     65  S   UNL     1       6.609   3.094  -8.833  1.00  0.00     0.124 S 
ATOM     66  O   UNL     1       6.601   3.348  -7.394  1.00  0.00    -0.237 OA
ATOM     67  O   UNL     1       5.317   2.786  -9.434  1.00  0.00    -0.237 OA
ATOM     68  O   UNL     1       7.728   2.283  -9.309  1.00  0.00    -0.744 OA
ENDBRANCH  61  65
ENDBRANCH  44  58
BRANCH  45  69
ATOM     69  C   UNL     1       0.810  14.793  -6.389  1.00  0.00     0.023 A 
ATOM     70  C   UNL     1      -0.551  14.898  -6.716  1.00  0.00     0.031 A 
ATOM     71  C   UNL     1       1.401  15.855  -5.681  1.00  0.00     0.131 A 
ATOM     72  C   UNL     1      -1.264  16.058  -6.377  1.00  0.00     0.055 A 
ATOM     73  C   UNL     1       0.674  16.982  -5.296  1.00  0.00     0.041 A 
ATOM     74  F   UNL     1       2.701  15.810  -5.348  1.00  0.00    -0.206 F 
ATOM     75  C   UNL     1      -0.665  17.095  -5.657  1.00  0.00     0.022 A 
BRANCH  72  76
ATOM     76  S   UNL     1      -2.967  16.238  -6.976  1.00  0.00     0.124 S 
ATOM     77  O   UNL     1      -2.790  16.107  -8.418  1.00  0.00    -0.237 OA
ATOM     78  O   UNL     1      -3.642  15.130  -6.309  1.00  0.00    -0.237 OA
ATOM     79  O   UNL     1      -3.352  17.570  -6.514  1.00  0.00    -0.744 OA
ENDBRANCH  72  76
ENDBRANCH  45  69
BRANCH  57  80
ATOM     80  C   UNL     1       2.617  12.402 -12.681  1.00  0.00     0.023 A 
ATOM     81  C   UNL     1       3.110  13.608 -13.208  1.00  0.00     0.031 A 
ATOM     82  C   UNL     1       1.773  11.620 -13.489  1.00  0.00     0.131 A 
ATOM     83  C   UNL     1       2.718  14.021 -14.491  1.00  0.00     0.055 A 
ATOM     84  C   UNL     1       1.428  12.011 -14.784  1.00  0.00     0.041 A 
ATOM     85  F   UNL     1       1.274  10.460 -13.035  1.00  0.00    -0.206 F 
ATOM     86  C   UNL     1       1.893  13.223 -15.287  1.00  0.00     0.022 A 
BRANCH  83  87
ATOM     87  S   UNL     1       3.249  15.651 -15.084  1.00  0.00     0.124 S 
ATOM     88  O   UNL     1       2.635  16.545 -14.108  1.00  0.00    -0.237 OA
ATOM     89  O   UNL     1       4.703  15.548 -15.027  1.00  0.00    -0.237 OA
ATOM     90  O   UNL     1       2.688  15.726 -16.432  1.00  0.00    -0.744 OA
ENDBRANCH  83  87
ENDBRANCH  57  80
ENDBRANCH  31  32
ENDBRANCH  24  26
ENDBRANCH  23  24
ENDBRANCH  22  23
ENDBRANCH   1  22
TORSDOF 17
