REMARK SMILES Cc1nnc(SCC2=C(C(=O)OCCOC(=O)c3ccc(-c4c5nc(c(-c6cc(S(=O)(=O)[O-])ccc6F)c6ccc([nH]6)c(-c6cc(S(=O)(=O)[O-])ccc6F)c6nc(c(-c7cc(S(=O)(=O)[O-])ccc7F)c7ccc4[nH]7)C=C6)C=C5)cc3)N3C(=O)[C@H](NC(=O)c4ccc(F)cc4F)[C@H]3SC2)s1
REMARK SMILES IDX 13 1 12 2 10 3 11 4 9 5 8 6 98 7 81 8 97 9 82 10 96 11 83 12
REMARK SMILES IDX 84 13 7 14 6 15 5 16 1 17 2 18 3 19 99 20 4 21 85 22 86 23
REMARK SMILES IDX 87 25 88 26 89 27 94 28 90 29 93 30 95 31 91 32 92 33 14 34
REMARK SMILES IDX 15 35 16 36 17 37 18 38 19 39 80 40 20 41 79 42 21 43 22 44
REMARK SMILES IDX 23 45 73 46 24 47 78 48 72 49 74 50 25 51 77 52 71 53 70 54
REMARK SMILES IDX 26 56 58 57 38 58 57 59 39 60 42 61 56 62 75 63 40 64 41 65
REMARK SMILES IDX 55 67 76 68 43 69 27 70 28 71 36 72 29 73 35 74 37 75 34 76
REMARK SMILES IDX 30 77 31 78 32 79 33 80 59 81 60 82 68 83 61 84 67 85 69 86
REMARK SMILES IDX 66 87 62 88 63 89 64 90 65 91 44 92 45 93 53 94 46 95 52 96
REMARK SMILES IDX 54 97 51 98 47 99 48 100 49 101 50 102
REMARK H PARENT 85 24 74 55 42 66
REMARK Flexibility Score: inf
ROOT
ATOM      1  C   UNL     1       3.182  -3.038  -2.258  1.00  0.00     0.275 C 
ENDROOT
BRANCH   1   2
ATOM      2  O   UNL     1       3.977  -2.657  -1.115  1.00  0.00    -0.457 OA
BRANCH   2   3
ATOM      3  C   UNL     1       3.352  -2.794   0.079  1.00  0.00     0.355 C 
ATOM      4  O   UNL     1       2.266  -3.324   0.274  1.00  0.00    -0.244 OA
BRANCH   3   5
ATOM      5  C   UNL     1       4.089  -2.130   1.196  1.00  0.00     0.132 C 
ATOM      6  C   UNL     1       4.427  -0.817   1.213  1.00  0.00    -0.019 C 
ATOM      7  C   UNL     1       5.089  -0.141   2.415  1.00  0.00     0.106 C 
ATOM      8  N   UNL     1       4.201  -2.853   2.335  1.00  0.00    -0.289 N 
ATOM      9  S   UNL     1       5.495  -1.188   3.846  1.00  0.00    -0.129 SA
ATOM     10  C   UNL     1       4.484  -4.112   2.714  1.00  0.00     0.253 C 
ATOM     11  C   UNL     1       4.064  -2.278   3.640  1.00  0.00     0.181 C 
ATOM     12  O   UNL     1       4.865  -5.068   2.090  1.00  0.00    -0.272 OA
ATOM     13  C   UNL     1       4.207  -3.723   4.226  1.00  0.00     0.206 C 
BRANCH   6  14
ATOM     14  C   UNL     1       4.248   0.116   0.030  1.00  0.00     0.111 C 
BRANCH  14  15
ATOM     15  S   UNL     1       3.095   1.472   0.394  1.00  0.00    -0.089 SA
BRANCH  15  16
ATOM     16  C   UNL     1       1.550   0.713   0.101  1.00  0.00     0.174 A 
ATOM     17  C   UNL     1      -2.190  -0.124   0.027  1.00  0.00     0.081 C 
ATOM     18  C   UNL     1      -0.716   0.036  -0.061  1.00  0.00     0.115 A 
ATOM     19  N   UNL     1       0.084  -0.729  -0.775  1.00  0.00    -0.143 NA
ATOM     20  S   UNL     1       0.087   1.317   0.755  1.00  0.00    -0.091 S 
ATOM     21  N   UNL     1       1.403  -0.333  -0.680  1.00  0.00    -0.132 NA
ENDBRANCH  15  16
ENDBRANCH  14  15
ENDBRANCH   6  14
BRANCH  13  22
ATOM     22  N   UNL     1       2.971  -4.365   4.770  1.00  0.00    -0.338 N 
ATOM     23  C   UNL     1       2.118  -3.929   5.753  1.00  0.00     0.254 C 
ATOM     24  H   UNL     1       2.733  -5.229   4.362  1.00  0.00     0.164 HD
ATOM     25  O   UNL     1       1.098  -4.542   6.034  1.00  0.00    -0.269 OA
BRANCH  23  26
ATOM     26  C   UNL     1       2.448  -2.711   6.493  1.00  0.00     0.075 A 
ATOM     27  C   UNL     1       3.250  -2.788   7.635  1.00  0.00     0.020 A 
ATOM     28  C   UNL     1       1.937  -1.486   6.068  1.00  0.00     0.138 A 
ATOM     29  C   UNL     1       3.583  -1.611   8.308  1.00  0.00     0.040 A 
ATOM     30  C   UNL     1       2.290  -0.312   6.719  1.00  0.00     0.079 A 
ATOM     31  F   UNL     1       1.155  -1.407   4.981  1.00  0.00    -0.206 F 
ATOM     32  C   UNL     1       3.116  -0.386   7.833  1.00  0.00     0.126 A 
ATOM     33  F   UNL     1       3.471   0.744   8.459  1.00  0.00    -0.207 F 
ENDBRANCH  23  26
ENDBRANCH  13  22
ENDBRANCH   3   5
ENDBRANCH   2   3
ENDBRANCH   1   2
BRANCH   1  34
ATOM     34  C   UNL     1       3.561  -4.427  -2.761  1.00  0.00     0.275 C 
BRANCH  34  35
ATOM     35  O   UNL     1       3.182  -5.398  -1.776  1.00  0.00    -0.458 OA
BRANCH  35  36
ATOM     36  C   UNL     1       4.102  -6.347  -1.482  1.00  0.00     0.338 C 
ATOM     37  O   UNL     1       5.155  -6.536  -2.069  1.00  0.00    -0.246 OA
BRANCH  36  38
ATOM     38  C   UNL     1       3.647  -7.149  -0.321  1.00  0.00     0.060 A 
ATOM     39  C   UNL     1       2.852  -6.582   0.673  1.00  0.00     0.016 A 
ATOM     40  C   UNL     1       4.121  -8.450  -0.152  1.00  0.00     0.016 A 
ATOM     41  C   UNL     1       2.672  -7.241   1.888  1.00  0.00     0.010 A 
ATOM     42  C   UNL     1       3.834  -9.155   1.026  1.00  0.00     0.010 A 
ATOM     43  C   UNL     1       3.167  -8.534   2.098  1.00  0.00    -0.014 A 
BRANCH  43  44
ATOM     44  C   UNL     1       3.093  -9.179   3.449  1.00  0.00     0.031 A 
ATOM     45  C   UNL     1       4.343  -9.758   4.075  1.00  0.00     0.074 A 
ATOM     46  C   UNL     1       1.946  -9.210   4.161  1.00  0.00     0.049 A 
ATOM     47  N   UNL     1       4.463 -10.587   5.082  1.00  0.00    -0.248 NA
ATOM     48  C   UNL     1       5.627  -9.371   3.470  1.00  0.00     0.031 C 
ATOM     49  C   UNL     1       0.669  -8.624   3.751  1.00  0.00     0.029 A 
ATOM     50  N   UNL     1       1.674  -9.741   5.401  1.00  0.00    -0.354 N 
ATOM     51  C   UNL     1       5.817 -10.903   5.160  1.00  0.00     0.074 A 
ATOM     52  C   UNL     1       6.479 -10.162   4.107  1.00  0.00     0.031 C 
ATOM     53  C   UNL     1      -0.219  -8.752   4.747  1.00  0.00     0.029 A 
ATOM     54  C   UNL     1       0.372  -9.555   5.810  1.00  0.00     0.049 A 
ATOM     55  H   UNL     1       2.348 -10.210   5.945  1.00  0.00     0.167 HD
ATOM     56  C   UNL     1       6.444 -11.742   6.024  1.00  0.00     0.034 A 
ATOM     57  C   UNL     1      -0.298 -10.028   6.880  1.00  0.00     0.034 A 
ATOM     58  C   UNL     1       5.785 -12.391   7.134  1.00  0.00     0.049 A 
ATOM     59  C   UNL     1       0.409 -10.963   7.823  1.00  0.00     0.074 A 
ATOM     60  C   UNL     1       6.322 -13.254   8.075  1.00  0.00     0.029 A 
ATOM     61  N   UNL     1       4.448 -12.223   7.473  1.00  0.00    -0.354 N 
ATOM     62  N   UNL     1       1.653 -11.384   7.793  1.00  0.00    -0.248 NA
ATOM     63  C   UNL     1      -0.389 -11.516   8.925  1.00  0.00     0.031 C 
ATOM     64  C   UNL     1       5.303 -13.639   8.955  1.00  0.00     0.029 A 
ATOM     65  C   UNL     1       4.142 -12.970   8.601  1.00  0.00     0.049 A 
ATOM     66  H   UNL     1       3.810 -11.655   6.983  1.00  0.00     0.167 HD
ATOM     67  C   UNL     1       1.780 -12.262   8.865  1.00  0.00     0.074 A 
ATOM     68  C   UNL     1       0.500 -12.277   9.545  1.00  0.00     0.031 C 
ATOM     69  C   UNL     1       2.853 -13.000   9.247  1.00  0.00     0.034 A 
BRANCH  56  70
ATOM     70  C   UNL     1       7.896 -12.064   5.758  1.00  0.00     0.023 A 
ATOM     71  C   UNL     1       8.919 -11.105   5.860  1.00  0.00     0.031 A 
ATOM     72  C   UNL     1       8.256 -13.368   5.366  1.00  0.00     0.131 A 
ATOM     73  C   UNL     1      10.236 -11.447   5.511  1.00  0.00     0.055 A 
ATOM     74  C   UNL     1       9.578 -13.720   5.092  1.00  0.00     0.041 A 
ATOM     75  F   UNL     1       7.322 -14.323   5.234  1.00  0.00    -0.206 F 
ATOM     76  C   UNL     1      10.576 -12.753   5.149  1.00  0.00     0.022 A 
BRANCH  73  77
ATOM     77  S   UNL     1      11.481 -10.131   5.412  1.00  0.00     0.124 S 
ATOM     78  O   UNL     1      10.896  -9.244   4.410  1.00  0.00    -0.237 OA
ATOM     79  O   UNL     1      11.509  -9.620   6.777  1.00  0.00    -0.237 OA
ATOM     80  O   UNL     1      12.690 -10.832   4.983  1.00  0.00    -0.744 OA
ENDBRANCH  73  77
ENDBRANCH  56  70
BRANCH  57  81
ATOM     81  C   UNL     1      -1.749  -9.722   7.058  1.00  0.00     0.023 A 
ATOM     82  C   UNL     1      -2.212  -9.005   8.173  1.00  0.00     0.031 A 
ATOM     83  C   UNL     1      -2.701 -10.181   6.128  1.00  0.00     0.131 A 
ATOM     84  C   UNL     1      -3.590  -8.792   8.343  1.00  0.00     0.055 A 
ATOM     85  C   UNL     1      -4.062  -9.914   6.270  1.00  0.00     0.041 A 
ATOM     86  F   UNL     1      -2.315 -10.885   5.051  1.00  0.00    -0.206 F 
ATOM     87  C   UNL     1      -4.515  -9.224   7.389  1.00  0.00     0.022 A 
BRANCH  84  88
ATOM     88  S   UNL     1      -4.174  -8.017   9.877  1.00  0.00     0.124 S 
ATOM     89  O   UNL     1      -3.677  -8.944  10.888  1.00  0.00    -0.237 OA
ATOM     90  O   UNL     1      -3.524  -6.712   9.830  1.00  0.00    -0.237 OA
ATOM     91  O   UNL     1      -5.626  -7.991   9.715  1.00  0.00    -0.744 OA
ENDBRANCH  84  88
ENDBRANCH  57  81
BRANCH  69  92
ATOM     92  C   UNL     1       2.673 -13.866  10.468  1.00  0.00     0.023 A 
ATOM     93  C   UNL     1       1.832 -14.992  10.449  1.00  0.00     0.031 A 
ATOM     94  C   UNL     1       3.314 -13.535  11.674  1.00  0.00     0.131 A 
ATOM     95  C   UNL     1       1.606 -15.715  11.630  1.00  0.00     0.055 A 
ATOM     96  C   UNL     1       3.127 -14.289  12.833  1.00  0.00     0.041 A 
ATOM     97  F   UNL     1       4.125 -12.468  11.746  1.00  0.00    -0.206 F 
ATOM     98  C   UNL     1       2.258 -15.377  12.819  1.00  0.00     0.022 A 
BRANCH  95  99
ATOM     99  S   UNL     1       0.372 -17.045  11.617  1.00  0.00     0.124 S 
ATOM    100  O   UNL     1      -0.831 -16.341  11.186  1.00  0.00    -0.237 OA
ATOM    101  O   UNL     1       0.939 -17.986  10.657  1.00  0.00    -0.237 OA
ATOM    102  O   UNL     1       0.355 -17.510  13.002  1.00  0.00    -0.744 OA
ENDBRANCH  95  99
ENDBRANCH  69  92
ENDBRANCH  43  44
ENDBRANCH  36  38
ENDBRANCH  35  36
ENDBRANCH  34  35
ENDBRANCH   1  34
TORSDOF 19
