REMARK SMILES O=C(CN1C(=O)/C(=C2\SC(N3CCN(c4ccccc4F)CC3)=[NH+]C2=O)c2ccccc21)OCCOC(=O)c1ccc(-c2c3nc(c(-c4cc(S(=O)(=O)[O-])ccc4F)c4ccc([nH]4)c(-c4cc(S(=O)(=O)[O-])ccc4F)c4nc(c(-c5cc(S(=O)(=O)[O-])ccc5F)c5ccc2[nH]5)C=C4)C=C3)cc1
REMARK SMILES IDX 35 1 34 2 33 3 2 4 1 5 3 6 4 7 5 8 32 9 6 10 7 11 27 12
REMARK SMILES IDX 31 13 8 14 28 15 30 16 9 17 25 18 29 19 10 20 24 21 26 22
REMARK SMILES IDX 11 23 12 25 23 26 13 27 22 28 14 29 15 30 16 31 20 32 17 33
REMARK SMILES IDX 19 34 21 35 18 36 36 37 37 38 38 39 39 40 40 41 101 42 41 43
REMARK SMILES IDX 100 44 42 45 43 46 44 47 94 48 45 49 99 50 93 51 95 52 46 53
REMARK SMILES IDX 98 54 92 55 91 56 47 58 79 59 59 60 78 61 60 62 63 63 77 64
REMARK SMILES IDX 96 65 61 66 62 67 76 69 97 70 64 71 48 72 49 73 57 74 50 75
REMARK SMILES IDX 56 76 58 77 55 78 51 79 52 80 53 81 54 82 80 83 81 84 89 85
REMARK SMILES IDX 82 86 88 87 90 88 87 89 83 90 84 91 85 92 86 93 65 94 66 95
REMARK SMILES IDX 74 96 67 97 73 98 75 99 72 100 68 101 69 102 70 103 71 104
REMARK H PARENT 24 24 95 57 63 68
REMARK Flexibility Score: inf
ROOT
ATOM      1  C   UNL     1       3.894  -1.775  -1.605  1.00  0.00     0.275 C 
ENDROOT
BRANCH   1   2
ATOM      2  C   UNL     1       3.434  -1.612  -0.148  1.00  0.00     0.274 C 
BRANCH   2   3
ATOM      3  O   UNL     1       2.283  -0.774   0.016  1.00  0.00    -0.461 OA
BRANCH   3   4
ATOM      4  C   UNL     1       2.452   0.426   0.642  1.00  0.00     0.326 C 
ATOM      5  O   UNL     1       1.750   0.733   1.600  1.00  0.00    -0.250 OA
BRANCH   4   6
ATOM      6  C   UNL     1       3.451   1.380  -0.020  1.00  0.00     0.248 C 
BRANCH   6   7
ATOM      7  N   UNL     1       4.282   2.077   0.918  1.00  0.00    -0.296 N 
ATOM      8  C   UNL     1       3.910   3.296   1.456  1.00  0.00     0.260 C 
ATOM      9  C   UNL     1       5.423   1.562   1.537  1.00  0.00     0.053 A 
ATOM     10  O   UNL     1       2.940   3.955   1.132  1.00  0.00    -0.269 OA
ATOM     11  C   UNL     1       4.982   3.605   2.474  1.00  0.00     0.071 C 
ATOM     12  C   UNL     1       5.798   2.386   2.599  1.00  0.00     0.012 A 
ATOM     13  C   UNL     1       6.097   0.392   1.239  1.00  0.00     0.027 A 
ATOM     14  C   UNL     1       5.153   4.845   2.954  1.00  0.00     0.122 C 
ATOM     15  C   UNL     1       6.704   1.907   3.529  1.00  0.00     0.011 A 
ATOM     16  C   UNL     1       7.040  -0.072   2.150  1.00  0.00     0.002 A 
ATOM     17  S   UNL     1       4.102   6.173   2.648  1.00  0.00     0.007 SA
ATOM     18  C   UNL     1       6.286   5.357   3.782  1.00  0.00     0.347 C 
ATOM     19  C   UNL     1       7.308   0.661   3.311  1.00  0.00     0.001 A 
ATOM     20  C   UNL     1       4.993   7.176   3.753  1.00  0.00     0.319 C 
ATOM     21  N   UNL     1       6.077   6.646   4.217  1.00  0.00    -0.200 N 
ATOM     22  O   UNL     1       7.298   4.718   4.037  1.00  0.00    -0.240 OA
ATOM     23  N   UNL     1       4.518   8.420   4.050  1.00  0.00    -0.252 N 
ATOM     24  H   UNL     1       6.694   7.119   4.822  1.00  0.00     0.316 HD
ATOM     25  C   UNL     1       3.112   8.846   3.867  1.00  0.00     0.258 C 
ATOM     26  C   UNL     1       5.420   9.500   4.469  1.00  0.00     0.258 C 
ATOM     27  C   UNL     1       2.567   9.567   5.117  1.00  0.00     0.162 C 
ATOM     28  C   UNL     1       4.909  10.194   5.739  1.00  0.00     0.162 C 
ATOM     29  N   UNL     1       3.512  10.583   5.599  1.00  0.00    -0.361 N 
BRANCH  29  30
ATOM     30  C   UNL     1       3.057  11.874   5.788  1.00  0.00     0.073 A 
ATOM     31  C   UNL     1       3.737  12.968   5.242  1.00  0.00     0.029 A 
ATOM     32  C   UNL     1       1.864  12.149   6.484  1.00  0.00     0.146 A 
ATOM     33  C   UNL     1       3.231  14.269   5.351  1.00  0.00     0.002 A 
ATOM     34  C   UNL     1       1.367  13.443   6.623  1.00  0.00     0.041 A 
ATOM     35  F   UNL     1       1.185  11.148   7.073  1.00  0.00    -0.205 F 
ATOM     36  C   UNL     1       2.047  14.507   6.043  1.00  0.00     0.003 A 
ENDBRANCH  29  30
ENDBRANCH   6   7
ENDBRANCH   4   6
ENDBRANCH   3   4
ENDBRANCH   2   3
ENDBRANCH   1   2
BRANCH   1  37
ATOM     37  O   UNL     1       3.778  -0.567  -2.373  1.00  0.00    -0.458 OA
BRANCH  37  38
ATOM     38  C   UNL     1       2.534  -0.327  -2.874  1.00  0.00     0.338 C 
ATOM     39  O   UNL     1       1.597  -1.106  -2.865  1.00  0.00    -0.246 OA
BRANCH  38  40
ATOM     40  C   UNL     1       2.425   1.115  -3.206  1.00  0.00     0.060 A 
ATOM     41  C   UNL     1       3.435   1.792  -3.895  1.00  0.00     0.016 A 
ATOM     42  C   UNL     1       1.303   1.816  -2.743  1.00  0.00     0.016 A 
ATOM     43  C   UNL     1       3.312   3.167  -4.133  1.00  0.00     0.010 A 
ATOM     44  C   UNL     1       1.192   3.193  -2.969  1.00  0.00     0.010 A 
ATOM     45  C   UNL     1       2.186   3.880  -3.680  1.00  0.00    -0.014 A 
BRANCH  45  46
ATOM     46  C   UNL     1       1.958   5.287  -4.106  1.00  0.00     0.031 A 
ATOM     47  C   UNL     1       2.160   6.457  -3.192  1.00  0.00     0.074 A 
ATOM     48  C   UNL     1       1.498   5.505  -5.354  1.00  0.00     0.049 A 
ATOM     49  N   UNL     1       2.023   7.731  -3.466  1.00  0.00    -0.248 NA
ATOM     50  C   UNL     1       2.562   6.176  -1.809  1.00  0.00     0.031 C 
ATOM     51  C   UNL     1       1.228   4.452  -6.329  1.00  0.00     0.029 A 
ATOM     52  N   UNL     1       1.166   6.667  -6.009  1.00  0.00    -0.354 N 
ATOM     53  C   UNL     1       2.330   8.409  -2.296  1.00  0.00     0.074 A 
ATOM     54  C   UNL     1       2.632   7.402  -1.299  1.00  0.00     0.031 C 
ATOM     55  C   UNL     1       0.776   5.012  -7.458  1.00  0.00     0.029 A 
ATOM     56  C   UNL     1       0.682   6.462  -7.279  1.00  0.00     0.049 A 
ATOM     57  H   UNL     1       1.265   7.560  -5.607  1.00  0.00     0.167 HD
ATOM     58  C   UNL     1       2.363   9.746  -2.082  1.00  0.00     0.034 A 
ATOM     59  C   UNL     1       0.203   7.324  -8.201  1.00  0.00     0.034 A 
ATOM     60  C   UNL     1       2.047  10.750  -3.072  1.00  0.00     0.049 A 
ATOM     61  C   UNL     1       0.214   8.804  -7.925  1.00  0.00     0.074 A 
ATOM     62  C   UNL     1       2.142  12.127  -2.941  1.00  0.00     0.029 A 
ATOM     63  N   UNL     1       1.550  10.509  -4.342  1.00  0.00    -0.354 N 
ATOM     64  N   UNL     1       0.638   9.436  -6.858  1.00  0.00    -0.248 NA
ATOM     65  C   UNL     1      -0.301   9.693  -8.978  1.00  0.00     0.031 C 
ATOM     66  C   UNL     1       1.612  12.716  -4.086  1.00  0.00     0.029 A 
ATOM     67  C   UNL     1       1.286  11.713  -4.981  1.00  0.00     0.049 A 
ATOM     68  H   UNL     1       1.407   9.618  -4.734  1.00  0.00     0.167 HD
ATOM     69  C   UNL     1       0.466  10.793  -7.119  1.00  0.00     0.074 A 
ATOM     70  C   UNL     1      -0.086  10.894  -8.453  1.00  0.00     0.031 C 
ATOM     71  C   UNL     1       0.747  11.848  -6.315  1.00  0.00     0.034 A 
BRANCH  58  72
ATOM     72  C   UNL     1       2.780  10.260  -0.729  1.00  0.00     0.023 A 
ATOM     73  C   UNL     1       1.885  11.052   0.015  1.00  0.00     0.031 A 
ATOM     74  C   UNL     1       4.113  10.169  -0.299  1.00  0.00     0.131 A 
ATOM     75  C   UNL     1       2.352  11.784   1.110  1.00  0.00     0.055 A 
ATOM     76  C   UNL     1       4.566  10.873   0.815  1.00  0.00     0.041 A 
ATOM     77  F   UNL     1       5.002   9.424  -0.976  1.00  0.00    -0.206 F 
ATOM     78  C   UNL     1       3.690  11.708   1.505  1.00  0.00     0.022 A 
BRANCH  75  79
ATOM     79  S   UNL     1       1.254  12.947   1.965  1.00  0.00     0.124 S 
ATOM     80  O   UNL     1       0.835  12.147   3.112  1.00  0.00    -0.237 OA
ATOM     81  O   UNL     1       2.145  14.067   2.256  1.00  0.00    -0.237 OA
ATOM     82  O   UNL     1       0.212  13.224   0.983  1.00  0.00    -0.744 OA
ENDBRANCH  75  79
ENDBRANCH  58  72
BRANCH  59  83
ATOM     83  C   UNL     1      -0.261   6.767  -9.503  1.00  0.00     0.023 A 
ATOM     84  C   UNL     1      -1.339   5.863  -9.549  1.00  0.00     0.031 A 
ATOM     85  C   UNL     1       0.470   6.992 -10.679  1.00  0.00     0.131 A 
ATOM     86  C   UNL     1      -1.583   5.138 -10.720  1.00  0.00     0.055 A 
ATOM     87  C   UNL     1       0.168   6.329 -11.869  1.00  0.00     0.041 A 
ATOM     88  F   UNL     1       1.513   7.838 -10.677  1.00  0.00    -0.206 F 
ATOM     89  C   UNL     1      -0.848   5.377 -11.886  1.00  0.00     0.022 A 
BRANCH  86  90
ATOM     90  S   UNL     1      -2.743   3.742 -10.719  1.00  0.00     0.124 S 
ATOM     91  O   UNL     1      -3.654   4.100 -11.801  1.00  0.00    -0.237 OA
ATOM     92  O   UNL     1      -1.849   2.619 -10.990  1.00  0.00    -0.237 OA
ATOM     93  O   UNL     1      -3.316   3.771  -9.377  1.00  0.00    -0.744 OA
ENDBRANCH  86  90
ENDBRANCH  59  83
BRANCH  71  94
ATOM     94  C   UNL     1       0.484  13.256  -6.805  1.00  0.00     0.023 A 
ATOM     95  C   UNL     1       1.546  14.181  -6.883  1.00  0.00     0.031 A 
ATOM     96  C   UNL     1      -0.823  13.736  -6.994  1.00  0.00     0.131 A 
ATOM     97  C   UNL     1       1.277  15.544  -7.073  1.00  0.00     0.055 A 
ATOM     98  C   UNL     1      -1.081  15.086  -7.241  1.00  0.00     0.041 A 
ATOM     99  F   UNL     1      -1.873  12.902  -6.920  1.00  0.00    -0.206 F 
ATOM    100  C   UNL     1      -0.030  16.000  -7.261  1.00  0.00     0.022 A 
BRANCH  97 101
ATOM    101  S   UNL     1       2.600  16.784  -6.973  1.00  0.00     0.124 S 
ATOM    102  O   UNL     1       2.510  17.431  -8.280  1.00  0.00    -0.237 OA
ATOM    103  O   UNL     1       2.169  17.602  -5.843  1.00  0.00    -0.237 OA
ATOM    104  O   UNL     1       3.808  15.995  -6.754  1.00  0.00    -0.744 OA
ENDBRANCH  97 101
ENDBRANCH  71  94
ENDBRANCH  45  46
ENDBRANCH  38  40
ENDBRANCH  37  38
ENDBRANCH   1  37
TORSDOF 16
