REMARK SMILES C[C@@H](NC(=O)CCCNC(=O)c1ccco1)C(=O)OCCOC(=O)c1ccc(-c2c3nc(c(-c4cc(S(=O)(=O)[O-])ccc4F)c4ccc([nH]4)c(-c4cc(S(=O)(=O)[O-])ccc4F)c4nc(c(-c5cc(S(=O)(=O)[O-])ccc5F)c5ccc2[nH]5)C=C4)C=C3)cc1
REMARK SMILES IDX 19 1 17 2 18 3 2 4 1 5 3 6 4 7 5 9 6 10 7 11 8 12 9 13 10 14
REMARK SMILES IDX 11 16 12 17 13 18 16 19 14 20 15 21 20 22 21 23 22 24 23 25
REMARK SMILES IDX 24 26 25 27 26 28 87 29 27 30 86 31 28 32 29 33 30 34 80 35
REMARK SMILES IDX 31 36 85 37 79 38 81 39 32 40 84 41 78 42 77 43 33 45 65 46
REMARK SMILES IDX 45 47 64 48 46 49 49 50 63 51 82 52 47 53 48 54 62 56 83 57
REMARK SMILES IDX 50 58 34 59 35 60 43 61 36 62 42 63 44 64 41 65 37 66 38 67
REMARK SMILES IDX 39 68 40 69 66 70 67 71 75 72 68 73 74 74 76 75 73 76 69 77
REMARK SMILES IDX 70 78 71 79 72 80 51 81 52 82 60 83 53 84 59 85 61 86 58 87
REMARK SMILES IDX 54 88 55 89 56 90 57 91
REMARK H PARENT 3 8 9 15 81 44 49 55
REMARK Flexibility Score: inf
ROOT
ATOM      1  O   UNL     1      -2.039   0.115  -2.119  1.00  0.00    -0.461 OA
ENDROOT
BRANCH   1   2
ATOM      2  C   UNL     1      -1.038   0.496  -2.955  1.00  0.00     0.328 C 
ATOM      3  O   UNL     1      -1.225   0.990  -4.062  1.00  0.00    -0.250 OA
BRANCH   2   4
ATOM      4  C   UNL     1       0.368   0.090  -2.456  1.00  0.00     0.189 C 
ATOM      5  C   UNL     1       0.825   0.440  -1.045  1.00  0.00     0.043 C 
BRANCH   4   6
ATOM      6  N   UNL     1       0.797  -1.270  -2.799  1.00  0.00    -0.343 N 
ATOM      7  C   UNL     1       0.345  -2.459  -2.305  1.00  0.00     0.220 C 
ATOM      8  H   UNL     1       1.508  -1.333  -3.477  1.00  0.00     0.164 HD
ATOM      9  O   UNL     1       1.130  -3.409  -2.262  1.00  0.00    -0.275 OA
BRANCH   7  10
ATOM     10  C   UNL     1      -1.122  -2.656  -1.983  1.00  0.00     0.102 C 
BRANCH  10  11
ATOM     11  C   UNL     1      -1.589  -2.897  -0.540  1.00  0.00     0.031 C 
BRANCH  11  12
ATOM     12  C   UNL     1      -1.249  -1.969   0.643  1.00  0.00     0.117 C 
BRANCH  12  13
ATOM     13  N   UNL     1      -1.994  -0.725   0.674  1.00  0.00    -0.349 N 
ATOM     14  C   UNL     1      -2.658  -0.091   1.712  1.00  0.00     0.286 C 
ATOM     15  H   UNL     1      -2.036  -0.252  -0.188  1.00  0.00     0.163 HD
ATOM     16  O   UNL     1      -3.529   0.732   1.420  1.00  0.00    -0.266 OA
BRANCH  14  17
ATOM     17  C   UNL     1      -2.364  -0.365   3.099  1.00  0.00     0.191 A 
ATOM     18  C   UNL     1      -1.254  -0.787   3.806  1.00  0.00     0.056 A 
ATOM     19  O   UNL     1      -3.354  -0.031   3.993  1.00  0.00    -0.459 OA
ATOM     20  C   UNL     1      -1.586  -0.692   5.185  1.00  0.00     0.043 A 
ATOM     21  C   UNL     1      -2.873  -0.219   5.241  1.00  0.00     0.196 A 
ENDBRANCH  14  17
ENDBRANCH  12  13
ENDBRANCH  11  12
ENDBRANCH  10  11
ENDBRANCH   7  10
ENDBRANCH   4   6
ENDBRANCH   2   4
ENDBRANCH   1   2
BRANCH   1  22
ATOM     22  C   UNL     1      -3.401   0.290  -2.582  1.00  0.00     0.274 C 
BRANCH  22  23
ATOM     23  C   UNL     1      -4.184   1.263  -1.700  1.00  0.00     0.275 C 
BRANCH  23  24
ATOM     24  O   UNL     1      -3.607   2.573  -1.695  1.00  0.00    -0.458 OA
BRANCH  24  25
ATOM     25  C   UNL     1      -2.480   2.683  -0.960  1.00  0.00     0.338 C 
ATOM     26  O   UNL     1      -1.896   1.830  -0.321  1.00  0.00    -0.246 OA
BRANCH  25  27
ATOM     27  C   UNL     1      -1.845   3.959  -1.195  1.00  0.00     0.060 A 
ATOM     28  C   UNL     1      -0.556   3.934  -1.741  1.00  0.00     0.016 A 
ATOM     29  C   UNL     1      -2.470   5.129  -0.784  1.00  0.00     0.016 A 
ATOM     30  C   UNL     1       0.134   5.114  -1.891  1.00  0.00     0.010 A 
ATOM     31  C   UNL     1      -1.794   6.318  -0.971  1.00  0.00     0.010 A 
ATOM     32  C   UNL     1      -0.507   6.303  -1.540  1.00  0.00    -0.014 A 
BRANCH  32  33
ATOM     33  C   UNL     1       0.122   7.579  -1.874  1.00  0.00     0.031 A 
ATOM     34  C   UNL     1       0.645   8.430  -0.775  1.00  0.00     0.074 A 
ATOM     35  C   UNL     1       0.083   7.939  -3.167  1.00  0.00     0.049 A 
ATOM     36  N   UNL     1       1.016   9.676  -0.812  1.00  0.00    -0.248 NA
ATOM     37  C   UNL     1       0.729   7.802   0.553  1.00  0.00     0.031 C 
ATOM     38  C   UNL     1      -0.422   7.096  -4.261  1.00  0.00     0.029 A 
ATOM     39  N   UNL     1       0.433   9.104  -3.781  1.00  0.00    -0.354 N 
ATOM     40  C   UNL     1       1.349  10.002   0.496  1.00  0.00     0.074 A 
ATOM     41  C   UNL     1       1.113   8.824   1.303  1.00  0.00     0.031 C 
ATOM     42  C   UNL     1      -0.360   7.781  -5.409  1.00  0.00     0.029 A 
ATOM     43  C   UNL     1       0.114   9.124  -5.117  1.00  0.00     0.049 A 
ATOM     44  H   UNL     1       0.870   9.853  -3.315  1.00  0.00     0.167 HD
ATOM     45  C   UNL     1       1.799  11.195   0.953  1.00  0.00     0.034 A 
ATOM     46  C   UNL     1       0.155  10.145  -5.988  1.00  0.00     0.034 A 
ATOM     47  C   UNL     1       1.966  12.330   0.075  1.00  0.00     0.049 A 
ATOM     48  C   UNL     1       0.633  11.464  -5.452  1.00  0.00     0.074 A 
ATOM     49  C   UNL     1       2.401  13.606   0.373  1.00  0.00     0.029 A 
ATOM     50  N   UNL     1       1.684  12.315  -1.292  1.00  0.00    -0.354 N 
ATOM     51  N   UNL     1       0.951  11.780  -4.215  1.00  0.00    -0.248 NA
ATOM     52  C   UNL     1       0.771  12.554  -6.416  1.00  0.00     0.031 C 
ATOM     53  C   UNL     1       2.324  14.374  -0.797  1.00  0.00     0.029 A 
ATOM     54  C   UNL     1       1.918  13.560  -1.847  1.00  0.00     0.049 A 
ATOM     55  H   UNL     1       1.363  11.529  -1.791  1.00  0.00     0.167 HD
ATOM     56  C   UNL     1       1.359  13.104  -4.253  1.00  0.00     0.074 A 
ATOM     57  C   UNL     1       1.254  13.517  -5.644  1.00  0.00     0.031 C 
ATOM     58  C   UNL     1       1.783  13.911  -3.245  1.00  0.00     0.034 A 
BRANCH  45  59
ATOM     59  C   UNL     1       2.049  11.316   2.438  1.00  0.00     0.023 A 
ATOM     60  C   UNL     1       2.975  10.491   3.105  1.00  0.00     0.031 A 
ATOM     61  C   UNL     1       1.288  12.204   3.220  1.00  0.00     0.131 A 
ATOM     62  C   UNL     1       3.046  10.501   4.507  1.00  0.00     0.055 A 
ATOM     63  C   UNL     1       1.429  12.272   4.609  1.00  0.00     0.041 A 
ATOM     64  F   UNL     1       0.367  12.998   2.653  1.00  0.00    -0.206 F 
ATOM     65  C   UNL     1       2.297  11.403   5.263  1.00  0.00     0.022 A 
BRANCH  62  66
ATOM     66  S   UNL     1       4.003   9.199   5.336  1.00  0.00     0.124 S 
ATOM     67  O   UNL     1       3.326   7.992   4.869  1.00  0.00    -0.237 OA
ATOM     68  O   UNL     1       5.349   9.417   4.817  1.00  0.00    -0.237 OA
ATOM     69  O   UNL     1       3.827   9.494   6.756  1.00  0.00    -0.744 OA
ENDBRANCH  62  66
ENDBRANCH  45  59
BRANCH  46  70
ATOM     70  C   UNL     1      -0.268   9.944  -7.399  1.00  0.00     0.023 A 
ATOM     71  C   UNL     1       0.662  10.029  -8.444  1.00  0.00     0.031 A 
ATOM     72  C   UNL     1      -1.597   9.614  -7.726  1.00  0.00     0.131 A 
ATOM     73  C   UNL     1       0.250   9.814  -9.768  1.00  0.00     0.055 A 
ATOM     74  C   UNL     1      -1.993   9.354  -9.040  1.00  0.00     0.041 A 
ATOM     75  F   UNL     1      -2.526   9.498  -6.763  1.00  0.00    -0.206 F 
ATOM     76  C   UNL     1      -1.067   9.463 -10.072  1.00  0.00     0.022 A 
BRANCH  73  77
ATOM     77  S   UNL     1       1.458  10.056 -11.099  1.00  0.00     0.124 S 
ATOM     78  O   UNL     1       1.900  11.424 -10.855  1.00  0.00    -0.237 OA
ATOM     79  O   UNL     1       2.432   9.006 -10.817  1.00  0.00    -0.237 OA
ATOM     80  O   UNL     1       0.668   9.862 -12.313  1.00  0.00    -0.744 OA
ENDBRANCH  73  77
ENDBRANCH  46  70
BRANCH  58  81
ATOM     81  C   UNL     1       2.207  15.296  -3.651  1.00  0.00     0.023 A 
ATOM     82  C   UNL     1       1.279  16.239  -4.119  1.00  0.00     0.031 A 
ATOM     83  C   UNL     1       3.562  15.661  -3.582  1.00  0.00     0.131 A 
ATOM     84  C   UNL     1       1.730  17.488  -4.564  1.00  0.00     0.055 A 
ATOM     85  C   UNL     1       3.994  16.930  -3.960  1.00  0.00     0.041 A 
ATOM     86  F   UNL     1       4.484  14.789  -3.145  1.00  0.00    -0.206 F 
ATOM     87  C   UNL     1       3.077  17.847  -4.469  1.00  0.00     0.022 A 
BRANCH  84  88
ATOM     88  S   UNL     1       0.544  18.597  -5.368  1.00  0.00     0.124 S 
ATOM     89  O   UNL     1       0.097  17.791  -6.500  1.00  0.00    -0.237 OA
ATOM     90  O   UNL     1      -0.442  18.818  -4.315  1.00  0.00    -0.237 OA
ATOM     91  O   UNL     1       1.351  19.764  -5.717  1.00  0.00    -0.744 OA
ENDBRANCH  84  88
ENDBRANCH  58  81
ENDBRANCH  32  33
ENDBRANCH  25  27
ENDBRANCH  24  25
ENDBRANCH  23  24
ENDBRANCH  22  23
ENDBRANCH   1  22
TORSDOF 20
