REMARK SMILES O=C(Cc1ccccc1)Nc1cccc(C(=O)Nc2ccccc2C(=O)OCCOC(=O)c2ccc(-c3c4nc(c(-c5cc(S(=O)(=O)[O-])ccc5F)c5ccc([nH]5)c(-c5cc(S(=O)(=O)[O-])ccc5F)c5nc(c(-c6cc(S(=O)(=O)[O-])ccc6F)c6ccc3[nH]6)C=C5)C=C4)cc2)c1
REMARK SMILES IDX 28 1 27 2 25 3 26 4 24 5 19 6 20 7 21 8 23 9 22 10 18 11
REMARK SMILES IDX 16 12 17 13 15 15 11 16 12 17 96 18 13 19 14 20 10 21 1 22
REMARK SMILES IDX 2 23 3 25 4 26 5 27 9 28 6 29 8 30 7 31 29 32 30 33 31 34
REMARK SMILES IDX 32 35 33 36 34 37 95 38 35 39 94 40 36 41 37 42 38 43 88 44
REMARK SMILES IDX 39 45 93 46 87 47 89 48 40 49 92 50 86 51 85 52 41 54 73 55
REMARK SMILES IDX 53 56 72 57 54 58 57 59 71 60 90 61 55 62 56 63 70 65 91 66
REMARK SMILES IDX 58 67 42 68 43 69 51 70 44 71 50 72 52 73 49 74 45 75 46 76
REMARK SMILES IDX 47 77 48 78 74 79 75 80 83 81 76 82 82 83 84 84 81 85 77 86
REMARK SMILES IDX 78 87 79 88 80 89 59 90 60 91 68 92 61 93 67 94 69 95 66 96
REMARK SMILES IDX 62 97 63 98 64 99 65 100
REMARK H PARENT 18 14 10 24 89 53 57 64
REMARK Flexibility Score: inf
ROOT
ATOM      1  C   UNL     1       2.309   1.648   5.800  1.00  0.00     0.275 C 
ENDROOT
BRANCH   1   2
ATOM      2  O   UNL     1       1.215   0.898   5.233  1.00  0.00    -0.458 OA
BRANCH   2   3
ATOM      3  C   UNL     1       1.388   0.578   3.929  1.00  0.00     0.340 C 
ATOM      4  O   UNL     1       2.394   0.787   3.272  1.00  0.00    -0.246 OA
BRANCH   3   5
ATOM      5  C   UNL     1       0.230  -0.140   3.370  1.00  0.00     0.083 A 
ATOM      6  C   UNL     1      -1.067   0.386   3.258  1.00  0.00     0.056 A 
ATOM      7  C   UNL     1      -2.075  -0.449   2.738  1.00  0.00     0.027 A 
ATOM      8  C   UNL     1      -1.790  -1.726   2.248  1.00  0.00     0.002 A 
ATOM      9  C   UNL     1       0.499  -1.440   2.900  1.00  0.00     0.018 A 
ATOM     10  C   UNL     1      -0.497  -2.220   2.320  1.00  0.00     0.001 A 
BRANCH   6  11
ATOM     11  N   UNL     1      -1.507   1.683   3.598  1.00  0.00    -0.321 N 
ATOM     12  C   UNL     1      -0.922   2.929   3.573  1.00  0.00     0.255 C 
ATOM     13  O   UNL     1      -1.477   3.849   4.177  1.00  0.00    -0.269 OA
ATOM     14  H   UNL     1      -2.436   1.701   3.924  1.00  0.00     0.170 HD
BRANCH  12  15
ATOM     15  C   UNL     1       0.291   3.239   2.776  1.00  0.00     0.042 A 
ATOM     16  C   UNL     1       1.867   2.721   1.016  1.00  0.00     0.041 A 
ATOM     17  C   UNL     1       2.726   3.711   1.509  1.00  0.00     0.026 A 
ATOM     18  C   UNL     1       0.609   2.553   1.599  1.00  0.00     0.040 A 
ATOM     19  C   UNL     1       2.349   4.499   2.597  1.00  0.00     0.003 A 
ATOM     20  C   UNL     1       1.141   4.250   3.243  1.00  0.00     0.014 A 
BRANCH  16  21
ATOM     21  N   UNL     1       2.388   1.839   0.050  1.00  0.00    -0.326 N 
ATOM     22  O   UNL     1       0.496   0.677  -0.645  1.00  0.00    -0.274 OA
ATOM     23  C   UNL     1       1.715   0.832  -0.623  1.00  0.00     0.228 C 
ATOM     24  H   UNL     1       3.340   1.952  -0.174  1.00  0.00     0.169 HD
BRANCH  23  25
ATOM     25  C   UNL     1       2.644  -0.166  -1.292  1.00  0.00     0.135 C 
BRANCH  25  26
ATOM     26  C   UNL     1       3.543   0.336  -2.398  1.00  0.00    -0.039 A 
ATOM     27  C   UNL     1       4.375  -0.604  -3.029  1.00  0.00     0.004 A 
ATOM     28  C   UNL     1       3.600   1.670  -2.829  1.00  0.00     0.004 A 
ATOM     29  C   UNL     1       5.241  -0.220  -4.051  1.00  0.00     0.000 A 
ATOM     30  C   UNL     1       4.493   2.058  -3.828  1.00  0.00     0.000 A 
ATOM     31  C   UNL     1       5.310   1.114  -4.439  1.00  0.00     0.000 A 
ENDBRANCH  25  26
ENDBRANCH  23  25
ENDBRANCH  16  21
ENDBRANCH  12  15
ENDBRANCH   6  11
ENDBRANCH   3   5
ENDBRANCH   2   3
ENDBRANCH   1   2
BRANCH   1  32
ATOM     32  C   UNL     1       3.420   0.760   6.369  1.00  0.00     0.275 C 
BRANCH  32  33
ATOM     33  O   UNL     1       4.166   0.108   5.323  1.00  0.00    -0.458 OA
BRANCH  33  34
ATOM     34  C   UNL     1       4.098  -1.243   5.302  1.00  0.00     0.338 C 
ATOM     35  O   UNL     1       3.520  -1.964   6.097  1.00  0.00    -0.246 OA
BRANCH  34  36
ATOM     36  C   UNL     1       4.852  -1.772   4.151  1.00  0.00     0.060 A 
ATOM     37  C   UNL     1       4.321  -1.657   2.867  1.00  0.00     0.016 A 
ATOM     38  C   UNL     1       6.019  -2.509   4.359  1.00  0.00     0.016 A 
ATOM     39  C   UNL     1       4.910  -2.318   1.798  1.00  0.00     0.010 A 
ATOM     40  C   UNL     1       6.656  -3.114   3.269  1.00  0.00     0.010 A 
ATOM     41  C   UNL     1       6.094  -3.037   1.983  1.00  0.00    -0.014 A 
BRANCH  41  42
ATOM     42  C   UNL     1       6.705  -3.728   0.822  1.00  0.00     0.031 A 
ATOM     43  C   UNL     1       6.721  -5.227   0.769  1.00  0.00     0.074 A 
ATOM     44  C   UNL     1       7.188  -3.002  -0.204  1.00  0.00     0.049 A 
ATOM     45  N   UNL     1       7.315  -6.019  -0.084  1.00  0.00    -0.248 NA
ATOM     46  C   UNL     1       5.969  -5.925   1.821  1.00  0.00     0.031 C 
ATOM     47  C   UNL     1       7.147  -1.540  -0.292  1.00  0.00     0.029 A 
ATOM     48  N   UNL     1       7.793  -3.387  -1.373  1.00  0.00    -0.354 N 
ATOM     49  C   UNL     1       7.051  -7.312   0.354  1.00  0.00     0.074 A 
ATOM     50  C   UNL     1       6.236  -7.193   1.545  1.00  0.00     0.031 C 
ATOM     51  C   UNL     1       7.678  -1.155  -1.462  1.00  0.00     0.029 A 
ATOM     52  C   UNL     1       8.173  -2.331  -2.169  1.00  0.00     0.049 A 
ATOM     53  H   UNL     1       7.940  -4.329  -1.619  1.00  0.00     0.167 HD
ATOM     54  C   UNL     1       7.471  -8.485  -0.185  1.00  0.00     0.034 A 
ATOM     55  C   UNL     1       8.883  -2.310  -3.314  1.00  0.00     0.034 A 
ATOM     56  C   UNL     1       8.281  -8.568  -1.377  1.00  0.00     0.049 A 
ATOM     57  C   UNL     1       9.386  -3.619  -3.863  1.00  0.00     0.074 A 
ATOM     58  C   UNL     1       8.798  -9.691  -1.999  1.00  0.00     0.029 A 
ATOM     59  N   UNL     1       8.695  -7.474  -2.128  1.00  0.00    -0.354 N 
ATOM     60  N   UNL     1       9.196  -4.833  -3.399  1.00  0.00    -0.248 NA
ATOM     61  C   UNL     1      10.217  -3.554  -5.070  1.00  0.00     0.031 C 
ATOM     62  C   UNL     1       9.570  -9.271  -3.090  1.00  0.00     0.029 A 
ATOM     63  C   UNL     1       9.488  -7.891  -3.187  1.00  0.00     0.049 A 
ATOM     64  H   UNL     1       8.459  -6.537  -1.937  1.00  0.00     0.167 HD
ATOM     65  C   UNL     1       9.908  -5.676  -4.245  1.00  0.00     0.074 A 
ATOM     66  C   UNL     1      10.488  -4.835  -5.275  1.00  0.00     0.031 C 
ATOM     67  C   UNL     1      10.085  -7.020  -4.172  1.00  0.00     0.034 A 
BRANCH  54  68
ATOM     68  C   UNL     1       7.141  -9.743   0.581  1.00  0.00     0.023 A 
ATOM     69  C   UNL     1       5.819 -10.191   0.751  1.00  0.00     0.031 A 
ATOM     70  C   UNL     1       8.167 -10.457   1.226  1.00  0.00     0.131 A 
ATOM     71  C   UNL     1       5.552 -11.268   1.612  1.00  0.00     0.055 A 
ATOM     72  C   UNL     1       7.901 -11.573   2.021  1.00  0.00     0.041 A 
ATOM     73  F   UNL     1       9.445 -10.061   1.121  1.00  0.00    -0.206 F 
ATOM     74  C   UNL     1       6.586 -11.974   2.233  1.00  0.00     0.022 A 
BRANCH  71  75
ATOM     75  S   UNL     1       3.826 -11.626   2.045  1.00  0.00     0.124 S 
ATOM     76  O   UNL     1       3.372 -10.333   2.551  1.00  0.00    -0.237 OA
ATOM     77  O   UNL     1       3.263 -12.047   0.767  1.00  0.00    -0.237 OA
ATOM     78  O   UNL     1       3.937 -12.677   3.055  1.00  0.00    -0.744 OA
ENDBRANCH  71  75
ENDBRANCH  54  68
BRANCH  55  79
ATOM     79  C   UNL     1       9.232  -1.011  -3.959  1.00  0.00     0.023 A 
ATOM     80  C   UNL     1       8.756  -0.677  -5.236  1.00  0.00     0.031 A 
ATOM     81  C   UNL     1      10.055  -0.079  -3.299  1.00  0.00     0.131 A 
ATOM     82  C   UNL     1       9.103   0.556  -5.813  1.00  0.00     0.055 A 
ATOM     83  C   UNL     1      10.362   1.162  -3.857  1.00  0.00     0.041 A 
ATOM     84  F   UNL     1      10.550  -0.353  -2.081  1.00  0.00    -0.206 F 
ATOM     85  C   UNL     1       9.887   1.485  -5.123  1.00  0.00     0.022 A 
BRANCH  82  86
ATOM     86  S   UNL     1       8.546   0.920  -7.501  1.00  0.00     0.124 S 
ATOM     87  O   UNL     1       9.195  -0.139  -8.264  1.00  0.00    -0.237 OA
ATOM     88  O   UNL     1       7.097   0.821  -7.373  1.00  0.00    -0.237 OA
ATOM     89  O   UNL     1       9.053   2.270  -7.741  1.00  0.00    -0.744 OA
ENDBRANCH  82  86
ENDBRANCH  55  79
BRANCH  67  90
ATOM     90  C   UNL     1      10.960  -7.636  -5.231  1.00  0.00     0.023 A 
ATOM     91  C   UNL     1      12.349  -7.419  -5.237  1.00  0.00     0.031 A 
ATOM     92  C   UNL     1      10.404  -8.428  -6.248  1.00  0.00     0.131 A 
ATOM     93  C   UNL     1      13.133  -7.950  -6.271  1.00  0.00     0.055 A 
ATOM     94  C   UNL     1      11.195  -8.994  -7.249  1.00  0.00     0.041 A 
ATOM     95  F   UNL     1       9.082  -8.662  -6.286  1.00  0.00    -0.206 F 
ATOM     96  C   UNL     1      12.566  -8.748  -7.269  1.00  0.00     0.022 A 
BRANCH  93  97
ATOM     97  S   UNL     1      14.896  -7.531  -6.331  1.00  0.00     0.124 S 
ATOM     98  O   UNL     1      14.856  -6.084  -6.513  1.00  0.00    -0.237 OA
ATOM     99  O   UNL     1      15.375  -7.998  -5.034  1.00  0.00    -0.237 OA
ATOM    100  O   UNL     1      15.389  -8.288  -7.481  1.00  0.00    -0.744 OA
ENDBRANCH  93  97
ENDBRANCH  67  90
ENDBRANCH  41  42
ENDBRANCH  34  36
ENDBRANCH  33  34
ENDBRANCH  32  33
ENDBRANCH   1  32
TORSDOF 19
