REMARK SMILES O=C(OCCOC(=O)c1cc(-c2ccoc2)nc2c(F)cccc12)c1ccc(-c2c3nc(c(-c4cc(S(=O)(=O)[O-])ccc4F)c4ccc([nH]4)c(-c4cc(S(=O)(=O)[O-])ccc4F)c4nc(c(-c5cc(S(=O)(=O)[O-])ccc5F)c5ccc2[nH]5)C=C4)C=C3)cc1
REMARK SMILES IDX 4 1 3 2 2 3 1 4 25 5 26 6 87 7 27 8 86 9 28 10 29 11 30 12
REMARK SMILES IDX 80 13 31 14 85 15 79 16 81 17 32 18 84 19 78 20 77 21 33 23
REMARK SMILES IDX 65 24 45 25 64 26 46 27 49 28 63 29 82 30 47 31 48 32 62 34
REMARK SMILES IDX 83 35 50 36 34 37 35 38 43 39 36 40 42 41 44 42 41 43 37 44
REMARK SMILES IDX 38 45 39 46 40 47 66 48 67 49 75 50 68 51 74 52 76 53 73 54
REMARK SMILES IDX 69 55 70 56 71 57 72 58 51 59 52 60 60 61 53 62 59 63 61 64
REMARK SMILES IDX 58 65 54 66 55 67 56 68 57 69 5 70 6 71 7 72 8 73 9 74 10 75
REMARK SMILES IDX 24 76 11 77 18 78 23 79 17 80 19 81 22 82 20 83 21 84 12 85
REMARK SMILES IDX 13 86 16 87 14 88 15 89
REMARK H PARENT 81 22 49 33
REMARK Flexibility Score: inf
ROOT
ATOM      1  C   UNL     1       4.051   1.636  -0.338  1.00  0.00     0.275 C 
ENDROOT
BRANCH   1   2
ATOM      2  O   UNL     1       3.070   0.787  -0.950  1.00  0.00    -0.458 OA
BRANCH   2   3
ATOM      3  C   UNL     1       2.970  -0.562  -0.940  1.00  0.00     0.338 C 
ATOM      4  O   UNL     1       2.030  -1.074  -1.548  1.00  0.00    -0.246 OA
BRANCH   3   5
ATOM      5  C   UNL     1       3.839  -1.465  -0.111  1.00  0.00     0.060 A 
ATOM      6  C   UNL     1       5.100  -1.184   0.410  1.00  0.00     0.016 A 
ATOM      7  C   UNL     1       3.279  -2.712   0.208  1.00  0.00     0.016 A 
ATOM      8  C   UNL     1       5.728  -2.066   1.294  1.00  0.00     0.010 A 
ATOM      9  C   UNL     1       3.868  -3.574   1.137  1.00  0.00     0.010 A 
ATOM     10  C   UNL     1       5.109  -3.254   1.687  1.00  0.00    -0.014 A 
BRANCH  10  11
ATOM     11  C   UNL     1       5.848  -4.206   2.548  1.00  0.00     0.031 A 
ATOM     12  C   UNL     1       6.357  -5.478   1.936  1.00  0.00     0.074 A 
ATOM     13  C   UNL     1       6.163  -3.884   3.819  1.00  0.00     0.049 A 
ATOM     14  N   UNL     1       7.128  -6.391   2.463  1.00  0.00    -0.248 NA
ATOM     15  C   UNL     1       5.991  -5.734   0.533  1.00  0.00     0.031 C 
ATOM     16  C   UNL     1       5.813  -2.628   4.481  1.00  0.00     0.029 A 
ATOM     17  N   UNL     1       6.857  -4.573   4.781  1.00  0.00    -0.354 N 
ATOM     18  C   UNL     1       7.402  -7.282   1.435  1.00  0.00     0.074 A 
ATOM     19  C   UNL     1       6.620  -6.871   0.291  1.00  0.00     0.031 C 
ATOM     20  C   UNL     1       6.253  -2.655   5.750  1.00  0.00     0.029 A 
ATOM     21  C   UNL     1       6.895  -3.934   6.000  1.00  0.00     0.049 A 
ATOM     22  H   UNL     1       7.288  -5.443   4.615  1.00  0.00     0.167 HD
ATOM     23  C   UNL     1       8.284  -8.308   1.426  1.00  0.00     0.034 A 
ATOM     24  C   UNL     1       7.381  -4.340   7.188  1.00  0.00     0.034 A 
ATOM     25  C   UNL     1       9.017  -8.730   2.589  1.00  0.00     0.049 A 
ATOM     26  C   UNL     1       8.168  -5.619   7.218  1.00  0.00     0.074 A 
ATOM     27  C   UNL     1       9.903  -9.783   2.717  1.00  0.00     0.029 A 
ATOM     28  N   UNL     1       8.928  -8.129   3.840  1.00  0.00    -0.354 N 
ATOM     29  N   UNL     1       8.442  -6.436   6.227  1.00  0.00    -0.248 NA
ATOM     30  C   UNL     1       8.767  -5.993   8.502  1.00  0.00     0.031 C 
ATOM     31  C   UNL     1      10.294  -9.861   4.058  1.00  0.00     0.029 A 
ATOM     32  C   UNL     1       9.717  -8.809   4.752  1.00  0.00     0.049 A 
ATOM     33  H   UNL     1       8.384  -7.335   4.046  1.00  0.00     0.167 HD
ATOM     34  C   UNL     1       9.296  -7.394   6.756  1.00  0.00     0.074 A 
ATOM     35  C   UNL     1       9.493  -7.043   8.151  1.00  0.00     0.031 C 
ATOM     36  C   UNL     1       9.882  -8.453   6.142  1.00  0.00     0.034 A 
BRANCH  23  37
ATOM     37  C   UNL     1       8.463  -9.029   0.116  1.00  0.00     0.023 A 
ATOM     38  C   UNL     1       8.999  -8.371  -1.008  1.00  0.00     0.031 A 
ATOM     39  C   UNL     1       8.033 -10.356  -0.036  1.00  0.00     0.131 A 
ATOM     40  C   UNL     1       9.021  -9.018  -2.252  1.00  0.00     0.055 A 
ATOM     41  C   UNL     1       8.129 -11.020  -1.261  1.00  0.00     0.041 A 
ATOM     42  F   UNL     1       7.485 -11.019   0.994  1.00  0.00    -0.206 F 
ATOM     43  C   UNL     1       8.612 -10.347  -2.381  1.00  0.00     0.022 A 
BRANCH  40  44
ATOM     44  S   UNL     1       9.457  -8.053  -3.726  1.00  0.00     0.124 S 
ATOM     45  O   UNL     1       8.397  -7.047  -3.744  1.00  0.00    -0.237 OA
ATOM     46  O   UNL     1      10.793  -7.565  -3.403  1.00  0.00    -0.237 OA
ATOM     47  O   UNL     1       9.395  -9.033  -4.808  1.00  0.00    -0.744 OA
ENDBRANCH  40  44
ENDBRANCH  23  37
BRANCH  24  48
ATOM     48  C   UNL     1       7.115  -3.573   8.439  1.00  0.00     0.023 A 
ATOM     49  C   UNL     1       8.140  -2.969   9.183  1.00  0.00     0.031 A 
ATOM     50  C   UNL     1       5.810  -3.528   8.963  1.00  0.00     0.131 A 
ATOM     51  C   UNL     1       7.850  -2.395  10.434  1.00  0.00     0.055 A 
ATOM     52  C   UNL     1       5.517  -2.908  10.179  1.00  0.00     0.041 A 
ATOM     53  F   UNL     1       4.795  -4.106   8.301  1.00  0.00    -0.206 F 
ATOM     54  C   UNL     1       6.545  -2.349  10.930  1.00  0.00     0.022 A 
BRANCH  51  55
ATOM     55  S   UNL     1       9.226  -1.813  11.465  1.00  0.00     0.124 S 
ATOM     56  O   UNL     1      10.061  -3.005  11.548  1.00  0.00    -0.237 OA
ATOM     57  O   UNL     1       9.753  -0.712  10.666  1.00  0.00    -0.237 OA
ATOM     58  O   UNL     1       8.573  -1.418  12.711  1.00  0.00    -0.744 OA
ENDBRANCH  51  55
ENDBRANCH  24  48
BRANCH  36  59
ATOM     59  C   UNL     1      10.828  -9.269   6.982  1.00  0.00     0.023 A 
ATOM     60  C   UNL     1      10.380  -9.981   8.107  1.00  0.00     0.031 A 
ATOM     61  C   UNL     1      12.202  -9.284   6.688  1.00  0.00     0.131 A 
ATOM     62  C   UNL     1      11.310 -10.598   8.951  1.00  0.00     0.055 A 
ATOM     63  C   UNL     1      13.113  -9.977   7.484  1.00  0.00     0.041 A 
ATOM     64  F   UNL     1      12.684  -8.613   5.629  1.00  0.00    -0.206 F 
ATOM     65  C   UNL     1      12.671 -10.622   8.636  1.00  0.00     0.022 A 
BRANCH  62  66
ATOM     66  S   UNL     1      10.730 -11.237  10.545  1.00  0.00     0.124 S 
ATOM     67  O   UNL     1      10.171 -10.038  11.162  1.00  0.00    -0.237 OA
ATOM     68  O   UNL     1       9.765 -12.255  10.142  1.00  0.00    -0.237 OA
ATOM     69  O   UNL     1      11.947 -11.748  11.171  1.00  0.00    -0.744 OA
ENDBRANCH  62  66
ENDBRANCH  36  59
ENDBRANCH  10  11
ENDBRANCH   3   5
ENDBRANCH   2   3
ENDBRANCH   1   2
BRANCH   1  70
ATOM     70  C   UNL     1       3.824   1.908   1.153  1.00  0.00     0.275 C 
BRANCH  70  71
ATOM     71  O   UNL     1       3.411   0.752   1.903  1.00  0.00    -0.458 OA
BRANCH  71  72
ATOM     72  C   UNL     1       2.077   0.627   2.124  1.00  0.00     0.339 C 
ATOM     73  O   UNL     1       1.202   1.403   1.768  1.00  0.00    -0.246 OA
BRANCH  72  74
ATOM     74  C   UNL     1       1.791  -0.666   2.781  1.00  0.00     0.071 A 
ATOM     75  C   UNL     1       0.955  -1.550   2.085  1.00  0.00     0.045 A 
ATOM     76  C   UNL     1       2.290  -0.986   4.066  1.00  0.00     0.018 A 
ATOM     77  C   UNL     1       0.693  -2.774   2.663  1.00  0.00     0.075 A 
ATOM     78  C   UNL     1       1.945  -2.260   4.565  1.00  0.00     0.107 A 
ATOM     79  C   UNL     1       3.066  -0.116   4.879  1.00  0.00     0.011 A 
ATOM     80  N   UNL     1       1.172  -3.120   3.874  1.00  0.00    -0.245 NA
ATOM     81  C   UNL     1       2.400  -2.618   5.832  1.00  0.00     0.149 A 
ATOM     82  C   UNL     1       3.481  -0.496   6.155  1.00  0.00     0.004 A 
ATOM     83  F   UNL     1       2.101  -3.829   6.328  1.00  0.00    -0.205 F 
ATOM     84  C   UNL     1       3.143  -1.754   6.631  1.00  0.00     0.041 A 
BRANCH  77  85
ATOM     85  C   UNL     1      -0.156  -3.780   2.055  1.00  0.00     0.038 A 
ATOM     86  C   UNL     1      -1.265  -4.463   2.628  1.00  0.00     0.052 A 
ATOM     87  C   UNL     1       0.049  -4.383   0.833  1.00  0.00     0.205 A 
ATOM     88  C   UNL     1      -1.675  -5.394   1.704  1.00  0.00     0.195 A 
ATOM     89  O   UNL     1      -0.884  -5.347   0.605  1.00  0.00    -0.472 OA
ENDBRANCH  77  85
ENDBRANCH  72  74
ENDBRANCH  71  72
ENDBRANCH  70  71
ENDBRANCH   1  70
TORSDOF 15
