REMARK SMILES O=C(OCCOC(=O)[C@@H]1CC[C@@]2(CCN(C(=O)OCc3ccccc3)C2)C1)c1ccc(-c2c3nc(c(-c4cc(S(=O)(=O)[O-])ccc4F)c4ccc([nH]4)c(-c4cc(S(=O)(=O)[O-])ccc4F)c4nc(c(-c5cc(S(=O)(=O)[O-])ccc5F)c5ccc2[nH]5)C=C4)C=C3)cc1
REMARK SMILES IDX 5 1 4 2 3 3 2 4 1 5 28 6 29 7 90 8 30 9 89 10 31 11 32 12
REMARK SMILES IDX 33 13 83 14 34 15 88 16 82 17 84 18 35 19 87 20 81 21 80 22
REMARK SMILES IDX 36 24 68 25 48 26 67 27 49 28 52 29 66 30 85 31 50 32 51 33
REMARK SMILES IDX 65 35 86 36 53 37 37 38 38 39 46 40 39 41 45 42 47 43 44 44
REMARK SMILES IDX 40 45 41 46 42 47 43 48 69 49 70 50 78 51 71 52 77 53 79 54
REMARK SMILES IDX 76 55 72 56 73 57 74 58 75 59 54 60 55 61 63 62 56 63 62 64
REMARK SMILES IDX 64 65 61 66 57 67 58 68 59 69 60 70 6 71 7 72 8 73 9 74
REMARK SMILES IDX 10 75 27 76 11 77 12 78 13 79 26 80 14 81 15 82 16 83 17 84
REMARK SMILES IDX 18 85 19 86 20 87 21 88 25 89 22 90 24 91 23 92
REMARK H PARENT 84 23 52 34
REMARK Flexibility Score: inf
ROOT
ATOM      1  C   UNL     1       3.521   2.285  -0.447  1.00  0.00     0.274 C 
ENDROOT
BRANCH   1   2
ATOM      2  C   UNL     1       4.145   1.211  -1.337  1.00  0.00     0.275 C 
BRANCH   2   3
ATOM      3  O   UNL     1       3.377  -0.006  -1.375  1.00  0.00    -0.458 OA
BRANCH   3   4
ATOM      4  C   UNL     1       3.502  -1.147  -0.656  1.00  0.00     0.338 C 
ATOM      5  O   UNL     1       2.878  -2.138  -1.037  1.00  0.00    -0.246 OA
BRANCH   4   6
ATOM      6  C   UNL     1       4.208  -1.237   0.665  1.00  0.00     0.060 A 
ATOM      7  C   UNL     1       5.309  -0.489   1.085  1.00  0.00     0.016 A 
ATOM      8  C   UNL     1       3.678  -2.168   1.574  1.00  0.00     0.016 A 
ATOM      9  C   UNL     1       5.798  -0.590   2.398  1.00  0.00     0.010 A 
ATOM     10  C   UNL     1       4.120  -2.228   2.898  1.00  0.00     0.010 A 
ATOM     11  C   UNL     1       5.194  -1.440   3.328  1.00  0.00    -0.014 A 
BRANCH  11  12
ATOM     12  C   UNL     1       5.773  -1.622   4.687  1.00  0.00     0.031 A 
ATOM     13  C   UNL     1       6.347  -2.969   5.043  1.00  0.00     0.074 A 
ATOM     14  C   UNL     1       5.797  -0.617   5.587  1.00  0.00     0.049 A 
ATOM     15  N   UNL     1       6.897  -3.373   6.158  1.00  0.00    -0.248 NA
ATOM     16  C   UNL     1       6.250  -4.012   4.010  1.00  0.00     0.031 C 
ATOM     17  C   UNL     1       5.240   0.722   5.385  1.00  0.00     0.029 A 
ATOM     18  N   UNL     1       6.317  -0.562   6.858  1.00  0.00    -0.354 N 
ATOM     19  C   UNL     1       7.214  -4.712   5.950  1.00  0.00     0.074 A 
ATOM     20  C   UNL     1       6.668  -5.080   4.664  1.00  0.00     0.031 C 
ATOM     21  C   UNL     1       5.462   1.467   6.482  1.00  0.00     0.029 A 
ATOM     22  C   UNL     1       6.172   0.663   7.472  1.00  0.00     0.049 A 
ATOM     23  H   UNL     1       6.755  -1.330   7.292  1.00  0.00     0.167 HD
ATOM     24  C   UNL     1       7.959  -5.545   6.716  1.00  0.00     0.034 A 
ATOM     25  C   UNL     1       6.583   1.088   8.686  1.00  0.00     0.034 A 
ATOM     26  C   UNL     1       8.512  -5.167   7.987  1.00  0.00     0.049 A 
ATOM     27  C   UNL     1       7.380   0.134   9.550  1.00  0.00     0.074 A 
ATOM     28  C   UNL     1       9.269  -5.920   8.865  1.00  0.00     0.029 A 
ATOM     29  N   UNL     1       8.367  -3.909   8.559  1.00  0.00    -0.354 N 
ATOM     30  N   UNL     1       7.724  -1.112   9.306  1.00  0.00    -0.248 NA
ATOM     31  C   UNL     1       7.872   0.650  10.834  1.00  0.00     0.031 C 
ATOM     32  C   UNL     1       9.553  -5.128   9.984  1.00  0.00     0.029 A 
ATOM     33  C   UNL     1       9.019  -3.864   9.778  1.00  0.00     0.049 A 
ATOM     34  H   UNL     1       7.873  -3.160   8.156  1.00  0.00     0.167 HD
ATOM     35  C   UNL     1       8.511  -1.507  10.386  1.00  0.00     0.074 A 
ATOM     36  C   UNL     1       8.600  -0.366  11.273  1.00  0.00     0.031 C 
ATOM     37  C   UNL     1       9.108  -2.702  10.628  1.00  0.00     0.034 A 
BRANCH  24  38
ATOM     38  C   UNL     1       8.201  -6.926   6.158  1.00  0.00     0.023 A 
ATOM     39  C   UNL     1       8.877  -7.094   4.934  1.00  0.00     0.031 A 
ATOM     40  C   UNL     1       7.647  -8.063   6.765  1.00  0.00     0.131 A 
ATOM     41  C   UNL     1       8.862  -8.339   4.291  1.00  0.00     0.055 A 
ATOM     42  C   UNL     1       7.728  -9.324   6.168  1.00  0.00     0.041 A 
ATOM     43  F   UNL     1       6.976  -7.963   7.923  1.00  0.00    -0.206 F 
ATOM     44  C   UNL     1       8.313  -9.463   4.911  1.00  0.00     0.022 A 
BRANCH  41  45
ATOM     45  S   UNL     1       9.379  -8.413   2.554  1.00  0.00     0.124 S 
ATOM     46  O   UNL     1       8.391  -7.543   1.919  1.00  0.00    -0.237 OA
ATOM     47  O   UNL     1      10.742  -7.897   2.605  1.00  0.00    -0.237 OA
ATOM     48  O   UNL     1       9.258  -9.830   2.221  1.00  0.00    -0.744 OA
ENDBRANCH  41  45
ENDBRANCH  24  38
BRANCH  25  49
ATOM     49  C   UNL     1       6.284   2.471   9.169  1.00  0.00     0.023 A 
ATOM     50  C   UNL     1       7.316   3.384   9.449  1.00  0.00     0.031 A 
ATOM     51  C   UNL     1       4.964   2.873   9.444  1.00  0.00     0.131 A 
ATOM     52  C   UNL     1       7.022   4.617  10.054  1.00  0.00     0.055 A 
ATOM     53  C   UNL     1       4.672   4.123   9.997  1.00  0.00     0.041 A 
ATOM     54  F   UNL     1       3.936   2.049   9.187  1.00  0.00    -0.206 F 
ATOM     55  C   UNL     1       5.705   4.995  10.324  1.00  0.00     0.022 A 
BRANCH  52  56
ATOM     56  S   UNL     1       8.397   5.674  10.591  1.00  0.00     0.124 S 
ATOM     57  O   UNL     1       9.162   4.761  11.434  1.00  0.00    -0.237 OA
ATOM     58  O   UNL     1       9.010   6.038   9.318  1.00  0.00    -0.237 OA
ATOM     59  O   UNL     1       7.731   6.766  11.297  1.00  0.00    -0.744 OA
ENDBRANCH  52  56
ENDBRANCH  25  49
BRANCH  37  60
ATOM     60  C   UNL     1       9.962  -2.804  11.865  1.00  0.00     0.023 A 
ATOM     61  C   UNL     1       9.402  -2.768  13.153  1.00  0.00     0.031 A 
ATOM     62  C   UNL     1      11.355  -2.952  11.748  1.00  0.00     0.131 A 
ATOM     63  C   UNL     1      10.239  -2.828  14.277  1.00  0.00     0.055 A 
ATOM     64  C   UNL     1      12.177  -3.069  12.869  1.00  0.00     0.041 A 
ATOM     65  F   UNL     1      11.939  -2.994  10.539  1.00  0.00    -0.206 F 
ATOM     66  C   UNL     1      11.620  -2.996  14.143  1.00  0.00     0.022 A 
BRANCH  63  67
ATOM     67  S   UNL     1       9.502  -2.610  15.919  1.00  0.00     0.124 S 
ATOM     68  O   UNL     1       8.902  -1.284  15.808  1.00  0.00    -0.237 OA
ATOM     69  O   UNL     1       8.568  -3.728  15.993  1.00  0.00    -0.237 OA
ATOM     70  O   UNL     1      10.648  -2.700  16.823  1.00  0.00    -0.744 OA
ENDBRANCH  63  67
ENDBRANCH  37  60
ENDBRANCH  11  12
ENDBRANCH   4   6
ENDBRANCH   3   4
ENDBRANCH   2   3
ENDBRANCH   1   2
BRANCH   1  71
ATOM     71  O   UNL     1       3.296   1.787   0.878  1.00  0.00    -0.462 OA
BRANCH  71  72
ATOM     72  C   UNL     1       2.024   1.855   1.375  1.00  0.00     0.309 C 
ATOM     73  O   UNL     1       1.068   2.368   0.815  1.00  0.00    -0.252 OA
BRANCH  72  74
ATOM     74  C   UNL     1       1.981   1.138   2.704  1.00  0.00     0.100 C 
ATOM     75  C   UNL     1       1.250  -0.190   2.625  1.00  0.00     0.016 C 
ATOM     76  C   UNL     1       1.243   1.826   3.855  1.00  0.00     0.024 C 
ATOM     77  C   UNL     1       1.304  -0.618   4.082  1.00  0.00     0.010 C 
ATOM     78  C   UNL     1       0.818   0.646   4.794  1.00  0.00    -0.009 C 
ATOM     79  C   UNL     1       1.343   0.816   6.235  1.00  0.00     0.030 C 
ATOM     80  C   UNL     1      -0.700   0.568   4.975  1.00  0.00     0.130 C 
ATOM     81  C   UNL     1       0.150   1.331   7.047  1.00  0.00     0.124 C 
ATOM     82  N   UNL     1      -0.929   1.448   6.082  1.00  0.00    -0.308 N 
BRANCH  82  83
ATOM     83  C   UNL     1      -1.834   2.466   6.000  1.00  0.00     0.410 C 
ATOM     84  O   UNL     1      -2.595   2.632   5.042  1.00  0.00    -0.224 OA
BRANCH  83  85
ATOM     85  O   UNL     1      -1.749   3.308   7.051  1.00  0.00    -0.445 OA
BRANCH  85  86
ATOM     86  C   UNL     1      -2.180   4.641   6.782  1.00  0.00     0.270 C 
BRANCH  86  87
ATOM     87  C   UNL     1      -0.947   5.447   6.457  1.00  0.00    -0.011 A 
ATOM     88  C   UNL     1      -0.032   5.761   7.472  1.00  0.00     0.007 A 
ATOM     89  C   UNL     1      -0.649   5.808   5.135  1.00  0.00     0.007 A 
ATOM     90  C   UNL     1       1.145   6.446   7.176  1.00  0.00     0.000 A 
ATOM     91  C   UNL     1       0.529   6.498   4.843  1.00  0.00     0.000 A 
ATOM     92  C   UNL     1       1.423   6.819   5.863  1.00  0.00     0.000 A 
ENDBRANCH  86  87
ENDBRANCH  85  86
ENDBRANCH  83  85
ENDBRANCH  82  83
ENDBRANCH  72  74
ENDBRANCH  71  72
ENDBRANCH   1  71
TORSDOF 18
