REMARK SMILES Cc1nsc(N(C)C(=O)[C@@H](C)NC(N)=O)c1C(=O)OCCOC(=O)c1ccc(-c2c3nc(c(-c4cc(S(=O)(=O)[O-])ccc4F)c4ccc([nH]4)c(-c4cc(S(=O)(=O)[O-])ccc4F)c4nc(c(-c5cc(S(=O)(=O)[O-])ccc5F)c5ccc2[nH]5)C=C4)C=C3)cc1
REMARK SMILES IDX 20 1 19 2 17 3 18 4 16 5 1 6 2 7 3 8 4 9 5 10 6 11 7 12 8 13
REMARK SMILES IDX 9 14 10 15 11 16 12 17 13 18 14 20 15 21 21 24 22 25 23 26
REMARK SMILES IDX 24 27 25 28 26 29 87 30 27 31 86 32 28 33 29 34 30 35 80 36
REMARK SMILES IDX 31 37 85 38 79 39 81 40 32 41 84 42 78 43 77 44 33 46 65 47
REMARK SMILES IDX 45 48 64 49 46 50 49 51 63 52 82 53 47 54 48 55 62 57 83 58
REMARK SMILES IDX 50 59 34 60 35 61 43 62 36 63 42 64 44 65 41 66 37 67 38 68
REMARK SMILES IDX 39 69 40 70 66 71 67 72 75 73 68 74 74 75 76 76 73 77 69 78
REMARK SMILES IDX 70 79 71 80 72 81 51 82 52 83 60 84 53 85 59 86 61 87 58 88
REMARK SMILES IDX 54 89 55 90 56 91 57 92
REMARK H PARENT 12 19 14 22 14 23 81 45 49 56
REMARK Flexibility Score: inf
ROOT
ATOM      1  C   UNL     1       4.407   1.291  -1.504  1.00  0.00     0.275 C 
ENDROOT
BRANCH   1   2
ATOM      2  O   UNL     1       3.157   1.300  -0.807  1.00  0.00    -0.458 OA
BRANCH   2   3
ATOM      3  C   UNL     1       3.023   2.164   0.237  1.00  0.00     0.343 C 
ATOM      4  O   UNL     1       3.947   2.513   0.971  1.00  0.00    -0.246 OA
BRANCH   3   5
ATOM      5  C   UNL     1       1.629   2.507   0.466  1.00  0.00     0.117 A 
ATOM      6  C   UNL     1       0.779   0.014   0.326  1.00  0.00     0.069 C 
ATOM      7  C   UNL     1       0.601   1.479   0.557  1.00  0.00     0.068 A 
ATOM      8  N   UNL     1      -0.617   1.890   0.893  1.00  0.00    -0.195 NA
ATOM      9  S   UNL     1      -0.617   3.522   0.969  1.00  0.00    -0.017 S 
ATOM     10  C   UNL     1       1.058   3.781   0.599  1.00  0.00     0.133 A 
BRANCH  10  11
ATOM     11  N   UNL     1       1.472   5.152   0.469  1.00  0.00    -0.303 N 
ATOM     12  C   UNL     1       0.559   6.237   0.851  1.00  0.00     0.154 C 
BRANCH  11  13
ATOM     13  C   UNL     1       2.678   5.434  -0.199  1.00  0.00     0.249 C 
ATOM     14  O   UNL     1       3.392   4.553  -0.687  1.00  0.00    -0.272 OA
BRANCH  13  15
ATOM     15  C   UNL     1       3.172   6.903  -0.415  1.00  0.00     0.170 C 
ATOM     16  C   UNL     1       2.296   7.795  -1.291  1.00  0.00     0.041 C 
BRANCH  15  17
ATOM     17  N   UNL     1       3.580   7.577   0.817  1.00  0.00    -0.327 N 
ATOM     18  C   UNL     1       4.874   7.933   1.044  1.00  0.00     0.312 C 
ATOM     19  H   UNL     1       2.901   7.777   1.501  1.00  0.00     0.166 HD
ATOM     20  N   UNL     1       5.050   8.562   2.229  1.00  0.00    -0.352 N 
ATOM     21  O   UNL     1       5.816   7.750   0.289  1.00  0.00    -0.249 OA
ATOM     22  H   UNL     1       4.283   8.704   2.830  1.00  0.00     0.161 HD
ATOM     23  H   UNL     1       5.945   8.878   2.491  1.00  0.00     0.161 HD
ENDBRANCH  15  17
ENDBRANCH  13  15
ENDBRANCH  11  13
ENDBRANCH  10  11
ENDBRANCH   3   5
ENDBRANCH   2   3
ENDBRANCH   1   2
BRANCH   1  24
ATOM     24  C   UNL     1       4.130   1.620  -2.963  1.00  0.00     0.275 C 
BRANCH  24  25
ATOM     25  O   UNL     1       3.693   2.968  -3.091  1.00  0.00    -0.458 OA
BRANCH  25  26
ATOM     26  C   UNL     1       2.361   3.195  -3.019  1.00  0.00     0.338 C 
ATOM     27  O   UNL     1       1.489   2.428  -2.652  1.00  0.00    -0.246 OA
BRANCH  26  28
ATOM     28  C   UNL     1       2.103   4.496  -3.654  1.00  0.00     0.060 A 
ATOM     29  C   UNL     1       0.781   4.945  -3.749  1.00  0.00     0.016 A 
ATOM     30  C   UNL     1       3.148   5.134  -4.340  1.00  0.00     0.016 A 
ATOM     31  C   UNL     1       0.485   5.934  -4.669  1.00  0.00     0.010 A 
ATOM     32  C   UNL     1       2.851   6.087  -5.276  1.00  0.00     0.010 A 
ATOM     33  C   UNL     1       1.517   6.427  -5.474  1.00  0.00    -0.014 A 
BRANCH  33  34
ATOM     34  C   UNL     1       1.220   7.386  -6.514  1.00  0.00     0.031 A 
ATOM     35  C   UNL     1       1.022   8.768  -6.008  1.00  0.00     0.074 A 
ATOM     36  C   UNL     1       1.324   7.049  -7.815  1.00  0.00     0.049 A 
ATOM     37  N   UNL     1      -0.043   9.493  -6.076  1.00  0.00    -0.248 NA
ATOM     38  C   UNL     1       2.085   9.364  -5.178  1.00  0.00     0.031 C 
ATOM     39  C   UNL     1       1.815   5.801  -8.409  1.00  0.00     0.029 A 
ATOM     40  N   UNL     1       1.096   7.823  -8.903  1.00  0.00    -0.354 N 
ATOM     41  C   UNL     1       0.278  10.716  -5.493  1.00  0.00     0.074 A 
ATOM     42  C   UNL     1       1.524  10.514  -4.808  1.00  0.00     0.031 C 
ATOM     43  C   UNL     1       2.058   5.996  -9.728  1.00  0.00     0.029 A 
ATOM     44  C   UNL     1       1.609   7.329 -10.097  1.00  0.00     0.049 A 
ATOM     45  H   UNL     1       0.603   8.674  -8.852  1.00  0.00     0.167 HD
ATOM     46  C   UNL     1      -0.419  11.846  -5.795  1.00  0.00     0.034 A 
ATOM     47  C   UNL     1       1.707   8.007 -11.275  1.00  0.00     0.034 A 
ATOM     48  C   UNL     1      -1.698  11.514  -6.381  1.00  0.00     0.049 A 
ATOM     49  C   UNL     1       0.738   9.136 -11.184  1.00  0.00     0.074 A 
ATOM     50  C   UNL     1      -2.803  10.820  -5.924  1.00  0.00     0.029 A 
ATOM     51  N   UNL     1      -1.809  11.516  -7.755  1.00  0.00    -0.354 N 
ATOM     52  N   UNL     1      -0.554   8.954 -11.092  1.00  0.00    -0.248 NA
ATOM     53  C   UNL     1       1.218  10.404 -10.648  1.00  0.00     0.031 C 
ATOM     54  C   UNL     1      -3.194  10.000  -7.024  1.00  0.00     0.029 A 
ATOM     55  C   UNL     1      -2.381  10.316  -8.116  1.00  0.00     0.049 A 
ATOM     56  H   UNL     1      -1.532  12.239  -8.363  1.00  0.00     0.167 HD
ATOM     57  C   UNL     1      -0.985   9.856 -10.130  1.00  0.00     0.074 A 
ATOM     58  C   UNL     1       0.141  10.775  -9.946  1.00  0.00     0.031 C 
ATOM     59  C   UNL     1      -2.082   9.608  -9.351  1.00  0.00     0.034 A 
BRANCH  46  60
ATOM     60  C   UNL     1       0.169  13.237  -5.861  1.00  0.00     0.023 A 
ATOM     61  C   UNL     1      -0.694  14.291  -6.221  1.00  0.00     0.031 A 
ATOM     62  C   UNL     1       1.548  13.549  -5.864  1.00  0.00     0.131 A 
ATOM     63  C   UNL     1      -0.186  15.530  -6.651  1.00  0.00     0.055 A 
ATOM     64  C   UNL     1       2.046  14.801  -6.235  1.00  0.00     0.041 A 
ATOM     65  F   UNL     1       2.498  12.645  -5.601  1.00  0.00    -0.206 F 
ATOM     66  C   UNL     1       1.181  15.792  -6.663  1.00  0.00     0.022 A 
BRANCH  63  67
ATOM     67  S   UNL     1      -1.337  16.736  -7.359  1.00  0.00     0.124 S 
ATOM     68  O   UNL     1      -2.020  15.938  -8.371  1.00  0.00    -0.237 OA
ATOM     69  O   UNL     1      -2.129  17.114  -6.194  1.00  0.00    -0.237 OA
ATOM     70  O   UNL     1      -0.456  17.779  -7.879  1.00  0.00    -0.744 OA
ENDBRANCH  63  67
ENDBRANCH  46  60
BRANCH  47  71
ATOM     71  C   UNL     1       2.865   7.976 -12.219  1.00  0.00     0.023 A 
ATOM     72  C   UNL     1       2.784   8.354 -13.578  1.00  0.00     0.031 A 
ATOM     73  C   UNL     1       4.167   7.773 -11.701  1.00  0.00     0.131 A 
ATOM     74  C   UNL     1       3.965   8.499 -14.353  1.00  0.00     0.055 A 
ATOM     75  C   UNL     1       5.325   7.920 -12.467  1.00  0.00     0.041 A 
ATOM     76  F   UNL     1       4.360   7.501 -10.401  1.00  0.00    -0.206 F 
ATOM     77  C   UNL     1       5.230   8.291 -13.797  1.00  0.00     0.022 A 
BRANCH  74  78
ATOM     78  S   UNL     1       3.884   9.032 -16.098  1.00  0.00     0.124 S 
ATOM     79  O   UNL     1       3.233   7.896 -16.740  1.00  0.00    -0.237 OA
ATOM     80  O   UNL     1       3.109  10.264 -16.016  1.00  0.00    -0.237 OA
ATOM     81  O   UNL     1       5.289   9.219 -16.465  1.00  0.00    -0.744 OA
ENDBRANCH  74  78
ENDBRANCH  47  71
BRANCH  59  82
ATOM     82  C   UNL     1      -2.942   8.393  -9.671  1.00  0.00     0.023 A 
ATOM     83  C   UNL     1      -2.482   7.053  -9.695  1.00  0.00     0.031 A 
ATOM     84  C   UNL     1      -4.323   8.603  -9.818  1.00  0.00     0.131 A 
ATOM     85  C   UNL     1      -3.397   5.991  -9.871  1.00  0.00     0.055 A 
ATOM     86  C   UNL     1      -5.226   7.550  -9.968  1.00  0.00     0.041 A 
ATOM     87  F   UNL     1      -4.830   9.846  -9.775  1.00  0.00    -0.206 F 
ATOM     88  C   UNL     1      -4.766   6.240 -10.001  1.00  0.00     0.022 A 
BRANCH  85  89
ATOM     89  S   UNL     1      -2.825   4.260  -9.954  1.00  0.00     0.124 S 
ATOM     90  O   UNL     1      -1.709   4.312 -10.890  1.00  0.00    -0.237 OA
ATOM     91  O   UNL     1      -2.481   3.974  -8.563  1.00  0.00    -0.237 OA
ATOM     92  O   UNL     1      -3.999   3.537 -10.448  1.00  0.00    -0.744 OA
ENDBRANCH  85  89
ENDBRANCH  59  82
ENDBRANCH  33  34
ENDBRANCH  26  28
ENDBRANCH  25  26
ENDBRANCH  24  25
ENDBRANCH   1  24
TORSDOF 18
