REMARK SMILES Cc1n[nH]c(CCC(=O)OCCOC(=O)c2ccc(-c3c4nc(c(-c5cc(S(=O)(=O)[O-])ccc5F)c5ccc([nH]5)c(-c5cc(S(=O)(=O)[O-])ccc5F)c5nc(c(-c6cc(S(=O)(=O)[O-])ccc6F)c6ccc3[nH]6)C=C5)C=C4)cc2)c1C
REMARK SMILES IDX 12 1 11 2 10 3 8 4 9 5 7 6 6 7 5 8 1 9 2 10 3 11 79 12 4 13
REMARK SMILES IDX 80 14 13 16 14 17 15 18 16 19 17 20 78 21 18 22 77 23 19 24
REMARK SMILES IDX 20 25 21 26 71 27 22 28 76 29 70 30 72 31 23 32 75 33 69 34
REMARK SMILES IDX 68 35 24 37 56 38 36 39 55 40 37 41 40 42 54 43 73 44 38 45
REMARK SMILES IDX 39 46 53 48 74 49 41 50 25 51 26 52 34 53 27 54 33 55 35 56
REMARK SMILES IDX 32 57 28 58 29 59 30 60 31 61 57 62 58 63 66 64 59 65 65 66
REMARK SMILES IDX 67 67 64 68 60 69 61 70 62 71 63 72 42 73 43 74 51 75 44 76
REMARK SMILES IDX 50 77 52 78 49 79 45 80 46 81 47 82 48 83
REMARK H PARENT 4 15 72 36 40 47
REMARK Flexibility Score: inf
ROOT
ATOM      1  C   UNL     1       2.882   4.307  -0.593  1.00  0.00     0.275 C 
ENDROOT
BRANCH   1   2
ATOM      2  C   UNL     1       3.594   3.336   0.348  1.00  0.00     0.274 C 
BRANCH   2   3
ATOM      3  O   UNL     1       2.776   2.963   1.472  1.00  0.00    -0.462 OA
BRANCH   3   4
ATOM      4  C   UNL     1       2.987   3.631   2.635  1.00  0.00     0.306 C 
ATOM      5  O   UNL     1       3.935   4.389   2.827  1.00  0.00    -0.252 OA
BRANCH   4   6
ATOM      6  C   UNL     1       1.988   3.295   3.735  1.00  0.00     0.129 C 
BRANCH   6   7
ATOM      7  C   UNL     1       0.520   2.993   3.391  1.00  0.00     0.067 C 
BRANCH   7   8
ATOM      8  C   UNL     1       0.349   1.697   2.679  1.00  0.00     0.039 A 
ATOM      9  C   UNL     1       0.609  -0.839   0.077  1.00  0.00     0.069 C 
ATOM     10  C   UNL     1       0.402  -0.007   1.286  1.00  0.00     0.062 A 
ATOM     11  N   UNL     1       0.565  -0.545   2.502  1.00  0.00    -0.181 NA
ATOM     12  C   UNL     1       0.122   1.385   1.351  1.00  0.00    -0.007 A 
ATOM     13  N   UNL     1       0.438   0.501   3.329  1.00  0.00    -0.282 N 
ATOM     14  C   UNL     1      -0.210   2.300   0.230  1.00  0.00     0.048 C 
ATOM     15  H   UNL     1       0.412   0.415   4.309  1.00  0.00     0.190 HD
ENDBRANCH   7   8
ENDBRANCH   6   7
ENDBRANCH   4   6
ENDBRANCH   3   4
ENDBRANCH   2   3
ENDBRANCH   1   2
BRANCH   1  16
ATOM     16  O   UNL     1       2.824   5.659  -0.123  1.00  0.00    -0.458 OA
BRANCH  16  17
ATOM     17  C   UNL     1       1.780   5.912   0.696  1.00  0.00     0.338 C 
ATOM     18  O   UNL     1       1.317   5.180   1.546  1.00  0.00    -0.246 OA
BRANCH  17  19
ATOM     19  C   UNL     1       1.030   7.091   0.289  1.00  0.00     0.060 A 
ATOM     20  C   UNL     1      -0.050   7.450   1.110  1.00  0.00     0.016 A 
ATOM     21  C   UNL     1       1.225   7.651  -0.976  1.00  0.00     0.016 A 
ATOM     22  C   UNL     1      -0.990   8.326   0.625  1.00  0.00     0.010 A 
ATOM     23  C   UNL     1       0.279   8.523  -1.462  1.00  0.00     0.010 A 
ATOM     24  C   UNL     1      -0.829   8.827  -0.668  1.00  0.00    -0.014 A 
BRANCH  24  25
ATOM     25  C   UNL     1      -1.753   9.852  -1.092  1.00  0.00     0.031 A 
ATOM     26  C   UNL     1      -1.545  11.143  -0.397  1.00  0.00     0.074 A 
ATOM     27  C   UNL     1      -2.604   9.704  -2.117  1.00  0.00     0.049 A 
ATOM     28  N   UNL     1      -2.336  11.730   0.436  1.00  0.00    -0.248 NA
ATOM     29  C   UNL     1      -0.214  11.764  -0.499  1.00  0.00     0.031 C 
ATOM     30  C   UNL     1      -2.691   8.600  -3.070  1.00  0.00     0.029 A 
ATOM     31  N   UNL     1      -3.492  10.610  -2.598  1.00  0.00    -0.354 N 
ATOM     32  C   UNL     1      -1.695  12.909   0.798  1.00  0.00     0.074 A 
ATOM     33  C   UNL     1      -0.331  12.766   0.371  1.00  0.00     0.031 C 
ATOM     34  C   UNL     1      -3.402   9.010  -4.144  1.00  0.00     0.029 A 
ATOM     35  C   UNL     1      -3.908  10.352  -3.894  1.00  0.00     0.049 A 
ATOM     36  H   UNL     1      -3.812  11.379  -2.073  1.00  0.00     0.167 HD
ATOM     37  C   UNL     1      -2.398  13.998   1.212  1.00  0.00     0.034 A 
ATOM     38  C   UNL     1      -4.521  11.235  -4.724  1.00  0.00     0.034 A 
ATOM     39  C   UNL     1      -3.748  13.632   1.584  1.00  0.00     0.049 A 
ATOM     40  C   UNL     1      -5.145  12.280  -3.864  1.00  0.00     0.074 A 
ATOM     41  C   UNL     1      -4.286  12.747   2.501  1.00  0.00     0.029 A 
ATOM     42  N   UNL     1      -4.770  13.912   0.702  1.00  0.00    -0.354 N 
ATOM     43  N   UNL     1      -6.114  12.031  -3.023  1.00  0.00    -0.248 NA
ATOM     44  C   UNL     1      -4.381  13.488  -3.572  1.00  0.00     0.031 C 
ATOM     45  C   UNL     1      -5.399  12.158   1.831  1.00  0.00     0.029 A 
ATOM     46  C   UNL     1      -5.523  12.769   0.581  1.00  0.00     0.049 A 
ATOM     47  H   UNL     1      -4.930  14.769   0.245  1.00  0.00     0.167 HD
ATOM     48  C   UNL     1      -5.811  12.770  -1.888  1.00  0.00     0.074 A 
ATOM     49  C   UNL     1      -4.798  13.729  -2.325  1.00  0.00     0.031 C 
ATOM     50  C   UNL     1      -6.187  12.352  -0.641  1.00  0.00     0.034 A 
BRANCH  37  51
ATOM     51  C   UNL     1      -1.995  15.431   0.944  1.00  0.00     0.023 A 
ATOM     52  C   UNL     1      -2.865  16.433   1.414  1.00  0.00     0.031 A 
ATOM     53  C   UNL     1      -1.001  15.863   0.035  1.00  0.00     0.131 A 
ATOM     54  C   UNL     1      -2.810  17.738   0.899  1.00  0.00     0.055 A 
ATOM     55  C   UNL     1      -0.903  17.182  -0.416  1.00  0.00     0.041 A 
ATOM     56  F   UNL     1      -0.128  15.032  -0.544  1.00  0.00    -0.206 F 
ATOM     57  C   UNL     1      -1.834  18.122  -0.014  1.00  0.00     0.022 A 
BRANCH  54  58
ATOM     58  S   UNL     1      -4.168  18.867   1.297  1.00  0.00     0.124 S 
ATOM     59  O   UNL     1      -5.331  18.066   0.927  1.00  0.00    -0.237 OA
ATOM     60  O   UNL     1      -3.964  19.088   2.724  1.00  0.00    -0.237 OA
ATOM     61  O   UNL     1      -3.908  20.022   0.441  1.00  0.00    -0.744 OA
ENDBRANCH  54  58
ENDBRANCH  37  51
BRANCH  38  62
ATOM     62  C   UNL     1      -4.285  11.376  -6.186  1.00  0.00     0.023 A 
ATOM     63  C   UNL     1      -5.168  12.075  -7.031  1.00  0.00     0.031 A 
ATOM     64  C   UNL     1      -3.043  10.992  -6.749  1.00  0.00     0.131 A 
ATOM     65  C   UNL     1      -4.805  12.349  -8.371  1.00  0.00     0.055 A 
ATOM     66  C   UNL     1      -2.696  11.250  -8.076  1.00  0.00     0.041 A 
ATOM     67  F   UNL     1      -2.082  10.425  -6.004  1.00  0.00    -0.206 F 
ATOM     68  C   UNL     1      -3.575  11.939  -8.892  1.00  0.00     0.022 A 
BRANCH  65  69
ATOM     69  S   UNL     1      -5.895  13.348  -9.433  1.00  0.00     0.124 S 
ATOM     70  O   UNL     1      -6.982  12.419  -9.719  1.00  0.00    -0.237 OA
ATOM     71  O   UNL     1      -6.217  14.482  -8.575  1.00  0.00    -0.237 OA
ATOM     72  O   UNL     1      -5.045  13.672 -10.580  1.00  0.00    -0.744 OA
ENDBRANCH  65  69
ENDBRANCH  38  62
BRANCH  50  73
ATOM     73  C   UNL     1      -7.181  11.214  -0.520  1.00  0.00     0.023 A 
ATOM     74  C   UNL     1      -7.007   9.931  -1.087  1.00  0.00     0.031 A 
ATOM     75  C   UNL     1      -8.287  11.402   0.330  1.00  0.00     0.131 A 
ATOM     76  C   UNL     1      -7.926   8.901  -0.805  1.00  0.00     0.055 A 
ATOM     77  C   UNL     1      -9.182  10.375   0.625  1.00  0.00     0.041 A 
ATOM     78  F   UNL     1      -8.492  12.588   0.927  1.00  0.00    -0.206 F 
ATOM     79  C   UNL     1      -9.009   9.121   0.052  1.00  0.00     0.022 A 
BRANCH  76  80
ATOM     80  S   UNL     1      -7.736   7.254  -1.560  1.00  0.00     0.124 S 
ATOM     81  O   UNL     1      -7.487   7.547  -2.966  1.00  0.00    -0.237 OA
ATOM     82  O   UNL     1      -6.613   6.692  -0.814  1.00  0.00    -0.237 OA
ATOM     83  O   UNL     1      -9.023   6.608  -1.292  1.00  0.00    -0.744 OA
ENDBRANCH  76  80
ENDBRANCH  50  73
ENDBRANCH  24  25
ENDBRANCH  17  19
ENDBRANCH  16  17
ENDBRANCH   1  16
TORSDOF 16
