REMARK SMILES Nc1nc(CC(=O)NC2(CC(=O)OCCOC(=O)c3ccc(-c4c5nc(c(-c6cc(S(=O)(=O)[O-])ccc6F)c6ccc([nH]6)c(-c6cc(S(=O)(=O)[O-])ccc6F)c6nc(c(-c7cc(S(=O)(=O)[O-])ccc7F)c7ccc4[nH]7)C=C6)C=C5)cc3)CCC2)cs1
REMARK SMILES IDX 14 1 13 2 11 3 12 4 10 5 9 6 82 7 84 8 83 9 8 10 6 11 7 12
REMARK SMILES IDX 5 14 4 15 2 16 3 17 86 18 85 19 1 20 15 23 16 24 17 25 18 26
REMARK SMILES IDX 19 27 20 28 81 29 21 30 80 31 22 32 23 33 24 34 74 35 25 36
REMARK SMILES IDX 79 37 73 38 75 39 26 40 78 41 72 42 71 43 27 45 59 46 39 47
REMARK SMILES IDX 58 48 40 49 43 50 57 51 76 52 41 53 42 54 56 56 77 57 44 58
REMARK SMILES IDX 28 59 29 60 37 61 30 62 36 63 38 64 35 65 31 66 32 67 33 68
REMARK SMILES IDX 34 69 60 70 61 71 69 72 62 73 68 74 70 75 67 76 63 77 64 78
REMARK SMILES IDX 65 79 66 80 45 81 46 82 54 83 47 84 53 85 55 86 52 87 48 88
REMARK SMILES IDX 49 89 50 90 51 91
REMARK H PARENT 8 13 1 21 1 22 75 44 43 55
REMARK Flexibility Score: inf
ROOT
ATOM      1  C   UNL     1      -1.402  -6.358   0.388  1.00  0.00     0.274 C 
ENDROOT
BRANCH   1   2
ATOM      2  O   UNL     1      -0.848  -5.400   1.317  1.00  0.00    -0.462 OA
BRANCH   2   3
ATOM      3  C   UNL     1      -0.180  -4.365   0.744  1.00  0.00     0.308 C 
ATOM      4  O   UNL     1      -0.026  -4.221  -0.464  1.00  0.00    -0.252 OA
BRANCH   3   5
ATOM      5  C   UNL     1       0.484  -3.470   1.748  1.00  0.00     0.151 C 
BRANCH   5   6
ATOM      6  C   UNL     1      -0.277  -3.022   2.995  1.00  0.00     0.050 C 
ATOM      7  C   UNL     1       0.440  -1.905   3.829  1.00  0.00     0.029 C 
ATOM      8  C   UNL     1      -0.046  -3.946   4.241  1.00  0.00     0.029 C 
ATOM      9  C   UNL     1       1.091  -3.005   4.678  1.00  0.00     0.005 C 
BRANCH   6  10
ATOM     10  N   UNL     1      -1.715  -2.704   2.833  1.00  0.00    -0.350 N 
ATOM     11  C   UNL     1      -2.311  -1.657   2.187  1.00  0.00     0.226 C 
ATOM     12  O   UNL     1      -3.409  -1.284   2.607  1.00  0.00    -0.275 OA
ATOM     13  H   UNL     1      -2.335  -3.343   3.255  1.00  0.00     0.164 HD
BRANCH  11  14
ATOM     14  C   UNL     1      -1.734  -1.107   0.919  1.00  0.00     0.157 C 
BRANCH  14  15
ATOM     15  C   UNL     1      -0.742  -0.013   0.986  1.00  0.00     0.063 A 
ATOM     16  C   UNL     1       1.245   0.804   0.442  1.00  0.00     0.180 A 
ATOM     17  N   UNL     1       0.564  -0.299   0.614  1.00  0.00    -0.225 NA
ATOM     18  S   UNL     1       0.401   2.249   0.808  1.00  0.00    -0.106 S 
ATOM     19  C   UNL     1      -1.008   1.333   1.147  1.00  0.00     0.093 A 
BRANCH  16  20
ATOM     20  N   UNL     1       2.500   0.809  -0.019  1.00  0.00    -0.375 N 
ATOM     21  H   UNL     1       2.955  -0.041  -0.219  1.00  0.00     0.159 HD
ATOM     22  H   UNL     1       2.970   1.663  -0.159  1.00  0.00     0.159 HD
ENDBRANCH  16  20
ENDBRANCH  14  15
ENDBRANCH  11  14
ENDBRANCH   6  10
ENDBRANCH   5   6
ENDBRANCH   3   5
ENDBRANCH   2   3
ENDBRANCH   1   2
BRANCH   1  23
ATOM     23  C   UNL     1      -2.909  -6.163   0.246  1.00  0.00     0.275 C 
BRANCH  23  24
ATOM     24  O   UNL     1      -3.180  -4.900  -0.379  1.00  0.00    -0.458 OA
BRANCH  24  25
ATOM     25  C   UNL     1      -4.434  -4.414  -0.178  1.00  0.00     0.338 C 
ATOM     26  O   UNL     1      -5.313  -4.968   0.459  1.00  0.00    -0.246 OA
BRANCH  25  27
ATOM     27  C   UNL     1      -4.593  -3.087  -0.836  1.00  0.00     0.060 A 
ATOM     28  C   UNL     1      -3.513  -2.419  -1.407  1.00  0.00     0.016 A 
ATOM     29  C   UNL     1      -5.843  -2.460  -0.833  1.00  0.00     0.016 A 
ATOM     30  C   UNL     1      -3.663  -1.101  -1.858  1.00  0.00     0.010 A 
ATOM     31  C   UNL     1      -6.007  -1.183  -1.401  1.00  0.00     0.010 A 
ATOM     32  C   UNL     1      -4.912  -0.461  -1.903  1.00  0.00    -0.014 A 
BRANCH  32  33
ATOM     33  C   UNL     1      -5.072   0.926  -2.472  1.00  0.00     0.031 A 
ATOM     34  C   UNL     1      -5.911   1.975  -1.769  1.00  0.00     0.074 A 
ATOM     35  C   UNL     1      -4.476   1.276  -3.636  1.00  0.00     0.049 A 
ATOM     36  N   UNL     1      -6.425   3.084  -2.245  1.00  0.00    -0.248 NA
ATOM     37  C   UNL     1      -6.221   1.741  -0.351  1.00  0.00     0.031 C 
ATOM     38  C   UNL     1      -3.575   0.433  -4.423  1.00  0.00     0.029 A 
ATOM     39  N   UNL     1      -4.536   2.445  -4.365  1.00  0.00    -0.354 N 
ATOM     40  C   UNL     1      -7.184   3.637  -1.214  1.00  0.00     0.074 A 
ATOM     41  C   UNL     1      -7.050   2.742  -0.082  1.00  0.00     0.031 C 
ATOM     42  C   UNL     1      -3.108   1.127  -5.467  1.00  0.00     0.029 A 
ATOM     43  C   UNL     1      -3.818   2.394  -5.540  1.00  0.00     0.049 A 
ATOM     44  H   UNL     1      -5.042   3.238  -4.075  1.00  0.00     0.167 HD
ATOM     45  C   UNL     1      -7.930   4.774  -1.221  1.00  0.00     0.034 A 
ATOM     46  C   UNL     1      -3.798   3.201  -6.620  1.00  0.00     0.034 A 
ATOM     47  C   UNL     1      -7.995   5.694  -2.337  1.00  0.00     0.049 A 
ATOM     48  C   UNL     1      -4.712   4.390  -6.659  1.00  0.00     0.074 A 
ATOM     49  C   UNL     1      -8.687   6.892  -2.431  1.00  0.00     0.029 A 
ATOM     50  N   UNL     1      -7.341   5.527  -3.551  1.00  0.00    -0.354 N 
ATOM     51  N   UNL     1      -5.528   4.832  -5.732  1.00  0.00    -0.248 NA
ATOM     52  C   UNL     1      -4.736   5.162  -7.907  1.00  0.00     0.031 C 
ATOM     53  C   UNL     1      -8.509   7.410  -3.720  1.00  0.00     0.029 A 
ATOM     54  C   UNL     1      -7.647   6.575  -4.410  1.00  0.00     0.049 A 
ATOM     55  H   UNL     1      -6.746   4.774  -3.771  1.00  0.00     0.167 HD
ATOM     56  C   UNL     1      -6.175   5.927  -6.293  1.00  0.00     0.074 A 
ATOM     57  C   UNL     1      -5.628   6.099  -7.624  1.00  0.00     0.031 C 
ATOM     58  C   UNL     1      -7.139   6.715  -5.754  1.00  0.00     0.034 A 
BRANCH  45  59
ATOM     59  C   UNL     1      -8.803   5.061  -0.016  1.00  0.00     0.023 A 
ATOM     60  C   UNL     1      -8.278   5.348   1.255  1.00  0.00     0.031 A 
ATOM     61  C   UNL     1     -10.205   5.056  -0.159  1.00  0.00     0.131 A 
ATOM     62  C   UNL     1      -9.147   5.564   2.340  1.00  0.00     0.055 A 
ATOM     63  C   UNL     1     -11.061   5.342   0.906  1.00  0.00     0.041 A 
ATOM     64  F   UNL     1     -10.769   4.775  -1.344  1.00  0.00    -0.206 F 
ATOM     65  C   UNL     1     -10.533   5.585   2.169  1.00  0.00     0.022 A 
BRANCH  62  66
ATOM     66  S   UNL     1      -8.445   5.694   4.009  1.00  0.00     0.124 S 
ATOM     67  O   UNL     1      -7.686   4.450   4.111  1.00  0.00    -0.237 OA
ATOM     68  O   UNL     1      -7.659   6.919   3.925  1.00  0.00    -0.237 OA
ATOM     69  O   UNL     1      -9.623   5.767   4.872  1.00  0.00    -0.744 OA
ENDBRANCH  62  66
ENDBRANCH  45  59
BRANCH  46  70
ATOM     70  C   UNL     1      -2.992   2.816  -7.816  1.00  0.00     0.023 A 
ATOM     71  C   UNL     1      -1.914   3.599  -8.253  1.00  0.00     0.031 A 
ATOM     72  C   UNL     1      -3.291   1.641  -8.535  1.00  0.00     0.131 A 
ATOM     73  C   UNL     1      -1.173   3.196  -9.376  1.00  0.00     0.055 A 
ATOM     74  C   UNL     1      -2.514   1.214  -9.610  1.00  0.00     0.041 A 
ATOM     75  F   UNL     1      -4.322   0.863  -8.167  1.00  0.00    -0.206 F 
ATOM     76  C   UNL     1      -1.450   1.998 -10.040  1.00  0.00     0.022 A 
BRANCH  73  77
ATOM     77  S   UNL     1       0.134   4.289  -9.996  1.00  0.00     0.124 S 
ATOM     78  O   UNL     1      -0.617   5.497 -10.318  1.00  0.00    -0.237 OA
ATOM     79  O   UNL     1       1.028   4.377  -8.847  1.00  0.00    -0.237 OA
ATOM     80  O   UNL     1       0.669   3.562 -11.145  1.00  0.00    -0.744 OA
ENDBRANCH  73  77
ENDBRANCH  46  70
BRANCH  58  81
ATOM     81  C   UNL     1      -7.650   7.837  -6.619  1.00  0.00     0.023 A 
ATOM     82  C   UNL     1      -8.422   7.580  -7.767  1.00  0.00     0.031 A 
ATOM     83  C   UNL     1      -7.320   9.171  -6.327  1.00  0.00     0.131 A 
ATOM     84  C   UNL     1      -8.789   8.637  -8.613  1.00  0.00     0.055 A 
ATOM     85  C   UNL     1      -7.735  10.225  -7.143  1.00  0.00     0.041 A 
ATOM     86  F   UNL     1      -6.578   9.471  -5.249  1.00  0.00    -0.206 F 
ATOM     87  C   UNL     1      -8.463   9.960  -8.300  1.00  0.00     0.022 A 
BRANCH  84  88
ATOM     88  S   UNL     1      -9.623   8.254 -10.177  1.00  0.00     0.124 S 
ATOM     89  O   UNL     1      -8.620   7.447 -10.864  1.00  0.00    -0.237 OA
ATOM     90  O   UNL     1     -10.818   7.544  -9.732  1.00  0.00    -0.237 OA
ATOM     91  O   UNL     1      -9.870   9.569 -10.766  1.00  0.00    -0.744 OA
ENDBRANCH  84  88
ENDBRANCH  58  81
ENDBRANCH  32  33
ENDBRANCH  25  27
ENDBRANCH  24  25
ENDBRANCH  23  24
ENDBRANCH   1  23
TORSDOF 19
