REMARK SMILES CC(=O)OCc1ccc(C(=O)OCCOC(=O)c2ccc(-c3c4nc(c(-c5cc(S(=O)(=O)[O-])ccc5F)c5ccc([nH]5)c(-c5cc(S(=O)(=O)[O-])ccc5F)c5nc(c(-c6cc(S(=O)(=O)[O-])ccc6F)c6ccc3[nH]6)C=C5)C=C4)cc2)o1
REMARK SMILES IDX 13 1 12 2 10 3 11 4 9 5 6 6 7 7 81 8 8 9 5 10 4 11 2 12 1 13
REMARK SMILES IDX 3 14 14 15 15 16 16 17 17 18 18 19 19 20 80 21 20 22 79 23
REMARK SMILES IDX 21 24 22 25 23 26 73 27 24 28 78 29 72 30 74 31 25 32 77 33
REMARK SMILES IDX 71 34 70 35 26 37 58 38 38 39 57 40 39 41 42 42 56 43 75 44
REMARK SMILES IDX 40 45 41 46 55 48 76 49 43 50 27 51 28 52 36 53 29 54 35 55
REMARK SMILES IDX 37 56 34 57 30 58 31 59 32 60 33 61 59 62 60 63 68 64 61 65
REMARK SMILES IDX 67 66 69 67 66 68 62 69 63 70 64 71 65 72 44 73 45 74 53 75
REMARK SMILES IDX 46 76 52 77 54 78 51 79 47 80 48 81 49 82 50 83
REMARK H PARENT 74 36 42 47
REMARK Flexibility Score: inf
ROOT
ATOM      1  C   UNL     1       3.102   7.669  -1.260  1.00  0.00     0.275 C 
ENDROOT
BRANCH   1   2
ATOM      2  O   UNL     1       2.269   7.213  -0.178  1.00  0.00    -0.456 OA
BRANCH   2   3
ATOM      3  C   UNL     1       1.727   5.965  -0.331  1.00  0.00     0.374 C 
ATOM      4  O   UNL     1       1.796   5.309  -1.360  1.00  0.00    -0.242 OA
BRANCH   3   5
ATOM      5  C   UNL     1       1.144   5.529   0.918  1.00  0.00     0.211 A 
ATOM      6  C   UNL     1       0.415   3.992   2.330  1.00  0.00     0.142 A 
ATOM      7  C   UNL     1       0.413   5.189   3.017  1.00  0.00     0.050 A 
ATOM      8  O   UNL     1       0.811   4.205   1.043  1.00  0.00    -0.450 OA
ATOM      9  C   UNL     1       0.885   6.172   2.114  1.00  0.00     0.058 A 
BRANCH   6  10
ATOM     10  C   UNL     1       0.089   2.599   2.748  1.00  0.00     0.308 C 
BRANCH  10  11
ATOM     11  O   UNL     1       0.655   1.662   1.823  1.00  0.00    -0.458 OA
BRANCH  11  12
ATOM     12  C   UNL     1      -0.217   1.143   0.917  1.00  0.00     0.303 C 
ATOM     13  C   UNL     1       0.435   0.067   0.100  1.00  0.00     0.139 C 
ATOM     14  O   UNL     1      -1.391   1.469   0.799  1.00  0.00    -0.253 OA
ENDBRANCH  11  12
ENDBRANCH  10  11
ENDBRANCH   6  10
ENDBRANCH   3   5
ENDBRANCH   2   3
ENDBRANCH   1   2
BRANCH   1  15
ATOM     15  C   UNL     1       4.587   7.427  -0.966  1.00  0.00     0.275 C 
BRANCH  15  16
ATOM     16  O   UNL     1       4.925   6.028  -1.004  1.00  0.00    -0.458 OA
BRANCH  16  17
ATOM     17  C   UNL     1       4.859   5.384   0.188  1.00  0.00     0.338 C 
ATOM     18  O   UNL     1       4.582   5.886   1.265  1.00  0.00    -0.246 OA
BRANCH  17  19
ATOM     19  C   UNL     1       5.030   3.931  -0.012  1.00  0.00     0.060 A 
ATOM     20  C   UNL     1       4.095   3.080   0.582  1.00  0.00     0.016 A 
ATOM     21  C   UNL     1       6.105   3.401  -0.732  1.00  0.00     0.016 A 
ATOM     22  C   UNL     1       4.217   1.699   0.446  1.00  0.00     0.010 A 
ATOM     23  C   UNL     1       6.233   2.011  -0.858  1.00  0.00     0.010 A 
ATOM     24  C   UNL     1       5.288   1.153  -0.271  1.00  0.00    -0.014 A 
BRANCH  24  25
ATOM     25  C   UNL     1       5.432  -0.321  -0.349  1.00  0.00     0.031 A 
ATOM     26  C   UNL     1       6.346  -1.031   0.607  1.00  0.00     0.074 A 
ATOM     27  C   UNL     1       4.709  -1.023  -1.242  1.00  0.00     0.049 A 
ATOM     28  N   UNL     1       6.625  -2.305   0.696  1.00  0.00    -0.248 NA
ATOM     29  C   UNL     1       7.032  -0.189   1.598  1.00  0.00     0.031 C 
ATOM     30  C   UNL     1       3.748  -0.449  -2.184  1.00  0.00     0.029 A 
ATOM     31  N   UNL     1       4.669  -2.370  -1.501  1.00  0.00    -0.354 N 
ATOM     32  C   UNL     1       7.516  -2.425   1.756  1.00  0.00     0.074 A 
ATOM     33  C   UNL     1       7.752  -1.085   2.257  1.00  0.00     0.031 C 
ATOM     34  C   UNL     1       3.219  -1.438  -2.924  1.00  0.00     0.029 A 
ATOM     35  C   UNL     1       3.829  -2.708  -2.536  1.00  0.00     0.049 A 
ATOM     36  H   UNL     1       5.192  -3.032  -0.993  1.00  0.00     0.167 HD
ATOM     37  C   UNL     1       8.082  -3.547   2.266  1.00  0.00     0.034 A 
ATOM     38  C   UNL     1       3.601  -3.901  -3.121  1.00  0.00     0.034 A 
ATOM     39  C   UNL     1       7.859  -4.873   1.742  1.00  0.00     0.049 A 
ATOM     40  C   UNL     1       4.318  -5.123  -2.601  1.00  0.00     0.074 A 
ATOM     41  C   UNL     1       8.390  -6.075   2.177  1.00  0.00     0.029 A 
ATOM     42  N   UNL     1       7.047  -5.172   0.654  1.00  0.00    -0.354 N 
ATOM     43  N   UNL     1       5.168  -5.221  -1.605  1.00  0.00    -0.248 NA
ATOM     44  C   UNL     1       4.043  -6.395  -3.284  1.00  0.00     0.031 C 
ATOM     45  C   UNL     1       7.949  -7.090   1.318  1.00  0.00     0.029 A 
ATOM     46  C   UNL     1       7.088  -6.532   0.387  1.00  0.00     0.049 A 
ATOM     47  H   UNL     1       6.519  -4.513   0.147  1.00  0.00     0.167 HD
ATOM     48  C   UNL     1       5.507  -6.569  -1.526  1.00  0.00     0.074 A 
ATOM     49  C   UNL     1       4.764  -7.247  -2.569  1.00  0.00     0.031 C 
ATOM     50  C   UNL     1       6.351  -7.193  -0.665  1.00  0.00     0.034 A 
BRANCH  37  51
ATOM     51  C   UNL     1       9.044  -3.369   3.414  1.00  0.00     0.023 A 
ATOM     52  C   UNL     1       8.616  -2.910   4.672  1.00  0.00     0.031 A 
ATOM     53  C   UNL     1      10.415  -3.623   3.234  1.00  0.00     0.131 A 
ATOM     54  C   UNL     1       9.557  -2.657   5.681  1.00  0.00     0.055 A 
ATOM     55  C   UNL     1      11.338  -3.436   4.264  1.00  0.00     0.041 A 
ATOM     56  F   UNL     1      10.882  -4.041   2.047  1.00  0.00    -0.206 F 
ATOM     57  C   UNL     1      10.913  -2.937   5.492  1.00  0.00     0.022 A 
BRANCH  54  58
ATOM     58  S   UNL     1       9.005  -1.829   7.197  1.00  0.00     0.124 S 
ATOM     59  O   UNL     1       8.443  -0.588   6.670  1.00  0.00    -0.237 OA
ATOM     60  O   UNL     1       8.047  -2.782   7.746  1.00  0.00    -0.237 OA
ATOM     61  O   UNL     1      10.237  -1.668   7.968  1.00  0.00    -0.744 OA
ENDBRANCH  54  58
ENDBRANCH  37  51
BRANCH  38  62
ATOM     62  C   UNL     1       2.696  -4.001  -4.301  1.00  0.00     0.023 A 
ATOM     63  C   UNL     1       1.501  -4.735  -4.243  1.00  0.00     0.031 A 
ATOM     64  C   UNL     1       3.047  -3.405  -5.525  1.00  0.00     0.131 A 
ATOM     65  C   UNL     1       0.720  -4.888  -5.400  1.00  0.00     0.055 A 
ATOM     66  C   UNL     1       2.243  -3.519  -6.659  1.00  0.00     0.041 A 
ATOM     67  F   UNL     1       4.182  -2.696  -5.634  1.00  0.00    -0.206 F 
ATOM     68  C   UNL     1       1.076  -4.275  -6.604  1.00  0.00     0.022 A 
BRANCH  65  69
ATOM     69  S   UNL     1      -0.735  -5.970  -5.330  1.00  0.00     0.124 S 
ATOM     70  O   UNL     1      -0.139  -7.244  -4.943  1.00  0.00    -0.237 OA
ATOM     71  O   UNL     1      -1.554  -5.311  -4.318  1.00  0.00    -0.237 OA
ATOM     72  O   UNL     1      -1.265  -5.916  -6.691  1.00  0.00    -0.744 OA
ENDBRANCH  65  69
ENDBRANCH  38  62
BRANCH  50  73
ATOM     73  C   UNL     1       6.475  -8.691  -0.793  1.00  0.00     0.023 A 
ATOM     74  C   UNL     1       7.110  -9.291  -1.894  1.00  0.00     0.031 A 
ATOM     75  C   UNL     1       5.939  -9.528   0.202  1.00  0.00     0.131 A 
ATOM     76  C   UNL     1       7.152 -10.690  -1.998  1.00  0.00     0.055 A 
ATOM     77  C   UNL     1       6.027 -10.918   0.117  1.00  0.00     0.041 A 
ATOM     78  F   UNL     1       5.322  -9.006   1.274  1.00  0.00    -0.206 F 
ATOM     79  C   UNL     1       6.627 -11.507  -0.992  1.00  0.00     0.022 A 
BRANCH  76  80
ATOM     80  S   UNL     1       7.842 -11.435  -3.501  1.00  0.00     0.124 S 
ATOM     81  O   UNL     1       6.973 -10.889  -4.538  1.00  0.00    -0.237 OA
ATOM     82  O   UNL     1       9.215 -10.940  -3.494  1.00  0.00    -0.237 OA
ATOM     83  O   UNL     1       7.703 -12.872  -3.268  1.00  0.00    -0.744 OA
ENDBRANCH  76  80
ENDBRANCH  50  73
ENDBRANCH  24  25
ENDBRANCH  17  19
ENDBRANCH  16  17
ENDBRANCH  15  16
ENDBRANCH   1  15
TORSDOF 17
