REMARK SMILES C[C@@]([NH2+]CCCO)(C(=O)OCCOC(=O)c1ccc(-c2c3nc(c(-c4cc(S(=O)(=O)[O-])ccc4F)c4ccc([nH]4)c(-c4cc(S(=O)(=O)[O-])ccc4F)c4nc(c(-c5cc(S(=O)(=O)[O-])ccc5F)c5ccc2[nH]5)C=C4)C=C3)cc1)C(F)(F)F
REMARK SMILES IDX 11 1 10 2 8 3 9 4 2 5 1 6 3 7 4 10 5 11 6 12 7 13 79 15
REMARK SMILES IDX 80 16 81 17 82 18 12 19 13 20 14 21 15 22 16 23 17 24 78 25
REMARK SMILES IDX 18 26 77 27 19 28 20 29 21 30 71 31 22 32 76 33 70 34 72 35
REMARK SMILES IDX 23 36 75 37 69 38 68 39 24 41 56 42 36 43 55 44 37 45 40 46
REMARK SMILES IDX 54 47 73 48 38 49 39 50 53 52 74 53 41 54 25 55 26 56 34 57
REMARK SMILES IDX 27 58 33 59 35 60 32 61 28 62 29 63 30 64 31 65 57 66 58 67
REMARK SMILES IDX 66 68 59 69 65 70 67 71 64 72 60 73 61 74 62 75 63 76 42 77
REMARK SMILES IDX 43 78 51 79 44 80 50 81 52 82 49 83 45 84 46 85 47 86 48 87
REMARK H PARENT 3 8 3 9 7 14 72 40 40 51
REMARK Flexibility Score: inf
ROOT
ATOM      1  C   UNL     1      -2.928   0.074   1.069  1.00  0.00     0.274 C 
ENDROOT
BRANCH   1   2
ATOM      2  O   UNL     1      -1.504   0.244   0.904  1.00  0.00    -0.457 OA
BRANCH   2   3
ATOM      3  C   UNL     1      -0.710  -0.720   1.456  1.00  0.00     0.377 C 
ATOM      4  O   UNL     1      -1.164  -1.716   2.008  1.00  0.00    -0.244 OA
BRANCH   3   5
ATOM      5  C   UNL     1       0.792  -0.402   1.357  1.00  0.00     0.287 C 
ATOM      6  C   UNL     1       1.029   0.944   0.634  1.00  0.00     0.103 C 
BRANCH   5   7
ATOM      7  N   UNL     1       1.446  -0.208   2.712  1.00  0.00    -0.325 N 
ATOM      8  H   UNL     1       1.323   0.772   2.966  1.00  0.00     0.347 HD
ATOM      9  H   UNL     1       2.406  -0.522   2.569  1.00  0.00     0.347 HD
BRANCH   7  10
ATOM     10  C   UNL     1       0.974  -1.010   3.845  1.00  0.00     0.264 C 
BRANCH  10  11
ATOM     11  C   UNL     1       1.241  -2.521   3.859  1.00  0.00     0.089 C 
BRANCH  11  12
ATOM     12  C   UNL     1       2.706  -2.922   3.751  1.00  0.00     0.162 C 
BRANCH  12  13
ATOM     13  O   UNL     1       3.453  -2.406   4.844  1.00  0.00    -0.396 OA
ATOM     14  H   UNL     1       3.402  -1.437   4.842  1.00  0.00     0.210 HD
ENDBRANCH  12  13
ENDBRANCH  11  12
ENDBRANCH  10  11
ENDBRANCH   7  10
ENDBRANCH   5   7
BRANCH   5  15
ATOM     15  C   UNL     1       1.413  -1.491   0.457  1.00  0.00     0.455 C 
ATOM     16  F   UNL     1       0.855  -1.507  -0.773  1.00  0.00    -0.164 F 
ATOM     17  F   UNL     1       2.740  -1.248   0.291  1.00  0.00    -0.164 F 
ATOM     18  F   UNL     1       1.320  -2.732   0.970  1.00  0.00    -0.164 F 
ENDBRANCH   5  15
ENDBRANCH   3   5
ENDBRANCH   2   3
ENDBRANCH   1   2
BRANCH   1  19
ATOM     19  C   UNL     1      -3.561  -0.530  -0.181  1.00  0.00     0.275 C 
BRANCH  19  20
ATOM     20  O   UNL     1      -3.071  -1.867  -0.360  1.00  0.00    -0.458 OA
BRANCH  20  21
ATOM     21  C   UNL     1      -2.580  -2.163  -1.586  1.00  0.00     0.338 C 
ATOM     22  O   UNL     1      -2.575  -1.444  -2.569  1.00  0.00    -0.246 OA
BRANCH  21  23
ATOM     23  C   UNL     1      -2.035  -3.533  -1.567  1.00  0.00     0.060 A 
ATOM     24  C   UNL     1      -1.076  -3.881  -0.619  1.00  0.00     0.016 A 
ATOM     25  C   UNL     1      -2.405  -4.447  -2.550  1.00  0.00     0.016 A 
ATOM     26  C   UNL     1      -0.417  -5.104  -0.696  1.00  0.00     0.010 A 
ATOM     27  C   UNL     1      -1.816  -5.717  -2.565  1.00  0.00     0.010 A 
ATOM     28  C   UNL     1      -0.792  -6.048  -1.657  1.00  0.00    -0.014 A 
BRANCH  28  29
ATOM     29  C   UNL     1      -0.084  -7.355  -1.740  1.00  0.00     0.031 A 
ATOM     30  C   UNL     1       0.637  -7.733  -3.007  1.00  0.00     0.074 A 
ATOM     31  C   UNL     1      -0.063  -8.193  -0.683  1.00  0.00     0.049 A 
ATOM     32  N   UNL     1       1.131  -8.888  -3.367  1.00  0.00    -0.248 NA
ATOM     33  C   UNL     1       0.810  -6.667  -4.007  1.00  0.00     0.031 C 
ATOM     34  C   UNL     1      -0.660  -7.921   0.627  1.00  0.00     0.029 A 
ATOM     35  N   UNL     1       0.487  -9.443  -0.539  1.00  0.00    -0.354 N 
ATOM     36  C   UNL     1       1.620  -8.707  -4.658  1.00  0.00     0.074 A 
ATOM     37  C   UNL     1       1.362  -7.328  -5.014  1.00  0.00     0.031 C 
ATOM     38  C   UNL     1      -0.415  -8.954   1.447  1.00  0.00     0.029 A 
ATOM     39  C   UNL     1       0.266 -10.003   0.699  1.00  0.00     0.049 A 
ATOM     40  H   UNL     1       0.991  -9.896  -1.253  1.00  0.00     0.167 HD
ATOM     41  C   UNL     1       2.218  -9.615  -5.469  1.00  0.00     0.034 A 
ATOM     42  C   UNL     1       0.530 -11.241   1.164  1.00  0.00     0.034 A 
ATOM     43  C   UNL     1       2.507 -10.973  -5.076  1.00  0.00     0.049 A 
ATOM     44  C   UNL     1       1.161 -12.242   0.233  1.00  0.00     0.074 A 
ATOM     45  C   UNL     1       3.103 -11.979  -5.817  1.00  0.00     0.029 A 
ATOM     46  N   UNL     1       2.234 -11.512  -3.826  1.00  0.00    -0.354 N 
ATOM     47  N   UNL     1       1.528 -12.088  -1.018  1.00  0.00    -0.248 NA
ATOM     48  C   UNL     1       1.392 -13.589   0.769  1.00  0.00     0.031 C 
ATOM     49  C   UNL     1       3.147 -13.137  -5.032  1.00  0.00     0.029 A 
ATOM     50  C   UNL     1       2.632 -12.839  -3.780  1.00  0.00     0.049 A 
ATOM     51  H   UNL     1       1.817 -11.023  -3.080  1.00  0.00     0.167 HD
ATOM     52  C   UNL     1       2.037 -13.319  -1.417  1.00  0.00     0.074 A 
ATOM     53  C   UNL     1       1.954 -14.196  -0.266  1.00  0.00     0.031 C 
ATOM     54  C   UNL     1       2.522 -13.698  -2.627  1.00  0.00     0.034 A 
BRANCH  41  55
ATOM     55  C   UNL     1       2.526  -9.185  -6.882  1.00  0.00     0.023 A 
ATOM     56  C   UNL     1       3.499  -8.216  -7.178  1.00  0.00     0.031 A 
ATOM     57  C   UNL     1       1.802  -9.743  -7.952  1.00  0.00     0.131 A 
ATOM     58  C   UNL     1       3.682  -7.793  -8.505  1.00  0.00     0.055 A 
ATOM     59  C   UNL     1       2.036  -9.368  -9.276  1.00  0.00     0.041 A 
ATOM     60  F   UNL     1       0.845 -10.657  -7.726  1.00  0.00    -0.206 F 
ATOM     61  C   UNL     1       2.973  -8.378  -9.557  1.00  0.00     0.022 A 
BRANCH  58  62
ATOM     62  S   UNL     1       4.777  -6.383  -8.828  1.00  0.00     0.124 S 
ATOM     63  O   UNL     1       4.121  -5.320  -8.071  1.00  0.00    -0.237 OA
ATOM     64  O   UNL     1       6.055  -6.848  -8.301  1.00  0.00    -0.237 OA
ATOM     65  O   UNL     1       4.721  -6.231 -10.280  1.00  0.00    -0.744 OA
ENDBRANCH  58  62
ENDBRANCH  41  55
BRANCH  42  66
ATOM     66  C   UNL     1       0.119 -11.634   2.543  1.00  0.00     0.023 A 
ATOM     67  C   UNL     1       1.068 -11.999   3.511  1.00  0.00     0.031 A 
ATOM     68  C   UNL     1      -1.241 -11.694   2.899  1.00  0.00     0.131 A 
ATOM     69  C   UNL     1       0.644 -12.439   4.775  1.00  0.00     0.055 A 
ATOM     70  C   UNL     1      -1.656 -12.078   4.175  1.00  0.00     0.041 A 
ATOM     71  F   UNL     1      -2.191 -11.362   2.010  1.00  0.00    -0.206 F 
ATOM     72  C   UNL     1      -0.710 -12.466   5.118  1.00  0.00     0.022 A 
BRANCH  69  73
ATOM     73  S   UNL     1       1.885 -13.061   5.943  1.00  0.00     0.124 S 
ATOM     74  O   UNL     1       2.516 -14.125   5.170  1.00  0.00    -0.237 OA
ATOM     75  O   UNL     1       2.697 -11.873   6.183  1.00  0.00    -0.237 OA
ATOM     76  O   UNL     1       1.086 -13.507   7.083  1.00  0.00    -0.744 OA
ENDBRANCH  69  73
ENDBRANCH  42  66
BRANCH  54  77
ATOM     77  C   UNL     1       3.020 -15.114  -2.738  1.00  0.00     0.023 A 
ATOM     78  C   UNL     1       2.136 -16.206  -2.717  1.00  0.00     0.031 A 
ATOM     79  C   UNL     1       4.398 -15.374  -2.835  1.00  0.00     0.131 A 
ATOM     80  C   UNL     1       2.643 -17.514  -2.739  1.00  0.00     0.055 A 
ATOM     81  C   UNL     1       4.894 -16.675  -2.906  1.00  0.00     0.041 A 
ATOM     82  F   UNL     1       5.283 -14.364  -2.857  1.00  0.00    -0.206 F 
ATOM     83  C   UNL     1       4.016 -17.755  -2.846  1.00  0.00     0.022 A 
BRANCH  80  84
ATOM     84  S   UNL     1       1.489 -18.900  -2.547  1.00  0.00     0.124 S 
ATOM     85  O   UNL     1       0.893 -18.621  -1.244  1.00  0.00    -0.237 OA
ATOM     86  O   UNL     1       0.608 -18.736  -3.699  1.00  0.00    -0.237 OA
ATOM     87  O   UNL     1       2.355 -20.076  -2.593  1.00  0.00    -0.744 OA
ENDBRANCH  80  84
ENDBRANCH  54  77
ENDBRANCH  28  29
ENDBRANCH  21  23
ENDBRANCH  20  21
ENDBRANCH  19  20
ENDBRANCH   1  19
TORSDOF 20
