REMARK SMILES CC[C@@](C)([NH3+])C(=O)N1CC[NH+]([C@H](C)C(=O)OCCOC(=O)c2ccc(-c3c4nc(c(-c5cc(S(=O)(=O)[O-])ccc5F)c5ccc([nH]5)c(-c5cc(S(=O)(=O)[O-])ccc5F)c5nc(c(-c6cc(S(=O)(=O)[O-])ccc6F)c6ccc3[nH]6)C=C5)C=C4)cc2)CC1
REMARK SMILES IDX 17 1 16 2 14 3 15 4 12 5 13 6 11 7 6 8 7 9 8 10 9 11 86 12
REMARK SMILES IDX 10 13 85 14 3 16 4 17 2 18 1 19 5 20 18 24 19 25 20 26 21 27
REMARK SMILES IDX 22 28 23 29 84 30 24 31 83 32 25 33 26 34 27 35 77 36 28 37
REMARK SMILES IDX 82 38 76 39 78 40 29 41 81 42 75 43 74 44 30 46 62 47 42 48
REMARK SMILES IDX 61 49 43 50 46 51 60 52 79 53 44 54 45 55 59 57 80 58 47 59
REMARK SMILES IDX 31 60 32 61 40 62 33 63 39 64 41 65 38 66 34 67 35 68 36 69
REMARK SMILES IDX 37 70 63 71 64 72 72 73 65 74 71 75 73 76 70 77 66 78 67 79
REMARK SMILES IDX 68 80 69 81 48 82 49 83 57 84 50 85 56 86 58 87 55 88 51 89
REMARK SMILES IDX 52 90 53 91 54 92
REMARK H PARENT 11 15 5 21 5 22 5 23 78 45 46 56
REMARK Flexibility Score: inf
ROOT
ATOM      1  C   UNL     1       7.810  -3.185  -5.549  1.00  0.00     0.274 C 
ENDROOT
BRANCH   1   2
ATOM      2  O   UNL     1       6.604  -2.431  -5.325  1.00  0.00    -0.458 OA
BRANCH   2   3
ATOM      3  C   UNL     1       6.491  -1.283  -6.050  1.00  0.00     0.364 C 
ATOM      4  O   UNL     1       7.378  -0.833  -6.768  1.00  0.00    -0.245 OA
BRANCH   3   5
ATOM      5  C   UNL     1       5.131  -0.587  -5.859  1.00  0.00     0.292 C 
ATOM      6  C   UNL     1       3.983  -1.499  -5.404  1.00  0.00     0.088 C 
BRANCH   5   7
ATOM      7  N   UNL     1       5.309   0.676  -5.105  1.00  0.00    -0.321 N 
ATOM      8  C   UNL     1       3.878   2.795  -1.879  1.00  0.00     0.283 C 
ATOM      9  O   UNL     1       4.500   2.954  -0.820  1.00  0.00    -0.268 OA
ATOM     10  N   UNL     1       4.589   2.534  -3.036  1.00  0.00    -0.326 N 
ATOM     11  C   UNL     1       5.852   1.810  -2.933  1.00  0.00     0.181 C 
ATOM     12  C   UNL     1       4.245   2.853  -4.418  1.00  0.00     0.181 C 
ATOM     13  C   UNL     1       5.712   0.479  -3.699  1.00  0.00     0.284 C 
ATOM     14  C   UNL     1       4.150   1.575  -5.269  1.00  0.00     0.284 C 
ATOM     15  H   UNL     1       6.108   1.152  -5.525  1.00  0.00     0.348 HD
BRANCH   8  16
ATOM     16  C   UNL     1       2.306   2.657  -1.856  1.00  0.00     0.171 C 
ATOM     17  C   UNL     1       1.913   1.215  -2.214  1.00  0.00     0.090 C 
BRANCH  16  18
ATOM     18  C   UNL     1       1.765   3.026  -0.442  1.00  0.00     0.075 C 
ATOM     19  C   UNL     1       2.051   2.014   0.668  1.00  0.00     0.011 C 
ENDBRANCH  16  18
BRANCH  16  20
ATOM     20  N   UNL     1       1.657   3.594  -2.805  1.00  0.00    -0.345 N 
ATOM     21  H   UNL     1       0.645   3.476  -2.761  1.00  0.00     0.345 HD
ATOM     22  H   UNL     1       1.982   3.398  -3.752  1.00  0.00     0.345 HD
ATOM     23  H   UNL     1       1.898   4.553  -2.555  1.00  0.00     0.345 HD
ENDBRANCH  16  20
ENDBRANCH   8  16
ENDBRANCH   5   7
ENDBRANCH   3   5
ENDBRANCH   2   3
ENDBRANCH   1   2
BRANCH   1  24
ATOM     24  C   UNL     1       7.593  -4.305  -6.571  1.00  0.00     0.275 C 
BRANCH  24  25
ATOM     25  O   UNL     1       7.341  -3.793  -7.893  1.00  0.00    -0.458 OA
BRANCH  25  26
ATOM     26  C   UNL     1       6.035  -3.667  -8.225  1.00  0.00     0.338 C 
ATOM     27  O   UNL     1       5.069  -3.953  -7.539  1.00  0.00    -0.246 OA
BRANCH  26  28
ATOM     28  C   UNL     1       5.915  -3.011  -9.534  1.00  0.00     0.060 A 
ATOM     29  C   UNL     1       5.492  -1.681  -9.574  1.00  0.00     0.016 A 
ATOM     30  C   UNL     1       6.126  -3.722 -10.713  1.00  0.00     0.016 A 
ATOM     31  C   UNL     1       5.266  -1.050 -10.791  1.00  0.00     0.010 A 
ATOM     32  C   UNL     1       5.920  -3.082 -11.939  1.00  0.00     0.010 A 
ATOM     33  C   UNL     1       5.484  -1.744 -11.984  1.00  0.00    -0.014 A 
BRANCH  33  34
ATOM     34  C   UNL     1       5.235  -1.078 -13.284  1.00  0.00     0.031 A 
ATOM     35  C   UNL     1       4.065  -1.500 -14.121  1.00  0.00     0.074 A 
ATOM     36  C   UNL     1       6.063  -0.103 -13.702  1.00  0.00     0.049 A 
ATOM     37  N   UNL     1       3.771  -1.182 -15.354  1.00  0.00    -0.248 NA
ATOM     38  C   UNL     1       3.099  -2.406 -13.482  1.00  0.00     0.031 C 
ATOM     39  C   UNL     1       7.187   0.436 -12.934  1.00  0.00     0.029 A 
ATOM     40  N   UNL     1       6.098   0.596 -14.881  1.00  0.00    -0.354 N 
ATOM     41  C   UNL     1       2.601  -1.871 -15.653  1.00  0.00     0.074 A 
ATOM     42  C   UNL     1       2.249  -2.634 -14.473  1.00  0.00     0.031 C 
ATOM     43  C   UNL     1       7.808   1.373 -13.668  1.00  0.00     0.029 A 
ATOM     44  C   UNL     1       7.173   1.448 -14.979  1.00  0.00     0.049 A 
ATOM     45  H   UNL     1       5.419   0.498 -15.588  1.00  0.00     0.167 HD
ATOM     46  C   UNL     1       1.896  -1.866 -16.811  1.00  0.00     0.034 A 
ATOM     47  C   UNL     1       7.628   2.161 -16.028  1.00  0.00     0.034 A 
ATOM     48  C   UNL     1       2.272  -1.095 -17.972  1.00  0.00     0.049 A 
ATOM     49  C   UNL     1       6.886   2.073 -17.336  1.00  0.00     0.074 A 
ATOM     50  C   UNL     1       1.634  -1.007 -19.197  1.00  0.00     0.029 A 
ATOM     51  N   UNL     1       3.397  -0.282 -18.053  1.00  0.00    -0.354 N 
ATOM     52  N   UNL     1       5.805   1.385 -17.627  1.00  0.00    -0.248 NA
ATOM     53  C   UNL     1       7.430   2.846 -18.459  1.00  0.00     0.031 C 
ATOM     54  C   UNL     1       2.405  -0.193 -20.036  1.00  0.00     0.029 A 
ATOM     55  C   UNL     1       3.489   0.283 -19.315  1.00  0.00     0.049 A 
ATOM     56  H   UNL     1       4.037  -0.130 -17.320  1.00  0.00     0.167 HD
ATOM     57  C   UNL     1       5.532   1.657 -18.964  1.00  0.00     0.074 A 
ATOM     58  C   UNL     1       6.552   2.582 -19.416  1.00  0.00     0.031 C 
ATOM     59  C   UNL     1       4.528   1.188 -19.748  1.00  0.00     0.034 A 
BRANCH  46  60
ATOM     60  C   UNL     1       0.694  -2.775 -16.892  1.00  0.00     0.023 A 
ATOM     61  C   UNL     1      -0.444  -2.579 -16.091  1.00  0.00     0.031 A 
ATOM     62  C   UNL     1       0.707  -3.883 -17.759  1.00  0.00     0.131 A 
ATOM     63  C   UNL     1      -1.492  -3.513 -16.123  1.00  0.00     0.055 A 
ATOM     64  C   UNL     1      -0.370  -4.768 -17.840  1.00  0.00     0.041 A 
ATOM     65  F   UNL     1       1.776  -4.135 -18.531  1.00  0.00    -0.206 F 
ATOM     66  C   UNL     1      -1.472  -4.594 -17.009  1.00  0.00     0.022 A 
BRANCH  63  67
ATOM     67  S   UNL     1      -2.818  -3.374 -14.893  1.00  0.00     0.124 S 
ATOM     68  O   UNL     1      -2.071  -3.462 -13.641  1.00  0.00    -0.237 OA
ATOM     69  O   UNL     1      -3.398  -2.072 -15.201  1.00  0.00    -0.237 OA
ATOM     70  O   UNL     1      -3.675  -4.522 -15.181  1.00  0.00    -0.744 OA
ENDBRANCH  63  67
ENDBRANCH  46  60
BRANCH  47  71
ATOM     71  C   UNL     1       8.885   2.951 -15.911  1.00  0.00     0.023 A 
ATOM     72  C   UNL     1       8.879   4.349 -16.029  1.00  0.00     0.031 A 
ATOM     73  C   UNL     1      10.122   2.311 -15.711  1.00  0.00     0.131 A 
ATOM     74  C   UNL     1      10.089   5.059 -15.979  1.00  0.00     0.055 A 
ATOM     75  C   UNL     1      11.316   3.025 -15.612  1.00  0.00     0.041 A 
ATOM     76  F   UNL     1      10.184   0.974 -15.594  1.00  0.00    -0.206 F 
ATOM     77  C   UNL     1      11.305   4.408 -15.757  1.00  0.00     0.022 A 
BRANCH  74  78
ATOM     78  S   UNL     1      10.060   6.847 -16.282  1.00  0.00     0.124 S 
ATOM     79  O   UNL     1       9.468   6.913 -17.613  1.00  0.00    -0.237 OA
ATOM     80  O   UNL     1       9.226   7.327 -15.185  1.00  0.00    -0.237 OA
ATOM     81  O   UNL     1      11.468   7.228 -16.205  1.00  0.00    -0.744 OA
ENDBRANCH  74  78
ENDBRANCH  47  71
BRANCH  59  82
ATOM     82  C   UNL     1       4.479   1.704 -21.163  1.00  0.00     0.023 A 
ATOM     83  C   UNL     1       5.441   1.331 -22.117  1.00  0.00     0.031 A 
ATOM     84  C   UNL     1       3.462   2.592 -21.555  1.00  0.00     0.131 A 
ATOM     85  C   UNL     1       5.394   1.882 -23.406  1.00  0.00     0.055 A 
ATOM     86  C   UNL     1       3.390   3.096 -22.854  1.00  0.00     0.041 A 
ATOM     87  F   UNL     1       2.520   2.981 -20.681  1.00  0.00    -0.206 F 
ATOM     88  C   UNL     1       4.366   2.750 -23.785  1.00  0.00     0.022 A 
BRANCH  85  89
ATOM     89  S   UNL     1       6.736   1.504 -24.566  1.00  0.00     0.124 S 
ATOM     90  O   UNL     1       7.899   2.047 -23.870  1.00  0.00    -0.237 OA
ATOM     91  O   UNL     1       6.671   0.050 -24.659  1.00  0.00    -0.237 OA
ATOM     92  O   UNL     1       6.351   2.220 -25.781  1.00  0.00    -0.744 OA
ENDBRANCH  85  89
ENDBRANCH  59  82
ENDBRANCH  33  34
ENDBRANCH  26  28
ENDBRANCH  25  26
ENDBRANCH  24  25
ENDBRANCH   1  24
TORSDOF 18
