REMARK SMILES COc1c(Cl)cc(C(=O)OCCOC(=O)c2ccc(-c3c4nc(c(-c5cc(S(=O)(=O)[O-])ccc5F)c5ccc([nH]5)c(-c5cc(S(=O)(=O)[O-])ccc5F)c5nc(c(-c6cc(S(=O)(=O)[O-])ccc6F)c6ccc3[nH]6)C=C5)C=C4)cc2)cc1NC(=O)C(C)(C)Oc1ccc(Br)cc1
REMARK SMILES IDX 11 1 10 2 8 3 9 4 7 5 3 6 4 7 80 8 5 9 6 10 79 11 2 12 1 13
REMARK SMILES IDX 81 14 82 15 83 17 84 18 85 19 86 20 87 21 88 22 89 23 94 24
REMARK SMILES IDX 90 25 93 26 91 27 92 28 12 29 13 30 14 31 15 32 16 33 17 34
REMARK SMILES IDX 78 35 18 36 77 37 19 38 20 39 21 40 71 41 22 42 76 43 70 44
REMARK SMILES IDX 72 45 23 46 75 47 69 48 68 49 24 51 56 52 36 53 55 54 37 55
REMARK SMILES IDX 40 56 54 57 73 58 38 59 39 60 53 62 74 63 41 64 25 65 26 66
REMARK SMILES IDX 34 67 27 68 33 69 35 70 32 71 28 72 29 73 30 74 31 75 57 76
REMARK SMILES IDX 58 77 66 78 59 79 65 80 67 81 64 82 60 83 61 84 62 85 63 86
REMARK SMILES IDX 42 87 43 88 51 89 44 90 50 91 52 92 49 93 45 94 46 95 47 96
REMARK SMILES IDX 48 97
REMARK H PARENT 81 16 72 50 40 61
REMARK Flexibility Score: inf
ROOT
ATOM      1  C   UNL     1       1.981  -4.933  -6.995  1.00  0.00     0.275 C 
ENDROOT
BRANCH   1   2
ATOM      2  O   UNL     1       1.636  -4.150  -5.836  1.00  0.00    -0.458 OA
BRANCH   2   3
ATOM      3  C   UNL     1       2.442  -4.217  -4.743  1.00  0.00     0.338 C 
ATOM      4  O   UNL     1       3.445  -4.893  -4.622  1.00  0.00    -0.246 OA
BRANCH   3   5
ATOM      5  C   UNL     1       1.917  -3.313  -3.673  1.00  0.00     0.063 A 
ATOM      6  C   UNL     1       0.700  -1.899  -1.560  1.00  0.00     0.160 A 
ATOM      7  C   UNL     1       2.109  -2.034  -1.637  1.00  0.00     0.086 A 
ATOM      8  C   UNL     1      -0.103  -2.509  -2.549  1.00  0.00     0.086 A 
ATOM      9  Cl  UNL     1       3.208  -1.419  -0.455  1.00  0.00    -0.080 Cl
ATOM     10  C   UNL     1       2.705  -2.787  -2.662  1.00  0.00     0.040 A 
ATOM     11  C   UNL     1       0.551  -3.088  -3.627  1.00  0.00     0.045 A 
BRANCH   6  12
ATOM     12  O   UNL     1       0.009  -1.339  -0.510  1.00  0.00    -0.493 OA
ATOM     13  C   UNL     1       0.442  -0.043  -0.096  1.00  0.00     0.278 C 
ENDBRANCH   6  12
BRANCH   8  14
ATOM     14  N   UNL     1      -1.521  -2.586  -2.376  1.00  0.00    -0.319 N 
ATOM     15  C   UNL     1      -2.555  -3.300  -2.984  1.00  0.00     0.268 C 
ATOM     16  H   UNL     1      -1.844  -1.996  -1.657  1.00  0.00     0.170 HD
ATOM     17  O   UNL     1      -3.688  -3.163  -2.503  1.00  0.00    -0.270 OA
BRANCH  15  18
ATOM     18  C   UNL     1      -2.328  -4.260  -4.221  1.00  0.00     0.181 C 
ATOM     19  C   UNL     1      -2.004  -3.275  -5.384  1.00  0.00     0.067 C 
ATOM     20  C   UNL     1      -1.321  -5.322  -3.705  1.00  0.00     0.067 C 
BRANCH  18  21
ATOM     21  O   UNL     1      -3.482  -5.041  -4.678  1.00  0.00    -0.478 OA
BRANCH  21  22
ATOM     22  C   UNL     1      -3.328  -5.645  -5.918  1.00  0.00     0.120 A 
ATOM     23  C   UNL     1      -4.179  -5.223  -6.942  1.00  0.00     0.047 A 
ATOM     24  C   UNL     1      -2.369  -6.625  -6.203  1.00  0.00     0.047 A 
ATOM     25  C   UNL     1      -4.012  -5.706  -8.247  1.00  0.00     0.019 A 
ATOM     26  C   UNL     1      -2.185  -7.095  -7.507  1.00  0.00     0.019 A 
ATOM     27  C   UNL     1      -3.004  -6.626  -8.527  1.00  0.00     0.018 A 
ATOM     28  Br  UNL     1      -2.748  -7.253 -10.292  1.00  0.00    -0.051 Br
ENDBRANCH  21  22
ENDBRANCH  18  21
ENDBRANCH  15  18
ENDBRANCH   8  14
ENDBRANCH   3   5
ENDBRANCH   2   3
ENDBRANCH   1   2
BRANCH   1  29
ATOM     29  C   UNL     1       2.403  -4.023  -8.150  1.00  0.00     0.275 C 
BRANCH  29  30
ATOM     30  O   UNL     1       3.628  -3.343  -7.820  1.00  0.00    -0.458 OA
BRANCH  30  31
ATOM     31  C   UNL     1       3.462  -2.089  -7.338  1.00  0.00     0.338 C 
ATOM     32  O   UNL     1       2.421  -1.459  -7.258  1.00  0.00    -0.246 OA
BRANCH  31  33
ATOM     33  C   UNL     1       4.713  -1.629  -6.722  1.00  0.00     0.060 A 
ATOM     34  C   UNL     1       4.896  -1.926  -5.378  1.00  0.00     0.016 A 
ATOM     35  C   UNL     1       5.599  -0.780  -7.372  1.00  0.00     0.016 A 
ATOM     36  C   UNL     1       5.888  -1.310  -4.636  1.00  0.00     0.010 A 
ATOM     37  C   UNL     1       6.668  -0.233  -6.647  1.00  0.00     0.010 A 
ATOM     38  C   UNL     1       6.800  -0.462  -5.261  1.00  0.00    -0.014 A 
BRANCH  38  39
ATOM     39  C   UNL     1       7.816   0.248  -4.436  1.00  0.00     0.031 A 
ATOM     40  C   UNL     1       7.843   1.753  -4.436  1.00  0.00     0.074 A 
ATOM     41  C   UNL     1       8.660  -0.437  -3.635  1.00  0.00     0.049 A 
ATOM     42  N   UNL     1       8.754   2.567  -3.971  1.00  0.00    -0.248 NA
ATOM     43  C   UNL     1       6.696   2.429  -5.061  1.00  0.00     0.031 C 
ATOM     44  C   UNL     1       8.668  -1.892  -3.452  1.00  0.00     0.029 A 
ATOM     45  N   UNL     1       9.666  -0.001  -2.808  1.00  0.00    -0.354 N 
ATOM     46  C   UNL     1       8.319   3.848  -4.295  1.00  0.00     0.074 A 
ATOM     47  C   UNL     1       7.074   3.698  -5.018  1.00  0.00     0.031 C 
ATOM     48  C   UNL     1       9.598  -2.219  -2.543  1.00  0.00     0.029 A 
ATOM     49  C   UNL     1      10.336  -1.020  -2.169  1.00  0.00     0.049 A 
ATOM     50  H   UNL     1       9.887   0.950  -2.684  1.00  0.00     0.167 HD
ATOM     51  C   UNL     1       8.905   5.036  -4.008  1.00  0.00     0.034 A 
ATOM     52  C   UNL     1      11.456  -1.001  -1.418  1.00  0.00     0.034 A 
ATOM     53  C   UNL     1      10.128   5.158  -3.251  1.00  0.00     0.049 A 
ATOM     54  C   UNL     1      12.147   0.322  -1.200  1.00  0.00     0.074 A 
ATOM     55  C   UNL     1      10.838   6.302  -2.933  1.00  0.00     0.029 A 
ATOM     56  N   UNL     1      10.812   4.095  -2.673  1.00  0.00    -0.354 N 
ATOM     57  N   UNL     1      11.790   1.519  -1.608  1.00  0.00    -0.248 NA
ATOM     58  C   UNL     1      13.397   0.295  -0.432  1.00  0.00     0.031 C 
ATOM     59  C   UNL     1      11.979   5.926  -2.216  1.00  0.00     0.029 A 
ATOM     60  C   UNL     1      11.940   4.556  -2.013  1.00  0.00     0.049 A 
ATOM     61  H   UNL     1      10.536   3.151  -2.725  1.00  0.00     0.167 HD
ATOM     62  C   UNL     1      12.756   2.390  -1.112  1.00  0.00     0.074 A 
ATOM     63  C   UNL     1      13.696   1.583  -0.361  1.00  0.00     0.031 C 
ATOM     64  C   UNL     1      12.860   3.735  -1.262  1.00  0.00     0.034 A 
BRANCH  51  65
ATOM     65  C   UNL     1       8.263   6.283  -4.569  1.00  0.00     0.023 A 
ATOM     66  C   UNL     1       6.975   6.695  -4.185  1.00  0.00     0.031 A 
ATOM     67  C   UNL     1       8.937   7.053  -5.534  1.00  0.00     0.131 A 
ATOM     68  C   UNL     1       6.375   7.796  -4.816  1.00  0.00     0.055 A 
ATOM     69  C   UNL     1       8.370   8.198  -6.094  1.00  0.00     0.041 A 
ATOM     70  F   UNL     1      10.159   6.695  -5.962  1.00  0.00    -0.206 F 
ATOM     71  C   UNL     1       7.074   8.568  -5.747  1.00  0.00     0.022 A 
BRANCH  68  72
ATOM     72  S   UNL     1       4.615   8.115  -4.512  1.00  0.00     0.124 S 
ATOM     73  O   UNL     1       4.007   6.869  -4.972  1.00  0.00    -0.237 OA
ATOM     74  O   UNL     1       4.580   8.349  -3.073  1.00  0.00    -0.237 OA
ATOM     75  O   UNL     1       4.330   9.284  -5.342  1.00  0.00    -0.744 OA
ENDBRANCH  68  72
ENDBRANCH  51  65
BRANCH  52  76
ATOM     76  C   UNL     1      12.048  -2.266  -0.887  1.00  0.00     0.023 A 
ATOM     77  C   UNL     1      12.251  -2.447   0.490  1.00  0.00     0.031 A 
ATOM     78  C   UNL     1      12.495  -3.282  -1.753  1.00  0.00     0.131 A 
ATOM     79  C   UNL     1      12.938  -3.580   0.954  1.00  0.00     0.055 A 
ATOM     80  C   UNL     1      13.109  -4.443  -1.280  1.00  0.00     0.041 A 
ATOM     81  F   UNL     1      12.341  -3.162  -3.082  1.00  0.00    -0.206 F 
ATOM     82  C   UNL     1      13.351  -4.588   0.081  1.00  0.00     0.022 A 
BRANCH  79  83
ATOM     83  S   UNL     1      13.405  -3.651   2.705  1.00  0.00     0.124 S 
ATOM     84  O   UNL     1      14.155  -2.410   2.862  1.00  0.00    -0.237 OA
ATOM     85  O   UNL     1      12.104  -3.703   3.363  1.00  0.00    -0.237 OA
ATOM     86  O   UNL     1      14.198  -4.876   2.796  1.00  0.00    -0.744 OA
ENDBRANCH  79  83
ENDBRANCH  52  76
BRANCH  64  87
ATOM     87  C   UNL     1      13.989   4.417  -0.530  1.00  0.00     0.023 A 
ATOM     88  C   UNL     1      15.336   4.187  -0.860  1.00  0.00     0.031 A 
ATOM     89  C   UNL     1      13.708   5.291   0.535  1.00  0.00     0.131 A 
ATOM     90  C   UNL     1      16.352   4.770  -0.088  1.00  0.00     0.055 A 
ATOM     91  C   UNL     1      14.722   5.922   1.255  1.00  0.00     0.041 A 
ATOM     92  F   UNL     1      12.439   5.544   0.895  1.00  0.00    -0.206 F 
ATOM     93  C   UNL     1      16.054   5.650   0.956  1.00  0.00     0.022 A 
BRANCH  90  94
ATOM     94  S   UNL     1      18.070   4.277  -0.396  1.00  0.00     0.124 S 
ATOM     95  O   UNL     1      18.011   2.832  -0.199  1.00  0.00    -0.237 OA
ATOM     96  O   UNL     1      18.281   4.724  -1.769  1.00  0.00    -0.237 OA
ATOM     97  O   UNL     1      18.825   5.011   0.617  1.00  0.00    -0.744 OA
ENDBRANCH  90  94
ENDBRANCH  64  87
ENDBRANCH  38  39
ENDBRANCH  31  33
ENDBRANCH  30  31
ENDBRANCH  29  30
ENDBRANCH   1  29
TORSDOF 19
