REMARK SMILES CC1=C(C)C[C@@H](C(=O)NNC(=O)c2sccc2C)[C@@H](C(=O)OCCOC(=O)c2ccc(-c3c4nc(c(-c5cc(S(=O)(=O)[O-])ccc5F)c5ccc([nH]5)c(-c5cc(S(=O)(=O)[O-])ccc5F)c5nc(c(-c6cc(S(=O)(=O)[O-])ccc6F)c6ccc3[nH]6)C=C5)C=C4)cc2)C1
REMARK SMILES IDX 23 1 22 2 20 3 21 4 19 5 1 6 2 7 3 8 91 9 4 10 5 11 6 12
REMARK SMILES IDX 7 13 8 14 9 15 10 17 11 18 12 20 13 21 14 22 17 23 15 24
REMARK SMILES IDX 16 25 18 26 24 27 25 28 26 29 27 30 28 31 29 32 90 33 30 34
REMARK SMILES IDX 89 35 31 36 32 37 33 38 83 39 34 40 88 41 82 42 84 43 35 44
REMARK SMILES IDX 87 45 81 46 80 47 36 49 68 50 48 51 67 52 49 53 52 54 66 55
REMARK SMILES IDX 85 56 50 57 51 58 65 60 86 61 53 62 37 63 38 64 46 65 39 66
REMARK SMILES IDX 45 67 47 68 44 69 40 70 41 71 42 72 43 73 69 74 70 75 78 76
REMARK SMILES IDX 71 77 77 78 79 79 76 80 72 81 73 82 74 83 75 84 54 85 55 86
REMARK SMILES IDX 63 87 56 88 62 89 64 90 61 91 57 92 58 93 59 94 60 95
REMARK H PARENT 9 16 10 19 84 48 52 59
REMARK Flexibility Score: inf
ROOT
ATOM      1  C   UNL     1      -2.495   4.041  -3.506  1.00  0.00     0.274 C 
ENDROOT
BRANCH   1   2
ATOM      2  O   UNL     1      -1.077   3.668  -3.477  1.00  0.00    -0.462 OA
BRANCH   2   3
ATOM      3  C   UNL     1      -0.500   3.365  -2.258  1.00  0.00     0.310 C 
ATOM      4  O   UNL     1      -0.904   3.807  -1.199  1.00  0.00    -0.252 OA
BRANCH   3   5
ATOM      5  C   UNL     1       0.703   2.363  -2.410  1.00  0.00     0.116 C 
ATOM      6  C   UNL     1       1.371   0.112   0.764  1.00  0.00     0.039 C 
ATOM      7  C   UNL     1       1.203   0.398  -0.706  1.00  0.00    -0.073 C 
ATOM      8  C   UNL     1       0.981  -0.569  -1.621  1.00  0.00    -0.074 C 
ATOM      9  C   UNL     1       1.308   1.879  -1.071  1.00  0.00     0.046 C 
ATOM     10  C   UNL     1       0.836  -2.051  -1.355  1.00  0.00     0.039 C 
ATOM     11  C   UNL     1       0.846  -0.226  -3.068  1.00  0.00     0.045 C 
ATOM     12  C   UNL     1       0.402   1.198  -3.355  1.00  0.00     0.099 C 
BRANCH  12  13
ATOM     13  C   UNL     1      -1.035   1.195  -3.757  1.00  0.00     0.242 C 
ATOM     14  O   UNL     1      -1.231   1.524  -4.936  1.00  0.00    -0.273 OA
ATOM     15  N   UNL     1      -2.079   0.946  -2.877  1.00  0.00    -0.267 N 
ATOM     16  H   UNL     1      -2.989   1.004  -3.248  1.00  0.00     0.191 HD
BRANCH  15  17
ATOM     17  N   UNL     1      -1.980   0.622  -1.532  1.00  0.00    -0.263 N 
ATOM     18  C   UNL     1      -2.963   0.670  -0.551  1.00  0.00     0.280 C 
ATOM     19  H   UNL     1      -1.093   0.317  -1.232  1.00  0.00     0.191 HD
ATOM     20  O   UNL     1      -2.588   0.410   0.596  1.00  0.00    -0.266 OA
BRANCH  18  21
ATOM     21  C   UNL     1      -4.354   0.992  -0.846  1.00  0.00     0.096 A 
ATOM     22  S   UNL     1      -5.045   2.335  -0.022  1.00  0.00    -0.138 S 
ATOM     23  C   UNL     1      -5.327   0.276  -1.532  1.00  0.00    -0.027 A 
ATOM     24  C   UNL     1      -6.626   1.933  -0.524  1.00  0.00     0.066 A 
ATOM     25  C   UNL     1      -6.636   0.833  -1.345  1.00  0.00     0.016 A 
ATOM     26  C   UNL     1      -5.132  -0.988  -2.275  1.00  0.00     0.046 C 
ENDBRANCH  18  21
ENDBRANCH  15  17
ENDBRANCH  12  13
ENDBRANCH   3   5
ENDBRANCH   2   3
ENDBRANCH   1   2
BRANCH   1  27
ATOM     27  C   UNL     1      -3.295   3.471  -4.746  1.00  0.00     0.275 C 
BRANCH  27  28
ATOM     28  O   UNL     1      -3.678   2.052  -4.640  1.00  0.00    -0.458 OA
BRANCH  28  29
ATOM     29  C   UNL     1      -4.052   1.415  -5.804  1.00  0.00     0.338 C 
ATOM     30  O   UNL     1      -4.404   1.987  -6.830  1.00  0.00    -0.246 OA
BRANCH  29  31
ATOM     31  C   UNL     1      -4.054  -0.089  -5.658  1.00  0.00     0.060 A 
ATOM     32  C   UNL     1      -2.915  -0.787  -5.248  1.00  0.00     0.016 A 
ATOM     33  C   UNL     1      -5.160  -0.869  -5.995  1.00  0.00     0.016 A 
ATOM     34  C   UNL     1      -2.906  -2.137  -4.918  1.00  0.00     0.010 A 
ATOM     35  C   UNL     1      -5.146  -2.266  -5.750  1.00  0.00     0.010 A 
ATOM     36  C   UNL     1      -4.038  -2.895  -5.142  1.00  0.00    -0.014 A 
BRANCH  36  37
ATOM     37  C   UNL     1      -3.944  -4.356  -4.908  1.00  0.00     0.031 A 
ATOM     38  C   UNL     1      -3.663  -5.236  -6.084  1.00  0.00     0.074 A 
ATOM     39  C   UNL     1      -3.945  -4.888  -3.668  1.00  0.00     0.049 A 
ATOM     40  N   UNL     1      -3.730  -6.533  -6.182  1.00  0.00    -0.248 NA
ATOM     41  C   UNL     1      -3.192  -4.554  -7.301  1.00  0.00     0.031 C 
ATOM     42  C   UNL     1      -3.861  -4.133  -2.421  1.00  0.00     0.029 A 
ATOM     43  N   UNL     1      -4.026  -6.191  -3.239  1.00  0.00    -0.354 N 
ATOM     44  C   UNL     1      -3.346  -6.826  -7.484  1.00  0.00     0.074 A 
ATOM     45  C   UNL     1      -3.026  -5.573  -8.130  1.00  0.00     0.031 C 
ATOM     46  C   UNL     1      -4.030  -4.957  -1.375  1.00  0.00     0.029 A 
ATOM     47  C   UNL     1      -4.243  -6.303  -1.879  1.00  0.00     0.049 A 
ATOM     48  H   UNL     1      -3.938  -6.965  -3.840  1.00  0.00     0.167 HD
ATOM     49  C   UNL     1      -3.293  -8.041  -8.076  1.00  0.00     0.034 A 
ATOM     50  C   UNL     1      -4.624  -7.364  -1.139  1.00  0.00     0.034 A 
ATOM     51  C   UNL     1      -3.625  -9.261  -7.385  1.00  0.00     0.049 A 
ATOM     52  C   UNL     1      -4.754  -8.684  -1.854  1.00  0.00     0.074 A 
ATOM     53  C   UNL     1      -3.702 -10.547  -7.885  1.00  0.00     0.029 A 
ATOM     54  N   UNL     1      -3.943  -9.338  -6.032  1.00  0.00    -0.354 N 
ATOM     55  N   UNL     1      -4.521  -8.954  -3.120  1.00  0.00    -0.248 NA
ATOM     56  C   UNL     1      -5.174  -9.841  -1.057  1.00  0.00     0.031 C 
ATOM     57  C   UNL     1      -4.135 -11.387  -6.853  1.00  0.00     0.029 A 
ATOM     58  C   UNL     1      -4.250 -10.642  -5.688  1.00  0.00     0.049 A 
ATOM     59  H   UNL     1      -3.949  -8.575  -5.410  1.00  0.00     0.167 HD
ATOM     60  C   UNL     1      -4.721 -10.321  -3.259  1.00  0.00     0.074 A 
ATOM     61  C   UNL     1      -5.086 -10.818  -1.946  1.00  0.00     0.031 C 
ATOM     62  C   UNL     1      -4.607 -11.099  -4.366  1.00  0.00     0.034 A 
BRANCH  49  63
ATOM     63  C   UNL     1      -3.006  -8.068  -9.553  1.00  0.00     0.023 A 
ATOM     64  C   UNL     1      -1.757  -7.711 -10.090  1.00  0.00     0.031 A 
ATOM     65  C   UNL     1      -4.044  -8.387 -10.448  1.00  0.00     0.131 A 
ATOM     66  C   UNL     1      -1.598  -7.625 -11.482  1.00  0.00     0.055 A 
ATOM     67  C   UNL     1      -3.858  -8.369 -11.829  1.00  0.00     0.041 A 
ATOM     68  F   UNL     1      -5.267  -8.697  -9.990  1.00  0.00    -0.206 F 
ATOM     69  C   UNL     1      -2.632  -7.974 -12.355  1.00  0.00     0.022 A 
BRANCH  66  70
ATOM     70  S   UNL     1      -0.060  -6.925 -12.145  1.00  0.00     0.124 S 
ATOM     71  O   UNL     1      -0.110  -5.561 -11.626  1.00  0.00    -0.237 OA
ATOM     72  O   UNL     1       0.959  -7.791 -11.563  1.00  0.00    -0.237 OA
ATOM     73  O   UNL     1      -0.225  -7.043 -13.592  1.00  0.00    -0.744 OA
ENDBRANCH  66  70
ENDBRANCH  49  63
BRANCH  50  74
ATOM     74  C   UNL     1      -4.998  -7.216   0.302  1.00  0.00     0.023 A 
ATOM     75  C   UNL     1      -4.365  -7.956   1.314  1.00  0.00     0.031 A 
ATOM     76  C   UNL     1      -6.074  -6.387   0.682  1.00  0.00     0.131 A 
ATOM     77  C   UNL     1      -4.846  -7.902   2.634  1.00  0.00     0.055 A 
ATOM     78  C   UNL     1      -6.511  -6.291   2.006  1.00  0.00     0.041 A 
ATOM     79  F   UNL     1      -6.729  -5.659  -0.237  1.00  0.00    -0.206 F 
ATOM     80  C   UNL     1      -5.907  -7.066   2.989  1.00  0.00     0.022 A 
BRANCH  77  81
ATOM     81  S   UNL     1      -4.147  -9.039   3.865  1.00  0.00     0.124 S 
ATOM     82  O   UNL     1      -4.283 -10.326   3.192  1.00  0.00    -0.237 OA
ATOM     83  O   UNL     1      -2.787  -8.530   4.005  1.00  0.00    -0.237 OA
ATOM     84  O   UNL     1      -5.007  -8.851   5.031  1.00  0.00    -0.744 OA
ENDBRANCH  77  81
ENDBRANCH  50  74
BRANCH  62  85
ATOM     85  C   UNL     1      -4.827 -12.574  -4.172  1.00  0.00     0.023 A 
ATOM     86  C   UNL     1      -6.089 -13.092  -3.841  1.00  0.00     0.031 A 
ATOM     87  C   UNL     1      -3.752 -13.469  -4.312  1.00  0.00     0.131 A 
ATOM     88  C   UNL     1      -6.233 -14.464  -3.600  1.00  0.00     0.055 A 
ATOM     89  C   UNL     1      -3.917 -14.842  -4.139  1.00  0.00     0.041 A 
ATOM     90  F   UNL     1      -2.525 -13.020  -4.625  1.00  0.00    -0.206 F 
ATOM     91  C   UNL     1      -5.160 -15.345  -3.766  1.00  0.00     0.022 A 
BRANCH  88  92
ATOM     92  S   UNL     1      -7.821 -15.068  -2.969  1.00  0.00     0.124 S 
ATOM     93  O   UNL     1      -7.951 -14.325  -1.720  1.00  0.00    -0.237 OA
ATOM     94  O   UNL     1      -8.744 -14.689  -4.034  1.00  0.00    -0.237 OA
ATOM     95  O   UNL     1      -7.605 -16.505  -2.819  1.00  0.00    -0.744 OA
ENDBRANCH  88  92
ENDBRANCH  62  85
ENDBRANCH  36  37
ENDBRANCH  29  31
ENDBRANCH  28  29
ENDBRANCH  27  28
ENDBRANCH   1  27
TORSDOF 17
