REMARK SMILES O=C(OCCOC(=O)[C@H]1CC=CC[C@@H]1C(=O)Nc1nn(Cc2ccccc2F)cc1Br)c1ccc(-c2c3nc(c(-c4cc(S(=O)(=O)[O-])ccc4F)c4ccc([nH]4)c(-c4cc(S(=O)(=O)[O-])ccc4F)c4nc(c(-c5cc(S(=O)(=O)[O-])ccc5F)c5ccc2[nH]5)C=C4)C=C3)cc1
REMARK SMILES IDX 5 1 4 2 3 3 2 4 1 5 32 6 33 7 94 8 34 9 93 10 35 11 36 12
REMARK SMILES IDX 37 13 87 14 38 15 92 16 86 17 88 18 39 19 91 20 85 21 84 22
REMARK SMILES IDX 40 24 72 25 52 26 71 27 53 28 56 29 70 30 89 31 54 32 55 33
REMARK SMILES IDX 69 35 90 36 57 37 41 38 42 39 50 40 43 41 49 42 51 43 48 44
REMARK SMILES IDX 44 45 45 46 46 47 47 48 73 49 74 50 82 51 75 52 81 53 83 54
REMARK SMILES IDX 80 55 76 56 77 57 78 58 79 59 58 60 59 61 67 62 60 63 66 64
REMARK SMILES IDX 68 65 65 66 61 67 62 68 63 69 64 70 6 71 7 72 8 73 9 74
REMARK SMILES IDX 10 75 14 76 11 77 13 78 12 79 15 80 16 81 17 82 18 84 19 85
REMARK SMILES IDX 30 86 20 87 29 88 31 89 21 90 22 91 23 92 27 93 24 94 26 95
REMARK SMILES IDX 28 96 25 97
REMARK H PARENT 88 23 56 34 17 83
REMARK Flexibility Score: inf
ROOT
ATOM      1  C   UNL     1       4.843   1.236  -0.789  1.00  0.00     0.274 C 
ENDROOT
BRANCH   1   2
ATOM      2  C   UNL     1       5.531  -0.133  -0.847  1.00  0.00     0.275 C 
BRANCH   2   3
ATOM      3  O   UNL     1       4.809  -1.251  -0.334  1.00  0.00    -0.458 OA
BRANCH   3   4
ATOM      4  C   UNL     1       3.468  -1.239  -0.391  1.00  0.00     0.338 C 
ATOM      5  O   UNL     1       2.785  -0.861  -1.337  1.00  0.00    -0.246 OA
BRANCH   4   6
ATOM      6  C   UNL     1       2.972  -1.593   0.958  1.00  0.00     0.060 A 
ATOM      7  C   UNL     1       3.864  -1.731   2.031  1.00  0.00     0.016 A 
ATOM      8  C   UNL     1       1.598  -1.664   1.184  1.00  0.00     0.016 A 
ATOM      9  C   UNL     1       3.385  -1.981   3.303  1.00  0.00     0.010 A 
ATOM     10  C   UNL     1       1.114  -1.871   2.470  1.00  0.00     0.010 A 
ATOM     11  C   UNL     1       2.009  -2.074   3.525  1.00  0.00    -0.014 A 
BRANCH  11  12
ATOM     12  C   UNL     1       1.583  -2.417   4.879  1.00  0.00     0.031 A 
ATOM     13  C   UNL     1       2.133  -1.615   6.012  1.00  0.00     0.074 A 
ATOM     14  C   UNL     1       0.718  -3.410   5.155  1.00  0.00     0.049 A 
ATOM     15  N   UNL     1       2.937  -2.006   6.950  1.00  0.00    -0.248 NA
ATOM     16  C   UNL     1       1.780  -0.194   6.088  1.00  0.00     0.031 C 
ATOM     17  C   UNL     1      -0.120  -4.186   4.241  1.00  0.00     0.029 A 
ATOM     18  N   UNL     1       0.361  -3.877   6.383  1.00  0.00    -0.354 N 
ATOM     19  C   UNL     1       3.075  -0.934   7.829  1.00  0.00     0.074 A 
ATOM     20  C   UNL     1       2.415   0.184   7.200  1.00  0.00     0.031 C 
ATOM     21  C   UNL     1      -1.048  -4.859   4.955  1.00  0.00     0.029 A 
ATOM     22  C   UNL     1      -0.755  -4.692   6.366  1.00  0.00     0.049 A 
ATOM     23  H   UNL     1       0.852  -3.654   7.207  1.00  0.00     0.167 HD
ATOM     24  C   UNL     1       3.610  -1.069   9.077  1.00  0.00     0.034 A 
ATOM     25  C   UNL     1      -1.423  -5.165   7.443  1.00  0.00     0.034 A 
ATOM     26  C   UNL     1       4.348  -2.296   9.221  1.00  0.00     0.049 A 
ATOM     27  C   UNL     1      -0.450  -5.231   8.559  1.00  0.00     0.074 A 
ATOM     28  C   UNL     1       5.453  -2.843   8.597  1.00  0.00     0.029 A 
ATOM     29  N   UNL     1       3.766  -3.338   9.902  1.00  0.00    -0.354 N 
ATOM     30  N   UNL     1       0.600  -6.008   8.553  1.00  0.00    -0.248 NA
ATOM     31  C   UNL     1      -0.406  -4.142   9.521  1.00  0.00     0.031 C 
ATOM     32  C   UNL     1       5.169  -4.239   8.507  1.00  0.00     0.029 A 
ATOM     33  C   UNL     1       3.929  -4.451   9.113  1.00  0.00     0.049 A 
ATOM     34  H   UNL     1       3.321  -3.295  10.779  1.00  0.00     0.167 HD
ATOM     35  C   UNL     1       1.591  -5.281   9.194  1.00  0.00     0.074 A 
ATOM     36  C   UNL     1       0.882  -4.198   9.869  1.00  0.00     0.031 C 
ATOM     37  C   UNL     1       2.914  -5.465   8.908  1.00  0.00     0.034 A 
BRANCH  24  38
ATOM     38  C   UNL     1       3.286  -0.192  10.261  1.00  0.00     0.023 A 
ATOM     39  C   UNL     1       4.086  -0.275  11.420  1.00  0.00     0.031 A 
ATOM     40  C   UNL     1       2.081   0.532  10.391  1.00  0.00     0.131 A 
ATOM     41  C   UNL     1       3.673   0.319  12.628  1.00  0.00     0.055 A 
ATOM     42  C   UNL     1       1.704   1.172  11.575  1.00  0.00     0.041 A 
ATOM     43  F   UNL     1       1.170   0.572   9.409  1.00  0.00    -0.206 F 
ATOM     44  C   UNL     1       2.492   1.055  12.708  1.00  0.00     0.022 A 
BRANCH  41  45
ATOM     45  S   UNL     1       4.625  -0.004  14.140  1.00  0.00     0.124 S 
ATOM     46  O   UNL     1       4.656  -1.462  14.174  1.00  0.00    -0.237 OA
ATOM     47  O   UNL     1       5.892   0.659  13.850  1.00  0.00    -0.237 OA
ATOM     48  O   UNL     1       3.824   0.623  15.189  1.00  0.00    -0.744 OA
ENDBRANCH  41  45
ENDBRANCH  24  38
BRANCH  25  49
ATOM     49  C   UNL     1      -2.897  -5.210   7.589  1.00  0.00     0.023 A 
ATOM     50  C   UNL     1      -3.515  -5.956   8.606  1.00  0.00     0.031 A 
ATOM     51  C   UNL     1      -3.722  -4.325   6.854  1.00  0.00     0.131 A 
ATOM     52  C   UNL     1      -4.897  -5.809   8.851  1.00  0.00     0.055 A 
ATOM     53  C   UNL     1      -5.091  -4.195   7.090  1.00  0.00     0.041 A 
ATOM     54  F   UNL     1      -3.211  -3.491   5.934  1.00  0.00    -0.206 F 
ATOM     55  C   UNL     1      -5.684  -4.933   8.100  1.00  0.00     0.022 A 
BRANCH  52  56
ATOM     56  S   UNL     1      -5.669  -6.667  10.256  1.00  0.00     0.124 S 
ATOM     57  O   UNL     1      -5.916  -7.993   9.702  1.00  0.00    -0.237 OA
ATOM     58  O   UNL     1      -4.643  -6.579  11.289  1.00  0.00    -0.237 OA
ATOM     59  O   UNL     1      -6.868  -5.870  10.516  1.00  0.00    -0.744 OA
ENDBRANCH  52  56
ENDBRANCH  25  49
BRANCH  37  60
ATOM     60  C   UNL     1       3.321  -6.670   8.087  1.00  0.00     0.023 A 
ATOM     61  C   UNL     1       2.918  -6.894   6.752  1.00  0.00     0.031 A 
ATOM     62  C   UNL     1       4.287  -7.534   8.633  1.00  0.00     0.131 A 
ATOM     63  C   UNL     1       3.478  -7.957   6.015  1.00  0.00     0.055 A 
ATOM     64  C   UNL     1       4.850  -8.576   7.896  1.00  0.00     0.041 A 
ATOM     65  F   UNL     1       4.739  -7.346   9.884  1.00  0.00    -0.206 F 
ATOM     66  C   UNL     1       4.446  -8.792   6.583  1.00  0.00     0.022 A 
BRANCH  63  67
ATOM     67  S   UNL     1       2.977  -8.248   4.287  1.00  0.00     0.124 S 
ATOM     68  O   UNL     1       1.531  -8.420   4.381  1.00  0.00    -0.237 OA
ATOM     69  O   UNL     1       3.439  -7.041   3.608  1.00  0.00    -0.237 OA
ATOM     70  O   UNL     1       3.708  -9.463   3.920  1.00  0.00    -0.744 OA
ENDBRANCH  63  67
ENDBRANCH  37  60
ENDBRANCH  11  12
ENDBRANCH   4   6
ENDBRANCH   3   4
ENDBRANCH   2   3
ENDBRANCH   1   2
BRANCH   1  71
ATOM     71  O   UNL     1       4.215   1.545   0.477  1.00  0.00    -0.462 OA
BRANCH  71  72
ATOM     72  C   UNL     1       3.833   2.856   0.540  1.00  0.00     0.310 C 
ATOM     73  O   UNL     1       4.260   3.703  -0.244  1.00  0.00    -0.252 OA
BRANCH  72  74
ATOM     74  C   UNL     1       2.837   3.204   1.661  1.00  0.00     0.116 C 
ATOM     75  C   UNL     1       2.038   4.442   1.181  1.00  0.00     0.043 C 
ATOM     76  C   UNL     1       1.821   2.089   2.040  1.00  0.00     0.097 C 
ATOM     77  C   UNL     1       1.055   4.067   0.106  1.00  0.00    -0.030 C 
ATOM     78  C   UNL     1       1.077   1.647   0.789  1.00  0.00     0.041 C 
ATOM     79  C   UNL     1       0.674   2.798  -0.094  1.00  0.00    -0.030 C 
BRANCH  76  80
ATOM     80  C   UNL     1       1.011   2.558   3.276  1.00  0.00     0.229 C 
ATOM     81  O   UNL     1       1.632   2.683   4.346  1.00  0.00    -0.274 OA
ATOM     82  N   UNL     1      -0.243   3.083   3.285  1.00  0.00    -0.308 N 
ATOM     83  H   UNL     1      -0.467   3.560   4.116  1.00  0.00     0.171 HD
BRANCH  82  84
ATOM     84  C   UNL     1      -1.260   3.080   2.359  1.00  0.00     0.168 A 
ATOM     85  N   UNL     1      -1.702   2.001   1.707  1.00  0.00    -0.153 NA
ATOM     86  C   UNL     1      -2.046   4.204   2.016  1.00  0.00     0.080 A 
ATOM     87  N   UNL     1      -2.619   2.471   0.832  1.00  0.00    -0.265 N 
ATOM     88  C   UNL     1      -2.871   3.807   0.997  1.00  0.00     0.127 A 
ATOM     89  Br  UNL     1      -1.845   5.939   2.689  1.00  0.00    -0.045 Br
BRANCH  87  90
ATOM     90  C   UNL     1      -3.297   1.577  -0.109  1.00  0.00     0.182 C 
BRANCH  90  91
ATOM     91  C   UNL     1      -2.359   0.867  -1.050  1.00  0.00     0.009 A 
ATOM     92  C   UNL     1      -1.904   1.460  -2.239  1.00  0.00     0.008 A 
ATOM     93  C   UNL     1      -1.893  -0.411  -0.729  1.00  0.00     0.128 A 
ATOM     94  C   UNL     1      -0.961   0.806  -3.043  1.00  0.00     0.001 A 
ATOM     95  C   UNL     1      -0.981  -1.077  -1.542  1.00  0.00     0.039 A 
ATOM     96  F   UNL     1      -2.323  -1.018   0.385  1.00  0.00    -0.207 F 
ATOM     97  C   UNL     1      -0.490  -0.457  -2.687  1.00  0.00     0.003 A 
ENDBRANCH  90  91
ENDBRANCH  87  90
ENDBRANCH  82  84
ENDBRANCH  76  80
ENDBRANCH  72  74
ENDBRANCH  71  72
ENDBRANCH   1  71
TORSDOF 18
