REMARK SMILES CCS(=O)(=O)c1ccccc1NC[C@H]1CC[C@H](C(=O)OCCOC(=O)c2ccc(-c3c4nc(c(-c5cc(S(=O)(=O)[O-])ccc5F)c5ccc([nH]5)c(-c5cc(S(=O)(=O)[O-])ccc5F)c5nc(c(-c6cc(S(=O)(=O)[O-])ccc6F)c6ccc3[nH]6)C=C5)C=C4)cc2)O1
REMARK SMILES IDX 21 1 20 2 18 3 19 4 17 5 14 6 15 7 89 8 16 9 13 10 12 11
REMARK SMILES IDX 11 13 6 14 7 15 8 16 10 17 9 18 3 19 4 20 5 21 2 22 1 23
REMARK SMILES IDX 22 24 23 25 24 26 25 27 26 28 27 29 88 30 28 31 87 32 29 33
REMARK SMILES IDX 30 34 31 35 81 36 32 37 86 38 80 39 82 40 33 41 85 42 79 43
REMARK SMILES IDX 78 44 34 46 66 47 46 48 65 49 47 50 50 51 64 52 83 53 48 54
REMARK SMILES IDX 49 55 63 57 84 58 51 59 35 60 36 61 44 62 37 63 43 64 45 65
REMARK SMILES IDX 42 66 38 67 39 68 40 69 41 70 67 71 68 72 76 73 69 74 75 75
REMARK SMILES IDX 77 76 74 77 70 78 71 79 72 80 73 81 52 82 53 83 61 84 54 85
REMARK SMILES IDX 60 86 62 87 59 88 55 89 56 90 57 91 58 92
REMARK H PARENT 12 12 82 45 50 56
REMARK Flexibility Score: inf
ROOT
ATOM      1  C   UNL     1       5.261   8.332   3.799  1.00  0.00     0.274 C 
ENDROOT
BRANCH   1   2
ATOM      2  O   UNL     1       4.845   7.281   2.909  1.00  0.00    -0.460 OA
BRANCH   2   3
ATOM      3  C   UNL     1       3.527   7.282   2.564  1.00  0.00     0.335 C 
ATOM      4  O   UNL     1       2.693   8.060   3.014  1.00  0.00    -0.249 OA
BRANCH   3   5
ATOM      5  C   UNL     1       3.185   6.191   1.545  1.00  0.00     0.228 C 
ATOM      6  C   UNL     1       3.447   3.881   1.371  1.00  0.00     0.138 C 
ATOM      7  C   UNL     1       4.736   4.521   0.887  1.00  0.00     0.037 C 
ATOM      8  O   UNL     1       2.847   4.931   2.163  1.00  0.00    -0.361 OA
ATOM      9  C   UNL     1       4.283   5.912   0.520  1.00  0.00     0.047 C 
BRANCH   6  10
ATOM     10  C   UNL     1       2.460   3.458   0.256  1.00  0.00     0.145 C 
BRANCH  10  11
ATOM     11  N   UNL     1       3.125   2.881  -0.900  1.00  0.00    -0.381 N 
ATOM     12  H   UNL     1       3.340   3.508  -1.628  1.00  0.00     0.160 HD
BRANCH  11  13
ATOM     13  C   UNL     1       3.493   1.571  -1.108  1.00  0.00     0.053 A 
ATOM     14  C   UNL     1       4.217   1.167  -2.249  1.00  0.00     0.090 A 
ATOM     15  C   UNL     1       4.552  -0.181  -2.472  1.00  0.00     0.022 A 
ATOM     16  C   UNL     1       4.202  -1.151  -1.540  1.00  0.00     0.001 A 
ATOM     17  C   UNL     1       3.179   0.567  -0.178  1.00  0.00     0.027 A 
ATOM     18  C   UNL     1       3.522  -0.774  -0.389  1.00  0.00     0.002 A 
BRANCH  14  19
ATOM     19  S   UNL     1       4.731   2.320  -3.517  1.00  0.00     0.180 S 
ATOM     20  O   UNL     1       4.205   3.636  -3.200  1.00  0.00    -0.224 OA
ATOM     21  O   UNL     1       4.423   1.691  -4.789  1.00  0.00    -0.224 OA
BRANCH  19  22
ATOM     22  C   UNL     1       6.504   2.390  -3.375  1.00  0.00     0.139 C 
ATOM     23  C   UNL     1       6.996   2.907  -2.040  1.00  0.00     0.021 C 
ENDBRANCH  19  22
ENDBRANCH  14  19
ENDBRANCH  11  13
ENDBRANCH  10  11
ENDBRANCH   6  10
ENDBRANCH   3   5
ENDBRANCH   2   3
ENDBRANCH   1   2
BRANCH   1  24
ATOM     24  C   UNL     1       5.904   9.496   3.039  1.00  0.00     0.275 C 
BRANCH  24  25
ATOM     25  O   UNL     1       4.947  10.193   2.220  1.00  0.00    -0.458 OA
BRANCH  25  26
ATOM     26  C   UNL     1       4.938   9.843   0.911  1.00  0.00     0.338 C 
ATOM     27  O   UNL     1       5.662   9.033   0.361  1.00  0.00    -0.246 OA
BRANCH  26  28
ATOM     28  C   UNL     1       3.816  10.510   0.233  1.00  0.00     0.060 A 
ATOM     29  C   UNL     1       2.751   9.726  -0.220  1.00  0.00     0.016 A 
ATOM     30  C   UNL     1       3.843  11.883  -0.014  1.00  0.00     0.016 A 
ATOM     31  C   UNL     1       1.696  10.317  -0.912  1.00  0.00     0.010 A 
ATOM     32  C   UNL     1       2.782  12.475  -0.708  1.00  0.00     0.010 A 
ATOM     33  C   UNL     1       1.702  11.696  -1.161  1.00  0.00    -0.014 A 
BRANCH  33  34
ATOM     34  C   UNL     1       0.584  12.324  -1.908  1.00  0.00     0.031 A 
ATOM     35  C   UNL     1       0.783  12.763  -3.330  1.00  0.00     0.074 A 
ATOM     36  C   UNL     1      -0.604  12.502  -1.300  1.00  0.00     0.049 A 
ATOM     37  N   UNL     1      -0.027  13.428  -4.112  1.00  0.00    -0.248 NA
ATOM     38  C   UNL     1       2.068  12.409  -3.949  1.00  0.00     0.031 C 
ATOM     39  C   UNL     1      -0.925  12.074   0.062  1.00  0.00     0.029 A 
ATOM     40  N   UNL     1      -1.758  13.096  -1.744  1.00  0.00    -0.354 N 
ATOM     41  C   UNL     1       0.652  13.586  -5.316  1.00  0.00     0.074 A 
ATOM     42  C   UNL     1       1.951  12.966  -5.146  1.00  0.00     0.031 C 
ATOM     43  C   UNL     1      -2.190  12.426   0.345  1.00  0.00     0.029 A 
ATOM     44  C   UNL     1      -2.749  13.151  -0.792  1.00  0.00     0.049 A 
ATOM     45  H   UNL     1      -1.866  13.449  -2.657  1.00  0.00     0.167 HD
ATOM     46  C   UNL     1       0.227  14.191  -6.453  1.00  0.00     0.034 A 
ATOM     47  C   UNL     1      -3.955  13.753  -0.819  1.00  0.00     0.034 A 
ATOM     48  C   UNL     1      -1.071  14.806  -6.599  1.00  0.00     0.049 A 
ATOM     49  C   UNL     1      -4.369  14.498  -2.062  1.00  0.00     0.074 A 
ATOM     50  C   UNL     1      -1.613  15.428  -7.711  1.00  0.00     0.029 A 
ATOM     51  N   UNL     1      -2.030  14.890  -5.596  1.00  0.00    -0.354 N 
ATOM     52  N   UNL     1      -3.713  14.652  -3.189  1.00  0.00    -0.248 NA
ATOM     53  C   UNL     1      -5.683  15.153  -2.034  1.00  0.00     0.031 C 
ATOM     54  C   UNL     1      -2.867  15.944  -7.362  1.00  0.00     0.029 A 
ATOM     55  C   UNL     1      -3.140  15.585  -6.051  1.00  0.00     0.049 A 
ATOM     56  H   UNL     1      -1.934  14.511  -4.692  1.00  0.00     0.167 HD
ATOM     57  C   UNL     1      -4.543  15.411  -4.010  1.00  0.00     0.074 A 
ATOM     58  C   UNL     1      -5.753  15.665  -3.254  1.00  0.00     0.031 C 
ATOM     59  C   UNL     1      -4.328  15.854  -5.274  1.00  0.00     0.034 A 
BRANCH  46  60
ATOM     60  C   UNL     1       1.202  14.267  -7.603  1.00  0.00     0.023 A 
ATOM     61  C   UNL     1       1.651  13.117  -8.276  1.00  0.00     0.031 A 
ATOM     62  C   UNL     1       1.710  15.512  -8.015  1.00  0.00     0.131 A 
ATOM     63  C   UNL     1       2.627  13.230  -9.279  1.00  0.00     0.055 A 
ATOM     64  C   UNL     1       2.627  15.624  -9.062  1.00  0.00     0.041 A 
ATOM     65  F   UNL     1       1.334  16.642  -7.396  1.00  0.00    -0.206 F 
ATOM     66  C   UNL     1       3.102  14.478  -9.691  1.00  0.00     0.022 A 
BRANCH  63  67
ATOM     67  S   UNL     1       3.368  11.715  -9.948  1.00  0.00     0.124 S 
ATOM     68  O   UNL     1       3.919  11.099  -8.743  1.00  0.00    -0.237 OA
ATOM     69  O   UNL     1       2.221  11.041 -10.544  1.00  0.00    -0.237 OA
ATOM     70  O   UNL     1       4.363  12.210 -10.897  1.00  0.00    -0.744 OA
ENDBRANCH  63  67
ENDBRANCH  46  60
BRANCH  47  71
ATOM     71  C   UNL     1      -4.829  13.739   0.388  1.00  0.00     0.023 A 
ATOM     72  C   UNL     1      -6.076  13.096   0.376  1.00  0.00     0.031 A 
ATOM     73  C   UNL     1      -4.442  14.409   1.563  1.00  0.00     0.131 A 
ATOM     74  C   UNL     1      -6.908  13.165   1.505  1.00  0.00     0.055 A 
ATOM     75  C   UNL     1      -5.251  14.433   2.700  1.00  0.00     0.041 A 
ATOM     76  F   UNL     1      -3.261  15.044   1.626  1.00  0.00    -0.206 F 
ATOM     77  C   UNL     1      -6.498  13.817   2.671  1.00  0.00     0.022 A 
BRANCH  74  78
ATOM     78  S   UNL     1      -8.573  12.452   1.404  1.00  0.00     0.124 S 
ATOM     79  O   UNL     1      -9.147  13.193   0.286  1.00  0.00    -0.237 OA
ATOM     80  O   UNL     1      -8.285  11.043   1.160  1.00  0.00    -0.237 OA
ATOM     81  O   UNL     1      -9.151  12.750   2.713  1.00  0.00    -0.744 OA
ENDBRANCH  74  78
ENDBRANCH  47  71
BRANCH  59  82
ATOM     82  C   UNL     1      -5.444  16.638  -5.918  1.00  0.00     0.023 A 
ATOM     83  C   UNL     1      -5.789  17.927  -5.475  1.00  0.00     0.031 A 
ATOM     84  C   UNL     1      -6.184  16.079  -6.974  1.00  0.00     0.131 A 
ATOM     85  C   UNL     1      -6.879  18.595  -6.053  1.00  0.00     0.055 A 
ATOM     86  C   UNL     1      -7.234  16.770  -7.581  1.00  0.00     0.041 A 
ATOM     87  F   UNL     1      -5.898  14.850  -7.434  1.00  0.00    -0.206 F 
ATOM     88  C   UNL     1      -7.594  18.031  -7.113  1.00  0.00     0.022 A 
BRANCH  85  89
ATOM     89  S   UNL     1      -7.402  20.183  -5.349  1.00  0.00     0.124 S 
ATOM     90  O   UNL     1      -7.740  19.812  -3.979  1.00  0.00    -0.237 OA
ATOM     91  O   UNL     1      -6.208  21.006  -5.511  1.00  0.00    -0.237 OA
ATOM     92  O   UNL     1      -8.538  20.571  -6.184  1.00  0.00    -0.744 OA
ENDBRANCH  85  89
ENDBRANCH  59  82
ENDBRANCH  33  34
ENDBRANCH  26  28
ENDBRANCH  25  26
ENDBRANCH  24  25
ENDBRANCH   1  24
TORSDOF 19
