REMARK SMILES C[C@H]1[C@H](C(=O)OCCOC(=O)c2ccc(-c3c4nc(c(-c5cc(S(=O)(=O)[O-])ccc5F)c5ccc([nH]5)c(-c5cc(S(=O)(=O)[O-])ccc5F)c5nc(c(-c6cc(S(=O)(=O)[O-])ccc6F)c6ccc3[nH]6)C=C5)C=C4)cc2)CCN1C(=O)Nc1ccc(F)c(Cl)c1
REMARK SMILES IDX 8 1 7 2 6 3 4 4 5 5 3 6 1 7 2 8 77 9 75 10 76 11 78 12 79 13
REMARK SMILES IDX 80 14 81 16 82 17 88 18 83 19 86 20 84 21 87 22 85 23 9 24
REMARK SMILES IDX 10 25 11 26 12 27 13 28 74 29 14 30 73 31 15 32 16 33 17 34
REMARK SMILES IDX 67 35 18 36 72 37 66 38 68 39 19 40 71 41 65 42 64 43 20 45
REMARK SMILES IDX 52 46 32 47 51 48 33 49 36 50 50 51 69 52 34 53 35 54 49 56
REMARK SMILES IDX 70 57 37 58 21 59 22 60 30 61 23 62 29 63 31 64 28 65 24 66
REMARK SMILES IDX 25 67 26 68 27 69 53 70 54 71 62 72 55 73 61 74 63 75 60 76
REMARK SMILES IDX 56 77 57 78 58 79 59 80 38 81 39 82 47 83 40 84 46 85 48 86
REMARK SMILES IDX 45 87 41 88 42 89 43 90 44 91
REMARK H PARENT 80 15 68 44 36 55
REMARK Flexibility Score: inf
ROOT
ATOM      1  C   UNL     1       0.693   3.679   3.470  1.00  0.00     0.275 C 
ENDROOT
BRANCH   1   2
ATOM      2  C   UNL     1      -0.648   2.977   3.236  1.00  0.00     0.274 C 
BRANCH   2   3
ATOM      3  O   UNL     1      -0.537   1.886   2.301  1.00  0.00    -0.462 OA
BRANCH   3   4
ATOM      4  C   UNL     1      -0.880   2.168   1.018  1.00  0.00     0.311 C 
ATOM      5  O   UNL     1      -1.327   3.245   0.639  1.00  0.00    -0.252 OA
BRANCH   4   6
ATOM      6  C   UNL     1      -0.745   0.988   0.082  1.00  0.00     0.123 C 
ATOM      7  C   UNL     1       1.453   0.100  -0.788  1.00  0.00     0.032 C 
ATOM      8  C   UNL     1       0.440   0.034   0.361  1.00  0.00     0.098 C 
ATOM      9  N   UNL     1      -0.166  -1.301   0.479  1.00  0.00    -0.321 N 
ATOM     10  C   UNL     1      -2.005   0.131   0.164  1.00  0.00     0.039 C 
ATOM     11  C   UNL     1      -1.509  -1.276  -0.068  1.00  0.00     0.122 C 
BRANCH   9  12
ATOM     12  C   UNL     1       0.386  -2.518   0.773  1.00  0.00     0.322 C 
ATOM     13  O   UNL     1      -0.261  -3.562   0.625  1.00  0.00    -0.248 OA
ATOM     14  N   UNL     1       1.701  -2.664   1.061  1.00  0.00    -0.308 N 
ATOM     15  H   UNL     1       2.063  -3.526   0.752  1.00  0.00     0.171 HD
BRANCH  14  16
ATOM     16  C   UNL     1       2.663  -1.873   1.695  1.00  0.00     0.044 A 
ATOM     17  C   UNL     1       3.988  -2.022   1.262  1.00  0.00     0.029 A 
ATOM     18  C   UNL     1       2.377  -1.026   2.767  1.00  0.00     0.049 A 
ATOM     19  C   UNL     1       5.007  -1.254   1.825  1.00  0.00     0.043 A 
ATOM     20  C   UNL     1       3.408  -0.288   3.357  1.00  0.00     0.078 A 
ATOM     21  C   UNL     1       4.710  -0.386   2.868  1.00  0.00     0.141 A 
ATOM     22  Cl  UNL     1       3.067   0.704   4.725  1.00  0.00    -0.081 Cl
ATOM     23  F   UNL     1       5.705   0.330   3.412  1.00  0.00    -0.205 F 
ENDBRANCH  14  16
ENDBRANCH   9  12
ENDBRANCH   4   6
ENDBRANCH   3   4
ENDBRANCH   2   3
ENDBRANCH   1   2
BRANCH   1  24
ATOM     24  O   UNL     1       1.182   4.334   2.289  1.00  0.00    -0.458 OA
BRANCH  24  25
ATOM     25  C   UNL     1       1.977   3.572   1.501  1.00  0.00     0.338 C 
ATOM     26  O   UNL     1       2.310   2.414   1.679  1.00  0.00    -0.246 OA
BRANCH  25  27
ATOM     27  C   UNL     1       2.310   4.316   0.283  1.00  0.00     0.060 A 
ATOM     28  C   UNL     1       1.686   3.950  -0.912  1.00  0.00     0.016 A 
ATOM     29  C   UNL     1       3.297   5.299   0.305  1.00  0.00     0.016 A 
ATOM     30  C   UNL     1       2.060   4.555  -2.106  1.00  0.00     0.010 A 
ATOM     31  C   UNL     1       3.652   5.926  -0.889  1.00  0.00     0.010 A 
ATOM     32  C   UNL     1       3.041   5.552  -2.101  1.00  0.00    -0.014 A 
BRANCH  32  33
ATOM     33  C   UNL     1       3.450   6.207  -3.363  1.00  0.00     0.031 A 
ATOM     34  C   UNL     1       4.808   5.930  -3.934  1.00  0.00     0.074 A 
ATOM     35  C   UNL     1       2.610   7.071  -3.962  1.00  0.00     0.049 A 
ATOM     36  N   UNL     1       5.443   6.546  -4.894  1.00  0.00    -0.248 NA
ATOM     37  C   UNL     1       5.551   4.813  -3.333  1.00  0.00     0.031 C 
ATOM     38  C   UNL     1       1.243   7.359  -3.524  1.00  0.00     0.029 A 
ATOM     39  N   UNL     1       2.791   7.882  -5.053  1.00  0.00    -0.354 N 
ATOM     40  C   UNL     1       6.676   5.914  -4.997  1.00  0.00     0.074 A 
ATOM     41  C   UNL     1       6.700   4.872  -3.990  1.00  0.00     0.031 C 
ATOM     42  C   UNL     1       0.716   8.297  -4.326  1.00  0.00     0.029 A 
ATOM     43  C   UNL     1       1.729   8.725  -5.285  1.00  0.00     0.049 A 
ATOM     44  H   UNL     1       3.600   7.863  -5.613  1.00  0.00     0.167 HD
ATOM     45  C   UNL     1       7.693   6.190  -5.851  1.00  0.00     0.034 A 
ATOM     46  C   UNL     1       1.612   9.764  -6.135  1.00  0.00     0.034 A 
ATOM     47  C   UNL     1       7.637   7.240  -6.839  1.00  0.00     0.049 A 
ATOM     48  C   UNL     1       2.784  10.110  -7.016  1.00  0.00     0.074 A 
ATOM     49  C   UNL     1       8.602   7.620  -7.755  1.00  0.00     0.029 A 
ATOM     50  N   UNL     1       6.551   8.086  -7.035  1.00  0.00    -0.354 N 
ATOM     51  N   UNL     1       3.964   9.537  -7.079  1.00  0.00    -0.248 NA
ATOM     52  C   UNL     1       2.614  11.243  -7.934  1.00  0.00     0.031 C 
ATOM     53  C   UNL     1       8.124   8.729  -8.463  1.00  0.00     0.029 A 
ATOM     54  C   UNL     1       6.832   8.999  -8.039  1.00  0.00     0.049 A 
ATOM     55  H   UNL     1       5.705   8.043  -6.534  1.00  0.00     0.167 HD
ATOM     56  C   UNL     1       4.666  10.221  -8.065  1.00  0.00     0.074 A 
ATOM     57  C   UNL     1       3.777  11.250  -8.569  1.00  0.00     0.031 C 
ATOM     58  C   UNL     1       5.926  10.014  -8.522  1.00  0.00     0.034 A 
BRANCH  45  59
ATOM     59  C   UNL     1       8.963   5.391  -5.698  1.00  0.00     0.023 A 
ATOM     60  C   UNL     1       9.005   4.007  -5.941  1.00  0.00     0.031 A 
ATOM     61  C   UNL     1      10.143   6.019  -5.262  1.00  0.00     0.131 A 
ATOM     62  C   UNL     1      10.181   3.286  -5.681  1.00  0.00     0.055 A 
ATOM     63  C   UNL     1      11.331   5.309  -5.078  1.00  0.00     0.041 A 
ATOM     64  F   UNL     1      10.158   7.333  -4.991  1.00  0.00    -0.206 F 
ATOM     65  C   UNL     1      11.351   3.931  -5.273  1.00  0.00     0.022 A 
BRANCH  62  66
ATOM     66  S   UNL     1      10.122   1.474  -5.749  1.00  0.00     0.124 S 
ATOM     67  O   UNL     1       9.092   1.174  -4.756  1.00  0.00    -0.237 OA
ATOM     68  O   UNL     1       9.762   1.221  -7.139  1.00  0.00    -0.237 OA
ATOM     69  O   UNL     1      11.475   1.072  -5.371  1.00  0.00    -0.744 OA
ENDBRANCH  62  66
ENDBRANCH  45  59
BRANCH  46  70
ATOM     70  C   UNL     1       0.371  10.587  -6.143  1.00  0.00     0.023 A 
ATOM     71  C   UNL     1      -0.467  10.625  -7.267  1.00  0.00     0.031 A 
ATOM     72  C   UNL     1       0.015  11.366  -5.026  1.00  0.00     0.131 A 
ATOM     73  C   UNL     1      -1.603  11.450  -7.262  1.00  0.00     0.055 A 
ATOM     74  C   UNL     1      -1.141  12.146  -5.008  1.00  0.00     0.041 A 
ATOM     75  F   UNL     1       0.783  11.364  -3.924  1.00  0.00    -0.206 F 
ATOM     76  C   UNL     1      -1.953  12.199  -6.136  1.00  0.00     0.022 A 
BRANCH  73  77
ATOM     77  S   UNL     1      -2.585  11.583  -8.781  1.00  0.00     0.124 S 
ATOM     78  O   UNL     1      -1.591  12.057  -9.737  1.00  0.00    -0.237 OA
ATOM     79  O   UNL     1      -3.048  10.211  -8.964  1.00  0.00    -0.237 OA
ATOM     80  O   UNL     1      -3.625  12.548  -8.431  1.00  0.00    -0.744 OA
ENDBRANCH  73  77
ENDBRANCH  46  70
BRANCH  58  81
ATOM     81  C   UNL     1       6.387  10.876  -9.668  1.00  0.00     0.023 A 
ATOM     82  C   UNL     1       6.700  12.234  -9.495  1.00  0.00     0.031 A 
ATOM     83  C   UNL     1       6.529  10.314 -10.949  1.00  0.00     0.131 A 
ATOM     84  C   UNL     1       7.109  12.997 -10.599  1.00  0.00     0.055 A 
ATOM     85  C   UNL     1       6.979  11.066 -12.033  1.00  0.00     0.041 A 
ATOM     86  F   UNL     1       6.241   9.020 -11.162  1.00  0.00    -0.206 F 
ATOM     87  C   UNL     1       7.265  12.418 -11.863  1.00  0.00     0.022 A 
BRANCH  84  88
ATOM     88  S   UNL     1       7.397  14.774 -10.376  1.00  0.00     0.124 S 
ATOM     89  O   UNL     1       6.068  15.251 -10.009  1.00  0.00    -0.237 OA
ATOM     90  O   UNL     1       8.399  14.800  -9.315  1.00  0.00    -0.237 OA
ATOM     91  O   UNL     1       7.874  15.211 -11.686  1.00  0.00    -0.744 OA
ENDBRANCH  84  88
ENDBRANCH  58  81
ENDBRANCH  32  33
ENDBRANCH  25  27
ENDBRANCH  24  25
ENDBRANCH   1  24
TORSDOF 16
