REMARK SMILES Cc1nn(C)c(C)c1CN(C)C(=O)[C@@H]1CC=CC[C@@H]1C(=O)OCCOC(=O)c1ccc(-c2c3nc(c(-c4cc(S(=O)(=O)[O-])ccc4F)c4ccc([nH]4)c(-c4cc(S(=O)(=O)[O-])ccc4F)c4nc(c(-c5cc(S(=O)(=O)[O-])ccc5F)c5ccc2[nH]5)C=C4)C=C3)cc1
REMARK SMILES IDX 23 1 22 2 20 3 21 4 19 5 14 6 15 7 16 8 18 9 17 10 12 11
REMARK SMILES IDX 13 12 10 13 11 14 9 15 8 16 1 17 2 18 3 19 4 20 6 21 5 22
REMARK SMILES IDX 7 23 24 24 25 25 26 26 27 27 28 28 29 29 90 30 30 31 89 32
REMARK SMILES IDX 31 33 32 34 33 35 83 36 34 37 88 38 82 39 84 40 35 41 87 42
REMARK SMILES IDX 81 43 80 44 36 46 68 47 48 48 67 49 49 50 52 51 66 52 85 53
REMARK SMILES IDX 50 54 51 55 65 57 86 58 53 59 37 60 38 61 46 62 39 63 45 64
REMARK SMILES IDX 47 65 44 66 40 67 41 68 42 69 43 70 69 71 70 72 78 73 71 74
REMARK SMILES IDX 77 75 79 76 76 77 72 78 73 79 74 80 75 81 54 82 55 83 63 84
REMARK SMILES IDX 56 85 62 86 64 87 61 88 57 89 58 90 59 91 60 92
REMARK H PARENT 84 45 52 56
REMARK Flexibility Score: inf
ROOT
ATOM      1  C   UNL     1       3.485   3.570   7.246  1.00  0.00     0.274 C 
ENDROOT
BRANCH   1   2
ATOM      2  O   UNL     1       3.154   3.044   5.939  1.00  0.00    -0.462 OA
BRANCH   2   3
ATOM      3  C   UNL     1       1.821   2.965   5.638  1.00  0.00     0.310 C 
ATOM      4  O   UNL     1       0.942   3.400   6.371  1.00  0.00    -0.252 OA
BRANCH   3   5
ATOM      5  C   UNL     1       1.597   2.134   4.365  1.00  0.00     0.115 C 
ATOM      6  C   UNL     1       0.439   2.601   3.455  1.00  0.00     0.097 C 
ATOM      7  C   UNL     1      -0.905   2.598   4.212  1.00  0.00     0.041 C 
ATOM      8  C   UNL     1      -1.099   1.322   4.992  1.00  0.00    -0.030 C 
ATOM      9  C   UNL     1       1.314   0.677   4.784  1.00  0.00     0.043 C 
ATOM     10  C   UNL     1      -0.110   0.444   5.222  1.00  0.00    -0.030 C 
BRANCH   6  11
ATOM     11  C   UNL     1       0.722   3.921   2.743  1.00  0.00     0.226 C 
ATOM     12  O   UNL     1      -0.054   4.862   2.859  1.00  0.00    -0.275 OA
BRANCH  11  13
ATOM     13  N   UNL     1       1.825   3.952   1.894  1.00  0.00    -0.341 N 
ATOM     14  C   UNL     1       1.956   2.919   0.887  1.00  0.00     0.147 C 
BRANCH  13  15
ATOM     15  C   UNL     1       2.650   5.166   1.742  1.00  0.00     0.158 C 
BRANCH  15  16
ATOM     16  C   UNL     1       1.899   6.392   1.376  1.00  0.00     0.015 A 
ATOM     17  C   UNL     1       3.091   8.229   2.852  1.00  0.00     0.069 C 
ATOM     18  C   UNL     1       2.059   7.698   1.929  1.00  0.00     0.065 A 
ATOM     19  N   UNL     1       1.123   8.537   1.483  1.00  0.00    -0.178 NA
ATOM     20  N   UNL     1       0.395   7.795   0.633  1.00  0.00    -0.272 N 
ATOM     21  C   UNL     1       0.942   6.566   0.389  1.00  0.00     0.040 A 
ATOM     22  C   UNL     1      -0.860   8.311   0.145  1.00  0.00     0.174 C 
ATOM     23  C   UNL     1       0.463   5.679  -0.693  1.00  0.00     0.067 C 
ENDBRANCH  15  16
ENDBRANCH  13  15
ENDBRANCH  11  13
ENDBRANCH   6  11
ENDBRANCH   3   5
ENDBRANCH   2   3
ENDBRANCH   1   2
BRANCH   1  24
ATOM     24  C   UNL     1       3.893   5.053   7.258  1.00  0.00     0.275 C 
BRANCH  24  25
ATOM     25  O   UNL     1       2.776   5.970   7.205  1.00  0.00    -0.458 OA
BRANCH  25  26
ATOM     26  C   UNL     1       2.381   6.221   5.937  1.00  0.00     0.338 C 
ATOM     27  O   UNL     1       2.890   5.714   4.948  1.00  0.00    -0.246 OA
BRANCH  26  28
ATOM     28  C   UNL     1       1.211   7.114   5.814  1.00  0.00     0.060 A 
ATOM     29  C   UNL     1       0.140   6.565   5.131  1.00  0.00     0.016 A 
ATOM     30  C   UNL     1       1.240   8.492   6.035  1.00  0.00     0.016 A 
ATOM     31  C   UNL     1      -0.799   7.380   4.509  1.00  0.00     0.010 A 
ATOM     32  C   UNL     1       0.214   9.312   5.499  1.00  0.00     0.010 A 
ATOM     33  C   UNL     1      -0.793   8.771   4.679  1.00  0.00    -0.014 A 
BRANCH  33  34
ATOM     34  C   UNL     1      -1.875   9.552   3.989  1.00  0.00     0.031 A 
ATOM     35  C   UNL     1      -1.591  10.520   2.860  1.00  0.00     0.074 A 
ATOM     36  C   UNL     1      -3.162   9.224   4.244  1.00  0.00     0.049 A 
ATOM     37  N   UNL     1      -2.423  10.993   1.958  1.00  0.00    -0.248 NA
ATOM     38  C   UNL     1      -0.208  10.977   2.676  1.00  0.00     0.031 C 
ATOM     39  C   UNL     1      -3.599   8.264   5.264  1.00  0.00     0.029 A 
ATOM     40  N   UNL     1      -4.336   9.621   3.648  1.00  0.00    -0.354 N 
ATOM     41  C   UNL     1      -1.637  11.659   1.020  1.00  0.00     0.074 A 
ATOM     42  C   UNL     1      -0.284  11.644   1.528  1.00  0.00     0.031 C 
ATOM     43  C   UNL     1      -4.930   8.124   5.199  1.00  0.00     0.029 A 
ATOM     44  C   UNL     1      -5.457   9.041   4.196  1.00  0.00     0.049 A 
ATOM     45  H   UNL     1      -4.370  10.259   2.899  1.00  0.00     0.167 HD
ATOM     46  C   UNL     1      -1.999  12.157  -0.191  1.00  0.00     0.034 A 
ATOM     47  C   UNL     1      -6.769   9.251   3.962  1.00  0.00     0.034 A 
ATOM     48  C   UNL     1      -3.368  12.321  -0.618  1.00  0.00     0.049 A 
ATOM     49  C   UNL     1      -7.162  10.192   2.857  1.00  0.00     0.074 A 
ATOM     50  C   UNL     1      -3.847  12.904  -1.779  1.00  0.00     0.029 A 
ATOM     51  N   UNL     1      -4.480  11.972   0.135  1.00  0.00    -0.354 N 
ATOM     52  N   UNL     1      -6.404  10.749   1.942  1.00  0.00    -0.248 NA
ATOM     53  C   UNL     1      -8.584  10.537   2.756  1.00  0.00     0.031 C 
ATOM     54  C   UNL     1      -5.242  13.001  -1.677  1.00  0.00     0.029 A 
ATOM     55  C   UNL     1      -5.641  12.410  -0.489  1.00  0.00     0.049 A 
ATOM     56  H   UNL     1      -4.451  11.485   0.990  1.00  0.00     0.167 HD
ATOM     57  C   UNL     1      -7.263  11.496   1.142  1.00  0.00     0.074 A 
ATOM     58  C   UNL     1      -8.597  11.299   1.673  1.00  0.00     0.031 C 
ATOM     59  C   UNL     1      -6.969  12.266   0.062  1.00  0.00     0.034 A 
BRANCH  46  60
ATOM     60  C   UNL     1      -0.902  12.590  -1.135  1.00  0.00     0.023 A 
ATOM     61  C   UNL     1      -0.198  11.651  -1.916  1.00  0.00     0.031 A 
ATOM     62  C   UNL     1      -0.599  13.947  -1.316  1.00  0.00     0.131 A 
ATOM     63  C   UNL     1       0.792  12.074  -2.818  1.00  0.00     0.055 A 
ATOM     64  C   UNL     1       0.365  14.368  -2.237  1.00  0.00     0.041 A 
ATOM     65  F   UNL     1      -1.246  14.888  -0.610  1.00  0.00    -0.206 F 
ATOM     66  C   UNL     1       1.072  13.430  -2.988  1.00  0.00     0.022 A 
BRANCH  63  67
ATOM     67  S   UNL     1       1.737  10.829  -3.749  1.00  0.00     0.124 S 
ATOM     68  O   UNL     1       2.244   9.961  -2.691  1.00  0.00    -0.237 OA
ATOM     69  O   UNL     1       0.718  10.247  -4.615  1.00  0.00    -0.237 OA
ATOM     70  O   UNL     1       2.758  11.619  -4.436  1.00  0.00    -0.744 OA
ENDBRANCH  63  67
ENDBRANCH  46  60
BRANCH  47  71
ATOM     71  C   UNL     1      -7.794   8.658   4.875  1.00  0.00     0.023 A 
ATOM     72  C   UNL     1      -8.835   7.839   4.411  1.00  0.00     0.031 A 
ATOM     73  C   UNL     1      -7.768   8.970   6.250  1.00  0.00     0.131 A 
ATOM     74  C   UNL     1      -9.815   7.383   5.309  1.00  0.00     0.055 A 
ATOM     75  C   UNL     1      -8.705   8.461   7.147  1.00  0.00     0.041 A 
ATOM     76  F   UNL     1      -6.815   9.774   6.749  1.00  0.00    -0.206 F 
ATOM     77  C   UNL     1      -9.744   7.671   6.675  1.00  0.00     0.022 A 
BRANCH  74  78
ATOM     78  S   UNL     1     -11.252   6.484   4.661  1.00  0.00     0.124 S 
ATOM     79  O   UNL     1     -11.778   7.426   3.680  1.00  0.00    -0.237 OA
ATOM     80  O   UNL     1     -10.638   5.274   4.125  1.00  0.00    -0.237 OA
ATOM     81  O   UNL     1     -12.090   6.283   5.842  1.00  0.00    -0.744 OA
ENDBRANCH  74  78
ENDBRANCH  47  71
BRANCH  59  82
ATOM     82  C   UNL     1      -8.133  12.951  -0.614  1.00  0.00     0.023 A 
ATOM     83  C   UNL     1      -8.891  13.930   0.056  1.00  0.00     0.031 A 
ATOM     84  C   UNL     1      -8.538  12.577  -1.906  1.00  0.00     0.131 A 
ATOM     85  C   UNL     1     -10.057  14.441  -0.535  1.00  0.00     0.055 A 
ATOM     86  C   UNL     1      -9.659  13.142  -2.519  1.00  0.00     0.041 A 
ATOM     87  F   UNL     1      -7.862  11.642  -2.593  1.00  0.00    -0.206 F 
ATOM     88  C   UNL     1     -10.437  14.065  -1.825  1.00  0.00     0.022 A 
BRANCH  85  89
ATOM     89  S   UNL     1     -11.144  15.498   0.461  1.00  0.00     0.124 S 
ATOM     90  O   UNL     1     -11.409  14.655   1.622  1.00  0.00    -0.237 OA
ATOM     91  O   UNL     1     -10.307  16.669   0.701  1.00  0.00    -0.237 OA
ATOM     92  O   UNL     1     -12.293  15.728  -0.413  1.00  0.00    -0.744 OA
ENDBRANCH  85  89
ENDBRANCH  59  82
ENDBRANCH  33  34
ENDBRANCH  26  28
ENDBRANCH  25  26
ENDBRANCH  24  25
ENDBRANCH   1  24
TORSDOF 18
