REMARK SMILES C[C@@H](C(=O)OCCOC(=O)c1ccc(-c2c3nc(c(-c4cc(S(=O)(=O)[O-])ccc4F)c4ccc([nH]4)c(-c4cc(S(=O)(=O)[O-])ccc4F)c4nc(c(-c5cc(S(=O)(=O)[O-])ccc5F)c5ccc2[nH]5)C=C4)C=C3)cc1)c1ccc(-c2ccccc2)c(F)c1
REMARK SMILES IDX 7 1 6 2 5 3 3 4 4 5 2 6 1 7 74 8 75 9 86 10 76 11 84 12
REMARK SMILES IDX 77 13 85 14 78 15 79 16 83 17 80 18 82 19 81 20 8 21 9 22
REMARK SMILES IDX 10 23 11 24 12 25 73 26 13 27 72 28 14 29 15 30 16 31 66 32
REMARK SMILES IDX 17 33 71 34 65 35 67 36 18 37 70 38 64 39 63 40 19 42 51 43
REMARK SMILES IDX 31 44 50 45 32 46 35 47 49 48 68 49 33 50 34 51 48 53 69 54
REMARK SMILES IDX 36 55 20 56 21 57 29 58 22 59 28 60 30 61 27 62 23 63 24 64
REMARK SMILES IDX 25 65 26 66 52 67 53 68 61 69 54 70 60 71 62 72 59 73 55 74
REMARK SMILES IDX 56 75 57 76 58 77 37 78 38 79 46 80 39 81 45 82 47 83 44 84
REMARK SMILES IDX 40 85 41 86 42 87 43 88
REMARK H PARENT 67 41 35 52
REMARK Flexibility Score: inf
ROOT
ATOM      1  C   UNL     1       2.247  -0.807   4.356  1.00  0.00     0.275 C 
ENDROOT
BRANCH   1   2
ATOM      2  C   UNL     1       2.709  -1.788   3.284  1.00  0.00     0.274 C 
BRANCH   2   3
ATOM      3  O   UNL     1       2.246  -1.360   1.987  1.00  0.00    -0.462 OA
BRANCH   3   4
ATOM      4  C   UNL     1       1.209  -2.058   1.443  1.00  0.00     0.313 C 
ATOM      5  O   UNL     1       0.715  -3.054   1.959  1.00  0.00    -0.252 OA
BRANCH   4   6
ATOM      6  C   UNL     1       0.775  -1.503   0.077  1.00  0.00     0.126 C 
ATOM      7  C   UNL     1       1.477  -0.188  -0.284  1.00  0.00     0.025 C 
BRANCH   6   8
ATOM      8  C   UNL     1      -0.746  -1.439  -0.056  1.00  0.00    -0.031 A 
ATOM      9  C   UNL     1      -1.474  -0.246   0.032  1.00  0.00     0.005 A 
ATOM     10  C   UNL     1      -1.475  -2.624  -0.238  1.00  0.00     0.044 A 
ATOM     11  C   UNL     1      -2.877  -0.246  -0.042  1.00  0.00     0.012 A 
ATOM     12  C   UNL     1      -2.874  -2.614  -0.313  1.00  0.00     0.131 A 
ATOM     13  C   UNL     1      -3.620  -1.431  -0.203  1.00  0.00     0.017 A 
ATOM     14  F   UNL     1      -3.482  -3.798  -0.480  1.00  0.00    -0.206 F 
BRANCH  13  15
ATOM     15  C   UNL     1      -5.106  -1.407  -0.178  1.00  0.00    -0.015 A 
ATOM     16  C   UNL     1      -5.835  -0.317  -0.693  1.00  0.00     0.009 A 
ATOM     17  C   UNL     1      -5.853  -2.443   0.415  1.00  0.00     0.009 A 
ATOM     18  C   UNL     1      -7.230  -0.249  -0.591  1.00  0.00     0.001 A 
ATOM     19  C   UNL     1      -7.248  -2.387   0.500  1.00  0.00     0.001 A 
ATOM     20  C   UNL     1      -7.936  -1.283   0.011  1.00  0.00     0.000 A 
ENDBRANCH  13  15
ENDBRANCH   6   8
ENDBRANCH   4   6
ENDBRANCH   3   4
ENDBRANCH   2   3
ENDBRANCH   1   2
BRANCH   1  21
ATOM     21  O   UNL     1       0.817  -0.866   4.470  1.00  0.00    -0.458 OA
BRANCH  21  22
ATOM     22  C   UNL     1       0.147   0.264   4.154  1.00  0.00     0.338 C 
ATOM     23  O   UNL     1       0.629   1.351   3.849  1.00  0.00    -0.246 OA
BRANCH  22  24
ATOM     24  C   UNL     1      -1.298   0.013   4.231  1.00  0.00     0.060 A 
ATOM     25  C   UNL     1      -1.867  -0.986   3.446  1.00  0.00     0.016 A 
ATOM     26  C   UNL     1      -2.109   0.842   5.008  1.00  0.00     0.016 A 
ATOM     27  C   UNL     1      -3.253  -1.094   3.365  1.00  0.00     0.010 A 
ATOM     28  C   UNL     1      -3.499   0.671   4.987  1.00  0.00     0.010 A 
ATOM     29  C   UNL     1      -4.094  -0.267   4.125  1.00  0.00    -0.014 A 
BRANCH  29  30
ATOM     30  C   UNL     1      -5.577  -0.337   3.950  1.00  0.00     0.031 A 
ATOM     31  C   UNL     1      -6.346   0.888   3.513  1.00  0.00     0.074 A 
ATOM     32  C   UNL     1      -6.236  -1.502   4.117  1.00  0.00     0.049 A 
ATOM     33  N   UNL     1      -7.640   1.078   3.444  1.00  0.00    -0.248 NA
ATOM     34  C   UNL     1      -5.552   2.067   3.135  1.00  0.00     0.031 C 
ATOM     35  C   UNL     1      -5.615  -2.782   4.461  1.00  0.00     0.029 A 
ATOM     36  N   UNL     1      -7.564  -1.816   3.964  1.00  0.00    -0.354 N 
ATOM     37  C   UNL     1      -7.814   2.417   3.104  1.00  0.00     0.074 A 
ATOM     38  C   UNL     1      -6.491   2.987   2.968  1.00  0.00     0.031 C 
ATOM     39  C   UNL     1      -6.533  -3.756   4.368  1.00  0.00     0.029 A 
ATOM     40  C   UNL     1      -7.832  -3.163   4.068  1.00  0.00     0.049 A 
ATOM     41  H   UNL     1      -8.261  -1.141   3.794  1.00  0.00     0.167 HD
ATOM     42  C   UNL     1      -8.972   3.106   2.941  1.00  0.00     0.034 A 
ATOM     43  C   UNL     1      -8.989  -3.841   3.935  1.00  0.00     0.034 A 
ATOM     44  C   UNL     1     -10.280   2.498   2.991  1.00  0.00     0.049 A 
ATOM     45  C   UNL     1     -10.261  -3.064   3.704  1.00  0.00     0.074 A 
ATOM     46  C   UNL     1     -11.521   3.102   2.869  1.00  0.00     0.029 A 
ATOM     47  N   UNL     1     -10.517   1.139   3.148  1.00  0.00    -0.354 N 
ATOM     48  N   UNL     1     -10.419  -1.776   3.508  1.00  0.00    -0.248 NA
ATOM     49  C   UNL     1     -11.513  -3.831   3.711  1.00  0.00     0.031 C 
ATOM     50  C   UNL     1     -12.506   2.115   2.997  1.00  0.00     0.029 A 
ATOM     51  C   UNL     1     -11.881   0.887   3.138  1.00  0.00     0.049 A 
ATOM     52  H   UNL     1      -9.818   0.453   3.251  1.00  0.00     0.167 HD
ATOM     53  C   UNL     1     -11.791  -1.579   3.385  1.00  0.00     0.074 A 
ATOM     54  C   UNL     1     -12.409  -2.886   3.471  1.00  0.00     0.031 C 
ATOM     55  C   UNL     1     -12.482  -0.420   3.241  1.00  0.00     0.034 A 
BRANCH  42  56
ATOM     56  C   UNL     1      -8.875   4.605   2.789  1.00  0.00     0.023 A 
ATOM     57  C   UNL     1      -8.300   5.218   1.664  1.00  0.00     0.031 A 
ATOM     58  C   UNL     1      -9.345   5.436   3.823  1.00  0.00     0.131 A 
ATOM     59  C   UNL     1      -8.150   6.615   1.630  1.00  0.00     0.055 A 
ATOM     60  C   UNL     1      -9.262   6.828   3.751  1.00  0.00     0.041 A 
ATOM     61  F   UNL     1      -9.886   4.907   4.933  1.00  0.00    -0.206 F 
ATOM     62  C   UNL     1      -8.648   7.425   2.655  1.00  0.00     0.022 A 
BRANCH  59  63
ATOM     63  S   UNL     1      -7.170   7.352   0.293  1.00  0.00     0.124 S 
ATOM     64  O   UNL     1      -5.890   6.666   0.451  1.00  0.00    -0.237 OA
ATOM     65  O   UNL     1      -7.941   7.001  -0.893  1.00  0.00    -0.237 OA
ATOM     66  O   UNL     1      -7.150   8.775   0.627  1.00  0.00    -0.744 OA
ENDBRANCH  59  63
ENDBRANCH  42  56
BRANCH  43  67
ATOM     67  C   UNL     1      -9.020  -5.331   4.032  1.00  0.00     0.023 A 
ATOM     68  C   UNL     1      -9.460  -6.107   2.947  1.00  0.00     0.031 A 
ATOM     69  C   UNL     1      -8.655  -6.001   5.213  1.00  0.00     0.131 A 
ATOM     70  C   UNL     1      -9.553  -7.502   3.074  1.00  0.00     0.055 A 
ATOM     71  C   UNL     1      -8.689  -7.393   5.313  1.00  0.00     0.041 A 
ATOM     72  F   UNL     1      -8.241  -5.311   6.287  1.00  0.00    -0.206 F 
ATOM     73  C   UNL     1      -9.152  -8.152   4.242  1.00  0.00     0.022 A 
BRANCH  70  74
ATOM     74  S   UNL     1     -10.297  -8.451   1.719  1.00  0.00     0.124 S 
ATOM     75  O   UNL     1     -11.608  -7.822   1.599  1.00  0.00    -0.237 OA
ATOM     76  O   UNL     1      -9.363  -8.203   0.626  1.00  0.00    -0.237 OA
ATOM     77  O   UNL     1     -10.308  -9.821   2.229  1.00  0.00    -0.744 OA
ENDBRANCH  70  74
ENDBRANCH  43  67
BRANCH  55  78
ATOM     78  C   UNL     1     -13.983  -0.527   3.167  1.00  0.00     0.023 A 
ATOM     79  C   UNL     1     -14.743  -0.912   4.286  1.00  0.00     0.031 A 
ATOM     80  C   UNL     1     -14.660  -0.252   1.967  1.00  0.00     0.131 A 
ATOM     81  C   UNL     1     -16.133  -1.063   4.169  1.00  0.00     0.055 A 
ATOM     82  C   UNL     1     -16.049  -0.355   1.870  1.00  0.00     0.041 A 
ATOM     83  F   UNL     1     -13.982   0.121   0.870  1.00  0.00    -0.206 F 
ATOM     84  C   UNL     1     -16.791  -0.774   2.971  1.00  0.00     0.022 A 
BRANCH  81  85
ATOM     85  S   UNL     1     -17.061  -1.714   5.585  1.00  0.00     0.124 S 
ATOM     86  O   UNL     1     -16.432  -3.015   5.789  1.00  0.00    -0.237 OA
ATOM     87  O   UNL     1     -16.804  -0.713   6.615  1.00  0.00    -0.237 OA
ATOM     88  O   UNL     1     -18.439  -1.762   5.099  1.00  0.00    -0.744 OA
ENDBRANCH  81  85
ENDBRANCH  55  78
ENDBRANCH  29  30
ENDBRANCH  22  24
ENDBRANCH  21  22
ENDBRANCH   1  21
TORSDOF 16
