REMARK SMILES CC1=CC2=[NH+]C(=O)C[C@@](C)(C(=O)OCCOC(=O)c3ccc(-c4c5nc(c(-c6cc(S(=O)(=O)[O-])ccc6F)c6ccc([nH]6)c(-c6cc(S(=O)(=O)[O-])ccc6F)c6nc(c(-c7cc(S(=O)(=O)[O-])ccc7F)c7ccc4[nH]7)C=C6)C=C5)cc3)N2C=C1
REMARK SMILES IDX 16 1 15 2 14 3 13 4 11 5 12 6 9 7 1 8 2 9 3 10 84 11 4 12
REMARK SMILES IDX 83 13 5 14 82 15 6 16 7 18 8 19 10 20 17 21 18 22 19 23
REMARK SMILES IDX 20 24 81 25 21 26 80 27 22 28 23 29 24 30 74 31 25 32 79 33
REMARK SMILES IDX 73 34 75 35 26 36 78 37 72 38 71 39 27 41 59 42 39 43 58 44
REMARK SMILES IDX 40 45 43 46 57 47 76 48 41 49 42 50 56 52 77 53 44 54 28 55
REMARK SMILES IDX 29 56 37 57 30 58 36 59 38 60 35 61 31 62 32 63 33 64 34 65
REMARK SMILES IDX 60 66 61 67 69 68 62 69 68 70 70 71 67 72 63 73 64 74 65 75
REMARK SMILES IDX 66 76 45 77 46 78 54 79 47 80 53 81 55 82 52 83 48 84 49 85
REMARK SMILES IDX 50 86 51 87
REMARK H PARENT 5 17 75 40 43 51
REMARK Flexibility Score: inf
ROOT
ATOM      1  O   UNL     1      -1.232   1.113  -6.759  1.00  0.00    -0.458 OA
ENDROOT
BRANCH   1   2
ATOM      2  C   UNL     1      -1.486   2.266  -7.605  1.00  0.00     0.275 C 
BRANCH   2   3
ATOM      3  C   UNL     1      -2.474   3.253  -6.912  1.00  0.00     0.274 C 
BRANCH   3   4
ATOM      4  O   UNL     1      -1.752   4.184  -6.057  1.00  0.00    -0.459 OA
BRANCH   4   5
ATOM      5  C   UNL     1      -1.888   4.084  -4.682  1.00  0.00     0.355 C 
ATOM      6  O   UNL     1      -2.944   3.829  -4.125  1.00  0.00    -0.247 OA
BRANCH   5   7
ATOM      7  C   UNL     1      -0.472   4.235  -4.027  1.00  0.00     0.216 C 
ATOM      8  C   UNL     1       0.764   1.571   0.919  1.00  0.00     0.045 C 
ATOM      9  C   UNL     1       0.114   2.337  -0.197  1.00  0.00    -0.039 C 
ATOM     10  C   UNL     1      -0.415   1.646  -1.221  1.00  0.00     0.102 C 
ATOM     11  C   UNL     1       0.201   3.800  -0.288  1.00  0.00     0.047 C 
ATOM     12  C   UNL     1      -0.075   2.365  -2.472  1.00  0.00     0.282 C 
ATOM     13  C   UNL     1      -0.146   4.431  -1.438  1.00  0.00     0.202 C 
ATOM     14  N   UNL     1       0.798   1.767  -3.225  1.00  0.00    -0.210 N 
ATOM     15  N   UNL     1      -0.407   3.710  -2.617  1.00  0.00    -0.217 N 
ATOM     16  C   UNL     1       1.371   2.561  -4.172  1.00  0.00     0.312 C 
ATOM     17  H   UNL     1       1.028   0.816  -3.119  1.00  0.00     0.315 HD
ATOM     18  O   UNL     1       2.550   2.568  -4.473  1.00  0.00    -0.247 OA
ATOM     19  C   UNL     1       0.375   3.335  -4.937  1.00  0.00     0.193 C 
ATOM     20  C   UNL     1       0.027   5.675  -4.141  1.00  0.00     0.076 C 
ENDBRANCH   5   7
ENDBRANCH   4   5
ENDBRANCH   3   4
ENDBRANCH   2   3
ENDBRANCH   1   2
BRANCH   1  21
ATOM     21  C   UNL     1      -0.202   0.275  -7.109  1.00  0.00     0.338 C 
ATOM     22  O   UNL     1       0.403   0.323  -8.167  1.00  0.00    -0.246 OA
BRANCH  21  23
ATOM     23  C   UNL     1       0.151  -0.650  -5.972  1.00  0.00     0.060 A 
ATOM     24  C   UNL     1      -0.389  -0.415  -4.723  1.00  0.00     0.016 A 
ATOM     25  C   UNL     1       1.113  -1.671  -6.065  1.00  0.00     0.016 A 
ATOM     26  C   UNL     1       0.139  -1.056  -3.598  1.00  0.00     0.010 A 
ATOM     27  C   UNL     1       1.541  -2.404  -4.910  1.00  0.00     0.010 A 
ATOM     28  C   UNL     1       1.094  -2.075  -3.621  1.00  0.00    -0.014 A 
BRANCH  28  29
ATOM     29  C   UNL     1       1.595  -2.646  -2.290  1.00  0.00     0.031 A 
ATOM     30  C   UNL     1       3.076  -2.881  -2.025  1.00  0.00     0.074 A 
ATOM     31  C   UNL     1       0.768  -2.834  -1.224  1.00  0.00     0.049 A 
ATOM     32  N   UNL     1       3.654  -3.523  -1.033  1.00  0.00    -0.248 NA
ATOM     33  C   UNL     1       4.027  -2.324  -2.994  1.00  0.00     0.031 C 
ATOM     34  C   UNL     1      -0.674  -2.572  -1.202  1.00  0.00     0.029 A 
ATOM     35  N   UNL     1       1.019  -3.234   0.079  1.00  0.00    -0.354 N 
ATOM     36  C   UNL     1       5.023  -3.524  -1.306  1.00  0.00     0.074 A 
ATOM     37  C   UNL     1       5.185  -2.795  -2.549  1.00  0.00     0.031 C 
ATOM     38  C   UNL     1      -1.134  -2.655   0.053  1.00  0.00     0.029 A 
ATOM     39  C   UNL     1      -0.091  -3.204   0.905  1.00  0.00     0.049 A 
ATOM     40  H   UNL     1       1.910  -3.515   0.391  1.00  0.00     0.167 HD
ATOM     41  C   UNL     1       6.042  -4.092  -0.604  1.00  0.00     0.034 A 
ATOM     42  C   UNL     1      -0.304  -3.638   2.169  1.00  0.00     0.034 A 
ATOM     43  C   UNL     1       5.891  -4.757   0.675  1.00  0.00     0.049 A 
ATOM     44  C   UNL     1       0.814  -4.351   2.889  1.00  0.00     0.074 A 
ATOM     45  C   UNL     1       6.851  -5.426   1.421  1.00  0.00     0.029 A 
ATOM     46  N   UNL     1       4.718  -4.814   1.416  1.00  0.00    -0.354 N 
ATOM     47  N   UNL     1       2.061  -4.520   2.521  1.00  0.00    -0.248 NA
ATOM     48  C   UNL     1       0.480  -4.969   4.180  1.00  0.00     0.031 C 
ATOM     49  C   UNL     1       6.242  -5.950   2.569  1.00  0.00     0.029 A 
ATOM     50  C   UNL     1       4.924  -5.529   2.591  1.00  0.00     0.049 A 
ATOM     51  H   UNL     1       3.863  -4.407   1.147  1.00  0.00     0.167 HD
ATOM     52  C   UNL     1       2.658  -5.260   3.539  1.00  0.00     0.074 A 
ATOM     53  C   UNL     1       1.650  -5.458   4.558  1.00  0.00     0.031 C 
ATOM     54  C   UNL     1       3.924  -5.746   3.611  1.00  0.00     0.034 A 
BRANCH  41  55
ATOM     55  C   UNL     1       7.404  -4.134  -1.270  1.00  0.00     0.023 A 
ATOM     56  C   UNL     1       8.160  -2.983  -1.548  1.00  0.00     0.031 A 
ATOM     57  C   UNL     1       7.934  -5.377  -1.673  1.00  0.00     0.131 A 
ATOM     58  C   UNL     1       9.355  -3.092  -2.282  1.00  0.00     0.055 A 
ATOM     59  C   UNL     1       9.164  -5.486  -2.323  1.00  0.00     0.041 A 
ATOM     60  F   UNL     1       7.254  -6.514  -1.452  1.00  0.00    -0.206 F 
ATOM     61  C   UNL     1       9.874  -4.337  -2.649  1.00  0.00     0.022 A 
BRANCH  58  62
ATOM     62  S   UNL     1      10.141  -1.577  -2.902  1.00  0.00     0.124 S 
ATOM     63  O   UNL     1       9.062  -0.988  -3.691  1.00  0.00    -0.237 OA
ATOM     64  O   UNL     1      10.492  -0.877  -1.672  1.00  0.00    -0.237 OA
ATOM     65  O   UNL     1      11.274  -2.072  -3.683  1.00  0.00    -0.744 OA
ENDBRANCH  58  62
ENDBRANCH  41  55
BRANCH  42  66
ATOM     66  C   UNL     1      -1.664  -3.556   2.808  1.00  0.00     0.023 A 
ATOM     67  C   UNL     1      -1.854  -2.942   4.060  1.00  0.00     0.031 A 
ATOM     68  C   UNL     1      -2.781  -4.187   2.225  1.00  0.00     0.131 A 
ATOM     69  C   UNL     1      -3.106  -3.013   4.698  1.00  0.00     0.055 A 
ATOM     70  C   UNL     1      -4.043  -4.176   2.821  1.00  0.00     0.041 A 
ATOM     71  F   UNL     1      -2.666  -4.829   1.051  1.00  0.00    -0.206 F 
ATOM     72  C   UNL     1      -4.207  -3.602   4.075  1.00  0.00     0.022 A 
BRANCH  69  73
ATOM     73  S   UNL     1      -3.252  -2.441   6.416  1.00  0.00     0.124 S 
ATOM     74  O   UNL     1      -2.274  -3.285   7.092  1.00  0.00    -0.237 OA
ATOM     75  O   UNL     1      -2.909  -1.028   6.297  1.00  0.00    -0.237 OA
ATOM     76  O   UNL     1      -4.649  -2.714   6.748  1.00  0.00    -0.744 OA
ENDBRANCH  69  73
ENDBRANCH  42  66
BRANCH  54  77
ATOM     77  C   UNL     1       4.297  -6.505   4.867  1.00  0.00     0.023 A 
ATOM     78  C   UNL     1       3.653  -7.703   5.232  1.00  0.00     0.031 A 
ATOM     79  C   UNL     1       5.270  -5.993   5.745  1.00  0.00     0.131 A 
ATOM     80  C   UNL     1       3.926  -8.298   6.474  1.00  0.00     0.055 A 
ATOM     81  C   UNL     1       5.593  -6.632   6.944  1.00  0.00     0.041 A 
ATOM     82  F   UNL     1       5.915  -4.850   5.460  1.00  0.00    -0.206 F 
ATOM     83  C   UNL     1       4.905  -7.781   7.324  1.00  0.00     0.022 A 
BRANCH  80  84
ATOM     84  S   UNL     1       2.880  -9.675   7.030  1.00  0.00     0.124 S 
ATOM     85  O   UNL     1       1.543  -9.098   6.933  1.00  0.00    -0.237 OA
ATOM     86  O   UNL     1       3.196 -10.718   6.060  1.00  0.00    -0.237 OA
ATOM     87  O   UNL     1       3.347  -9.932   8.391  1.00  0.00    -0.744 OA
ENDBRANCH  80  84
ENDBRANCH  54  77
ENDBRANCH  28  29
ENDBRANCH  21  23
ENDBRANCH   1  21
TORSDOF 14
