REMARK SMILES O=C(OCCOC(=O)[C@H]1C[C@H]2CCCC[C@@H]2[N@@H+]1CC[C@@H]1CCCO1)c1ccc(-c2c3nc(c(-c4cc(S(=O)(=O)[O-])ccc4F)c4ccc([nH]4)c(-c4cc(S(=O)(=O)[O-])ccc4F)c4nc(c(-c5cc(S(=O)(=O)[O-])ccc5F)c5ccc2[nH]5)C=C4)C=C3)cc1
REMARK SMILES IDX 4 1 3 2 2 3 1 4 25 5 26 6 87 7 27 8 86 9 28 10 29 11 30 12
REMARK SMILES IDX 80 13 31 14 85 15 79 16 81 17 32 18 84 19 78 20 77 21 33 23
REMARK SMILES IDX 65 24 45 25 64 26 46 27 49 28 63 29 82 30 47 31 48 32 62 34
REMARK SMILES IDX 83 35 50 36 34 37 35 38 43 39 36 40 42 41 44 42 41 43 37 44
REMARK SMILES IDX 38 45 39 46 40 47 66 48 67 49 75 50 68 51 74 52 76 53 73 54
REMARK SMILES IDX 69 55 70 56 71 57 72 58 51 59 52 60 60 61 53 62 59 63 61 64
REMARK SMILES IDX 58 65 54 66 55 67 56 68 57 69 5 70 6 71 7 72 8 73 9 74 10 75
REMARK SMILES IDX 17 76 11 77 16 78 12 80 15 81 13 82 14 83 18 84 19 85 20 86
REMARK SMILES IDX 21 87 24 88 22 89 23 90
REMARK H PARENT 81 22 49 33 17 79
REMARK Flexibility Score: inf
ROOT
ATOM      1  C   UNL     1      -1.671   2.133   2.741  1.00  0.00     0.275 C 
ENDROOT
BRANCH   1   2
ATOM      2  O   UNL     1      -1.498   0.935   1.965  1.00  0.00    -0.458 OA
BRANCH   2   3
ATOM      3  C   UNL     1      -0.657   0.699   0.927  1.00  0.00     0.338 C 
ATOM      4  O   UNL     1      -0.866  -0.287   0.221  1.00  0.00    -0.246 OA
BRANCH   3   5
ATOM      5  C   UNL     1       0.607   1.474   0.692  1.00  0.00     0.060 A 
ATOM      6  C   UNL     1       0.874   2.780   1.111  1.00  0.00     0.016 A 
ATOM      7  C   UNL     1       1.639   0.786   0.031  1.00  0.00     0.016 A 
ATOM      8  C   UNL     1       2.150   3.336   0.993  1.00  0.00     0.010 A 
ATOM      9  C   UNL     1       2.923   1.334  -0.081  1.00  0.00     0.010 A 
ATOM     10  C   UNL     1       3.189   2.612   0.414  1.00  0.00    -0.014 A 
BRANCH  10  11
ATOM     11  C   UNL     1       4.474   3.299   0.150  1.00  0.00     0.031 A 
ATOM     12  C   UNL     1       4.761   3.702  -1.266  1.00  0.00     0.074 A 
ATOM     13  C   UNL     1       5.293   3.653   1.161  1.00  0.00     0.049 A 
ATOM     14  N   UNL     1       5.748   4.409  -1.742  1.00  0.00    -0.248 NA
ATOM     15  C   UNL     1       3.798   3.248  -2.284  1.00  0.00     0.031 C 
ATOM     16  C   UNL     1       5.080   3.328   2.573  1.00  0.00     0.029 A 
ATOM     17  N   UNL     1       6.453   4.385   1.166  1.00  0.00    -0.354 N 
ATOM     18  C   UNL     1       5.500   4.516  -3.105  1.00  0.00     0.074 A 
ATOM     19  C   UNL     1       4.339   3.709  -3.396  1.00  0.00     0.031 C 
ATOM     20  C   UNL     1       6.069   3.868   3.307  1.00  0.00     0.029 A 
ATOM     21  C   UNL     1       6.995   4.567   2.421  1.00  0.00     0.049 A 
ATOM     22  H   UNL     1       6.862   4.747   0.347  1.00  0.00     0.167 HD
ATOM     23  C   UNL     1       6.147   5.268  -4.024  1.00  0.00     0.034 A 
ATOM     24  C   UNL     1       8.109   5.229   2.799  1.00  0.00     0.034 A 
ATOM     25  C   UNL     1       7.319   6.041  -3.718  1.00  0.00     0.049 A 
ATOM     26  C   UNL     1       8.889   5.961   1.728  1.00  0.00     0.074 A 
ATOM     27  C   UNL     1       8.108   6.789  -4.569  1.00  0.00     0.029 A 
ATOM     28  N   UNL     1       7.874   6.154  -2.448  1.00  0.00    -0.354 N 
ATOM     29  N   UNL     1       8.629   6.068   0.443  1.00  0.00    -0.248 NA
ATOM     30  C   UNL     1      10.093   6.683   2.158  1.00  0.00     0.031 C 
ATOM     31  C   UNL     1       9.175   7.305  -3.825  1.00  0.00     0.029 A 
ATOM     32  C   UNL     1       9.007   6.946  -2.495  1.00  0.00     0.049 A 
ATOM     33  H   UNL     1       7.513   5.733  -1.635  1.00  0.00     0.167 HD
ATOM     34  C   UNL     1       9.616   6.900  -0.079  1.00  0.00     0.074 A 
ATOM     35  C   UNL     1      10.457   7.286   1.037  1.00  0.00     0.031 C 
ATOM     36  C   UNL     1       9.818   7.312  -1.358  1.00  0.00     0.034 A 
BRANCH  23  37
ATOM     37  C   UNL     1       5.595   5.236  -5.426  1.00  0.00     0.023 A 
ATOM     38  C   UNL     1       4.297   5.706  -5.705  1.00  0.00     0.031 A 
ATOM     39  C   UNL     1       6.317   4.631  -6.466  1.00  0.00     0.131 A 
ATOM     40  C   UNL     1       3.727   5.476  -6.964  1.00  0.00     0.055 A 
ATOM     41  C   UNL     1       5.775   4.487  -7.745  1.00  0.00     0.041 A 
ATOM     42  F   UNL     1       7.544   4.134  -6.248  1.00  0.00    -0.206 F 
ATOM     43  C   UNL     1       4.466   4.892  -7.995  1.00  0.00     0.022 A 
BRANCH  40  44
ATOM     44  S   UNL     1       1.952   5.787  -7.179  1.00  0.00     0.124 S 
ATOM     45  O   UNL     1       1.371   4.852  -6.218  1.00  0.00    -0.237 OA
ATOM     46  O   UNL     1       1.834   7.201  -6.843  1.00  0.00    -0.237 OA
ATOM     47  O   UNL     1       1.714   5.457  -8.583  1.00  0.00    -0.744 OA
ENDBRANCH  40  44
ENDBRANCH  23  37
BRANCH  24  48
ATOM     48  C   UNL     1       8.580   5.226   4.221  1.00  0.00     0.023 A 
ATOM     49  C   UNL     1       8.758   6.417   4.947  1.00  0.00     0.031 A 
ATOM     50  C   UNL     1       8.960   4.023   4.846  1.00  0.00     0.131 A 
ATOM     51  C   UNL     1       9.366   6.387   6.216  1.00  0.00     0.055 A 
ATOM     52  C   UNL     1       9.506   3.993   6.132  1.00  0.00     0.041 A 
ATOM     53  F   UNL     1       8.820   2.852   4.207  1.00  0.00    -0.206 F 
ATOM     54  C   UNL     1       9.731   5.182   6.817  1.00  0.00     0.022 A 
BRANCH  51  55
ATOM     55  S   UNL     1       9.795   7.960   7.018  1.00  0.00     0.124 S 
ATOM     56  O   UNL     1      10.598   8.610   5.989  1.00  0.00    -0.237 OA
ATOM     57  O   UNL     1       8.479   8.539   7.268  1.00  0.00    -0.237 OA
ATOM     58  O   UNL     1      10.528   7.544   8.212  1.00  0.00    -0.744 OA
ENDBRANCH  51  55
ENDBRANCH  24  48
BRANCH  36  59
ATOM     59  C   UNL     1      10.963   8.264  -1.596  1.00  0.00     0.023 A 
ATOM     60  C   UNL     1      12.298   7.878  -1.395  1.00  0.00     0.031 A 
ATOM     61  C   UNL     1      10.709   9.578  -2.029  1.00  0.00     0.131 A 
ATOM     62  C   UNL     1      13.326   8.816  -1.560  1.00  0.00     0.055 A 
ATOM     63  C   UNL     1      11.742  10.484  -2.266  1.00  0.00     0.041 A 
ATOM     64  F   UNL     1       9.451  10.000  -2.236  1.00  0.00    -0.206 F 
ATOM     65  C   UNL     1      13.059  10.109  -2.016  1.00  0.00     0.022 A 
BRANCH  62  66
ATOM     66  S   UNL     1      15.006   8.353  -1.063  1.00  0.00     0.124 S 
ATOM     67  O   UNL     1      14.818   7.995   0.339  1.00  0.00    -0.237 OA
ATOM     68  O   UNL     1      15.307   7.249  -1.968  1.00  0.00    -0.237 OA
ATOM     69  O   UNL     1      15.779   9.572  -1.294  1.00  0.00    -0.744 OA
ENDBRANCH  62  66
ENDBRANCH  36  59
ENDBRANCH  10  11
ENDBRANCH   3   5
ENDBRANCH   2   3
ENDBRANCH   1   2
BRANCH   1  70
ATOM     70  C   UNL     1      -0.786   2.207   3.991  1.00  0.00     0.274 C 
BRANCH  70  71
ATOM     71  O   UNL     1       0.561   1.763   3.753  1.00  0.00    -0.458 OA
BRANCH  71  72
ATOM     72  C   UNL     1       0.809   0.454   4.059  1.00  0.00     0.365 C 
ATOM     73  O   UNL     1       0.011  -0.260   4.665  1.00  0.00    -0.245 OA
BRANCH  72  74
ATOM     74  C   UNL     1       2.215   0.020   3.564  1.00  0.00     0.295 C 
ATOM     75  C   UNL     1       3.251   0.237   4.683  1.00  0.00     0.087 C 
ATOM     76  N   UNL     1       2.195  -1.445   3.302  1.00  0.00    -0.320 N 
ATOM     77  C   UNL     1       3.796  -1.161   4.958  1.00  0.00     0.054 C 
ATOM     78  C   UNL     1       2.636  -2.046   4.550  1.00  0.00     0.188 C 
ATOM     79  H   UNL     1       1.254  -1.763   3.070  1.00  0.00     0.349 HD
ATOM     80  C   UNL     1       4.241  -1.454   6.380  1.00  0.00     0.010 C 
ATOM     81  C   UNL     1       2.959  -3.523   4.608  1.00  0.00     0.065 C 
ATOM     82  C   UNL     1       4.504  -2.950   6.595  1.00  0.00     0.001 C 
ATOM     83  C   UNL     1       3.436  -3.889   6.014  1.00  0.00     0.006 C 
BRANCH  76  84
ATOM     84  C   UNL     1       2.739  -1.940   2.036  1.00  0.00     0.265 C 
BRANCH  84  85
ATOM     85  C   UNL     1       4.075  -1.461   1.420  1.00  0.00     0.093 C 
BRANCH  85  86
ATOM     86  C   UNL     1       5.332  -2.351   1.425  1.00  0.00     0.123 C 
ATOM     87  C   UNL     1       5.172  -3.845   1.196  1.00  0.00     0.034 C 
ATOM     88  O   UNL     1       6.090  -2.150   2.613  1.00  0.00    -0.378 OA
ATOM     89  C   UNL     1       5.892  -4.513   2.341  1.00  0.00     0.031 C 
ATOM     90  C   UNL     1       6.392  -3.395   3.221  1.00  0.00     0.160 C 
ENDBRANCH  85  86
ENDBRANCH  84  85
ENDBRANCH  76  84
ENDBRANCH  72  74
ENDBRANCH  71  72
ENDBRANCH  70  71
ENDBRANCH   1  70
TORSDOF 17
