REMARK SMILES O=C(OCCOC(=O)[C@H]1CCCCN1c1cc(-c2ccccc2)nc(-c2cccc(Cl)c2)n1)c1ccc(-c2c3nc(c(-c4cc(S(=O)(=O)[O-])ccc4F)c4ccc([nH]4)c(-c4cc(S(=O)(=O)[O-])ccc4F)c4nc(c(-c5cc(S(=O)(=O)[O-])ccc5F)c5ccc2[nH]5)C=C4)C=C3)cc1
REMARK SMILES IDX 4 1 3 2 2 3 1 4 34 5 35 6 96 7 36 8 95 9 37 10 38 11 39 12
REMARK SMILES IDX 89 13 40 14 94 15 88 16 90 17 41 18 93 19 87 20 86 21 42 23
REMARK SMILES IDX 74 24 54 25 73 26 55 27 58 28 72 29 91 30 56 31 57 32 71 34
REMARK SMILES IDX 92 35 59 36 43 37 44 38 52 39 45 40 51 41 53 42 50 43 46 44
REMARK SMILES IDX 47 45 48 46 49 47 75 48 76 49 84 50 77 51 83 52 85 53 82 54
REMARK SMILES IDX 78 55 79 56 80 57 81 58 60 59 61 60 69 61 62 62 68 63 70 64
REMARK SMILES IDX 67 65 63 66 64 67 65 68 66 69 5 70 6 71 7 72 8 73 9 74 10 75
REMARK SMILES IDX 14 76 11 77 13 78 12 79 15 80 16 81 33 82 17 83 25 84 24 85
REMARK SMILES IDX 18 86 19 87 23 88 20 89 22 90 21 91 26 92 27 93 32 94 28 95
REMARK SMILES IDX 30 96 29 97 31 98
REMARK H PARENT 90 22 58 33
REMARK Flexibility Score: inf
ROOT
ATOM      1  C   UNL     1       2.177  -1.991  -4.425  1.00  0.00     0.275 C 
ENDROOT
BRANCH   1   2
ATOM      2  O   UNL     1       1.411  -1.119  -3.536  1.00  0.00    -0.458 OA
BRANCH   2   3
ATOM      3  C   UNL     1       0.146  -1.377  -3.033  1.00  0.00     0.338 C 
ATOM      4  O   UNL     1      -0.714  -0.508  -2.987  1.00  0.00    -0.246 OA
BRANCH   3   5
ATOM      5  C   UNL     1       0.016  -2.606  -2.165  1.00  0.00     0.060 A 
ATOM      6  C   UNL     1       1.335  -3.571  -2.319  1.00  0.00     0.016 A 
ATOM      7  C   UNL     1      -0.827  -2.482  -0.643  1.00  0.00     0.016 A 
ATOM      8  C   UNL     1       1.990  -4.398  -0.937  1.00  0.00     0.010 A 
ATOM      9  C   UNL     1      -0.350  -3.306   0.827  1.00  0.00     0.010 A 
ATOM     10  C   UNL     1       1.096  -4.363   0.801  1.00  0.00    -0.014 A 
BRANCH  10  11
ATOM     11  C   UNL     1       0.657  -5.559   1.937  1.00  0.00     0.031 A 
ATOM     12  C   UNL     1      -0.722  -6.308   1.988  1.00  0.00     0.074 A 
ATOM     13  C   UNL     1       1.545  -6.057   2.817  1.00  0.00     0.049 A 
ATOM     14  N   UNL     1      -0.978  -7.491   2.525  1.00  0.00    -0.248 NA
ATOM     15  C   UNL     1      -1.941  -5.708   1.421  1.00  0.00     0.031 C 
ATOM     16  C   UNL     1       2.753  -5.359   3.085  1.00  0.00     0.029 A 
ATOM     17  N   UNL     1       1.698  -7.231   3.517  1.00  0.00    -0.354 N 
ATOM     18  C   UNL     1      -2.337  -7.753   2.325  1.00  0.00     0.074 A 
ATOM     19  C   UNL     1      -2.860  -6.647   1.575  1.00  0.00     0.031 C 
ATOM     20  C   UNL     1       3.673  -6.197   3.568  1.00  0.00     0.029 A 
ATOM     21  C   UNL     1       3.011  -7.437   3.930  1.00  0.00     0.049 A 
ATOM     22  H   UNL     1       0.960  -7.856   3.705  1.00  0.00     0.167 HD
ATOM     23  C   UNL     1      -3.125  -8.761   2.783  1.00  0.00     0.034 A 
ATOM     24  C   UNL     1       3.628  -8.461   4.562  1.00  0.00     0.034 A 
ATOM     25  C   UNL     1      -2.679  -9.785   3.692  1.00  0.00     0.049 A 
ATOM     26  C   UNL     1       2.740  -9.563   5.062  1.00  0.00     0.074 A 
ATOM     27  C   UNL     1      -3.428 -10.783   4.296  1.00  0.00     0.029 A 
ATOM     28  N   UNL     1      -1.389  -9.907   4.183  1.00  0.00    -0.354 N 
ATOM     29  N   UNL     1       1.471  -9.769   4.800  1.00  0.00    -0.248 NA
ATOM     30  C   UNL     1       3.328 -10.510   6.014  1.00  0.00     0.031 C 
ATOM     31  C   UNL     1      -2.614 -11.442   5.221  1.00  0.00     0.029 A 
ATOM     32  C   UNL     1      -1.332 -10.930   5.116  1.00  0.00     0.049 A 
ATOM     33  H   UNL     1      -0.625  -9.349   3.909  1.00  0.00     0.167 HD
ATOM     34  C   UNL     1       1.094 -10.831   5.610  1.00  0.00     0.074 A 
ATOM     35  C   UNL     1       2.290 -11.283   6.291  1.00  0.00     0.031 C 
ATOM     36  C   UNL     1      -0.142 -11.349   5.811  1.00  0.00     0.034 A 
BRANCH  23  37
ATOM     37  C   UNL     1      -4.604  -8.718   2.438  1.00  0.00     0.023 A 
ATOM     38  C   UNL     1      -5.086  -8.971   1.141  1.00  0.00     0.031 A 
ATOM     39  C   UNL     1      -5.546  -8.418   3.441  1.00  0.00     0.131 A 
ATOM     40  C   UNL     1      -6.467  -8.893   0.880  1.00  0.00     0.055 A 
ATOM     41  C   UNL     1      -6.920  -8.402   3.189  1.00  0.00     0.041 A 
ATOM     42  F   UNL     1      -5.144  -8.133   4.690  1.00  0.00    -0.206 F 
ATOM     43  C   UNL     1      -7.387  -8.635   1.900  1.00  0.00     0.022 A 
BRANCH  40  44
ATOM     44  S   UNL     1      -7.051  -9.031  -0.835  1.00  0.00     0.124 S 
ATOM     45  O   UNL     1      -6.372  -7.904  -1.470  1.00  0.00    -0.237 OA
ATOM     46  O   UNL     1      -6.585 -10.357  -1.223  1.00  0.00    -0.237 OA
ATOM     47  O   UNL     1      -8.501  -8.890  -0.718  1.00  0.00    -0.744 OA
ENDBRANCH  40  44
ENDBRANCH  23  37
BRANCH  24  48
ATOM     48  C   UNL     1       5.092  -8.427   4.918  1.00  0.00     0.023 A 
ATOM     49  C   UNL     1       5.951  -9.513   4.658  1.00  0.00     0.031 A 
ATOM     50  C   UNL     1       5.649  -7.332   5.611  1.00  0.00     0.131 A 
ATOM     51  C   UNL     1       7.286  -9.482   5.108  1.00  0.00     0.055 A 
ATOM     52  C   UNL     1       7.000  -7.256   5.944  1.00  0.00     0.041 A 
ATOM     53  F   UNL     1       4.879  -6.298   5.989  1.00  0.00    -0.206 F 
ATOM     54  C   UNL     1       7.826  -8.345   5.709  1.00  0.00     0.022 A 
BRANCH  51  55
ATOM     55  S   UNL     1       8.268 -11.012   5.071  1.00  0.00     0.124 S 
ATOM     56  O   UNL     1       7.400 -11.938   5.790  1.00  0.00    -0.237 OA
ATOM     57  O   UNL     1       8.414 -11.247   3.639  1.00  0.00    -0.237 OA
ATOM     58  O   UNL     1       9.498 -10.643   5.769  1.00  0.00    -0.744 OA
ENDBRANCH  51  55
ENDBRANCH  24  48
BRANCH  36  59
ATOM     59  C   UNL     1      -0.243 -12.466   6.811  1.00  0.00     0.023 A 
ATOM     60  C   UNL     1       0.025 -12.250   8.174  1.00  0.00     0.031 A 
ATOM     61  C   UNL     1      -0.563 -13.767   6.391  1.00  0.00     0.131 A 
ATOM     62  C   UNL     1       0.045 -13.336   9.058  1.00  0.00     0.055 A 
ATOM     63  C   UNL     1      -0.616 -14.831   7.290  1.00  0.00     0.041 A 
ATOM     64  F   UNL     1      -0.820 -14.024   5.099  1.00  0.00    -0.206 F 
ATOM     65  C   UNL     1      -0.293 -14.622   8.628  1.00  0.00     0.022 A 
BRANCH  62  66
ATOM     66  S   UNL     1       0.646 -13.066  10.746  1.00  0.00     0.124 S 
ATOM     67  O   UNL     1       1.995 -12.562  10.509  1.00  0.00    -0.237 OA
ATOM     68  O   UNL     1      -0.313 -12.099  11.270  1.00  0.00    -0.237 OA
ATOM     69  O   UNL     1       0.578 -14.396  11.349  1.00  0.00    -0.744 OA
ENDBRANCH  62  66
ENDBRANCH  36  59
ENDBRANCH  10  11
ENDBRANCH   3   5
ENDBRANCH   2   3
ENDBRANCH   1   2
BRANCH   1  70
ATOM     70  C   UNL     1       3.619  -2.417  -3.924  1.00  0.00     0.274 C 
BRANCH  70  71
ATOM     71  O   UNL     1       3.751  -3.014  -2.595  1.00  0.00    -0.461 OA
BRANCH  71  72
ATOM     72  C   UNL     1       3.797  -2.199  -1.493  1.00  0.00     0.328 C 
ATOM     73  O   UNL     1       4.083  -1.007  -1.591  1.00  0.00    -0.250 OA
BRANCH  72  74
ATOM     74  C   UNL     1       3.189  -2.841  -0.160  1.00  0.00     0.193 C 
ATOM     75  C   UNL     1       1.333  -2.755  -0.327  1.00  0.00     0.037 C 
ATOM     76  N   UNL     1       3.809  -4.327   0.363  1.00  0.00    -0.343 N 
ATOM     77  C   UNL     1       0.171  -4.554  -0.861  1.00  0.00     0.005 C 
ATOM     78  C   UNL     1       3.068  -5.964   0.164  1.00  0.00     0.119 C 
ATOM     79  C   UNL     1       1.260  -6.217  -0.541  1.00  0.00     0.022 C 
BRANCH  76  80
ATOM     80  C   UNL     1       4.814  -4.045   1.311  1.00  0.00     0.134 A 
ATOM     81  C   UNL     1       6.082  -4.551   1.216  1.00  0.00     0.076 A 
ATOM     82  N   UNL     1       4.523  -3.174   2.316  1.00  0.00    -0.211 NA
ATOM     83  C   UNL     1       6.997  -4.140   2.187  1.00  0.00     0.076 A 
ATOM     84  C   UNL     1       5.411  -2.966   3.309  1.00  0.00     0.162 A 
ATOM     85  N   UNL     1       6.675  -3.384   3.262  1.00  0.00    -0.228 NA
BRANCH  83  86
ATOM     86  C   UNL     1       8.422  -4.451   2.061  1.00  0.00     0.000 A 
ATOM     87  C   UNL     1       9.056  -5.344   2.934  1.00  0.00     0.010 A 
ATOM     88  C   UNL     1       9.185  -3.855   1.041  1.00  0.00     0.010 A 
ATOM     89  C   UNL     1      10.400  -5.682   2.755  1.00  0.00     0.001 A 
ATOM     90  C   UNL     1      10.529  -4.185   0.865  1.00  0.00     0.001 A 
ATOM     91  C   UNL     1      11.131  -5.111   1.714  1.00  0.00     0.000 A 
ENDBRANCH  83  86
BRANCH  84  92
ATOM     92  C   UNL     1       4.934  -2.324   4.556  1.00  0.00     0.021 A 
ATOM     93  C   UNL     1       3.855  -2.855   5.296  1.00  0.00     0.012 A 
ATOM     94  C   UNL     1       5.554  -1.181   5.084  1.00  0.00     0.032 A 
ATOM     95  C   UNL     1       3.398  -2.274   6.486  1.00  0.00     0.002 A 
ATOM     96  C   UNL     1       5.092  -0.592   6.271  1.00  0.00     0.041 A 
ATOM     97  C   UNL     1       4.016  -1.131   6.973  1.00  0.00     0.020 A 
ATOM     98  Cl  UNL     1       5.861   0.825   6.879  1.00  0.00    -0.084 Cl
ENDBRANCH  84  92
ENDBRANCH  76  80
ENDBRANCH  72  74
ENDBRANCH  71  72
ENDBRANCH  70  71
ENDBRANCH   1  70
TORSDOF 17
