REMARK SMILES O=C(OCCOC(=O)c1ccc(-c2c3nc(c(-c4cc(S(=O)(=O)[O-])ccc4F)c4ccc([nH]4)c(-c4cc(S(=O)(=O)[O-])ccc4F)c4nc(c(-c5cc(S(=O)(=O)[O-])ccc5F)c5ccc2[nH]5)C=C4)C=C3)cc1)c1ccc(NS(=O)(=O)C2=Cc3ccccc3CC2)cc1
REMARK SMILES IDX 4 1 3 2 2 3 1 4 72 5 73 6 91 7 74 8 90 9 75 10 76 11 77 13
REMARK SMILES IDX 78 14 79 15 80 16 81 17 89 18 82 19 88 20 83 21 87 22 84 23
REMARK SMILES IDX 86 24 85 25 5 26 6 27 7 28 8 29 9 30 10 31 71 32 11 33 70 34
REMARK SMILES IDX 12 35 13 36 14 37 64 38 15 39 69 40 63 41 65 42 16 43 68 44
REMARK SMILES IDX 62 45 61 46 17 48 49 49 29 50 48 51 30 52 33 53 47 54 66 55
REMARK SMILES IDX 31 56 32 57 46 59 67 60 34 61 18 62 19 63 27 64 20 65 26 66
REMARK SMILES IDX 28 67 25 68 21 69 22 70 23 71 24 72 50 73 51 74 59 75 52 76
REMARK SMILES IDX 58 77 60 78 57 79 53 80 54 81 55 82 56 83 35 84 36 85 44 86
REMARK SMILES IDX 37 87 43 88 45 89 42 90 38 91 39 92 40 93 41 94
REMARK H PARENT 76 12 65 47 33 58
REMARK Flexibility Score: inf
ROOT
ATOM      1  C   UNL     1       4.398  -0.386  -1.192  1.00  0.00     0.275 C 
ENDROOT
BRANCH   1   2
ATOM      2  O   UNL     1       3.168  -0.994  -0.739  1.00  0.00    -0.458 OA
BRANCH   2   3
ATOM      3  C   UNL     1       2.795  -1.347   0.519  1.00  0.00     0.338 C 
ATOM      4  O   UNL     1       1.805  -2.049   0.700  1.00  0.00    -0.246 OA
BRANCH   3   5
ATOM      5  C   UNL     1       3.462  -0.751   1.702  1.00  0.00     0.060 A 
ATOM      6  C   UNL     1       4.838  -0.751   1.914  1.00  0.00     0.018 A 
ATOM      7  C   UNL     1       2.646  -0.181   2.680  1.00  0.00     0.018 A 
ATOM      8  C   UNL     1       5.387   0.047   2.924  1.00  0.00     0.027 A 
ATOM      9  C   UNL     1       3.212   0.621   3.672  1.00  0.00     0.027 A 
ATOM     10  C   UNL     1       4.579   0.855   3.705  1.00  0.00     0.049 A 
BRANCH  10  11
ATOM     11  N   UNL     1       4.996   2.054   4.345  1.00  0.00    -0.280 N 
ATOM     12  H   UNL     1       4.288   2.612   4.742  1.00  0.00     0.180 HD
BRANCH  11  13
ATOM     13  S   UNL     1       6.564   2.616   4.494  1.00  0.00     0.258 S 
ATOM     14  O   UNL     1       6.410   3.845   5.250  1.00  0.00    -0.202 OA
ATOM     15  O   UNL     1       7.330   1.521   5.052  1.00  0.00    -0.202 OA
BRANCH  13  16
ATOM     16  C   UNL     1       7.182   3.026   2.852  1.00  0.00     0.066 C 
ATOM     17  C   UNL     1       7.662   4.290   2.733  1.00  0.00     0.026 C 
ATOM     18  C   UNL     1       8.123   2.014   2.221  1.00  0.00     0.055 C 
ATOM     19  C   UNL     1       9.076   4.450   3.207  1.00  0.00    -0.021 A 
ATOM     20  C   UNL     1       9.436   1.939   3.009  1.00  0.00     0.041 C 
ATOM     21  C   UNL     1       9.590   5.725   3.445  1.00  0.00     0.008 A 
ATOM     22  C   UNL     1       9.898   3.319   3.420  1.00  0.00    -0.040 A 
ATOM     23  C   UNL     1      10.871   5.870   3.982  1.00  0.00     0.001 A 
ATOM     24  C   UNL     1      11.150   3.471   4.021  1.00  0.00     0.004 A 
ATOM     25  C   UNL     1      11.632   4.746   4.306  1.00  0.00     0.000 A 
ENDBRANCH  13  16
ENDBRANCH  11  13
ENDBRANCH  10  11
ENDBRANCH   3   5
ENDBRANCH   2   3
ENDBRANCH   1   2
BRANCH   1  26
ATOM     26  C   UNL     1       4.351   1.131  -1.369  1.00  0.00     0.275 C 
BRANCH  26  27
ATOM     27  O   UNL     1       3.878   1.807  -0.196  1.00  0.00    -0.458 OA
BRANCH  27  28
ATOM     28  C   UNL     1       2.582   2.217  -0.285  1.00  0.00     0.338 C 
ATOM     29  O   UNL     1       1.847   2.071  -1.239  1.00  0.00    -0.246 OA
BRANCH  28  30
ATOM     30  C   UNL     1       2.125   2.782   1.006  1.00  0.00     0.060 A 
ATOM     31  C   UNL     1       0.808   2.507   1.390  1.00  0.00     0.016 A 
ATOM     32  C   UNL     1       2.945   3.566   1.823  1.00  0.00     0.016 A 
ATOM     33  C   UNL     1       0.306   3.014   2.589  1.00  0.00     0.010 A 
ATOM     34  C   UNL     1       2.440   4.067   3.032  1.00  0.00     0.010 A 
ATOM     35  C   UNL     1       1.112   3.803   3.419  1.00  0.00    -0.014 A 
BRANCH  35  36
ATOM     36  C   UNL     1       0.528   4.407   4.647  1.00  0.00     0.031 A 
ATOM     37  C   UNL     1       0.174   5.868   4.655  1.00  0.00     0.074 A 
ATOM     38  C   UNL     1       0.273   3.657   5.737  1.00  0.00     0.049 A 
ATOM     39  N   UNL     1      -0.442   6.558   5.579  1.00  0.00    -0.248 NA
ATOM     40  C   UNL     1       0.534   6.643   3.459  1.00  0.00     0.031 C 
ATOM     41  C   UNL     1       0.495   2.219   5.845  1.00  0.00     0.029 A 
ATOM     42  N   UNL     1      -0.225   3.999   6.970  1.00  0.00    -0.354 N 
ATOM     43  C   UNL     1      -0.601   7.833   5.053  1.00  0.00     0.074 A 
ATOM     44  C   UNL     1       0.070   7.844   3.770  1.00  0.00     0.031 C 
ATOM     45  C   UNL     1       0.234   1.815   7.097  1.00  0.00     0.029 A 
ATOM     46  C   UNL     1      -0.247   2.955   7.867  1.00  0.00     0.049 A 
ATOM     47  H   UNL     1      -0.536   4.906   7.192  1.00  0.00     0.167 HD
ATOM     48  C   UNL     1      -1.285   8.883   5.570  1.00  0.00     0.034 A 
ATOM     49  C   UNL     1      -0.640   2.906   9.154  1.00  0.00     0.034 A 
ATOM     50  C   UNL     1      -1.913   8.878   6.869  1.00  0.00     0.049 A 
ATOM     51  C   UNL     1      -1.296   4.120   9.756  1.00  0.00     0.074 A 
ATOM     52  C   UNL     1      -2.631   9.888   7.485  1.00  0.00     0.029 A 
ATOM     53  N   UNL     1      -1.880   7.816   7.766  1.00  0.00    -0.354 N 
ATOM     54  N   UNL     1      -1.510   5.295   9.212  1.00  0.00    -0.248 NA
ATOM     55  C   UNL     1      -1.819   3.979  11.119  1.00  0.00     0.031 C 
ATOM     56  C   UNL     1      -2.973   9.464   8.775  1.00  0.00     0.029 A 
ATOM     57  C   UNL     1      -2.534   8.161   8.941  1.00  0.00     0.049 A 
ATOM     58  H   UNL     1      -1.454   6.946   7.593  1.00  0.00     0.167 HD
ATOM     59  C   UNL     1      -2.236   6.018  10.154  1.00  0.00     0.074 A 
ATOM     60  C   UNL     1      -2.432   5.140  11.289  1.00  0.00     0.031 C 
ATOM     61  C   UNL     1      -2.708   7.289  10.080  1.00  0.00     0.034 A 
BRANCH  48  62
ATOM     62  C   UNL     1      -1.369  10.126   4.720  1.00  0.00     0.023 A 
ATOM     63  C   UNL     1      -2.043  10.119   3.484  1.00  0.00     0.031 A 
ATOM     64  C   UNL     1      -0.751  11.319   5.126  1.00  0.00     0.131 A 
ATOM     65  C   UNL     1      -2.026  11.260   2.670  1.00  0.00     0.055 A 
ATOM     66  C   UNL     1      -0.800  12.475   4.344  1.00  0.00     0.041 A 
ATOM     67  F   UNL     1      -0.074  11.378   6.284  1.00  0.00    -0.206 F 
ATOM     68  C   UNL     1      -1.429  12.446   3.102  1.00  0.00     0.022 A 
BRANCH  65  69
ATOM     69  S   UNL     1      -2.678  11.132   0.982  1.00  0.00     0.124 S 
ATOM     70  O   UNL     1      -1.824  10.092   0.413  1.00  0.00    -0.237 OA
ATOM     71  O   UNL     1      -4.071  10.763   1.208  1.00  0.00    -0.237 OA
ATOM     72  O   UNL     1      -2.469  12.469   0.431  1.00  0.00    -0.744 OA
ENDBRANCH  65  69
ENDBRANCH  48  62
BRANCH  49  73
ATOM     73  C   UNL     1      -0.453   1.663   9.954  1.00  0.00     0.023 A 
ATOM     74  C   UNL     1      -1.546   0.921  10.424  1.00  0.00     0.031 A 
ATOM     75  C   UNL     1       0.839   1.239  10.313  1.00  0.00     0.131 A 
ATOM     76  C   UNL     1      -1.332  -0.171  11.281  1.00  0.00     0.055 A 
ATOM     77  C   UNL     1       1.049   0.125  11.128  1.00  0.00     0.041 A 
ATOM     78  F   UNL     1       1.918   1.907   9.877  1.00  0.00    -0.206 F 
ATOM     79  C   UNL     1      -0.042  -0.577  11.631  1.00  0.00     0.022 A 
BRANCH  76  80
ATOM     80  S   UNL     1      -2.774  -0.995  12.011  1.00  0.00     0.124 S 
ATOM     81  O   UNL     1      -3.458   0.118  12.659  1.00  0.00    -0.237 OA
ATOM     82  O   UNL     1      -3.429  -1.553  10.833  1.00  0.00    -0.237 OA
ATOM     83  O   UNL     1      -2.181  -1.977  12.917  1.00  0.00    -0.744 OA
ENDBRANCH  76  80
ENDBRANCH  49  73
BRANCH  61  84
ATOM     84  C   UNL     1      -3.513   7.785  11.257  1.00  0.00     0.023 A 
ATOM     85  C   UNL     1      -2.940   7.936  12.533  1.00  0.00     0.031 A 
ATOM     86  C   UNL     1      -4.882   8.070  11.111  1.00  0.00     0.131 A 
ATOM     87  C   UNL     1      -3.747   8.287  13.625  1.00  0.00     0.055 A 
ATOM     88  C   UNL     1      -5.666   8.486  12.189  1.00  0.00     0.041 A 
ATOM     89  F   UNL     1      -5.485   7.941   9.918  1.00  0.00    -0.206 F 
ATOM     90  C   UNL     1      -5.103   8.579  13.459  1.00  0.00     0.022 A 
BRANCH  87  91
ATOM     91  S   UNL     1      -3.025   8.242  15.289  1.00  0.00     0.124 S 
ATOM     92  O   UNL     1      -2.541   6.868  15.373  1.00  0.00    -0.237 OA
ATOM     93  O   UNL     1      -1.998   9.276  15.210  1.00  0.00    -0.237 OA
ATOM     94  O   UNL     1      -4.154   8.557  16.162  1.00  0.00    -0.744 OA
ENDBRANCH  87  91
ENDBRANCH  61  84
ENDBRANCH  35  36
ENDBRANCH  28  30
ENDBRANCH  27  28
ENDBRANCH  26  27
ENDBRANCH   1  26
TORSDOF 17
