REMARK SMILES C[C@H]1[C@@H](C(=O)OCCOC(=O)c2ccc(-c3c4nc(c(-c5cc(S(=O)(=O)[O-])ccc5F)c5ccc([nH]5)c(-c5cc(S(=O)(=O)[O-])ccc5F)c5nc(c(-c6cc(S(=O)(=O)[O-])ccc6F)c6ccc3[nH]6)C=C5)C=C4)cc2)CCN1C(=O)N[C@@H]1CC[N@@H+]2CCCC[C@H]12
REMARK SMILES IDX 8 1 7 2 6 3 4 4 5 5 3 6 1 7 2 8 77 9 75 10 76 11 78 12 79 13
REMARK SMILES IDX 80 14 81 16 82 17 89 18 83 19 84 20 88 21 85 22 87 24 86 25
REMARK SMILES IDX 9 26 10 27 11 28 12 29 13 30 74 31 14 32 73 33 15 34 16 35
REMARK SMILES IDX 17 36 67 37 18 38 72 39 66 40 68 41 19 42 71 43 65 44 64 45
REMARK SMILES IDX 20 47 52 48 32 49 51 50 33 51 36 52 50 53 69 54 34 55 35 56
REMARK SMILES IDX 49 58 70 59 37 60 21 61 22 62 30 63 23 64 29 65 31 66 28 67
REMARK SMILES IDX 24 68 25 69 26 70 27 71 53 72 54 73 62 74 55 75 61 76 63 77
REMARK SMILES IDX 60 78 56 79 57 80 58 81 59 82 38 83 39 84 47 85 40 86 46 87
REMARK SMILES IDX 48 88 45 89 41 90 42 91 43 92 44 93
REMARK H PARENT 80 15 84 23 68 46 36 57
REMARK Flexibility Score: inf
ROOT
ATOM      1  C   UNL     1      -2.039  -3.380  -3.362  1.00  0.00     0.275 C 
ENDROOT
BRANCH   1   2
ATOM      2  C   UNL     1      -2.009  -4.875  -3.054  1.00  0.00     0.274 C 
BRANCH   2   3
ATOM      3  O   UNL     1      -1.599  -5.101  -1.688  1.00  0.00    -0.462 OA
BRANCH   3   4
ATOM      4  C   UNL     1      -0.273  -5.376  -1.512  1.00  0.00     0.311 C 
ATOM      5  O   UNL     1       0.534  -5.484  -2.424  1.00  0.00    -0.252 OA
BRANCH   4   6
ATOM      6  C   UNL     1       0.049  -5.564  -0.031  1.00  0.00     0.123 C 
ATOM      7  C   UNL     1       0.138  -3.023   0.227  1.00  0.00     0.032 C 
ATOM      8  C   UNL     1       0.719  -4.357   0.676  1.00  0.00     0.098 C 
ATOM      9  N   UNL     1       2.171  -4.568   0.496  1.00  0.00    -0.321 N 
ATOM     10  C   UNL     1       1.108  -6.653   0.095  1.00  0.00     0.039 C 
ATOM     11  C   UNL     1       2.403  -5.881  -0.106  1.00  0.00     0.122 C 
BRANCH   9  12
ATOM     12  C   UNL     1       3.292  -3.937   0.939  1.00  0.00     0.318 C 
ATOM     13  O   UNL     1       4.413  -4.379   0.655  1.00  0.00    -0.249 OA
ATOM     14  N   UNL     1       3.317  -2.854   1.718  1.00  0.00    -0.329 N 
ATOM     15  H   UNL     1       4.232  -2.670   2.033  1.00  0.00     0.165 HD
BRANCH  14  16
ATOM     16  C   UNL     1       2.386  -1.869   2.234  1.00  0.00     0.147 C 
ATOM     17  C   UNL     1       2.505  -0.565   1.458  1.00  0.00     0.092 C 
ATOM     18  C   UNL     1       2.588  -1.404   3.701  1.00  0.00     0.207 C 
ATOM     19  C   UNL     1       1.861   0.440   2.386  1.00  0.00     0.264 C 
ATOM     20  N   UNL     1       2.320   0.058   3.724  1.00  0.00    -0.331 N 
ATOM     21  C   UNL     1       3.913  -1.801   4.366  1.00  0.00     0.067 C 
ATOM     22  C   UNL     1       3.494   0.859   4.112  1.00  0.00     0.262 C 
ATOM     23  H   UNL     1       1.612   0.248   4.433  1.00  0.00     0.348 HD
ATOM     24  C   UNL     1       4.060  -1.061   5.692  1.00  0.00     0.012 C 
ATOM     25  C   UNL     1       4.020   0.454   5.489  1.00  0.00     0.062 C 
ENDBRANCH  14  16
ENDBRANCH   9  12
ENDBRANCH   4   6
ENDBRANCH   3   4
ENDBRANCH   2   3
ENDBRANCH   1   2
BRANCH   1  26
ATOM     26  O   UNL     1      -0.707  -2.850  -3.296  1.00  0.00    -0.458 OA
BRANCH  26  27
ATOM     27  C   UNL     1      -0.639  -1.503  -3.161  1.00  0.00     0.338 C 
ATOM     28  O   UNL     1      -1.591  -0.740  -3.172  1.00  0.00    -0.246 OA
BRANCH  27  29
ATOM     29  C   UNL     1       0.766  -1.061  -2.962  1.00  0.00     0.060 A 
ATOM     30  C   UNL     1       1.761  -1.922  -2.488  1.00  0.00     0.016 A 
ATOM     31  C   UNL     1       1.074   0.284  -3.180  1.00  0.00     0.016 A 
ATOM     32  C   UNL     1       3.020  -1.420  -2.140  1.00  0.00     0.010 A 
ATOM     33  C   UNL     1       2.365   0.759  -2.930  1.00  0.00     0.010 A 
ATOM     34  C   UNL     1       3.348  -0.075  -2.371  1.00  0.00    -0.014 A 
BRANCH  34  35
ATOM     35  C   UNL     1       4.697   0.480  -2.048  1.00  0.00     0.031 A 
ATOM     36  C   UNL     1       4.840   1.671  -1.129  1.00  0.00     0.074 A 
ATOM     37  C   UNL     1       5.803  -0.048  -2.613  1.00  0.00     0.049 A 
ATOM     38  N   UNL     1       5.901   2.385  -0.850  1.00  0.00    -0.248 NA
ATOM     39  C   UNL     1       3.632   2.107  -0.410  1.00  0.00     0.031 C 
ATOM     40  C   UNL     1       5.839  -1.241  -3.462  1.00  0.00     0.029 A 
ATOM     41  N   UNL     1       7.111   0.376  -2.589  1.00  0.00    -0.354 N 
ATOM     42  C   UNL     1       5.497   3.332   0.087  1.00  0.00     0.074 A 
ATOM     43  C   UNL     1       4.085   3.121   0.313  1.00  0.00     0.031 C 
ATOM     44  C   UNL     1       7.092  -1.437  -3.894  1.00  0.00     0.029 A 
ATOM     45  C   UNL     1       7.927  -0.331  -3.443  1.00  0.00     0.049 A 
ATOM     46  H   UNL     1       7.431   1.112  -2.018  1.00  0.00     0.167 HD
ATOM     47  C   UNL     1       6.231   4.294   0.698  1.00  0.00     0.034 A 
ATOM     48  C   UNL     1       9.173  -0.077  -3.892  1.00  0.00     0.034 A 
ATOM     49  C   UNL     1       7.616   4.556   0.404  1.00  0.00     0.049 A 
ATOM     50  C   UNL     1       9.891   1.150  -3.399  1.00  0.00     0.074 A 
ATOM     51  C   UNL     1       8.449   5.516   0.954  1.00  0.00     0.029 A 
ATOM     52  N   UNL     1       8.360   3.890  -0.560  1.00  0.00    -0.354 N 
ATOM     53  N   UNL     1       9.498   2.033  -2.512  1.00  0.00    -0.248 NA
ATOM     54  C   UNL     1      11.211   1.425  -3.981  1.00  0.00     0.031 C 
ATOM     55  C   UNL     1       9.662   5.492   0.257  1.00  0.00     0.029 A 
ATOM     56  C   UNL     1       9.616   4.464  -0.671  1.00  0.00     0.049 A 
ATOM     57  H   UNL     1       8.042   3.122  -1.087  1.00  0.00     0.167 HD
ATOM     58  C   UNL     1      10.538   2.952  -2.405  1.00  0.00     0.074 A 
ATOM     59  C   UNL     1      11.571   2.520  -3.325  1.00  0.00     0.031 C 
ATOM     60  C   UNL     1      10.634   4.042  -1.604  1.00  0.00     0.034 A 
BRANCH  47  61
ATOM     61  C   UNL     1       5.524   5.190   1.683  1.00  0.00     0.023 A 
ATOM     62  C   UNL     1       5.107   4.724   2.943  1.00  0.00     0.031 A 
ATOM     63  C   UNL     1       5.273   6.534   1.355  1.00  0.00     0.131 A 
ATOM     64  C   UNL     1       4.423   5.590   3.812  1.00  0.00     0.055 A 
ATOM     65  C   UNL     1       4.645   7.404   2.246  1.00  0.00     0.041 A 
ATOM     66  F   UNL     1       5.633   7.021   0.157  1.00  0.00    -0.206 F 
ATOM     67  C   UNL     1       4.212   6.932   3.481  1.00  0.00     0.022 A 
BRANCH  64  68
ATOM     68  S   UNL     1       3.768   4.958   5.381  1.00  0.00     0.124 S 
ATOM     69  O   UNL     1       2.490   4.397   4.951  1.00  0.00    -0.237 OA
ATOM     70  O   UNL     1       4.779   3.990   5.794  1.00  0.00    -0.237 OA
ATOM     71  O   UNL     1       3.675   6.155   6.213  1.00  0.00    -0.744 OA
ENDBRANCH  64  68
ENDBRANCH  47  61
BRANCH  48  72
ATOM     72  C   UNL     1       9.764  -0.938  -4.958  1.00  0.00     0.023 A 
ATOM     73  C   UNL     1      10.922  -1.696  -4.736  1.00  0.00     0.031 A 
ATOM     74  C   UNL     1       9.173  -0.994  -6.237  1.00  0.00     0.131 A 
ATOM     75  C   UNL     1      11.461  -2.466  -5.780  1.00  0.00     0.055 A 
ATOM     76  C   UNL     1       9.681  -1.803  -7.253  1.00  0.00     0.041 A 
ATOM     77  F   UNL     1       8.071  -0.276  -6.508  1.00  0.00    -0.206 F 
ATOM     78  C   UNL     1      10.838  -2.539  -7.029  1.00  0.00     0.022 A 
BRANCH  75  79
ATOM     79  S   UNL     1      13.038  -3.321  -5.509  1.00  0.00     0.124 S 
ATOM     80  O   UNL     1      13.921  -2.213  -5.163  1.00  0.00    -0.237 OA
ATOM     81  O   UNL     1      12.704  -4.240  -4.427  1.00  0.00    -0.237 OA
ATOM     82  O   UNL     1      13.308  -3.953  -6.799  1.00  0.00    -0.744 OA
ENDBRANCH  75  79
ENDBRANCH  48  72
BRANCH  60  83
ATOM     83  C   UNL     1      11.923   4.819  -1.649  1.00  0.00     0.023 A 
ATOM     84  C   UNL     1      12.278   5.602  -2.760  1.00  0.00     0.031 A 
ATOM     85  C   UNL     1      12.805   4.779  -0.554  1.00  0.00     0.131 A 
ATOM     86  C   UNL     1      13.503   6.287  -2.766  1.00  0.00     0.055 A 
ATOM     87  C   UNL     1      13.997   5.502  -0.545  1.00  0.00     0.041 A 
ATOM     88  F   UNL     1      12.512   4.044   0.531  1.00  0.00    -0.206 F 
ATOM     89  C   UNL     1      14.356   6.255  -1.659  1.00  0.00     0.022 A 
BRANCH  86  90
ATOM     90  S   UNL     1      13.998   7.181  -4.264  1.00  0.00     0.124 S 
ATOM     91  O   UNL     1      14.098   6.102  -5.242  1.00  0.00    -0.237 OA
ATOM     92  O   UNL     1      12.892   8.114  -4.454  1.00  0.00    -0.237 OA
ATOM     93  O   UNL     1      15.270   7.799  -3.890  1.00  0.00    -0.744 OA
ENDBRANCH  86  90
ENDBRANCH  60  83
ENDBRANCH  34  35
ENDBRANCH  27  29
ENDBRANCH  26  27
ENDBRANCH   1  26
TORSDOF 16
