REMARK SMILES CC(C)CCc1cc2c(cc1Cl)C=C(C(=O)OCCOC(=O)c1ccc(-c3c4nc(c(-c5cc(S(=O)(=O)[O-])ccc5F)c5ccc([nH]5)c(-c5cc(S(=O)(=O)[O-])ccc5F)c5nc(c(-c6cc(S(=O)(=O)[O-])ccc6F)c6ccc3[nH]6)C=C5)C=C4)cc1)[C@@H](C(F)(F)F)O2
REMARK SMILES IDX 18 1 17 2 15 3 16 4 14 5 6 6 7 7 11 8 8 9 10 10 12 11 9 12
REMARK SMILES IDX 91 13 13 14 86 15 5 16 4 17 2 18 1 19 3 20 87 21 88 22 89 23
REMARK SMILES IDX 90 24 19 25 20 26 21 27 22 28 23 29 24 30 85 31 25 32 84 33
REMARK SMILES IDX 26 34 27 35 28 36 78 37 29 38 83 39 77 40 79 41 30 42 82 43
REMARK SMILES IDX 76 44 75 45 31 47 63 48 43 49 62 50 44 51 47 52 61 53 80 54
REMARK SMILES IDX 45 55 46 56 60 58 81 59 48 60 32 61 33 62 41 63 34 64 40 65
REMARK SMILES IDX 42 66 39 67 35 68 36 69 37 70 38 71 64 72 65 73 73 74 66 75
REMARK SMILES IDX 72 76 74 77 71 78 67 79 68 80 69 81 70 82 49 83 50 84 58 85
REMARK SMILES IDX 51 86 57 87 59 88 56 89 52 90 53 91 54 92 55 93
REMARK H PARENT 79 46 47 57
REMARK Flexibility Score: inf
ROOT
ATOM      1  C   UNL     1      -0.559  10.530   4.110  1.00  0.00     0.275 C 
ENDROOT
BRANCH   1   2
ATOM      2  O   UNL     1      -0.977   9.303   3.469  1.00  0.00    -0.459 OA
BRANCH   2   3
ATOM      3  C   UNL     1       0.012   8.433   3.154  1.00  0.00     0.338 C 
ATOM      4  O   UNL     1       1.208   8.592   3.345  1.00  0.00    -0.246 OA
BRANCH   3   5
ATOM      5  C   UNL     1      -0.554   7.199   2.574  1.00  0.00     0.087 C 
ATOM      6  C   UNL     1      -1.464   2.413   1.296  1.00  0.00    -0.026 A 
ATOM      7  C   UNL     1      -1.898   3.665   0.804  1.00  0.00     0.052 A 
ATOM      8  C   UNL     1      -0.684   2.387   2.462  1.00  0.00     0.045 A 
ATOM      9  C   UNL     1      -1.496   4.856   1.407  1.00  0.00     0.128 A 
ATOM     10  C   UNL     1      -0.269   3.578   3.054  1.00  0.00     0.032 A 
ATOM     11  Cl  UNL     1      -0.180   0.924   3.224  1.00  0.00    -0.084 Cl
ATOM     12  C   UNL     1      -0.648   4.806   2.505  1.00  0.00     0.019 A 
ATOM     13  O   UNL     1      -1.960   6.021   0.865  1.00  0.00    -0.475 OA
ATOM     14  C   UNL     1      -0.130   6.032   3.065  1.00  0.00     0.027 C 
ATOM     15  C   UNL     1      -1.479   7.294   1.395  1.00  0.00     0.316 C 
BRANCH   6  16
ATOM     16  C   UNL     1      -1.812   1.165   0.517  1.00  0.00     0.037 C 
BRANCH  16  17
ATOM     17  C   UNL     1      -1.138   1.109  -0.866  1.00  0.00     0.008 C 
BRANCH  17  18
ATOM     18  C   UNL     1       0.406   1.111  -0.859  1.00  0.00    -0.017 C 
ATOM     19  C   UNL     1       0.991  -0.168  -0.260  1.00  0.00     0.007 C 
ATOM     20  C   UNL     1       0.929   1.283  -2.288  1.00  0.00     0.007 C 
ENDBRANCH  17  18
ENDBRANCH  16  17
ENDBRANCH   6  16
BRANCH  15  21
ATOM     21  C   UNL     1      -0.806   8.064   0.246  1.00  0.00     0.430 C 
ATOM     22  F   UNL     1      -1.615   8.141  -0.840  1.00  0.00    -0.167 F 
ATOM     23  F   UNL     1      -0.520   9.342   0.598  1.00  0.00    -0.167 F 
ATOM     24  F   UNL     1       0.350   7.487  -0.152  1.00  0.00    -0.167 F 
ENDBRANCH  15  21
ENDBRANCH   3   5
ENDBRANCH   2   3
ENDBRANCH   1   2
BRANCH   1  25
ATOM     25  C   UNL     1      -0.951  10.555   5.589  1.00  0.00     0.275 C 
BRANCH  25  26
ATOM     26  O   UNL     1      -0.168   9.605   6.332  1.00  0.00    -0.458 OA
BRANCH  26  27
ATOM     27  C   UNL     1      -0.818   8.470   6.675  1.00  0.00     0.338 C 
ATOM     28  O   UNL     1      -1.988   8.197   6.467  1.00  0.00    -0.246 OA
BRANCH  27  29
ATOM     29  C   UNL     1       0.141   7.502   7.227  1.00  0.00     0.060 A 
ATOM     30  C   UNL     1       0.153   7.149   8.568  1.00  0.00     0.016 A 
ATOM     31  C   UNL     1       0.918   6.796   6.320  1.00  0.00     0.016 A 
ATOM     32  C   UNL     1       0.957   6.074   8.976  1.00  0.00     0.010 A 
ATOM     33  C   UNL     1       1.565   5.623   6.696  1.00  0.00     0.010 A 
ATOM     34  C   UNL     1       1.629   5.254   8.039  1.00  0.00    -0.014 A 
BRANCH  34  35
ATOM     35  C   UNL     1       2.350   4.012   8.463  1.00  0.00     0.031 A 
ATOM     36  C   UNL     1       3.781   3.729   8.052  1.00  0.00     0.074 A 
ATOM     37  C   UNL     1       1.692   3.093   9.203  1.00  0.00     0.049 A 
ATOM     38  N   UNL     1       4.563   2.746   8.428  1.00  0.00    -0.248 NA
ATOM     39  C   UNL     1       4.406   4.622   7.061  1.00  0.00     0.031 C 
ATOM     40  C   UNL     1       0.267   3.151   9.535  1.00  0.00     0.029 A 
ATOM     41  N   UNL     1       2.127   1.951   9.833  1.00  0.00    -0.354 N 
ATOM     42  C   UNL     1       5.749   2.899   7.713  1.00  0.00     0.074 A 
ATOM     43  C   UNL     1       5.552   4.006   6.810  1.00  0.00     0.031 C 
ATOM     44  C   UNL     1      -0.029   2.161  10.388  1.00  0.00     0.029 A 
ATOM     45  C   UNL     1       1.168   1.358  10.625  1.00  0.00     0.049 A 
ATOM     46  H   UNL     1       3.038   1.591   9.728  1.00  0.00     0.167 HD
ATOM     47  C   UNL     1       6.916   2.221   7.837  1.00  0.00     0.034 A 
ATOM     48  C   UNL     1       1.240   0.308  11.470  1.00  0.00     0.034 A 
ATOM     49  C   UNL     1       7.120   1.157   8.786  1.00  0.00     0.049 A 
ATOM     50  C   UNL     1       2.569  -0.376  11.664  1.00  0.00     0.074 A 
ATOM     51  C   UNL     1       8.294   0.484   9.074  1.00  0.00     0.029 A 
ATOM     52  N   UNL     1       6.139   0.616   9.603  1.00  0.00    -0.354 N 
ATOM     53  N   UNL     1       3.724  -0.107  11.102  1.00  0.00    -0.248 NA
ATOM     54  C   UNL     1       2.615  -1.494  12.617  1.00  0.00     0.031 C 
ATOM     55  C   UNL     1       8.009  -0.507  10.013  1.00  0.00     0.029 A 
ATOM     56  C   UNL     1       6.675  -0.403  10.373  1.00  0.00     0.049 A 
ATOM     57  H   UNL     1       5.200   0.911   9.631  1.00  0.00     0.167 HD
ATOM     58  C   UNL     1       4.633  -1.016  11.637  1.00  0.00     0.074 A 
ATOM     59  C   UNL     1       3.904  -1.808  12.605  1.00  0.00     0.031 C 
ATOM     60  C   UNL     1       5.946  -1.189  11.340  1.00  0.00     0.034 A 
BRANCH  47  61
ATOM     61  C   UNL     1       8.102   2.638   6.993  1.00  0.00     0.023 A 
ATOM     62  C   UNL     1       8.729   1.710   6.139  1.00  0.00     0.031 A 
ATOM     63  C   UNL     1       8.704   3.901   7.150  1.00  0.00     0.131 A 
ATOM     64  C   UNL     1       9.937   2.044   5.512  1.00  0.00     0.055 A 
ATOM     65  C   UNL     1       9.878   4.248   6.479  1.00  0.00     0.041 A 
ATOM     66  F   UNL     1       8.159   4.822   7.962  1.00  0.00    -0.206 F 
ATOM     67  C   UNL     1      10.508   3.311   5.668  1.00  0.00     0.022 A 
BRANCH  64  68
ATOM     68  S   UNL     1      10.862   0.825   4.538  1.00  0.00     0.124 S 
ATOM     69  O   UNL     1      10.973   1.495   3.244  1.00  0.00    -0.237 OA
ATOM     70  O   UNL     1      12.108   0.717   5.292  1.00  0.00    -0.237 OA
ATOM     71  O   UNL     1      10.009  -0.358   4.552  1.00  0.00    -0.744 OA
ENDBRANCH  64  68
ENDBRANCH  47  61
BRANCH  48  72
ATOM     72  C   UNL     1       0.032  -0.070  12.265  1.00  0.00     0.023 A 
ATOM     73  C   UNL     1      -1.158  -0.474  11.632  1.00  0.00     0.031 A 
ATOM     74  C   UNL     1       0.011   0.091  13.662  1.00  0.00     0.131 A 
ATOM     75  C   UNL     1      -2.332  -0.624  12.382  1.00  0.00     0.055 A 
ATOM     76  C   UNL     1      -1.142  -0.141  14.416  1.00  0.00     0.041 A 
ATOM     77  F   UNL     1       1.113   0.493  14.314  1.00  0.00    -0.206 F 
ATOM     78  C   UNL     1      -2.327  -0.480  13.773  1.00  0.00     0.022 A 
BRANCH  75  79
ATOM     79  S   UNL     1      -3.936  -0.851  11.563  1.00  0.00     0.124 S 
ATOM     80  O   UNL     1      -4.367  -2.141  12.089  1.00  0.00    -0.237 OA
ATOM     81  O   UNL     1      -4.683   0.309  12.044  1.00  0.00    -0.237 OA
ATOM     82  O   UNL     1      -3.603  -0.826  10.142  1.00  0.00    -0.744 OA
ENDBRANCH  75  79
ENDBRANCH  48  72
BRANCH  60  83
ATOM     83  C   UNL     1       6.707  -2.290  12.042  1.00  0.00     0.023 A 
ATOM     84  C   UNL     1       7.833  -1.982  12.830  1.00  0.00     0.031 A 
ATOM     85  C   UNL     1       6.412  -3.644  11.807  1.00  0.00     0.131 A 
ATOM     86  C   UNL     1       8.646  -3.013  13.318  1.00  0.00     0.055 A 
ATOM     87  C   UNL     1       7.192  -4.669  12.344  1.00  0.00     0.041 A 
ATOM     88  F   UNL     1       5.359  -3.991  11.050  1.00  0.00    -0.206 F 
ATOM     89  C   UNL     1       8.324  -4.355  13.089  1.00  0.00     0.022 A 
BRANCH  86  90
ATOM     90  S   UNL     1      10.202  -2.653  14.179  1.00  0.00     0.124 S 
ATOM     91  O   UNL     1       9.961  -3.240  15.495  1.00  0.00    -0.237 OA
ATOM     92  O   UNL     1      11.180  -3.356  13.353  1.00  0.00    -0.237 OA
ATOM     93  O   UNL     1      10.290  -1.197  14.154  1.00  0.00    -0.744 OA
ENDBRANCH  86  90
ENDBRANCH  60  83
ENDBRANCH  34  35
ENDBRANCH  27  29
ENDBRANCH  26  27
ENDBRANCH  25  26
ENDBRANCH   1  25
TORSDOF 18
