REMARK SMILES Cc1ccc(Cn2c(C)c(C[NH2+]C[C@@H]3CCCO3)c(C(=O)OCCOC(=O)c3ccc(-c4c5nc(c(-c6cc(S(=O)(=O)[O-])ccc6F)c6ccc([nH]6)c(-c6cc(S(=O)(=O)[O-])ccc6F)c6nc(c(-c7cc(S(=O)(=O)[O-])ccc7F)c7ccc4[nH]7)C=C6)C=C5)cc3)c2C)cc1
REMARK SMILES IDX 23 1 22 2 20 3 21 4 19 5 7 6 8 7 91 8 9 9 10 10 92 11 6 12
REMARK SMILES IDX 5 13 1 14 2 15 3 16 94 17 4 18 93 19 11 20 12 21 13 24 14 25
REMARK SMILES IDX 15 26 18 27 16 28 17 29 24 30 25 31 26 32 27 33 28 34 29 35
REMARK SMILES IDX 90 36 30 37 89 38 31 39 32 40 33 41 83 42 34 43 88 44 82 45
REMARK SMILES IDX 84 46 35 47 87 48 81 49 80 50 36 52 68 53 48 54 67 55 49 56
REMARK SMILES IDX 52 57 66 58 85 59 50 60 51 61 65 63 86 64 53 65 37 66 38 67
REMARK SMILES IDX 46 68 39 69 45 70 47 71 44 72 40 73 41 74 42 75 43 76 69 77
REMARK SMILES IDX 70 78 78 79 71 80 77 81 79 82 76 83 72 84 73 85 74 86 75 87
REMARK SMILES IDX 54 88 55 89 63 90 56 91 62 92 64 93 61 94 57 95 58 96 59 97
REMARK SMILES IDX 60 98
REMARK H PARENT 12 22 12 23 84 51 52 62
REMARK Flexibility Score: inf
ROOT
ATOM      1  C   UNL     1      -3.908  -5.979  -1.431  1.00  0.00     0.275 C 
ENDROOT
BRANCH   1   2
ATOM      2  O   UNL     1      -4.649  -4.738  -1.309  1.00  0.00    -0.458 OA
BRANCH   2   3
ATOM      3  C   UNL     1      -4.087  -3.660  -1.954  1.00  0.00     0.340 C 
ATOM      4  O   UNL     1      -3.001  -3.729  -2.509  1.00  0.00    -0.246 OA
BRANCH   3   5
ATOM      5  C   UNL     1      -4.604  -2.344  -1.582  1.00  0.00     0.089 A 
ATOM      6  N   UNL     1      -4.055  -0.479  -0.508  1.00  0.00    -0.343 N 
ATOM      7  C   UNL     1      -4.913  -0.104  -1.535  1.00  0.00     0.025 A 
ATOM      8  C   UNL     1      -4.149  -1.846  -0.367  1.00  0.00     0.030 A 
ATOM      9  C   UNL     1      -5.304   1.303  -1.851  1.00  0.00     0.065 C 
ATOM     10  C   UNL     1      -5.263  -1.251  -2.272  1.00  0.00     0.042 A 
ATOM     11  C   UNL     1      -3.600  -2.668   0.749  1.00  0.00     0.065 C 
BRANCH   6  12
ATOM     12  C   UNL     1      -3.260   0.403   0.362  1.00  0.00     0.157 C 
BRANCH  12  13
ATOM     13  C   UNL     1      -1.746   0.383   0.163  1.00  0.00    -0.028 A 
ATOM     14  C   UNL     1       2.602   0.436  -0.098  1.00  0.00     0.044 C 
ATOM     15  C   UNL     1       1.105   0.446   0.008  1.00  0.00    -0.051 A 
ATOM     16  C   UNL     1       0.439  -0.717   0.378  1.00  0.00     0.004 A 
ATOM     17  C   UNL     1       0.344   1.576  -0.303  1.00  0.00     0.004 A 
ATOM     18  C   UNL     1      -0.956  -0.732   0.476  1.00  0.00     0.006 A 
ATOM     19  C   UNL     1      -1.062   1.544  -0.230  1.00  0.00     0.006 A 
ENDBRANCH  12  13
ENDBRANCH   6  12
BRANCH  10  20
ATOM     20  C   UNL     1      -6.061  -1.187  -3.582  1.00  0.00     0.300 C 
BRANCH  20  21
ATOM     21  N   UNL     1      -7.457  -1.611  -3.378  1.00  0.00    -0.340 N 
ATOM     22  H   UNL     1      -7.863  -1.034  -2.641  1.00  0.00     0.346 HD
ATOM     23  H   UNL     1      -7.431  -2.601  -3.132  1.00  0.00     0.346 HD
BRANCH  21  24
ATOM     24  C   UNL     1      -8.312  -1.490  -4.594  1.00  0.00     0.293 C 
BRANCH  24  25
ATOM     25  C   UNL     1      -8.572  -2.817  -5.353  1.00  0.00     0.173 C 
ATOM     26  C   UNL     1     -10.005  -3.260  -5.626  1.00  0.00     0.040 C 
ATOM     27  O   UNL     1      -7.974  -3.895  -4.631  1.00  0.00    -0.372 OA
ATOM     28  C   UNL     1      -9.873  -4.770  -5.691  1.00  0.00     0.031 C 
ATOM     29  C   UNL     1      -8.845  -5.030  -4.627  1.00  0.00     0.161 C 
ENDBRANCH  24  25
ENDBRANCH  21  24
ENDBRANCH  20  21
ENDBRANCH  10  20
ENDBRANCH   3   5
ENDBRANCH   2   3
ENDBRANCH   1   2
BRANCH   1  30
ATOM     30  C   UNL     1      -4.814  -7.212  -1.657  1.00  0.00     0.275 C 
BRANCH  30  31
ATOM     31  O   UNL     1      -5.515  -7.308  -2.909  1.00  0.00    -0.458 OA
BRANCH  31  32
ATOM     32  C   UNL     1      -5.930  -6.122  -3.409  1.00  0.00     0.338 C 
ATOM     33  O   UNL     1      -6.734  -5.406  -2.819  1.00  0.00    -0.246 OA
BRANCH  32  34
ATOM     34  C   UNL     1      -4.949  -5.691  -4.439  1.00  0.00     0.060 A 
ATOM     35  C   UNL     1      -4.862  -4.332  -4.765  1.00  0.00     0.016 A 
ATOM     36  C   UNL     1      -3.892  -6.551  -4.725  1.00  0.00     0.016 A 
ATOM     37  C   UNL     1      -3.677  -3.783  -5.238  1.00  0.00     0.010 A 
ATOM     38  C   UNL     1      -2.683  -6.004  -5.053  1.00  0.00     0.010 A 
ATOM     39  C   UNL     1      -2.584  -4.628  -5.321  1.00  0.00    -0.014 A 
BRANCH  39  40
ATOM     40  C   UNL     1      -1.348  -4.274  -5.977  1.00  0.00     0.031 A 
ATOM     41  C   UNL     1      -0.214  -3.674  -5.256  1.00  0.00     0.074 A 
ATOM     42  C   UNL     1      -1.339  -4.864  -7.191  1.00  0.00     0.049 A 
ATOM     43  N   UNL     1       0.797  -3.148  -5.852  1.00  0.00    -0.248 NA
ATOM     44  C   UNL     1      -0.111  -3.538  -3.800  1.00  0.00     0.031 C 
ATOM     45  C   UNL     1      -0.270  -5.354  -8.030  1.00  0.00     0.029 A 
ATOM     46  N   UNL     1      -2.472  -5.127  -7.952  1.00  0.00    -0.354 N 
ATOM     47  C   UNL     1       1.802  -3.037  -4.910  1.00  0.00     0.074 A 
ATOM     48  C   UNL     1       1.137  -3.076  -3.638  1.00  0.00     0.031 C 
ATOM     49  C   UNL     1      -0.765  -5.586  -9.266  1.00  0.00     0.029 A 
ATOM     50  C   UNL     1      -2.144  -5.110  -9.298  1.00  0.00     0.049 A 
ATOM     51  H   UNL     1      -3.371  -5.298  -7.590  1.00  0.00     0.167 HD
ATOM     52  C   UNL     1       3.092  -3.178  -5.323  1.00  0.00     0.034 A 
ATOM     53  C   UNL     1      -2.617  -4.039 -10.016  1.00  0.00     0.034 A 
ATOM     54  C   UNL     1       3.111  -3.421  -6.763  1.00  0.00     0.049 A 
ATOM     55  C   UNL     1      -1.518  -3.018 -10.249  1.00  0.00     0.074 A 
ATOM     56  C   UNL     1       3.172  -4.564  -7.540  1.00  0.00     0.029 A 
ATOM     57  N   UNL     1       2.655  -2.420  -7.586  1.00  0.00    -0.354 N 
ATOM     58  N   UNL     1      -0.364  -3.038  -9.637  1.00  0.00    -0.248 NA
ATOM     59  C   UNL     1      -1.626  -1.900 -11.179  1.00  0.00     0.031 C 
ATOM     60  C   UNL     1       2.683  -4.227  -8.841  1.00  0.00     0.029 A 
ATOM     61  C   UNL     1       2.329  -2.889  -8.836  1.00  0.00     0.049 A 
ATOM     62  H   UNL     1       2.570  -1.478  -7.312  1.00  0.00     0.167 HD
ATOM     63  C   UNL     1       0.444  -2.057 -10.123  1.00  0.00     0.074 A 
ATOM     64  C   UNL     1      -0.420  -1.321 -11.037  1.00  0.00     0.031 C 
ATOM     65  C   UNL     1       1.760  -1.939  -9.772  1.00  0.00     0.034 A 
BRANCH  52  66
ATOM     66  C   UNL     1       4.316  -3.385  -4.470  1.00  0.00     0.023 A 
ATOM     67  C   UNL     1       5.416  -4.040  -5.065  1.00  0.00     0.031 A 
ATOM     68  C   UNL     1       4.503  -2.976  -3.139  1.00  0.00     0.131 A 
ATOM     69  C   UNL     1       6.596  -4.311  -4.360  1.00  0.00     0.055 A 
ATOM     70  C   UNL     1       5.680  -3.260  -2.422  1.00  0.00     0.041 A 
ATOM     71  F   UNL     1       3.583  -2.253  -2.485  1.00  0.00    -0.206 F 
ATOM     72  C   UNL     1       6.734  -3.935  -3.030  1.00  0.00     0.022 A 
BRANCH  69  73
ATOM     73  S   UNL     1       7.938  -5.159  -5.233  1.00  0.00     0.124 S 
ATOM     74  O   UNL     1       7.318  -6.433  -5.587  1.00  0.00    -0.237 OA
ATOM     75  O   UNL     1       8.215  -4.248  -6.338  1.00  0.00    -0.237 OA
ATOM     76  O   UNL     1       8.994  -5.247  -4.226  1.00  0.00    -0.744 OA
ENDBRANCH  69  73
ENDBRANCH  52  66
BRANCH  53  77
ATOM     77  C   UNL     1      -4.052  -3.732  -9.651  1.00  0.00     0.023 A 
ATOM     78  C   UNL     1      -4.951  -4.833  -9.704  1.00  0.00     0.031 A 
ATOM     79  C   UNL     1      -4.384  -2.653  -8.816  1.00  0.00     0.131 A 
ATOM     80  C   UNL     1      -5.951  -4.961  -8.736  1.00  0.00     0.055 A 
ATOM     81  C   UNL     1      -5.452  -2.745  -7.918  1.00  0.00     0.041 A 
ATOM     82  F   UNL     1      -3.603  -1.566  -8.744  1.00  0.00    -0.206 F 
ATOM     83  C   UNL     1      -6.175  -3.935  -7.827  1.00  0.00     0.022 A 
BRANCH  80  84
ATOM     84  S   UNL     1      -6.734  -6.577  -8.418  1.00  0.00     0.124 S 
ATOM     85  O   UNL     1      -8.047  -6.403  -9.031  1.00  0.00    -0.237 OA
ATOM     86  O   UNL     1      -5.840  -7.519  -9.083  1.00  0.00    -0.237 OA
ATOM     87  O   UNL     1      -6.734  -6.668  -6.960  1.00  0.00    -0.744 OA
ENDBRANCH  80  84
ENDBRANCH  53  77
BRANCH  65  88
ATOM     88  C   UNL     1       2.648  -0.869 -10.322  1.00  0.00     0.023 A 
ATOM     89  C   UNL     1       2.553  -0.503 -11.662  1.00  0.00     0.031 A 
ATOM     90  C   UNL     1       3.645  -0.224  -9.554  1.00  0.00     0.131 A 
ATOM     91  C   UNL     1       3.307   0.565 -12.152  1.00  0.00     0.055 A 
ATOM     92  C   UNL     1       4.497   0.739 -10.087  1.00  0.00     0.041 A 
ATOM     93  F   UNL     1       3.803  -0.447  -8.241  1.00  0.00    -0.206 F 
ATOM     94  C   UNL     1       4.307   1.166 -11.390  1.00  0.00     0.022 A 
BRANCH  91  95
ATOM     95  S   UNL     1       2.823   1.250 -13.747  1.00  0.00     0.124 S 
ATOM     96  O   UNL     1       2.854   0.083 -14.621  1.00  0.00    -0.237 OA
ATOM     97  O   UNL     1       1.494   1.777 -13.444  1.00  0.00    -0.237 OA
ATOM     98  O   UNL     1       3.846   2.259 -14.010  1.00  0.00    -0.744 OA
ENDBRANCH  91  95
ENDBRANCH  65  88
ENDBRANCH  39  40
ENDBRANCH  32  34
ENDBRANCH  31  32
ENDBRANCH  30  31
ENDBRANCH   1  30
TORSDOF 20
