REMARK SMILES CC[NH2+][C@]1(C(=O)OCCOC(=O)c2ccc(-c3c4nc(c(-c5cc(S(=O)(=O)[O-])ccc5F)c5ccc([nH]5)c(-c5cc(S(=O)(=O)[O-])ccc5F)c5nc(c(-c6cc(S(=O)(=O)[O-])ccc6F)c6ccc3[nH]6)C=C5)C=C4)cc2)CC[C@@H]([N@@H+](C)CC(C)(C)C)C1
REMARK SMILES IDX 8 1 7 2 5 3 6 4 4 5 76 6 86 7 77 8 78 9 3 10 2 13 1 14 79 15
REMARK SMILES IDX 80 16 81 18 82 19 83 20 84 21 85 22 9 23 10 24 11 25 12 26
REMARK SMILES IDX 13 27 14 28 75 29 15 30 74 31 16 32 17 33 18 34 68 35 19 36
REMARK SMILES IDX 73 37 67 38 69 39 20 40 72 41 66 42 65 43 21 45 53 46 33 47
REMARK SMILES IDX 52 48 34 49 37 50 51 51 70 52 35 53 36 54 50 56 71 57 38 58
REMARK SMILES IDX 22 59 23 60 31 61 24 62 30 63 32 64 29 65 25 66 26 67 27 68
REMARK SMILES IDX 28 69 54 70 55 71 63 72 56 73 62 74 64 75 61 76 57 77 58 78
REMARK SMILES IDX 59 79 60 80 39 81 40 82 48 83 41 84 47 85 49 86 46 87 42 88
REMARK SMILES IDX 43 89 44 90 45 91
REMARK H PARENT 3 11 3 12 79 17 69 44 37 55
REMARK Flexibility Score: inf
ROOT
ATOM      1  C   UNL     1       2.685   1.946  -0.169  1.00  0.00     0.274 C 
ENDROOT
BRANCH   1   2
ATOM      2  O   UNL     1       2.384   2.187   1.220  1.00  0.00    -0.457 OA
BRANCH   2   3
ATOM      3  C   UNL     1       1.080   2.509   1.465  1.00  0.00     0.368 C 
ATOM      4  O   UNL     1       0.241   2.626   0.573  1.00  0.00    -0.245 OA
BRANCH   3   5
ATOM      5  C   UNL     1       0.784   2.845   2.948  1.00  0.00     0.200 C 
ATOM      6  C   UNL     1       1.188   4.317   3.135  1.00  0.00     0.087 C 
ATOM      7  C   UNL     1      -0.746   2.836   3.199  1.00  0.00     0.146 C 
ATOM      8  C   UNL     1       0.188   4.915   4.110  1.00  0.00     0.072 C 
ATOM      9  C   UNL     1      -1.113   4.138   3.922  1.00  0.00     0.191 C 
BRANCH   5  10
ATOM     10  N   UNL     1       1.577   2.074   3.942  1.00  0.00    -0.332 N 
ATOM     11  H   UNL     1       2.563   2.175   3.699  1.00  0.00     0.347 HD
ATOM     12  H   UNL     1       1.327   2.463   4.851  1.00  0.00     0.347 HD
BRANCH  10  13
ATOM     13  C   UNL     1       1.285   0.648   4.034  1.00  0.00     0.257 C 
ATOM     14  C   UNL     1       2.197   0.005   5.071  1.00  0.00     0.071 C 
ENDBRANCH  10  13
ENDBRANCH   5  10
BRANCH   9  15
ATOM     15  N   UNL     1      -2.230   4.901   3.385  1.00  0.00    -0.334 N 
ATOM     16  C   UNL     1      -2.991   5.663   4.356  1.00  0.00     0.332 C 
ATOM     17  H   UNL     1      -2.543   4.000   3.026  1.00  0.00     0.348 HD
BRANCH  15  18
ATOM     18  C   UNL     1      -2.491   5.160   1.976  1.00  0.00     0.268 C 
BRANCH  18  19
ATOM     19  C   UNL     1      -1.982   6.458   1.261  1.00  0.00     0.011 C 
ATOM     20  C   UNL     1      -0.491   6.384   0.916  1.00  0.00     0.017 C 
ATOM     21  C   UNL     1      -2.748   6.587  -0.077  1.00  0.00     0.017 C 
ATOM     22  C   UNL     1      -2.228   7.736   2.075  1.00  0.00     0.017 C 
ENDBRANCH  18  19
ENDBRANCH  15  18
ENDBRANCH   9  15
ENDBRANCH   3   5
ENDBRANCH   2   3
ENDBRANCH   1   2
BRANCH   1  23
ATOM     23  C   UNL     1       2.649   0.454  -0.491  1.00  0.00     0.275 C 
BRANCH  23  24
ATOM     24  O   UNL     1       1.410  -0.112  -0.034  1.00  0.00    -0.458 OA
BRANCH  24  25
ATOM     25  C   UNL     1       1.514  -1.273   0.655  1.00  0.00     0.338 C 
ATOM     26  O   UNL     1       2.521  -1.950   0.780  1.00  0.00    -0.246 OA
BRANCH  25  27
ATOM     27  C   UNL     1       0.217  -1.619   1.294  1.00  0.00     0.060 A 
ATOM     28  C   UNL     1      -0.761  -0.656   1.563  1.00  0.00     0.016 A 
ATOM     29  C   UNL     1       0.012  -2.937   1.708  1.00  0.00     0.016 A 
ATOM     30  C   UNL     1      -1.913  -0.996   2.275  1.00  0.00     0.010 A 
ATOM     31  C   UNL     1      -1.186  -3.295   2.333  1.00  0.00     0.010 A 
ATOM     32  C   UNL     1      -2.166  -2.330   2.622  1.00  0.00    -0.014 A 
BRANCH  32  33
ATOM     33  C   UNL     1      -3.468  -2.757   3.209  1.00  0.00     0.031 A 
ATOM     34  C   UNL     1      -3.507  -3.519   4.506  1.00  0.00     0.074 A 
ATOM     35  C   UNL     1      -4.612  -2.546   2.526  1.00  0.00     0.049 A 
ATOM     36  N   UNL     1      -4.473  -4.241   5.014  1.00  0.00    -0.248 NA
ATOM     37  C   UNL     1      -2.290  -3.477   5.330  1.00  0.00     0.031 C 
ATOM     38  C   UNL     1      -4.730  -1.786   1.278  1.00  0.00     0.029 A 
ATOM     39  N   UNL     1      -5.893  -2.981   2.767  1.00  0.00    -0.354 N 
ATOM     40  C   UNL     1      -3.968  -4.780   6.193  1.00  0.00     0.074 A 
ATOM     41  C   UNL     1      -2.606  -4.301   6.319  1.00  0.00     0.031 C 
ATOM     42  C   UNL     1      -6.005  -1.807   0.867  1.00  0.00     0.029 A 
ATOM     43  C   UNL     1      -6.774  -2.667   1.757  1.00  0.00     0.049 A 
ATOM     44  H   UNL     1      -6.155  -3.469   3.581  1.00  0.00     0.167 HD
ATOM     45  C   UNL     1      -4.585  -5.604   7.077  1.00  0.00     0.034 A 
ATOM     46  C   UNL     1      -8.033  -3.084   1.518  1.00  0.00     0.034 A 
ATOM     47  C   UNL     1      -5.954  -6.048   6.945  1.00  0.00     0.049 A 
ATOM     48  C   UNL     1      -8.667  -4.068   2.460  1.00  0.00     0.074 A 
ATOM     49  C   UNL     1      -6.691  -6.842   7.808  1.00  0.00     0.029 A 
ATOM     50  N   UNL     1      -6.792  -5.741   5.880  1.00  0.00    -0.354 N 
ATOM     51  N   UNL     1      -8.165  -4.612   3.544  1.00  0.00    -0.248 NA
ATOM     52  C   UNL     1     -10.028  -4.511   2.134  1.00  0.00     0.031 C 
ATOM     53  C   UNL     1      -7.949  -7.067   7.236  1.00  0.00     0.029 A 
ATOM     54  C   UNL     1      -8.023  -6.360   6.047  1.00  0.00     0.049 A 
ATOM     55  H   UNL     1      -6.548  -5.168   5.118  1.00  0.00     0.167 HD
ATOM     56  C   UNL     1      -9.155  -5.456   4.034  1.00  0.00     0.074 A 
ATOM     57  C   UNL     1     -10.288  -5.336   3.138  1.00  0.00     0.031 C 
ATOM     58  C   UNL     1      -9.132  -6.257   5.129  1.00  0.00     0.034 A 
BRANCH  45  59
ATOM     59  C   UNL     1      -3.770  -6.130   8.234  1.00  0.00     0.023 A 
ATOM     60  C   UNL     1      -3.288  -5.290   9.252  1.00  0.00     0.031 A 
ATOM     61  C   UNL     1      -3.470  -7.502   8.314  1.00  0.00     0.131 A 
ATOM     62  C   UNL     1      -2.485  -5.821  10.274  1.00  0.00     0.055 A 
ATOM     63  C   UNL     1      -2.729  -8.035   9.370  1.00  0.00     0.041 A 
ATOM     64  F   UNL     1      -3.888  -8.350   7.360  1.00  0.00    -0.206 F 
ATOM     65  C   UNL     1      -2.221  -7.191  10.353  1.00  0.00     0.022 A 
BRANCH  62  66
ATOM     66  S   UNL     1      -1.688  -4.678  11.436  1.00  0.00     0.124 S 
ATOM     67  O   UNL     1      -0.921  -3.824  10.532  1.00  0.00    -0.237 OA
ATOM     68  O   UNL     1      -2.828  -4.052  12.094  1.00  0.00    -0.237 OA
ATOM     69  O   UNL     1      -0.883  -5.556  12.283  1.00  0.00    -0.744 OA
ENDBRANCH  62  66
ENDBRANCH  45  59
BRANCH  46  70
ATOM     70  C   UNL     1      -8.738  -2.648   0.280  1.00  0.00     0.023 A 
ATOM     71  C   UNL     1      -9.878  -1.835   0.347  1.00  0.00     0.031 A 
ATOM     72  C   UNL     1      -8.286  -3.055  -0.989  1.00  0.00     0.131 A 
ATOM     73  C   UNL     1     -10.545  -1.473  -0.834  1.00  0.00     0.055 A 
ATOM     74  C   UNL     1      -8.922  -2.650  -2.163  1.00  0.00     0.041 A 
ATOM     75  F   UNL     1      -7.199  -3.834  -1.106  1.00  0.00    -0.206 F 
ATOM     76  C   UNL     1     -10.065  -1.861  -2.088  1.00  0.00     0.022 A 
BRANCH  73  77
ATOM     77  S   UNL     1     -12.092  -0.537  -0.704  1.00  0.00     0.124 S 
ATOM     78  O   UNL     1     -12.918  -1.436   0.094  1.00  0.00    -0.237 OA
ATOM     79  O   UNL     1     -11.651   0.687  -0.042  1.00  0.00    -0.237 OA
ATOM     80  O   UNL     1     -12.509  -0.374  -2.095  1.00  0.00    -0.744 OA
ENDBRANCH  73  77
ENDBRANCH  46  70
BRANCH  58  81
ATOM     81  C   UNL     1     -10.386  -7.037   5.423  1.00  0.00     0.023 A 
ATOM     82  C   UNL     1     -10.787  -8.115   4.615  1.00  0.00     0.031 A 
ATOM     83  C   UNL     1     -11.202  -6.681   6.511  1.00  0.00     0.131 A 
ATOM     84  C   UNL     1     -11.998  -8.771   4.880  1.00  0.00     0.055 A 
ATOM     85  C   UNL     1     -12.381  -7.369   6.799  1.00  0.00     0.041 A 
ATOM     86  F   UNL     1     -10.866  -5.655   7.310  1.00  0.00    -0.206 F 
ATOM     87  C   UNL     1     -12.790  -8.414   5.976  1.00  0.00     0.022 A 
BRANCH  84  88
ATOM     88  S   UNL     1     -12.565 -10.057   3.733  1.00  0.00     0.124 S 
ATOM     89  O   UNL     1     -12.730  -9.304   2.494  1.00  0.00    -0.237 OA
ATOM     90  O   UNL     1     -11.460 -11.010   3.758  1.00  0.00    -0.237 OA
ATOM     91  O   UNL     1     -13.807 -10.535   4.339  1.00  0.00    -0.744 OA
ENDBRANCH  84  88
ENDBRANCH  58  81
ENDBRANCH  32  33
ENDBRANCH  25  27
ENDBRANCH  24  25
ENDBRANCH  23  24
ENDBRANCH   1  23
TORSDOF 19
