REMARK SMILES O=C(OCCOC(=O)[C@H]1CC=CC[C@H]1c1nc2cc(Br)ccc2o1)c1ccc(-c2c3nc(c(-c4cc(S(=O)(=O)[O-])ccc4F)c4ccc([nH]4)c(-c4cc(S(=O)(=O)[O-])ccc4F)c4nc(c(-c5cc(S(=O)(=O)[O-])ccc5F)c5ccc2[nH]5)C=C4)C=C3)cc1
REMARK SMILES IDX 4 1 3 2 2 3 1 4 25 5 26 6 87 7 27 8 86 9 28 10 29 11 30 12
REMARK SMILES IDX 80 13 31 14 85 15 79 16 81 17 32 18 84 19 78 20 77 21 33 23
REMARK SMILES IDX 65 24 45 25 64 26 46 27 49 28 63 29 82 30 47 31 48 32 62 34
REMARK SMILES IDX 83 35 50 36 34 37 35 38 43 39 36 40 42 41 44 42 41 43 37 44
REMARK SMILES IDX 38 45 39 46 40 47 66 48 67 49 75 50 68 51 74 52 76 53 73 54
REMARK SMILES IDX 69 55 70 56 71 57 72 58 51 59 52 60 60 61 53 62 59 63 61 64
REMARK SMILES IDX 58 65 54 66 55 67 56 68 57 69 5 70 6 71 7 72 8 73 9 74 10 75
REMARK SMILES IDX 14 76 11 77 13 78 12 79 15 80 16 81 24 82 17 83 23 84 18 85
REMARK SMILES IDX 22 86 19 87 21 88 20 89
REMARK H PARENT 81 22 49 33
REMARK Flexibility Score: inf
ROOT
ATOM      1  C   UNL     1       3.279   1.510  -0.808  1.00  0.00     0.275 C 
ENDROOT
BRANCH   1   2
ATOM      2  O   UNL     1       2.930   0.128  -1.057  1.00  0.00    -0.458 OA
BRANCH   2   3
ATOM      3  C   UNL     1       3.653  -0.983  -0.738  1.00  0.00     0.338 C 
ATOM      4  O   UNL     1       3.225  -2.105  -0.897  1.00  0.00    -0.246 OA
BRANCH   3   5
ATOM      5  C   UNL     1       4.888  -0.738   0.033  1.00  0.00     0.060 A 
ATOM      6  C   UNL     1       4.819  -1.133   1.354  1.00  0.00     0.016 A 
ATOM      7  C   UNL     1       5.885   0.138  -0.403  1.00  0.00     0.016 A 
ATOM      8  C   UNL     1       5.482  -0.349   2.280  1.00  0.00     0.010 A 
ATOM      9  C   UNL     1       6.571   0.907   0.539  1.00  0.00     0.010 A 
ATOM     10  C   UNL     1       6.249   0.767   1.886  1.00  0.00    -0.014 A 
BRANCH  10  11
ATOM     11  C   UNL     1       6.777   1.615   2.978  1.00  0.00     0.031 A 
ATOM     12  C   UNL     1       7.403   0.772   4.035  1.00  0.00     0.074 A 
ATOM     13  C   UNL     1       6.731   2.966   3.078  1.00  0.00     0.049 A 
ATOM     14  N   UNL     1       7.090   0.693   5.290  1.00  0.00    -0.248 NA
ATOM     15  C   UNL     1       8.290  -0.311   3.557  1.00  0.00     0.031 C 
ATOM     16  C   UNL     1       6.234   3.925   2.090  1.00  0.00     0.029 A 
ATOM     17  N   UNL     1       7.221   3.797   4.062  1.00  0.00    -0.354 N 
ATOM     18  C   UNL     1       7.902  -0.320   5.785  1.00  0.00     0.074 A 
ATOM     19  C   UNL     1       8.385  -1.060   4.650  1.00  0.00     0.031 C 
ATOM     20  C   UNL     1       6.663   5.165   2.393  1.00  0.00     0.029 A 
ATOM     21  C   UNL     1       7.419   5.108   3.623  1.00  0.00     0.049 A 
ATOM     22  H   UNL     1       7.412   3.497   4.980  1.00  0.00     0.167 HD
ATOM     23  C   UNL     1       8.429  -0.267   7.036  1.00  0.00     0.034 A 
ATOM     24  C   UNL     1       8.244   6.061   4.128  1.00  0.00     0.034 A 
ATOM     25  C   UNL     1       7.648   0.546   7.919  1.00  0.00     0.049 A 
ATOM     26  C   UNL     1       8.589   5.702   5.513  1.00  0.00     0.074 A 
ATOM     27  C   UNL     1       6.379   0.472   8.450  1.00  0.00     0.029 A 
ATOM     28  N   UNL     1       8.090   1.827   8.116  1.00  0.00    -0.354 N 
ATOM     29  N   UNL     1       7.778   5.816   6.522  1.00  0.00    -0.248 NA
ATOM     30  C   UNL     1       9.748   4.850   5.731  1.00  0.00     0.031 C 
ATOM     31  C   UNL     1       5.973   1.816   8.666  1.00  0.00     0.029 A 
ATOM     32  C   UNL     1       7.019   2.660   8.289  1.00  0.00     0.049 A 
ATOM     33  H   UNL     1       9.034   2.106   8.130  1.00  0.00     0.167 HD
ATOM     34  C   UNL     1       8.041   4.694   7.285  1.00  0.00     0.074 A 
ATOM     35  C   UNL     1       9.357   4.238   6.849  1.00  0.00     0.031 C 
ATOM     36  C   UNL     1       7.039   4.075   7.971  1.00  0.00     0.034 A 
BRANCH  23  37
ATOM     37  C   UNL     1       9.886  -0.599   7.261  1.00  0.00     0.023 A 
ATOM     38  C   UNL     1      10.812  -0.647   6.198  1.00  0.00     0.031 A 
ATOM     39  C   UNL     1      10.436  -0.668   8.548  1.00  0.00     0.131 A 
ATOM     40  C   UNL     1      12.175  -0.858   6.395  1.00  0.00     0.055 A 
ATOM     41  C   UNL     1      11.819  -0.783   8.758  1.00  0.00     0.041 A 
ATOM     42  F   UNL     1       9.655  -0.571   9.635  1.00  0.00    -0.206 F 
ATOM     43  C   UNL     1      12.696  -0.897   7.679  1.00  0.00     0.022 A 
BRANCH  40  44
ATOM     44  S   UNL     1      13.261  -1.103   4.962  1.00  0.00     0.124 S 
ATOM     45  O   UNL     1      14.195   0.007   5.098  1.00  0.00    -0.237 OA
ATOM     46  O   UNL     1      13.804  -2.432   5.229  1.00  0.00    -0.237 OA
ATOM     47  O   UNL     1      12.349  -1.031   3.823  1.00  0.00    -0.744 OA
ENDBRANCH  40  44
ENDBRANCH  23  37
BRANCH  24  48
ATOM     48  C   UNL     1       9.083   7.009   3.347  1.00  0.00     0.023 A 
ATOM     49  C   UNL     1       9.433   6.704   2.019  1.00  0.00     0.031 A 
ATOM     50  C   UNL     1       9.807   8.039   3.975  1.00  0.00     0.131 A 
ATOM     51  C   UNL     1      10.503   7.349   1.389  1.00  0.00     0.055 A 
ATOM     52  C   UNL     1      10.868   8.697   3.339  1.00  0.00     0.041 A 
ATOM     53  F   UNL     1       9.552   8.374   5.250  1.00  0.00    -0.206 F 
ATOM     54  C   UNL     1      11.233   8.340   2.044  1.00  0.00     0.022 A 
BRANCH  51  55
ATOM     55  S   UNL     1      11.023   6.822  -0.267  1.00  0.00     0.124 S 
ATOM     56  O   UNL     1      11.219   8.096  -0.953  1.00  0.00    -0.237 OA
ATOM     57  O   UNL     1      12.237   6.071   0.030  1.00  0.00    -0.237 OA
ATOM     58  O   UNL     1       9.890   6.033  -0.746  1.00  0.00    -0.744 OA
ENDBRANCH  51  55
ENDBRANCH  24  48
BRANCH  36  59
ATOM     59  C   UNL     1       5.767   4.847   8.237  1.00  0.00     0.023 A 
ATOM     60  C   UNL     1       5.314   4.865   9.568  1.00  0.00     0.031 A 
ATOM     61  C   UNL     1       4.923   5.393   7.252  1.00  0.00     0.131 A 
ATOM     62  C   UNL     1       4.049   5.370   9.881  1.00  0.00     0.055 A 
ATOM     63  C   UNL     1       3.691   5.971   7.581  1.00  0.00     0.041 A 
ATOM     64  F   UNL     1       5.222   5.318   5.947  1.00  0.00    -0.206 F 
ATOM     65  C   UNL     1       3.240   5.945   8.898  1.00  0.00     0.022 A 
BRANCH  62  66
ATOM     66  S   UNL     1       3.366   5.138  11.542  1.00  0.00     0.124 S 
ATOM     67  O   UNL     1       3.250   6.511  12.024  1.00  0.00    -0.237 OA
ATOM     68  O   UNL     1       2.100   4.461  11.263  1.00  0.00    -0.237 OA
ATOM     69  O   UNL     1       4.363   4.318  12.223  1.00  0.00    -0.744 OA
ENDBRANCH  62  66
ENDBRANCH  36  59
ENDBRANCH  10  11
ENDBRANCH   3   5
ENDBRANCH   2   3
ENDBRANCH   1   2
BRANCH   1  70
ATOM     70  C   UNL     1       3.318   2.052   0.644  1.00  0.00     0.274 C 
BRANCH  70  71
ATOM     71  O   UNL     1       3.104   1.188   1.778  1.00  0.00    -0.462 OA
BRANCH  71  72
ATOM     72  C   UNL     1       1.878   0.653   1.854  1.00  0.00     0.310 C 
ATOM     73  O   UNL     1       1.062   0.825   0.951  1.00  0.00    -0.252 OA
BRANCH  72  74
ATOM     74  C   UNL     1       1.530  -0.153   3.125  1.00  0.00     0.115 C 
ATOM     75  C   UNL     1       2.572  -0.799   4.050  1.00  0.00     0.043 C 
ATOM     76  C   UNL     1       0.543   0.625   4.027  1.00  0.00     0.094 C 
ATOM     77  C   UNL     1       3.119   0.082   5.129  1.00  0.00    -0.030 C 
ATOM     78  C   UNL     1       1.269   1.726   4.825  1.00  0.00     0.041 C 
ATOM     79  C   UNL     1       2.532   1.234   5.476  1.00  0.00    -0.030 C 
BRANCH  76  80
ATOM     80  C   UNL     1      -0.601   1.137   3.225  1.00  0.00     0.199 A 
ATOM     81  N   UNL     1      -0.946   2.383   2.967  1.00  0.00    -0.213 NA
ATOM     82  O   UNL     1      -1.214   0.193   2.437  1.00  0.00    -0.440 OA
ATOM     83  C   UNL     1      -1.697   2.268   1.826  1.00  0.00     0.111 A 
ATOM     84  C   UNL     1      -1.841   0.933   1.484  1.00  0.00     0.154 A 
ATOM     85  C   UNL     1      -2.244   3.247   0.992  1.00  0.00     0.048 A 
ATOM     86  C   UNL     1      -2.452   0.465   0.329  1.00  0.00     0.050 A 
ATOM     87  C   UNL     1      -2.885   2.812  -0.175  1.00  0.00     0.020 A 
ATOM     88  C   UNL     1      -2.976   1.453  -0.511  1.00  0.00     0.019 A 
ATOM     89  Br  UNL     1      -3.635   4.103  -1.340  1.00  0.00    -0.051 Br
ENDBRANCH  76  80
ENDBRANCH  72  74
ENDBRANCH  71  72
ENDBRANCH  70  71
ENDBRANCH   1  70
TORSDOF 15
