REMARK SMILES CC(=O)N[C@H](C(=O)NC1(CC(=O)OCCOC(=O)c2ccc(-c3c4nc(c(-c5cc(S(=O)(=O)[O-])ccc5F)c5ccc([nH]5)c(-c5cc(S(=O)(=O)[O-])ccc5F)c5nc(c(-c6cc(S(=O)(=O)[O-])ccc6F)c6ccc3[nH]6)C=C5)C=C4)cc2)CCC1)C(C)C
REMARK SMILES IDX 14 1 13 2 11 3 12 4 10 5 9 6 82 7 84 8 83 9 8 10 6 11 7 12
REMARK SMILES IDX 5 14 4 15 1 16 2 17 3 18 85 20 86 21 87 22 15 23 16 24 17 25
REMARK SMILES IDX 18 26 19 27 20 28 81 29 21 30 80 31 22 32 23 33 24 34 74 35
REMARK SMILES IDX 25 36 79 37 73 38 75 39 26 40 78 41 72 42 71 43 27 45 59 46
REMARK SMILES IDX 39 47 58 48 40 49 43 50 57 51 76 52 41 53 42 54 56 56 77 57
REMARK SMILES IDX 44 58 28 59 29 60 37 61 30 62 36 63 38 64 35 65 31 66 32 67
REMARK SMILES IDX 33 68 34 69 60 70 61 71 69 72 62 73 68 74 70 75 67 76 63 77
REMARK SMILES IDX 64 78 65 79 66 80 45 81 46 82 54 83 47 84 53 85 55 86 52 87
REMARK SMILES IDX 48 88 49 89 50 90 51 91
REMARK H PARENT 8 13 4 19 75 44 43 55
REMARK Flexibility Score: inf
ROOT
ATOM      1  C   UNL     1       1.350   4.804  -1.961  1.00  0.00     0.274 C 
ENDROOT
BRANCH   1   2
ATOM      2  O   UNL     1       1.738   3.521  -1.426  1.00  0.00    -0.462 OA
BRANCH   2   3
ATOM      3  C   UNL     1       2.858   3.485  -0.664  1.00  0.00     0.308 C 
ATOM      4  O   UNL     1       3.551   4.463  -0.411  1.00  0.00    -0.252 OA
BRANCH   3   5
ATOM      5  C   UNL     1       3.249   2.096  -0.211  1.00  0.00     0.151 C 
BRANCH   5   6
ATOM      6  C   UNL     1       2.198   0.975  -0.222  1.00  0.00     0.051 C 
ATOM      7  C   UNL     1       2.761  -0.489  -0.251  1.00  0.00     0.029 C 
ATOM      8  C   UNL     1       1.587   0.604  -1.627  1.00  0.00     0.029 C 
ATOM      9  C   UNL     1       2.716  -0.427  -1.784  1.00  0.00     0.005 C 
BRANCH   6  10
ATOM     10  N   UNL     1       1.155   1.242   0.795  1.00  0.00    -0.348 N 
ATOM     11  C   UNL     1       1.043   0.958   2.131  1.00  0.00     0.243 C 
ATOM     12  O   UNL     1       0.148   1.538   2.756  1.00  0.00    -0.273 OA
ATOM     13  H   UNL     1       0.377   1.726   0.435  1.00  0.00     0.164 HD
BRANCH  11  14
ATOM     14  C   UNL     1       2.038   0.048   2.876  1.00  0.00     0.173 C 
BRANCH  14  15
ATOM     15  N   UNL     1       2.936   0.950   3.607  1.00  0.00    -0.344 N 
ATOM     16  C   UNL     1       5.081   0.206   2.634  1.00  0.00     0.114 C 
ATOM     17  C   UNL     1       4.281   1.116   3.522  1.00  0.00     0.217 C 
ATOM     18  O   UNL     1       4.820   2.030   4.143  1.00  0.00    -0.275 OA
ATOM     19  H   UNL     1       2.490   1.529   4.267  1.00  0.00     0.164 HD
ENDBRANCH  14  15
BRANCH  14  20
ATOM     20  C   UNL     1       1.276  -0.864   3.879  1.00  0.00     0.015 C 
ATOM     21  C   UNL     1       0.095  -1.601   3.232  1.00  0.00     0.010 C 
ATOM     22  C   UNL     1       2.212  -1.897   4.514  1.00  0.00     0.010 C 
ENDBRANCH  14  20
ENDBRANCH  11  14
ENDBRANCH   6  10
ENDBRANCH   5   6
ENDBRANCH   3   5
ENDBRANCH   2   3
ENDBRANCH   1   2
BRANCH   1  23
ATOM     23  C   UNL     1       0.042   5.292  -1.339  1.00  0.00     0.275 C 
BRANCH  23  24
ATOM     24  O   UNL     1       0.206   5.544   0.066  1.00  0.00    -0.458 OA
BRANCH  24  25
ATOM     25  C   UNL     1      -0.094   4.490   0.860  1.00  0.00     0.338 C 
ATOM     26  O   UNL     1      -0.522   3.405   0.493  1.00  0.00    -0.246 OA
BRANCH  25  27
ATOM     27  C   UNL     1       0.266   4.816   2.245  1.00  0.00     0.060 A 
ATOM     28  C   UNL     1       1.518   4.428   2.734  1.00  0.00     0.016 A 
ATOM     29  C   UNL     1      -0.664   5.435   3.079  1.00  0.00     0.016 A 
ATOM     30  C   UNL     1       1.828   4.624   4.079  1.00  0.00     0.010 A 
ATOM     31  C   UNL     1      -0.335   5.665   4.418  1.00  0.00     0.010 A 
ATOM     32  C   UNL     1       0.905   5.244   4.933  1.00  0.00    -0.014 A 
BRANCH  32  33
ATOM     33  C   UNL     1       1.217   5.441   6.372  1.00  0.00     0.031 A 
ATOM     34  C   UNL     1       0.457   4.675   7.420  1.00  0.00     0.074 A 
ATOM     35  C   UNL     1       2.162   6.328   6.738  1.00  0.00     0.049 A 
ATOM     36  N   UNL     1       0.476   4.807   8.722  1.00  0.00    -0.248 NA
ATOM     37  C   UNL     1      -0.455   3.630   6.932  1.00  0.00     0.031 C 
ATOM     38  C   UNL     1       2.988   7.108   5.815  1.00  0.00     0.029 A 
ATOM     39  N   UNL     1       2.578   6.733   7.981  1.00  0.00    -0.354 N 
ATOM     40  C   UNL     1      -0.438   3.880   9.212  1.00  0.00     0.074 A 
ATOM     41  C   UNL     1      -1.012   3.213   8.061  1.00  0.00     0.031 C 
ATOM     42  C   UNL     1       3.811   7.896   6.524  1.00  0.00     0.029 A 
ATOM     43  C   UNL     1       3.534   7.720   7.946  1.00  0.00     0.049 A 
ATOM     44  H   UNL     1       2.225   6.352   8.818  1.00  0.00     0.167 HD
ATOM     45  C   UNL     1      -0.762   3.612  10.502  1.00  0.00     0.034 A 
ATOM     46  C   UNL     1       4.098   8.430   8.943  1.00  0.00     0.034 A 
ATOM     47  C   UNL     1      -0.172   4.280  11.639  1.00  0.00     0.049 A 
ATOM     48  C   UNL     1       3.682   8.154  10.363  1.00  0.00     0.074 A 
ATOM     49  C   UNL     1      -0.411   4.069  12.986  1.00  0.00     0.029 A 
ATOM     50  N   UNL     1       0.775   5.295  11.562  1.00  0.00    -0.354 N 
ATOM     51  N   UNL     1       2.799   7.293  10.813  1.00  0.00    -0.248 NA
ATOM     52  C   UNL     1       4.337   8.950  11.409  1.00  0.00     0.031 C 
ATOM     53  C   UNL     1       0.345   4.993  13.720  1.00  0.00     0.029 A 
ATOM     54  C   UNL     1       1.108   5.738  12.835  1.00  0.00     0.049 A 
ATOM     55  H   UNL     1       1.155   5.649  10.726  1.00  0.00     0.167 HD
ATOM     56  C   UNL     1       2.809   7.430  12.198  1.00  0.00     0.074 A 
ATOM     57  C   UNL     1       3.793   8.447  12.508  1.00  0.00     0.031 C 
ATOM     58  C   UNL     1       2.075   6.769  13.129  1.00  0.00     0.034 A 
BRANCH  45  59
ATOM     59  C   UNL     1      -1.845   2.586  10.744  1.00  0.00     0.023 A 
ATOM     60  C   UNL     1      -1.679   1.233  10.399  1.00  0.00     0.031 A 
ATOM     61  C   UNL     1      -3.075   2.977  11.301  1.00  0.00     0.131 A 
ATOM     62  C   UNL     1      -2.747   0.335  10.551  1.00  0.00     0.055 A 
ATOM     63  C   UNL     1      -4.110   2.064  11.518  1.00  0.00     0.041 A 
ATOM     64  F   UNL     1      -3.300   4.258  11.633  1.00  0.00    -0.206 F 
ATOM     65  C   UNL     1      -3.954   0.737  11.128  1.00  0.00     0.022 A 
BRANCH  62  66
ATOM     66  S   UNL     1      -2.586  -1.336   9.861  1.00  0.00     0.124 S 
ATOM     67  O   UNL     1      -2.309  -1.054   8.455  1.00  0.00    -0.237 OA
ATOM     68  O   UNL     1      -1.478  -1.890  10.631  1.00  0.00    -0.237 OA
ATOM     69  O   UNL     1      -3.890  -1.942  10.121  1.00  0.00    -0.744 OA
ENDBRANCH  62  66
ENDBRANCH  45  59
BRANCH  46  70
ATOM     70  C   UNL     1       5.078   9.507   8.632  1.00  0.00     0.023 A 
ATOM     71  C   UNL     1       6.423   9.399   9.016  1.00  0.00     0.031 A 
ATOM     72  C   UNL     1       4.671  10.678   7.968  1.00  0.00     0.131 A 
ATOM     73  C   UNL     1       7.308  10.459   8.765  1.00  0.00     0.055 A 
ATOM     74  C   UNL     1       5.564  11.709   7.678  1.00  0.00     0.041 A 
ATOM     75  F   UNL     1       3.395  10.829   7.578  1.00  0.00    -0.206 F 
ATOM     76  C   UNL     1       6.890  11.607   8.087  1.00  0.00     0.022 A 
BRANCH  73  77
ATOM     77  S   UNL     1       9.004  10.347   9.398  1.00  0.00     0.124 S 
ATOM     78  O   UNL     1       8.778  10.209  10.833  1.00  0.00    -0.237 OA
ATOM     79  O   UNL     1       9.508   9.163   8.711  1.00  0.00    -0.237 OA
ATOM     80  O   UNL     1       9.607  11.611   8.980  1.00  0.00    -0.744 OA
ENDBRANCH  73  77
ENDBRANCH  46  70
BRANCH  58  81
ATOM     81  C   UNL     1       2.348   7.109  14.573  1.00  0.00     0.023 A 
ATOM     82  C   UNL     1       1.994   8.356  15.119  1.00  0.00     0.031 A 
ATOM     83  C   UNL     1       2.997   6.181  15.405  1.00  0.00     0.131 A 
ATOM     84  C   UNL     1       2.337   8.660  16.446  1.00  0.00     0.055 A 
ATOM     85  C   UNL     1       3.291   6.470  16.738  1.00  0.00     0.041 A 
ATOM     86  F   UNL     1       3.359   4.977  14.933  1.00  0.00    -0.206 F 
ATOM     87  C   UNL     1       2.972   7.719  17.262  1.00  0.00     0.022 A 
BRANCH  84  88
ATOM     88  S   UNL     1       2.017  10.332  17.071  1.00  0.00     0.124 S 
ATOM     89  O   UNL     1       2.795  11.156  16.151  1.00  0.00    -0.237 OA
ATOM     90  O   UNL     1       0.566  10.439  16.951  1.00  0.00    -0.237 OA
ATOM     91  O   UNL     1       2.522  10.290  18.442  1.00  0.00    -0.744 OA
ENDBRANCH  84  88
ENDBRANCH  58  81
ENDBRANCH  32  33
ENDBRANCH  25  27
ENDBRANCH  24  25
ENDBRANCH  23  24
ENDBRANCH   1  23
TORSDOF 19
