REMARK SMILES O=C(Nc1ccc(/C=C/C(=O)OCCOC(=O)c2ccc(-c3c4nc(c(-c5cc(S(=O)(=O)[O-])ccc5F)c5ccc([nH]5)c(-c5cc(S(=O)(=O)[O-])ccc5F)c5nc(c(-c6cc(S(=O)(=O)[O-])ccc6F)c6ccc3[nH]6)C=C5)C=C4)cc2)cc1F)NC1CCCC1
REMARK SMILES IDX 13 1 12 2 10 3 11 4 9 5 8 6 7 7 4 8 5 9 82 10 6 11 81 12
REMARK SMILES IDX 83 13 3 14 1 15 2 16 84 17 85 20 86 21 89 22 87 23 88 24
REMARK SMILES IDX 14 25 15 26 16 27 17 28 18 29 19 30 80 31 20 32 79 33 21 34
REMARK SMILES IDX 22 35 23 36 73 37 24 38 78 39 72 40 74 41 25 42 77 43 71 44
REMARK SMILES IDX 70 45 26 47 58 48 38 49 57 50 39 51 42 52 56 53 75 54 40 55
REMARK SMILES IDX 41 56 55 58 76 59 43 60 27 61 28 62 36 63 29 64 35 65 37 66
REMARK SMILES IDX 34 67 30 68 31 69 32 70 33 71 59 72 60 73 68 74 61 75 67 76
REMARK SMILES IDX 69 77 66 78 62 79 63 80 64 81 65 82 44 83 45 84 53 85 46 86
REMARK SMILES IDX 52 87 54 88 51 89 47 90 48 91 49 92 50 93
REMARK H PARENT 3 18 84 19 74 46 42 57
REMARK Flexibility Score: inf
ROOT
ATOM      1  C   UNL     1      13.071   1.065   0.244  1.00  0.00     0.275 C 
ENDROOT
BRANCH   1   2
ATOM      2  O   UNL     1      11.641   0.918   0.173  1.00  0.00    -0.459 OA
BRANCH   2   3
ATOM      3  C   UNL     1      10.998   0.867   1.363  1.00  0.00     0.330 C 
ATOM      4  O   UNL     1      11.525   0.826   2.466  1.00  0.00    -0.247 OA
BRANCH   3   5
ATOM      5  C   UNL     1       9.530   0.885   1.217  1.00  0.00     0.094 C 
ATOM      6  C   UNL     1       8.865   1.058   0.065  1.00  0.00     0.016 C 
BRANCH   6   7
ATOM      7  C   UNL     1       7.399   1.081   0.027  1.00  0.00    -0.022 A 
ATOM      8  C   UNL     1       4.577   0.954   0.049  1.00  0.00     0.078 A 
ATOM      9  C   UNL     1       5.249   1.868   0.863  1.00  0.00     0.030 A 
ATOM     10  C   UNL     1       5.334   0.187  -0.846  1.00  0.00     0.147 A 
ATOM     11  C   UNL     1       6.649   1.917   0.866  1.00  0.00     0.010 A 
ATOM     12  C   UNL     1       6.726   0.247  -0.865  1.00  0.00     0.049 A 
ATOM     13  F   UNL     1       4.740  -0.635  -1.724  1.00  0.00    -0.205 F 
BRANCH   8  14
ATOM     14  N   UNL     1       3.176   0.876   0.181  1.00  0.00    -0.305 N 
ATOM     15  O   UNL     1       1.098   0.044  -0.035  1.00  0.00    -0.248 OA
ATOM     16  C   UNL     1       2.310  -0.158  -0.037  1.00  0.00     0.319 C 
ATOM     17  N   UNL     1       2.849  -1.404  -0.121  1.00  0.00    -0.335 N 
ATOM     18  H   UNL     1       2.747   1.710   0.483  1.00  0.00     0.171 HD
ATOM     19  H   UNL     1       3.829  -1.490  -0.070  1.00  0.00     0.165 HD
BRANCH  17  20
ATOM     20  C   UNL     1       2.070  -2.605  -0.279  1.00  0.00     0.083 C 
ATOM     21  C   UNL     1       1.671  -2.858  -1.728  1.00  0.00     0.025 C 
ATOM     22  C   UNL     1       2.877  -3.854   0.065  1.00  0.00     0.025 C 
ATOM     23  C   UNL     1       1.310  -4.337  -1.746  1.00  0.00     0.002 C 
ATOM     24  C   UNL     1       2.172  -4.991  -0.666  1.00  0.00     0.002 C 
ENDBRANCH  17  20
ENDBRANCH   8  14
ENDBRANCH   6   7
ENDBRANCH   3   5
ENDBRANCH   2   3
ENDBRANCH   1   2
BRANCH   1  25
ATOM     25  C   UNL     1      13.499   2.506  -0.051  1.00  0.00     0.275 C 
BRANCH  25  26
ATOM     26  O   UNL     1      13.009   3.430   0.938  1.00  0.00    -0.458 OA
BRANCH  26  27
ATOM     27  C   UNL     1      11.799   3.973   0.654  1.00  0.00     0.338 C 
ATOM     28  O   UNL     1      11.131   3.774  -0.348  1.00  0.00    -0.246 OA
BRANCH  27  29
ATOM     29  C   UNL     1      11.306   4.768   1.796  1.00  0.00     0.060 A 
ATOM     30  C   UNL     1       9.981   4.569   2.193  1.00  0.00     0.016 A 
ATOM     31  C   UNL     1      12.092   5.739   2.424  1.00  0.00     0.016 A 
ATOM     32  C   UNL     1       9.433   5.348   3.209  1.00  0.00     0.010 A 
ATOM     33  C   UNL     1      11.538   6.524   3.445  1.00  0.00     0.010 A 
ATOM     34  C   UNL     1      10.200   6.342   3.833  1.00  0.00    -0.014 A 
BRANCH  34  35
ATOM     35  C   UNL     1       9.556   7.203   4.857  1.00  0.00     0.031 A 
ATOM     36  C   UNL     1       9.101   8.590   4.501  1.00  0.00     0.074 A 
ATOM     37  C   UNL     1       9.299   6.702   6.081  1.00  0.00     0.049 A 
ATOM     38  N   UNL     1       8.434   9.451   5.226  1.00  0.00    -0.248 NA
ATOM     39  C   UNL     1       9.437   9.070   3.152  1.00  0.00     0.031 C 
ATOM     40  C   UNL     1       9.666   5.359   6.531  1.00  0.00     0.029 A 
ATOM     41  N   UNL     1       8.646   7.250   7.156  1.00  0.00    -0.354 N 
ATOM     42  C   UNL     1       8.262  10.572   4.423  1.00  0.00     0.074 A 
ATOM     43  C   UNL     1       8.928  10.295   3.167  1.00  0.00     0.031 C 
ATOM     44  C   UNL     1       9.200   5.174   7.777  1.00  0.00     0.029 A 
ATOM     45  C   UNL     1       8.531   6.394   8.226  1.00  0.00     0.049 A 
ATOM     46  H   UNL     1       8.293   8.169   7.161  1.00  0.00     0.167 HD
ATOM     47  C   UNL     1       7.600  11.721   4.704  1.00  0.00     0.034 A 
ATOM     48  C   UNL     1       7.954   6.568   9.432  1.00  0.00     0.034 A 
ATOM     49  C   UNL     1       6.938  11.988   5.957  1.00  0.00     0.049 A 
ATOM     50  C   UNL     1       7.281   7.877   9.747  1.00  0.00     0.074 A 
ATOM     51  C   UNL     1       6.218  13.111   6.327  1.00  0.00     0.029 A 
ATOM     52  N   UNL     1       6.923  11.130   7.047  1.00  0.00    -0.354 N 
ATOM     53  N   UNL     1       7.135   8.930   8.978  1.00  0.00    -0.248 NA
ATOM     54  C   UNL     1       6.700   8.024  11.088  1.00  0.00     0.031 C 
ATOM     55  C   UNL     1       5.821  12.959   7.659  1.00  0.00     0.029 A 
ATOM     56  C   UNL     1       6.236  11.713   8.100  1.00  0.00     0.049 A 
ATOM     57  H   UNL     1       7.339  10.238   7.069  1.00  0.00     0.167 HD
ATOM     58  C   UNL     1       6.429   9.858   9.736  1.00  0.00     0.074 A 
ATOM     59  C   UNL     1       6.182   9.245  11.025  1.00  0.00     0.031 C 
ATOM     60  C   UNL     1       6.014  11.101   9.387  1.00  0.00     0.034 A 
BRANCH  47  61
ATOM     61  C   UNL     1       7.589  12.796   3.649  1.00  0.00     0.023 A 
ATOM     62  C   UNL     1       6.878  12.643   2.447  1.00  0.00     0.031 A 
ATOM     63  C   UNL     1       8.287  13.998   3.858  1.00  0.00     0.131 A 
ATOM     64  C   UNL     1       6.917  13.658   1.480  1.00  0.00     0.055 A 
ATOM     65  C   UNL     1       8.271  15.030   2.919  1.00  0.00     0.041 A 
ATOM     66  F   UNL     1       8.996  14.188   4.982  1.00  0.00    -0.206 F 
ATOM     67  C   UNL     1       7.590  14.860   1.717  1.00  0.00     0.022 A 
BRANCH  64  68
ATOM     68  S   UNL     1       6.146  13.354  -0.133  1.00  0.00     0.124 S 
ATOM     69  O   UNL     1       6.948  12.243  -0.638  1.00  0.00    -0.237 OA
ATOM     70  O   UNL     1       4.769  13.036   0.228  1.00  0.00    -0.237 OA
ATOM     71  O   UNL     1       6.327  14.618  -0.844  1.00  0.00    -0.744 OA
ENDBRANCH  64  68
ENDBRANCH  47  61
BRANCH  48  72
ATOM     72  C   UNL     1       8.005   5.469  10.434  1.00  0.00     0.023 A 
ATOM     73  C   UNL     1       6.858   4.732  10.764  1.00  0.00     0.031 A 
ATOM     74  C   UNL     1       9.220   5.123  11.050  1.00  0.00     0.131 A 
ATOM     75  C   UNL     1       6.949   3.685  11.695  1.00  0.00     0.055 A 
ATOM     76  C   UNL     1       9.312   4.062  11.951  1.00  0.00     0.041 A 
ATOM     77  F   UNL     1      10.344   5.796  10.757  1.00  0.00    -0.206 F 
ATOM     78  C   UNL     1       8.171   3.337  12.280  1.00  0.00     0.022 A 
BRANCH  75  79
ATOM     79  S   UNL     1       5.445   2.773  12.136  1.00  0.00     0.124 S 
ATOM     80  O   UNL     1       4.676   3.793  12.841  1.00  0.00    -0.237 OA
ATOM     81  O   UNL     1       4.934   2.372  10.830  1.00  0.00    -0.237 OA
ATOM     82  O   UNL     1       5.943   1.679  12.968  1.00  0.00    -0.744 OA
ENDBRANCH  75  79
ENDBRANCH  48  72
BRANCH  60  83
ATOM     83  C   UNL     1       5.223  11.885  10.399  1.00  0.00     0.023 A 
ATOM     84  C   UNL     1       5.844  12.509  11.493  1.00  0.00     0.031 A 
ATOM     85  C   UNL     1       3.841  12.072  10.217  1.00  0.00     0.131 A 
ATOM     86  C   UNL     1       5.078  13.287  12.375  1.00  0.00     0.055 A 
ATOM     87  C   UNL     1       3.092  12.875  11.076  1.00  0.00     0.041 A 
ATOM     88  F   UNL     1       3.207  11.500   9.181  1.00  0.00    -0.206 F 
ATOM     89  C   UNL     1       3.710  13.488  12.163  1.00  0.00     0.022 A 
BRANCH  86  90
ATOM     90  S   UNL     1       5.890  14.048  13.808  1.00  0.00     0.124 S 
ATOM     91  O   UNL     1       6.185  12.885  14.639  1.00  0.00    -0.237 OA
ATOM     92  O   UNL     1       7.043  14.711  13.208  1.00  0.00    -0.237 OA
ATOM     93  O   UNL     1       4.870  14.950  14.341  1.00  0.00    -0.744 OA
ENDBRANCH  86  90
ENDBRANCH  60  83
ENDBRANCH  34  35
ENDBRANCH  27  29
ENDBRANCH  26  27
ENDBRANCH  25  26
ENDBRANCH   1  25
TORSDOF 17
