REMARK SMILES C/C=C/C[C@@H](C(=O)OCCOC(=O)c1ccc(-c2c3nc(c(-c4cc(S(=O)(=O)[O-])ccc4F)c4ccc([nH]4)c(-c4cc(S(=O)(=O)[O-])ccc4F)c4nc(c(-c5cc(S(=O)(=O)[O-])ccc5F)c5ccc2[nH]5)C=C4)C=C3)cc1)c1cccc(Cl)c1
REMARK SMILES IDX 10 1 9 2 8 3 6 4 7 5 5 6 4 7 3 8 1 9 2 10 77 11 78 12 83 13
REMARK SMILES IDX 79 14 81 15 80 16 82 17 11 18 12 19 13 20 14 21 15 22 76 23
REMARK SMILES IDX 16 24 75 25 17 26 18 27 19 28 69 29 20 30 74 31 68 32 70 33
REMARK SMILES IDX 21 34 73 35 67 36 66 37 22 39 54 40 34 41 53 42 35 43 38 44
REMARK SMILES IDX 52 45 71 46 36 47 37 48 51 50 72 51 39 52 23 53 24 54 32 55
REMARK SMILES IDX 25 56 31 57 33 58 30 59 26 60 27 61 28 62 29 63 55 64 56 65
REMARK SMILES IDX 64 66 57 67 63 68 65 69 62 70 58 71 59 72 60 73 61 74 40 75
REMARK SMILES IDX 41 76 49 77 42 78 48 79 50 80 47 81 43 82 44 83 45 84 46 85
REMARK H PARENT 70 38 38 49
REMARK Flexibility Score: inf
ROOT
ATOM      1  C   UNL     1      -2.342   1.067  -5.282  1.00  0.00     0.275 C 
ENDROOT
BRANCH   1   2
ATOM      2  C   UNL     1      -0.870   1.225  -4.918  1.00  0.00     0.274 C 
BRANCH   2   3
ATOM      3  O   UNL     1      -0.761   1.865  -3.631  1.00  0.00    -0.462 OA
BRANCH   3   4
ATOM      4  C   UNL     1      -0.081   3.041  -3.566  1.00  0.00     0.313 C 
ATOM      5  O   UNL     1       0.434   3.582  -4.540  1.00  0.00    -0.252 OA
BRANCH   4   6
ATOM      6  C   UNL     1       0.021   3.603  -2.139  1.00  0.00     0.133 C 
BRANCH   6   7
ATOM      7  C   UNL     1      -0.653   2.734  -1.051  1.00  0.00     0.047 C 
BRANCH   7   8
ATOM      8  C   UNL     1       0.004   1.397  -0.818  1.00  0.00    -0.030 C 
ATOM      9  C   UNL     1       1.416  -0.221   0.454  1.00  0.00     0.035 C 
ATOM     10  C   UNL     1       0.824   1.128   0.208  1.00  0.00    -0.035 C 
ENDBRANCH   7   8
ENDBRANCH   6   7
BRANCH   6  11
ATOM     11  C   UNL     1      -0.426   5.070  -2.086  1.00  0.00    -0.032 A 
ATOM     12  C   UNL     1       0.423   6.072  -2.591  1.00  0.00     0.005 A 
ATOM     13  C   UNL     1      -1.669   5.467  -1.562  1.00  0.00     0.025 A 
ATOM     14  C   UNL     1       0.052   7.420  -2.560  1.00  0.00     0.002 A 
ATOM     15  C   UNL     1      -2.029   6.818  -1.521  1.00  0.00     0.041 A 
ATOM     16  C   UNL     1      -1.174   7.796  -2.017  1.00  0.00     0.020 A 
ATOM     17  Cl  UNL     1      -3.558   7.267  -0.875  1.00  0.00    -0.084 Cl
ENDBRANCH   6  11
ENDBRANCH   4   6
ENDBRANCH   3   4
ENDBRANCH   2   3
ENDBRANCH   1   2
BRANCH   1  18
ATOM     18  O   UNL     1      -2.897   2.370  -5.520  1.00  0.00    -0.458 OA
BRANCH  18  19
ATOM     19  C   UNL     1      -3.719   2.842  -4.556  1.00  0.00     0.338 C 
ATOM     20  O   UNL     1      -4.142   2.248  -3.580  1.00  0.00    -0.246 OA
BRANCH  19  21
ATOM     21  C   UNL     1      -4.002   4.256  -4.839  1.00  0.00     0.060 A 
ATOM     22  C   UNL     1      -2.964   5.181  -4.753  1.00  0.00     0.016 A 
ATOM     23  C   UNL     1      -5.306   4.677  -5.088  1.00  0.00     0.016 A 
ATOM     24  C   UNL     1      -3.247   6.542  -4.827  1.00  0.00     0.010 A 
ATOM     25  C   UNL     1      -5.568   6.042  -5.252  1.00  0.00     0.010 A 
ATOM     26  C   UNL     1      -4.548   6.997  -5.082  1.00  0.00    -0.014 A 
BRANCH  26  27
ATOM     27  C   UNL     1      -4.845   8.460  -5.112  1.00  0.00     0.031 A 
ATOM     28  C   UNL     1      -5.876   9.046  -4.179  1.00  0.00     0.074 A 
ATOM     29  C   UNL     1      -4.175   9.279  -5.950  1.00  0.00     0.049 A 
ATOM     30  N   UNL     1      -6.400  10.246  -4.168  1.00  0.00    -0.248 NA
ATOM     31  C   UNL     1      -6.398   8.158  -3.130  1.00  0.00     0.031 C 
ATOM     32  C   UNL     1      -3.114   8.867  -6.872  1.00  0.00     0.029 A 
ATOM     33  N   UNL     1      -4.278  10.634  -6.156  1.00  0.00    -0.354 N 
ATOM     34  C   UNL     1      -7.349  10.241  -3.149  1.00  0.00     0.074 A 
ATOM     35  C   UNL     1      -7.332   8.914  -2.570  1.00  0.00     0.031 C 
ATOM     36  C   UNL     1      -2.633   9.947  -7.505  1.00  0.00     0.029 A 
ATOM     37  C   UNL     1      -3.416  11.114  -7.115  1.00  0.00     0.049 A 
ATOM     38  H   UNL     1      -4.909  11.207  -5.663  1.00  0.00     0.167 HD
ATOM     39  C   UNL     1      -8.162  11.247  -2.739  1.00  0.00     0.034 A 
ATOM     40  C   UNL     1      -3.297  12.340  -7.662  1.00  0.00     0.034 A 
ATOM     41  C   UNL     1      -8.139  12.580  -3.292  1.00  0.00     0.049 A 
ATOM     42  C   UNL     1      -4.240  13.428  -7.226  1.00  0.00     0.074 A 
ATOM     43  C   UNL     1      -8.912  13.674  -2.942  1.00  0.00     0.029 A 
ATOM     44  N   UNL     1      -7.292  13.005  -4.307  1.00  0.00    -0.354 N 
ATOM     45  N   UNL     1      -5.194  13.381  -6.327  1.00  0.00    -0.248 NA
ATOM     46  C   UNL     1      -4.105  14.726  -7.898  1.00  0.00     0.031 C 
ATOM     47  C   UNL     1      -8.570  14.743  -3.779  1.00  0.00     0.029 A 
ATOM     48  C   UNL     1      -7.540  14.336  -4.611  1.00  0.00     0.049 A 
ATOM     49  H   UNL     1      -6.614  12.444  -4.747  1.00  0.00     0.167 HD
ATOM     50  C   UNL     1      -5.779  14.643  -6.331  1.00  0.00     0.074 A 
ATOM     51  C   UNL     1      -5.049  15.437  -7.298  1.00  0.00     0.031 C 
ATOM     52  C   UNL     1      -6.828  15.103  -5.604  1.00  0.00     0.034 A 
BRANCH  39  53
ATOM     53  C   UNL     1      -9.194  10.919  -1.686  1.00  0.00     0.023 A 
ATOM     54  C   UNL     1      -8.845  10.598  -0.363  1.00  0.00     0.031 A 
ATOM     55  C   UNL     1     -10.559  10.907  -2.030  1.00  0.00     0.131 A 
ATOM     56  C   UNL     1      -9.843  10.222   0.551  1.00  0.00     0.055 A 
ATOM     57  C   UNL     1     -11.552  10.597  -1.099  1.00  0.00     0.041 A 
ATOM     58  F   UNL     1     -10.950  11.185  -3.284  1.00  0.00    -0.206 F 
ATOM     59  C   UNL     1     -11.195  10.240   0.198  1.00  0.00     0.022 A 
BRANCH  56  60
ATOM     60  S   UNL     1      -9.345   9.593   2.179  1.00  0.00     0.124 S 
ATOM     61  O   UNL     1      -8.534   8.434   1.813  1.00  0.00    -0.237 OA
ATOM     62  O   UNL     1      -8.625  10.726   2.748  1.00  0.00    -0.237 OA
ATOM     63  O   UNL     1     -10.616   9.273   2.826  1.00  0.00    -0.744 OA
ENDBRANCH  56  60
ENDBRANCH  39  53
BRANCH  40  64
ATOM     64  C   UNL     1      -2.305  12.582  -8.748  1.00  0.00     0.023 A 
ATOM     65  C   UNL     1      -1.222  13.456  -8.563  1.00  0.00     0.031 A 
ATOM     66  C   UNL     1      -2.443  11.955 -10.000  1.00  0.00     0.131 A 
ATOM     67  C   UNL     1      -0.331  13.695  -9.622  1.00  0.00     0.055 A 
ATOM     68  C   UNL     1      -1.528  12.159 -11.032  1.00  0.00     0.041 A 
ATOM     69  F   UNL     1      -3.464  11.114 -10.228  1.00  0.00    -0.206 F 
ATOM     70  C   UNL     1      -0.468  13.040 -10.849  1.00  0.00     0.022 A 
BRANCH  67  71
ATOM     71  S   UNL     1       0.984  14.923  -9.394  1.00  0.00     0.124 S 
ATOM     72  O   UNL     1       0.218  16.134  -9.123  1.00  0.00    -0.237 OA
ATOM     73  O   UNL     1       1.726  14.368  -8.267  1.00  0.00    -0.237 OA
ATOM     74  O   UNL     1       1.693  14.905 -10.672  1.00  0.00    -0.744 OA
ENDBRANCH  67  71
ENDBRANCH  40  64
BRANCH  52  75
ATOM     75  C   UNL     1      -7.228  16.538  -5.832  1.00  0.00     0.023 A 
ATOM     76  C   UNL     1      -7.832  16.947  -7.034  1.00  0.00     0.031 A 
ATOM     77  C   UNL     1      -6.972  17.511  -4.852  1.00  0.00     0.131 A 
ATOM     78  C   UNL     1      -8.114  18.304  -7.247  1.00  0.00     0.055 A 
ATOM     79  C   UNL     1      -7.299  18.853  -5.049  1.00  0.00     0.041 A 
ATOM     80  F   UNL     1      -6.394  17.173  -3.688  1.00  0.00    -0.206 F 
ATOM     81  C   UNL     1      -7.862  19.258  -6.257  1.00  0.00     0.022 A 
BRANCH  78  82
ATOM     82  S   UNL     1      -8.736  18.823  -8.870  1.00  0.00     0.124 S 
ATOM     83  O   UNL     1      -7.669  18.378  -9.761  1.00  0.00    -0.237 OA
ATOM     84  O   UNL     1      -9.995  18.093  -8.970  1.00  0.00    -0.237 OA
ATOM     85  O   UNL     1      -8.870  20.272  -8.739  1.00  0.00    -0.744 OA
ENDBRANCH  78  82
ENDBRANCH  52  75
ENDBRANCH  26  27
ENDBRANCH  19  21
ENDBRANCH  18  19
ENDBRANCH   1  18
TORSDOF 17
