REMARK SMILES CC1(C)CCC[C@H]([N@H+](CC(=O)OCCOC(=O)c2ccc(-c3c4nc(c(-c5cc(S(=O)(=O)[O-])ccc5F)c5ccc([nH]5)c(-c5cc(S(=O)(=O)[O-])ccc5F)c5nc(c(-c6cc(S(=O)(=O)[O-])ccc6F)c6ccc3[nH]6)C=C5)C=C4)cc2)C(C)(C)C)C1
REMARK SMILES IDX 14 1 13 2 12 3 10 4 11 5 9 6 8 7 7 9 1 10 2 11 3 12 4 13
REMARK SMILES IDX 85 14 5 15 6 16 81 17 82 18 83 19 84 20 15 21 16 22 17 23
REMARK SMILES IDX 18 24 19 25 80 26 20 27 79 28 21 29 22 30 23 31 73 32 24 33
REMARK SMILES IDX 78 34 72 35 74 36 25 37 77 38 71 39 70 40 26 42 58 43 38 44
REMARK SMILES IDX 57 45 39 46 42 47 56 48 75 49 40 50 41 51 55 53 76 54 43 55
REMARK SMILES IDX 27 56 28 57 36 58 29 59 35 60 37 61 34 62 30 63 31 64 32 65
REMARK SMILES IDX 33 66 59 67 60 68 68 69 61 70 67 71 69 72 66 73 62 74 63 75
REMARK SMILES IDX 64 76 65 77 44 78 45 79 53 80 46 81 52 82 54 83 51 84 47 85
REMARK SMILES IDX 48 86 49 87 50 88
REMARK H PARENT 8 8 74 41 42 52
REMARK Flexibility Score: inf
ROOT
ATOM      1  C   UNL     1      -0.459  -9.020  -0.177  1.00  0.00     0.275 C 
ENDROOT
BRANCH   1   2
ATOM      2  C   UNL     1      -1.554  -8.104  -0.734  1.00  0.00     0.274 C 
BRANCH   2   3
ATOM      3  O   UNL     1      -1.154  -6.718  -0.738  1.00  0.00    -0.458 OA
BRANCH   3   4
ATOM      4  C   UNL     1      -1.404  -6.052   0.407  1.00  0.00     0.361 C 
ATOM      5  O   UNL     1      -2.056  -6.540   1.334  1.00  0.00    -0.245 OA
BRANCH   4   6
ATOM      6  C   UNL     1      -0.837  -4.650   0.557  1.00  0.00     0.387 C 
BRANCH   6   7
ATOM      7  N   UNL     1      -0.226  -3.887  -0.574  1.00  0.00    -0.319 N 
ATOM      8  H   UNL     1      -0.762  -4.127  -1.409  1.00  0.00     0.349 HD
BRANCH   7   9
ATOM      9  C   UNL     1      -0.353  -2.406  -0.292  1.00  0.00     0.185 C 
ATOM     10  C   UNL     1       1.138   0.369   0.123  1.00  0.00     0.011 C 
ATOM     11  C   UNL     1       0.343  -0.392   1.202  1.00  0.00    -0.030 C 
ATOM     12  C   UNL     1       0.993  -0.081   2.566  1.00  0.00     0.011 C 
ATOM     13  C   UNL     1      -1.128   0.063   1.219  1.00  0.00     0.007 C 
ATOM     14  C   UNL     1       0.414  -1.918   0.963  1.00  0.00     0.071 C 
ATOM     15  C   UNL     1      -1.907  -0.390  -0.016  1.00  0.00     0.007 C 
ATOM     16  C   UNL     1      -1.823  -1.905  -0.213  1.00  0.00     0.065 C 
ENDBRANCH   7   9
BRANCH   7  17
ATOM     17  C   UNL     1       1.173  -4.311  -0.999  1.00  0.00     0.090 C 
ATOM     18  C   UNL     1       1.089  -5.533  -1.946  1.00  0.00     0.078 C 
ATOM     19  C   UNL     1       1.899  -3.235  -1.862  1.00  0.00     0.078 C 
ATOM     20  C   UNL     1       2.152  -4.692   0.140  1.00  0.00     0.078 C 
ENDBRANCH   7  17
ENDBRANCH   6   7
ENDBRANCH   4   6
ENDBRANCH   3   4
ENDBRANCH   2   3
ENDBRANCH   1   2
BRANCH   1  21
ATOM     21  O   UNL     1      -0.040  -8.607   1.138  1.00  0.00    -0.458 OA
BRANCH  21  22
ATOM     22  C   UNL     1       1.245  -8.204   1.231  1.00  0.00     0.338 C 
ATOM     23  O   UNL     1       2.077  -8.192   0.327  1.00  0.00    -0.246 OA
BRANCH  22  24
ATOM     24  C   UNL     1       1.595  -7.793   2.599  1.00  0.00     0.060 A 
ATOM     25  C   UNL     1       0.929  -6.748   3.248  1.00  0.00     0.016 A 
ATOM     26  C   UNL     1       2.730  -8.366   3.173  1.00  0.00     0.016 A 
ATOM     27  C   UNL     1       1.452  -6.217   4.429  1.00  0.00     0.010 A 
ATOM     28  C   UNL     1       3.206  -7.885   4.389  1.00  0.00     0.010 A 
ATOM     29  C   UNL     1       2.591  -6.787   5.012  1.00  0.00    -0.014 A 
BRANCH  29  30
ATOM     30  C   UNL     1       3.149  -6.302   6.297  1.00  0.00     0.031 A 
ATOM     31  C   UNL     1       4.528  -5.707   6.343  1.00  0.00     0.074 A 
ATOM     32  C   UNL     1       2.462  -6.530   7.430  1.00  0.00     0.049 A 
ATOM     33  N   UNL     1       5.311  -5.509   7.371  1.00  0.00    -0.248 NA
ATOM     34  C   UNL     1       5.106  -5.298   5.054  1.00  0.00     0.031 C 
ATOM     35  C   UNL     1       1.107  -7.084   7.496  1.00  0.00     0.029 A 
ATOM     36  N   UNL     1       2.830  -6.383   8.743  1.00  0.00    -0.354 N 
ATOM     37  C   UNL     1       6.491  -4.983   6.854  1.00  0.00     0.074 A 
ATOM     38  C   UNL     1       6.317  -4.899   5.418  1.00  0.00     0.031 C 
ATOM     39  C   UNL     1       0.776  -7.275   8.781  1.00  0.00     0.029 A 
ATOM     40  C   UNL     1       1.917  -6.924   9.618  1.00  0.00     0.049 A 
ATOM     41  H   UNL     1       3.659  -5.936   9.028  1.00  0.00     0.167 HD
ATOM     42  C   UNL     1       7.614  -4.620   7.524  1.00  0.00     0.034 A 
ATOM     43  C   UNL     1       2.014  -7.184  10.935  1.00  0.00     0.034 A 
ATOM     44  C   UNL     1       7.754  -4.720   8.959  1.00  0.00     0.049 A 
ATOM     45  C   UNL     1       3.284  -6.833  11.652  1.00  0.00     0.074 A 
ATOM     46  C   UNL     1       8.821  -4.338   9.754  1.00  0.00     0.029 A 
ATOM     47  N   UNL     1       6.798  -5.257   9.813  1.00  0.00    -0.354 N 
ATOM     48  N   UNL     1       4.398  -6.344  11.159  1.00  0.00    -0.248 NA
ATOM     49  C   UNL     1       3.311  -7.070  13.100  1.00  0.00     0.031 C 
ATOM     50  C   UNL     1       8.534  -4.696  11.078  1.00  0.00     0.029 A 
ATOM     51  C   UNL     1       7.263  -5.247  11.119  1.00  0.00     0.049 A 
ATOM     52  H   UNL     1       5.918  -5.597   9.531  1.00  0.00     0.167 HD
ATOM     53  C   UNL     1       5.258  -6.200  12.241  1.00  0.00     0.074 A 
ATOM     54  C   UNL     1       4.530  -6.652  13.412  1.00  0.00     0.031 C 
ATOM     55  C   UNL     1       6.529  -5.726  12.266  1.00  0.00     0.034 A 
BRANCH  42  56
ATOM     56  C   UNL     1       8.792  -4.143   6.709  1.00  0.00     0.023 A 
ATOM     57  C   UNL     1       8.756  -2.947   5.971  1.00  0.00     0.031 A 
ATOM     58  C   UNL     1       9.969  -4.912   6.658  1.00  0.00     0.131 A 
ATOM     59  C   UNL     1       9.852  -2.583   5.171  1.00  0.00     0.055 A 
ATOM     60  C   UNL     1      11.080  -4.513   5.911  1.00  0.00     0.041 A 
ATOM     61  F   UNL     1      10.055  -6.074   7.325  1.00  0.00    -0.206 F 
ATOM     62  C   UNL     1      11.021  -3.349   5.152  1.00  0.00     0.022 A 
BRANCH  59  63
ATOM     63  S   UNL     1       9.686  -1.159   4.059  1.00  0.00     0.124 S 
ATOM     64  O   UNL     1       8.510  -1.528   3.275  1.00  0.00    -0.237 OA
ATOM     65  O   UNL     1       9.511  -0.051   4.991  1.00  0.00    -0.237 OA
ATOM     66  O   UNL     1      10.944  -1.156   3.314  1.00  0.00    -0.744 OA
ENDBRANCH  59  63
ENDBRANCH  42  56
BRANCH  43  67
ATOM     67  C   UNL     1       0.897  -7.884  11.620  1.00  0.00     0.023 A 
ATOM     68  C   UNL     1       0.051  -7.205  12.506  1.00  0.00     0.031 A 
ATOM     69  C   UNL     1       0.630  -9.238  11.346  1.00  0.00     0.131 A 
ATOM     70  C   UNL     1      -1.026  -7.886  13.094  1.00  0.00     0.055 A 
ATOM     71  C   UNL     1      -0.461  -9.901  11.908  1.00  0.00     0.041 A 
ATOM     72  F   UNL     1       1.406  -9.923  10.490  1.00  0.00    -0.206 F 
ATOM     73  C   UNL     1      -1.295  -9.224  12.791  1.00  0.00     0.022 A 
BRANCH  70  74
ATOM     74  S   UNL     1      -2.071  -6.995  14.278  1.00  0.00     0.124 S 
ATOM     75  O   UNL     1      -1.112  -6.646  15.320  1.00  0.00    -0.237 OA
ATOM     76  O   UNL     1      -2.571  -5.888  13.469  1.00  0.00    -0.237 OA
ATOM     77  O   UNL     1      -3.075  -7.987  14.659  1.00  0.00    -0.744 OA
ENDBRANCH  70  74
ENDBRANCH  43  67
BRANCH  55  78
ATOM     78  C   UNL     1       7.185  -5.642  13.617  1.00  0.00     0.023 A 
ATOM     79  C   UNL     1       7.629  -6.792  14.291  1.00  0.00     0.031 A 
ATOM     80  C   UNL     1       7.343  -4.395  14.245  1.00  0.00     0.131 A 
ATOM     81  C   UNL     1       8.174  -6.675  15.578  1.00  0.00     0.055 A 
ATOM     82  C   UNL     1       7.925  -4.280  15.507  1.00  0.00     0.041 A 
ATOM     83  F   UNL     1       6.930  -3.269  13.640  1.00  0.00    -0.206 F 
ATOM     84  C   UNL     1       8.336  -5.425  16.185  1.00  0.00     0.022 A 
BRANCH  81  85
ATOM     85  S   UNL     1       8.618  -8.184  16.480  1.00  0.00     0.124 S 
ATOM     86  O   UNL     1       7.320  -8.831  16.644  1.00  0.00    -0.237 OA
ATOM     87  O   UNL     1       9.545  -8.838  15.562  1.00  0.00    -0.237 OA
ATOM     88  O   UNL     1       9.222  -7.682  17.713  1.00  0.00    -0.744 OA
ENDBRANCH  81  85
ENDBRANCH  55  78
ENDBRANCH  29  30
ENDBRANCH  22  24
ENDBRANCH  21  22
ENDBRANCH   1  21
TORSDOF 17
