REMARK SMILES Cc1cc(F)cc(N[C@H](C(=O)OCCOC(=O)c2ccc(-c3c4nc(c(-c5cc(S(=O)(=O)[O-])ccc5F)c5ccc([nH]5)c(-c5cc(S(=O)(=O)[O-])ccc5F)c5nc(c(-c6cc(S(=O)(=O)[O-])ccc6F)c6ccc3[nH]6)C=C5)C=C4)cc2)c2cc(C)cc(C)c2)c1
REMARK SMILES IDX 14 1 13 2 12 3 10 4 11 5 9 6 8 7 7 9 1 10 2 11 3 12 89 13
REMARK SMILES IDX 4 14 5 15 6 16 81 17 82 18 88 19 83 20 86 21 84 22 85 23
REMARK SMILES IDX 87 24 15 25 16 26 17 27 18 28 19 29 80 30 20 31 79 32 21 33
REMARK SMILES IDX 22 34 23 35 73 36 24 37 78 38 72 39 74 40 25 41 77 42 71 43
REMARK SMILES IDX 70 44 26 46 58 47 38 48 57 49 39 50 42 51 56 52 75 53 40 54
REMARK SMILES IDX 41 55 55 57 76 58 43 59 27 60 28 61 36 62 29 63 35 64 37 65
REMARK SMILES IDX 34 66 30 67 31 68 32 69 33 70 59 71 60 72 68 73 61 74 67 75
REMARK SMILES IDX 69 76 66 77 62 78 63 79 64 80 65 81 44 82 45 83 53 84 46 85
REMARK SMILES IDX 52 86 54 87 51 88 47 89 48 90 49 91 50 92
REMARK H PARENT 8 8 74 45 42 56
REMARK Flexibility Score: inf
ROOT
ATOM      1  C   UNL     1       2.267  -1.268  -1.223  1.00  0.00     0.275 C 
ENDROOT
BRANCH   1   2
ATOM      2  C   UNL     1       2.506  -2.785  -1.218  1.00  0.00     0.274 C 
BRANCH   2   3
ATOM      3  O   UNL     1       1.291  -3.546  -1.102  1.00  0.00    -0.460 OA
BRANCH   3   4
ATOM      4  C   UNL     1       0.938  -3.867   0.182  1.00  0.00     0.333 C 
ATOM      5  O   UNL     1       1.598  -3.519   1.157  1.00  0.00    -0.249 OA
BRANCH   4   6
ATOM      6  C   UNL     1      -0.426  -4.595   0.251  1.00  0.00     0.221 C 
BRANCH   6   7
ATOM      7  N   UNL     1      -0.662  -5.527  -0.883  1.00  0.00    -0.369 N 
ATOM      8  H   UNL     1      -1.362  -5.239  -1.512  1.00  0.00     0.161 HD
BRANCH   7   9
ATOM      9  C   UNL     1      -0.063  -6.728  -1.199  1.00  0.00     0.038 A 
ATOM     10  C   UNL     1      -0.254  -9.307  -4.041  1.00  0.00     0.044 C 
ATOM     11  C   UNL     1       0.116  -8.637  -2.754  1.00  0.00    -0.046 A 
ATOM     12  C   UNL     1       0.992  -9.282  -1.882  1.00  0.00     0.042 A 
ATOM     13  C   UNL     1      -0.423  -7.385  -2.390  1.00  0.00     0.029 A 
ATOM     14  C   UNL     1       1.354  -8.651  -0.710  1.00  0.00     0.125 A 
ATOM     15  F   UNL     1       2.201  -9.254   0.135  1.00  0.00    -0.207 F 
ATOM     16  C   UNL     1       0.860  -7.390  -0.395  1.00  0.00     0.065 A 
ENDBRANCH   7   9
ENDBRANCH   6   7
BRANCH   6  17
ATOM     17  C   UNL     1      -0.749  -5.212   1.615  1.00  0.00    -0.014 A 
ATOM     18  C   UNL     1       0.250  -5.851   2.364  1.00  0.00     0.010 A 
ATOM     19  C   UNL     1      -2.050  -5.210   2.145  1.00  0.00     0.010 A 
ATOM     20  C   UNL     1      -0.046  -6.666   3.453  1.00  0.00    -0.051 A 
ATOM     21  C   UNL     1      -2.334  -5.877   3.351  1.00  0.00    -0.051 A 
ATOM     22  C   UNL     1       0.993  -7.633   3.934  1.00  0.00     0.044 C 
ATOM     23  C   UNL     1      -1.342  -6.662   3.956  1.00  0.00     0.006 A 
ATOM     24  C   UNL     1      -3.693  -5.814   3.985  1.00  0.00     0.044 C 
ENDBRANCH   6  17
ENDBRANCH   4   6
ENDBRANCH   3   4
ENDBRANCH   2   3
ENDBRANCH   1   2
BRANCH   1  25
ATOM     25  O   UNL     1       1.700  -0.764   0.003  1.00  0.00    -0.458 OA
BRANCH  25  26
ATOM     26  C   UNL     1       0.347  -0.804   0.065  1.00  0.00     0.338 C 
ATOM     27  O   UNL     1      -0.403  -1.216  -0.817  1.00  0.00    -0.246 OA
BRANCH  26  28
ATOM     28  C   UNL     1      -0.147  -0.433   1.405  1.00  0.00     0.060 A 
ATOM     29  C   UNL     1      -1.156  -1.227   1.962  1.00  0.00     0.016 A 
ATOM     30  C   UNL     1       0.299   0.704   2.083  1.00  0.00     0.016 A 
ATOM     31  C   UNL     1      -1.729  -0.892   3.184  1.00  0.00     0.010 A 
ATOM     32  C   UNL     1      -0.284   1.045   3.312  1.00  0.00     0.010 A 
ATOM     33  C   UNL     1      -1.312   0.257   3.864  1.00  0.00    -0.014 A 
BRANCH  33  34
ATOM     34  C   UNL     1      -2.019   0.655   5.107  1.00  0.00     0.031 A 
ATOM     35  C   UNL     1      -2.990   1.802   5.076  1.00  0.00     0.074 A 
ATOM     36  C   UNL     1      -1.838  -0.046   6.242  1.00  0.00     0.049 A 
ATOM     37  N   UNL     1      -3.692   2.323   6.050  1.00  0.00    -0.248 NA
ATOM     38  C   UNL     1      -3.199   2.447   3.771  1.00  0.00     0.031 C 
ATOM     39  C   UNL     1      -0.970  -1.217   6.378  1.00  0.00     0.029 A 
ATOM     40  N   UNL     1      -2.377   0.117   7.494  1.00  0.00    -0.354 N 
ATOM     41  C   UNL     1      -4.422   3.362   5.480  1.00  0.00     0.074 A 
ATOM     42  C   UNL     1      -4.045   3.417   4.083  1.00  0.00     0.031 C 
ATOM     43  C   UNL     1      -1.037  -1.666   7.642  1.00  0.00     0.029 A 
ATOM     44  C   UNL     1      -1.911  -0.789   8.418  1.00  0.00     0.049 A 
ATOM     45  H   UNL     1      -3.035   0.817   7.710  1.00  0.00     0.167 HD
ATOM     46  C   UNL     1      -5.325   4.185   6.069  1.00  0.00     0.034 A 
ATOM     47  C   UNL     1      -2.139  -0.883   9.744  1.00  0.00     0.034 A 
ATOM     48  C   UNL     1      -5.681   4.120   7.467  1.00  0.00     0.049 A 
ATOM     49  C   UNL     1      -3.075   0.106  10.396  1.00  0.00     0.074 A 
ATOM     50  C   UNL     1      -6.585   4.904   8.164  1.00  0.00     0.029 A 
ATOM     51  N   UNL     1      -5.144   3.227   8.387  1.00  0.00    -0.354 N 
ATOM     52  N   UNL     1      -3.752   1.090   9.849  1.00  0.00    -0.248 NA
ATOM     53  C   UNL     1      -3.286  -0.036  11.842  1.00  0.00     0.031 C 
ATOM     54  C   UNL     1      -6.535   4.540   9.514  1.00  0.00     0.029 A 
ATOM     55  C   UNL     1      -5.671   3.465   9.649  1.00  0.00     0.049 A 
ATOM     56  H   UNL     1      -4.485   2.527   8.175  1.00  0.00     0.167 HD
ATOM     57  C   UNL     1      -4.497   1.659  10.880  1.00  0.00     0.074 A 
ATOM     58  C   UNL     1      -4.194   0.900  12.076  1.00  0.00     0.031 C 
ATOM     59  C   UNL     1      -5.359   2.707  10.839  1.00  0.00     0.034 A 
BRANCH  46  60
ATOM     60  C   UNL     1      -5.943   5.265   5.211  1.00  0.00     0.023 A 
ATOM     61  C   UNL     1      -6.755   4.962   4.103  1.00  0.00     0.031 A 
ATOM     62  C   UNL     1      -5.693   6.620   5.490  1.00  0.00     0.131 A 
ATOM     63  C   UNL     1      -7.226   5.995   3.276  1.00  0.00     0.055 A 
ATOM     64  C   UNL     1      -6.233   7.646   4.713  1.00  0.00     0.041 A 
ATOM     65  F   UNL     1      -4.906   6.972   6.519  1.00  0.00    -0.206 F 
ATOM     66  C   UNL     1      -6.992   7.336   3.589  1.00  0.00     0.022 A 
BRANCH  63  67
ATOM     67  S   UNL     1      -8.018   5.556   1.705  1.00  0.00     0.124 S 
ATOM     68  O   UNL     1      -6.970   4.772   1.054  1.00  0.00    -0.237 OA
ATOM     69  O   UNL     1      -9.194   4.812   2.141  1.00  0.00    -0.237 OA
ATOM     70  O   UNL     1      -8.292   6.851   1.085  1.00  0.00    -0.744 OA
ENDBRANCH  63  67
ENDBRANCH  46  60
BRANCH  47  71
ATOM     71  C   UNL     1      -1.442  -1.921  10.559  1.00  0.00     0.023 A 
ATOM     72  C   UNL     1      -2.160  -2.912  11.247  1.00  0.00     0.031 A 
ATOM     73  C   UNL     1      -0.043  -1.898  10.708  1.00  0.00     0.131 A 
ATOM     74  C   UNL     1      -1.483  -3.807  12.091  1.00  0.00     0.055 A 
ATOM     75  C   UNL     1       0.631  -2.828  11.500  1.00  0.00     0.041 A 
ATOM     76  F   UNL     1       0.693  -0.968  10.078  1.00  0.00    -0.206 F 
ATOM     77  C   UNL     1      -0.091  -3.782  12.210  1.00  0.00     0.022 A 
BRANCH  74  78
ATOM     78  S   UNL     1      -2.458  -4.944  13.114  1.00  0.00     0.124 S 
ATOM     79  O   UNL     1      -3.291  -4.020  13.874  1.00  0.00    -0.237 OA
ATOM     80  O   UNL     1      -3.145  -5.745  12.106  1.00  0.00    -0.237 OA
ATOM     81  O   UNL     1      -1.446  -5.657  13.890  1.00  0.00    -0.744 OA
ENDBRANCH  74  78
ENDBRANCH  47  71
BRANCH  59  82
ATOM     82  C   UNL     1      -6.087   3.053  12.118  1.00  0.00     0.023 A 
ATOM     83  C   UNL     1      -5.413   3.534  13.255  1.00  0.00     0.031 A 
ATOM     84  C   UNL     1      -7.481   2.885  12.200  1.00  0.00     0.131 A 
ATOM     85  C   UNL     1      -6.126   3.773  14.441  1.00  0.00     0.055 A 
ATOM     86  C   UNL     1      -8.193   3.188  13.362  1.00  0.00     0.041 A 
ATOM     87  F   UNL     1      -8.178   2.425  11.149  1.00  0.00    -0.206 F 
ATOM     88  C   UNL     1      -7.513   3.621  14.496  1.00  0.00     0.022 A 
BRANCH  85  89
ATOM     89  S   UNL     1      -5.201   4.186  15.947  1.00  0.00     0.124 S 
ATOM     90  O   UNL     1      -4.306   3.041  16.078  1.00  0.00    -0.237 OA
ATOM     91  O   UNL     1      -4.570   5.452  15.588  1.00  0.00    -0.237 OA
ATOM     92  O   UNL     1      -6.239   4.282  16.972  1.00  0.00    -0.744 OA
ENDBRANCH  85  89
ENDBRANCH  59  82
ENDBRANCH  33  34
ENDBRANCH  26  28
ENDBRANCH  25  26
ENDBRANCH   1  25
TORSDOF 17
