REMARK SMILES O=C(OCCOC(=O)c1nn(-c2ccc(Br)cc2F)cc1CCCO)c1ccc(-c2c3nc(c(-c4cc(S(=O)(=O)[O-])ccc4F)c4ccc([nH]4)c(-c4cc(S(=O)(=O)[O-])ccc4F)c4nc(c(-c5cc(S(=O)(=O)[O-])ccc5F)c5ccc2[nH]5)C=C4)C=C3)cc1
REMARK SMILES IDX 5 1 4 2 3 3 2 4 1 5 26 6 27 7 88 8 28 9 87 10 29 11 30 12
REMARK SMILES IDX 31 13 81 14 32 15 86 16 80 17 82 18 33 19 85 20 79 21 78 22
REMARK SMILES IDX 34 24 66 25 46 26 65 27 47 28 50 29 64 30 83 31 48 32 49 33
REMARK SMILES IDX 63 35 84 36 51 37 35 38 36 39 44 40 37 41 43 42 45 43 42 44
REMARK SMILES IDX 38 45 39 46 40 47 41 48 67 49 68 50 76 51 69 52 75 53 77 54
REMARK SMILES IDX 74 55 70 56 71 57 72 58 73 59 52 60 53 61 61 62 54 63 60 64
REMARK SMILES IDX 62 65 59 66 55 67 56 68 57 69 58 70 6 71 7 72 8 73 9 74
REMARK SMILES IDX 10 75 21 76 11 77 20 78 22 79 23 80 24 81 25 82 12 84 13 85
REMARK SMILES IDX 18 86 14 87 17 88 19 89 15 90 16 91
REMARK H PARENT 82 23 50 34 25 83
REMARK Flexibility Score: inf
ROOT
ATOM      1  C   UNL     1       4.877  -1.168   1.001  1.00  0.00     0.275 C 
ENDROOT
BRANCH   1   2
ATOM      2  C   UNL     1       5.042   0.312   0.678  1.00  0.00     0.275 C 
BRANCH   2   3
ATOM      3  O   UNL     1       3.778   0.979   0.788  1.00  0.00    -0.458 OA
BRANCH   3   4
ATOM      4  C   UNL     1       2.829   1.291  -0.106  1.00  0.00     0.338 C 
ATOM      5  O   UNL     1       1.748   1.661   0.364  1.00  0.00    -0.246 OA
BRANCH   4   6
ATOM      6  C   UNL     1       2.920   1.217  -1.601  1.00  0.00     0.060 A 
ATOM      7  C   UNL     1       3.989   0.833  -2.417  1.00  0.00     0.016 A 
ATOM      8  C   UNL     1       1.707   1.548  -2.239  1.00  0.00     0.016 A 
ATOM      9  C   UNL     1       3.865   0.892  -3.817  1.00  0.00     0.010 A 
ATOM     10  C   UNL     1       1.546   1.469  -3.605  1.00  0.00     0.010 A 
ATOM     11  C   UNL     1       2.650   1.262  -4.409  1.00  0.00    -0.014 A 
BRANCH  11  12
ATOM     12  C   UNL     1       2.472   1.368  -5.859  1.00  0.00     0.031 A 
ATOM     13  C   UNL     1       2.915   0.175  -6.625  1.00  0.00     0.074 A 
ATOM     14  C   UNL     1       1.791   2.383  -6.450  1.00  0.00     0.049 A 
ATOM     15  N   UNL     1       3.952   0.073  -7.387  1.00  0.00    -0.248 NA
ATOM     16  C   UNL     1       2.227  -1.106  -6.394  1.00  0.00     0.031 C 
ATOM     17  C   UNL     1       1.076   3.499  -5.816  1.00  0.00     0.029 A 
ATOM     18  N   UNL     1       1.513   2.589  -7.769  1.00  0.00    -0.354 N 
ATOM     19  C   UNL     1       3.891  -1.197  -7.949  1.00  0.00     0.074 A 
ATOM     20  C   UNL     1       2.958  -1.936  -7.142  1.00  0.00     0.031 C 
ATOM     21  C   UNL     1       0.264   4.103  -6.714  1.00  0.00     0.029 A 
ATOM     22  C   UNL     1       0.529   3.548  -8.029  1.00  0.00     0.049 A 
ATOM     23  H   UNL     1       1.973   2.097  -8.488  1.00  0.00     0.167 HD
ATOM     24  C   UNL     1       4.418  -1.446  -9.181  1.00  0.00     0.034 A 
ATOM     25  C   UNL     1      -0.018   3.886  -9.234  1.00  0.00     0.034 A 
ATOM     26  C   UNL     1       5.323  -0.388  -9.577  1.00  0.00     0.049 A 
ATOM     27  C   UNL     1       0.966   3.466 -10.262  1.00  0.00     0.074 A 
ATOM     28  C   UNL     1       6.457   0.164  -9.007  1.00  0.00     0.029 A 
ATOM     29  N   UNL     1       4.865   0.563 -10.464  1.00  0.00    -0.354 N 
ATOM     30  N   UNL     1       2.152   4.004 -10.365  1.00  0.00    -0.248 NA
ATOM     31  C   UNL     1       0.847   2.118 -10.797  1.00  0.00     0.031 C 
ATOM     32  C   UNL     1       6.282   1.573  -9.152  1.00  0.00     0.029 A 
ATOM     33  C   UNL     1       5.133   1.797  -9.915  1.00  0.00     0.049 A 
ATOM     34  H   UNL     1       4.428   0.392 -11.329  1.00  0.00     0.167 HD
ATOM     35  C   UNL     1       3.013   2.933 -10.546  1.00  0.00     0.074 A 
ATOM     36  C   UNL     1       2.144   1.804 -10.887  1.00  0.00     0.031 C 
ATOM     37  C   UNL     1       4.310   2.978 -10.116  1.00  0.00     0.034 A 
BRANCH  24  38
ATOM     38  C   UNL     1       3.858  -2.444 -10.171  1.00  0.00     0.023 A 
ATOM     39  C   UNL     1       4.554  -2.630 -11.381  1.00  0.00     0.031 A 
ATOM     40  C   UNL     1       2.560  -3.005 -10.119  1.00  0.00     0.131 A 
ATOM     41  C   UNL     1       3.942  -3.264 -12.478  1.00  0.00     0.055 A 
ATOM     42  C   UNL     1       1.983  -3.696 -11.188  1.00  0.00     0.041 A 
ATOM     43  F   UNL     1       1.738  -2.835  -9.078  1.00  0.00    -0.206 F 
ATOM     44  C   UNL     1       2.662  -3.805 -12.387  1.00  0.00     0.022 A 
BRANCH  41  45
ATOM     45  S   UNL     1       4.780  -3.214 -14.083  1.00  0.00     0.124 S 
ATOM     46  O   UNL     1       4.986  -1.781 -14.262  1.00  0.00    -0.237 OA
ATOM     47  O   UNL     1       5.975  -4.009 -13.822  1.00  0.00    -0.237 OA
ATOM     48  O   UNL     1       3.812  -3.824 -14.990  1.00  0.00    -0.744 OA
ENDBRANCH  41  45
ENDBRANCH  24  38
BRANCH  25  49
ATOM     49  C   UNL     1      -1.445   4.218  -9.550  1.00  0.00     0.023 A 
ATOM     50  C   UNL     1      -1.861   4.849 -10.750  1.00  0.00     0.031 A 
ATOM     51  C   UNL     1      -2.469   3.659  -8.753  1.00  0.00     0.131 A 
ATOM     52  C   UNL     1      -3.237   4.892 -11.102  1.00  0.00     0.055 A 
ATOM     53  C   UNL     1      -3.821   3.696  -9.110  1.00  0.00     0.041 A 
ATOM     54  F   UNL     1      -2.180   2.973  -7.636  1.00  0.00    -0.206 F 
ATOM     55  C   UNL     1      -4.210   4.304 -10.292  1.00  0.00     0.022 A 
BRANCH  52  56
ATOM     56  S   UNL     1      -3.793   5.647 -12.673  1.00  0.00     0.124 S 
ATOM     57  O   UNL     1      -3.515   7.061 -12.456  1.00  0.00    -0.237 OA
ATOM     58  O   UNL     1      -2.966   4.966 -13.662  1.00  0.00    -0.237 OA
ATOM     59  O   UNL     1      -5.216   5.307 -12.734  1.00  0.00    -0.744 OA
ENDBRANCH  52  56
ENDBRANCH  25  49
BRANCH  37  60
ATOM     60  C   UNL     1       4.880   4.309  -9.645  1.00  0.00     0.023 A 
ATOM     61  C   UNL     1       4.348   5.117  -8.609  1.00  0.00     0.031 A 
ATOM     62  C   UNL     1       6.105   4.710 -10.208  1.00  0.00     0.131 A 
ATOM     63  C   UNL     1       5.038   6.276  -8.187  1.00  0.00     0.055 A 
ATOM     64  C   UNL     1       6.795   5.840  -9.772  1.00  0.00     0.041 A 
ATOM     65  F   UNL     1       6.677   3.981 -11.180  1.00  0.00    -0.206 F 
ATOM     66  C   UNL     1       6.262   6.631  -8.764  1.00  0.00     0.022 A 
BRANCH  63  67
ATOM     67  S   UNL     1       4.354   7.368  -6.894  1.00  0.00     0.124 S 
ATOM     68  O   UNL     1       2.962   7.541  -7.293  1.00  0.00    -0.237 OA
ATOM     69  O   UNL     1       4.579   6.595  -5.675  1.00  0.00    -0.237 OA
ATOM     70  O   UNL     1       5.173   8.577  -7.002  1.00  0.00    -0.744 OA
ENDBRANCH  63  67
ENDBRANCH  37  60
ENDBRANCH  11  12
ENDBRANCH   4   6
ENDBRANCH   3   4
ENDBRANCH   2   3
ENDBRANCH   1   2
BRANCH   1  71
ATOM     71  O   UNL     1       4.116  -1.814  -0.032  1.00  0.00    -0.457 OA
BRANCH  71  72
ATOM     72  C   UNL     1       2.919  -2.380   0.331  1.00  0.00     0.359 C 
ATOM     73  O   UNL     1       2.438  -2.351   1.450  1.00  0.00    -0.244 OA
BRANCH  72  74
ATOM     74  C   UNL     1       2.318  -3.086  -0.806  1.00  0.00     0.173 A 
ATOM     75  N   UNL     1       2.788  -4.303  -1.135  1.00  0.00    -0.160 NA
ATOM     76  C   UNL     1       1.291  -2.673  -1.713  1.00  0.00     0.006 A 
ATOM     77  N   UNL     1       2.312  -4.528  -2.375  1.00  0.00    -0.237 N 
ATOM     78  C   UNL     1       1.407  -3.574  -2.756  1.00  0.00     0.119 A 
BRANCH  76  79
ATOM     79  C   UNL     1       0.404  -1.471  -1.721  1.00  0.00     0.042 C 
BRANCH  79  80
ATOM     80  C   UNL     1      -0.744  -1.432  -0.714  1.00  0.00     0.033 C 
BRANCH  80  81
ATOM     81  C   UNL     1      -0.349  -0.820   0.628  1.00  0.00     0.156 C 
BRANCH  81  82
ATOM     82  O   UNL     1      -0.714   0.556   0.658  1.00  0.00    -0.396 OA
ATOM     83  H   UNL     1      -0.255   1.028  -0.054  1.00  0.00     0.210 HD
ENDBRANCH  81  82
ENDBRANCH  80  81
ENDBRANCH  79  80
ENDBRANCH  76  79
BRANCH  77  84
ATOM     84  C   UNL     1       2.731  -5.659  -3.094  1.00  0.00     0.100 A 
ATOM     85  C   UNL     1       2.923  -6.865  -2.409  1.00  0.00     0.032 A 
ATOM     86  C   UNL     1       2.974  -5.582  -4.463  1.00  0.00     0.149 A 
ATOM     87  C   UNL     1       3.320  -8.000  -3.115  1.00  0.00     0.018 A 
ATOM     88  C   UNL     1       3.425  -6.699  -5.160  1.00  0.00     0.057 A 
ATOM     89  F   UNL     1       2.860  -4.421  -5.120  1.00  0.00    -0.205 F 
ATOM     90  C   UNL     1       3.581  -7.908  -4.483  1.00  0.00     0.021 A 
ATOM     91  Br  UNL     1       4.158  -9.444  -5.422  1.00  0.00    -0.051 Br
ENDBRANCH  77  84
ENDBRANCH  72  74
ENDBRANCH  71  72
ENDBRANCH   1  71
TORSDOF 19
