REMARK SMILES CCCCCCNC(=O)Oc1cccc(-c2ccc([C@@H](C)C(=O)OCCOC(=O)c3ccc(-c4c5nc(c(-c6cc(S(=O)(=O)[O-])ccc6F)c6ccc([nH]6)c(-c6cc(S(=O)(=O)[O-])ccc6F)c6nc(c(-c7cc(S(=O)(=O)[O-])ccc7F)c7ccc4[nH]7)C=C6)C=C5)cc3)cc2F)c1
REMARK SMILES IDX 20 1 21 2 19 3 16 4 17 5 94 6 18 7 93 8 95 9 15 10 11 11
REMARK SMILES IDX 12 12 96 13 13 14 14 15 10 16 8 17 7 18 9 20 6 21 5 22 4 23
REMARK SMILES IDX 3 24 2 25 1 26 22 27 23 28 24 29 25 30 26 31 27 32 28 33
REMARK SMILES IDX 29 34 30 35 31 36 92 37 32 38 91 39 33 40 34 41 35 42 85 43
REMARK SMILES IDX 36 44 90 45 84 46 86 47 37 48 89 49 83 50 82 51 38 53 70 54
REMARK SMILES IDX 50 55 69 56 51 57 54 58 68 59 87 60 52 61 53 62 67 64 88 65
REMARK SMILES IDX 55 66 39 67 40 68 48 69 41 70 47 71 49 72 46 73 42 74 43 75
REMARK SMILES IDX 44 76 45 77 71 78 72 79 80 80 73 81 79 82 81 83 78 84 74 85
REMARK SMILES IDX 75 86 76 87 77 88 56 89 57 90 65 91 58 92 64 93 66 94 63 95
REMARK SMILES IDX 59 96 60 97 61 98 62 99
REMARK H PARENT 7 19 86 52 54 63
REMARK Flexibility Score: inf
ROOT
ATOM      1  C   UNL     1      -5.395  10.164   9.297  1.00  0.00     0.126 C 
ATOM      2  C   UNL     1      -6.782  10.528   9.823  1.00  0.00     0.025 C 
ENDROOT
BRANCH   1   3
ATOM      3  C   UNL     1      -5.312   8.710   8.858  1.00  0.00    -0.031 A 
ATOM      4  C   UNL     1      -5.218   6.003   7.963  1.00  0.00     0.018 A 
ATOM      5  C   UNL     1      -5.505   6.322   9.301  1.00  0.00     0.012 A 
ATOM      6  C   UNL     1      -4.952   7.071   7.096  1.00  0.00     0.131 A 
ATOM      7  C   UNL     1      -5.561   7.651   9.740  1.00  0.00     0.005 A 
ATOM      8  C   UNL     1      -4.997   8.399   7.527  1.00  0.00     0.044 A 
ATOM      9  F   UNL     1      -4.689   6.840   5.800  1.00  0.00    -0.206 F 
BRANCH   4  10
ATOM     10  C   UNL     1      -5.250   4.604   7.499  1.00  0.00    -0.012 A 
ATOM     11  C   UNL     1      -4.300   2.727   6.288  1.00  0.00     0.133 A 
ATOM     12  C   UNL     1      -5.403   1.932   6.592  1.00  0.00     0.047 A 
ATOM     13  C   UNL     1      -4.218   4.052   6.721  1.00  0.00     0.056 A 
ATOM     14  C   UNL     1      -6.432   2.462   7.361  1.00  0.00     0.004 A 
ATOM     15  C   UNL     1      -6.354   3.783   7.808  1.00  0.00     0.009 A 
BRANCH  11  16
ATOM     16  O   UNL     1      -3.350   2.169   5.417  1.00  0.00    -0.410 OA
BRANCH  16  17
ATOM     17  C   UNL     1      -2.022   2.144   5.814  1.00  0.00     0.412 C 
ATOM     18  N   UNL     1      -1.198   1.570   4.883  1.00  0.00    -0.321 N 
ATOM     19  H   UNL     1      -0.236   1.556   5.094  1.00  0.00     0.167 HD
ATOM     20  O   UNL     1      -1.582   2.542   6.886  1.00  0.00    -0.224 OA
BRANCH  18  21
ATOM     21  C   UNL     1      -1.594   0.981   3.619  1.00  0.00     0.119 C 
BRANCH  21  22
ATOM     22  C   UNL     1      -0.959   1.683   2.419  1.00  0.00     0.021 C 
BRANCH  22  23
ATOM     23  C   UNL     1       0.569   1.582   2.343  1.00  0.00     0.002 C 
BRANCH  23  24
ATOM     24  C   UNL     1       1.142   0.160   2.297  1.00  0.00    -0.000 C 
BRANCH  24  25
ATOM     25  C   UNL     1       0.652  -0.714   1.139  1.00  0.00    -0.003 C 
ATOM     26  C   UNL     1       1.030  -0.171  -0.230  1.00  0.00     0.004 C 
ENDBRANCH  24  25
ENDBRANCH  23  24
ENDBRANCH  22  23
ENDBRANCH  21  22
ENDBRANCH  18  21
ENDBRANCH  16  17
ENDBRANCH  11  16
ENDBRANCH   4  10
ENDBRANCH   1   3
BRANCH   1  27
ATOM     27  C   UNL     1      -4.333  10.637  10.282  1.00  0.00     0.313 C 
ATOM     28  O   UNL     1      -4.008  11.818  10.371  1.00  0.00    -0.252 OA
BRANCH  27  29
ATOM     29  O   UNL     1      -3.831   9.650  11.068  1.00  0.00    -0.462 OA
BRANCH  29  30
ATOM     30  C   UNL     1      -2.741  10.003  11.939  1.00  0.00     0.274 C 
BRANCH  30  31
ATOM     31  C   UNL     1      -1.401   9.561  11.347  1.00  0.00     0.275 C 
BRANCH  31  32
ATOM     32  O   UNL     1      -1.039  10.364  10.210  1.00  0.00    -0.458 OA
BRANCH  32  33
ATOM     33  C   UNL     1      -1.412   9.860   9.010  1.00  0.00     0.338 C 
ATOM     34  O   UNL     1      -1.982   8.806   8.796  1.00  0.00    -0.246 OA
BRANCH  33  35
ATOM     35  C   UNL     1      -1.107  10.839   7.960  1.00  0.00     0.060 A 
ATOM     36  C   UNL     1      -2.163  11.505   7.331  1.00  0.00     0.016 A 
ATOM     37  C   UNL     1       0.209  11.039   7.548  1.00  0.00     0.016 A 
ATOM     38  C   UNL     1      -1.907  12.377   6.275  1.00  0.00     0.010 A 
ATOM     39  C   UNL     1       0.465  11.920   6.496  1.00  0.00     0.010 A 
ATOM     40  C   UNL     1      -0.591  12.587   5.847  1.00  0.00    -0.014 A 
BRANCH  40  41
ATOM     41  C   UNL     1      -0.295  13.459   4.686  1.00  0.00     0.031 A 
ATOM     42  C   UNL     1       0.147  12.833   3.396  1.00  0.00     0.074 A 
ATOM     43  C   UNL     1      -0.384  14.797   4.804  1.00  0.00     0.049 A 
ATOM     44  N   UNL     1       0.686  13.392   2.345  1.00  0.00    -0.248 NA
ATOM     45  C   UNL     1      -0.038  11.378   3.283  1.00  0.00     0.031 C 
ATOM     46  C   UNL     1      -0.874  15.510   5.984  1.00  0.00     0.029 A 
ATOM     47  N   UNL     1      -0.036  15.796   3.930  1.00  0.00    -0.354 N 
ATOM     48  C   UNL     1       0.924  12.356   1.448  1.00  0.00     0.074 A 
ATOM     49  C   UNL     1       0.487  11.134   2.091  1.00  0.00     0.031 C 
ATOM     50  C   UNL     1      -0.767  16.832   5.771  1.00  0.00     0.029 A 
ATOM     51  C   UNL     1      -0.139  17.056   4.473  1.00  0.00     0.049 A 
ATOM     52  H   UNL     1       0.258  15.627   3.005  1.00  0.00     0.167 HD
ATOM     53  C   UNL     1       1.462  12.426   0.206  1.00  0.00     0.034 A 
ATOM     54  C   UNL     1       0.284  18.247   4.001  1.00  0.00     0.034 A 
ATOM     55  C   UNL     1       1.902  13.658  -0.404  1.00  0.00     0.049 A 
ATOM     56  C   UNL     1       0.973  18.292   2.658  1.00  0.00     0.074 A 
ATOM     57  C   UNL     1       2.502  13.848  -1.636  1.00  0.00     0.029 A 
ATOM     58  N   UNL     1       1.787  14.914   0.179  1.00  0.00    -0.354 N 
ATOM     59  N   UNL     1       1.253  17.301   1.842  1.00  0.00    -0.248 NA
ATOM     60  C   UNL     1       1.407  19.609   2.173  1.00  0.00     0.031 C 
ATOM     61  C   UNL     1       2.794  15.209  -1.777  1.00  0.00     0.029 A 
ATOM     62  C   UNL     1       2.314  15.879  -0.663  1.00  0.00     0.049 A 
ATOM     63  H   UNL     1       1.389  15.092   1.062  1.00  0.00     0.167 HD
ATOM     64  C   UNL     1       1.860  17.884   0.732  1.00  0.00     0.074 A 
ATOM     65  C   UNL     1       1.906  19.309   0.983  1.00  0.00     0.031 C 
ATOM     66  C   UNL     1       2.332  17.296  -0.396  1.00  0.00     0.034 A 
BRANCH  53  67
ATOM     67  C   UNL     1       1.653  11.131  -0.541  1.00  0.00     0.023 A 
ATOM     68  C   UNL     1       0.561  10.357  -0.971  1.00  0.00     0.031 A 
ATOM     69  C   UNL     1       2.948  10.652  -0.810  1.00  0.00     0.131 A 
ATOM     70  C   UNL     1       0.784   9.119  -1.594  1.00  0.00     0.055 A 
ATOM     71  C   UNL     1       3.163   9.454  -1.494  1.00  0.00     0.041 A 
ATOM     72  F   UNL     1       4.028  11.338  -0.403  1.00  0.00    -0.206 F 
ATOM     73  C   UNL     1       2.077   8.674  -1.880  1.00  0.00     0.022 A 
BRANCH  70  74
ATOM     74  S   UNL     1      -0.638   8.043  -1.923  1.00  0.00     0.124 S 
ATOM     75  O   UNL     1      -1.150   7.810  -0.575  1.00  0.00    -0.237 OA
ATOM     76  O   UNL     1      -1.469   8.871  -2.789  1.00  0.00    -0.237 OA
ATOM     77  O   UNL     1      -0.041   6.873  -2.566  1.00  0.00    -0.744 OA
ENDBRANCH  70  74
ENDBRANCH  53  67
BRANCH  54  78
ATOM     78  C   UNL     1       0.145  19.482   4.826  1.00  0.00     0.023 A 
ATOM     79  C   UNL     1      -0.628  20.567   4.386  1.00  0.00     0.031 A 
ATOM     80  C   UNL     1       0.838  19.619   6.043  1.00  0.00     0.131 A 
ATOM     81  C   UNL     1      -0.648  21.759   5.128  1.00  0.00     0.055 A 
ATOM     82  C   UNL     1       0.767  20.784   6.808  1.00  0.00     0.041 A 
ATOM     83  F   UNL     1       1.597  18.614   6.511  1.00  0.00    -0.206 F 
ATOM     84  C   UNL     1       0.033  21.870   6.343  1.00  0.00     0.022 A 
BRANCH  81  85
ATOM     85  S   UNL     1      -1.487  23.205   4.424  1.00  0.00     0.124 S 
ATOM     86  O   UNL     1      -0.831  23.327   3.127  1.00  0.00    -0.237 OA
ATOM     87  O   UNL     1      -2.878  22.765   4.402  1.00  0.00    -0.237 OA
ATOM     88  O   UNL     1      -1.186  24.270   5.378  1.00  0.00    -0.744 OA
ENDBRANCH  81  85
ENDBRANCH  54  78
BRANCH  66  89
ATOM     89  C   UNL     1       2.860  18.205  -1.475  1.00  0.00     0.023 A 
ATOM     90  C   UNL     1       4.083  18.884  -1.344  1.00  0.00     0.031 A 
ATOM     91  C   UNL     1       2.127  18.372  -2.663  1.00  0.00     0.131 A 
ATOM     92  C   UNL     1       4.522  19.728  -2.376  1.00  0.00     0.055 A 
ATOM     93  C   UNL     1       2.590  19.177  -3.703  1.00  0.00     0.041 A 
ATOM     94  F   UNL     1       0.954  17.742  -2.835  1.00  0.00    -0.206 F 
ATOM     95  C   UNL     1       3.791  19.867  -3.560  1.00  0.00     0.022 A 
BRANCH  92  96
ATOM     96  S   UNL     1       6.047  20.681  -2.137  1.00  0.00     0.124 S 
ATOM     97  O   UNL     1       5.696  21.539  -1.010  1.00  0.00    -0.237 OA
ATOM     98  O   UNL     1       7.030  19.638  -1.863  1.00  0.00    -0.237 OA
ATOM     99  O   UNL     1       6.222  21.373  -3.413  1.00  0.00    -0.744 OA
ENDBRANCH  92  96
ENDBRANCH  66  89
ENDBRANCH  40  41
ENDBRANCH  33  35
ENDBRANCH  32  33
ENDBRANCH  31  32
ENDBRANCH  30  31
ENDBRANCH  29  30
ENDBRANCH  27  29
ENDBRANCH   1  27
TORSDOF 23
