REMARK SMILES Cc1noc(C)c1[C@H](C)NC(=O)NC[C@@](C)(O)C(=O)OCCOC(=O)c1ccc(-c2c3nc(c(-c4cc(S(=O)(=O)[O-])ccc4F)c4ccc([nH]4)c(-c4cc(S(=O)(=O)[O-])ccc4F)c4nc(c(-c5cc(S(=O)(=O)[O-])ccc5F)c5ccc2[nH]5)C=C4)C=C3)cc1
REMARK SMILES IDX 21 1 20 2 18 3 19 4 15 5 16 6 14 7 13 8 10 9 11 10 12 12
REMARK SMILES IDX 8 14 9 15 7 16 1 17 2 18 3 19 4 20 5 21 6 22 17 23 22 25
REMARK SMILES IDX 23 26 24 27 25 28 26 29 27 30 88 31 28 32 87 33 29 34 30 35
REMARK SMILES IDX 31 36 81 37 32 38 86 39 80 40 82 41 33 42 85 43 79 44 78 45
REMARK SMILES IDX 34 47 66 48 46 49 65 50 47 51 50 52 64 53 83 54 48 55 49 56
REMARK SMILES IDX 63 58 84 59 51 60 35 61 36 62 44 63 37 64 43 65 45 66 42 67
REMARK SMILES IDX 38 68 39 69 40 70 41 71 67 72 68 73 76 74 69 75 75 76 77 77
REMARK SMILES IDX 74 78 70 79 71 80 72 81 73 82 52 83 53 84 61 85 54 86 60 87
REMARK SMILES IDX 62 88 59 89 55 90 56 91 57 92 58 93
REMARK H PARENT 10 11 13 13 17 24 82 46 50 57
REMARK Flexibility Score: inf
ROOT
ATOM      1  C   UNL     1       1.401   8.104  -1.414  1.00  0.00     0.274 C 
ENDROOT
BRANCH   1   2
ATOM      2  O   UNL     1       2.454   7.314  -0.814  1.00  0.00    -0.460 OA
BRANCH   2   3
ATOM      3  C   UNL     1       2.218   6.792   0.434  1.00  0.00     0.339 C 
ATOM      4  O   UNL     1       1.300   7.148   1.159  1.00  0.00    -0.249 OA
BRANCH   3   5
ATOM      5  C   UNL     1       3.290   5.717   0.779  1.00  0.00     0.176 C 
ATOM      6  C   UNL     1       4.419   6.511   1.445  1.00  0.00     0.057 C 
BRANCH   5   7
ATOM      7  C   UNL     1       2.816   4.562   1.721  1.00  0.00     0.164 C 
BRANCH   7   8
ATOM      8  N   UNL     1       1.416   4.530   2.155  1.00  0.00    -0.335 N 
ATOM      9  N   UNL     1      -0.239   3.017   1.058  1.00  0.00    -0.331 N 
ATOM     10  C   UNL     1       0.307   3.809   2.059  1.00  0.00     0.315 C 
ATOM     11  H   UNL     1      -0.888   2.483   1.570  1.00  0.00     0.165 HD
ATOM     12  O   UNL     1      -0.441   3.953   3.043  1.00  0.00    -0.249 OA
ATOM     13  H   UNL     1       1.236   5.321   2.714  1.00  0.00     0.165 HD
BRANCH   9  14
ATOM     14  C   UNL     1      -0.529   2.263  -0.875  1.00  0.00     0.116 C 
ATOM     15  C   UNL     1       0.212   0.826  -1.520  1.00  0.00     0.036 C 
BRANCH  14  16
ATOM     16  C   UNL     1      -1.802   2.719  -2.151  1.00  0.00     0.040 A 
ATOM     17  C   UNL     1      -2.810   5.394  -2.096  1.00  0.00     0.071 C 
ATOM     18  C   UNL     1      -2.484   4.014  -2.594  1.00  0.00     0.086 A 
ATOM     19  N   UNL     1      -3.044   3.874  -3.798  1.00  0.00    -0.085 NA
ATOM     20  O   UNL     1      -2.881   2.603  -4.165  1.00  0.00    -0.361 OA
ATOM     21  C   UNL     1      -2.214   1.891  -3.232  1.00  0.00     0.139 A 
ATOM     22  C   UNL     1      -2.142   0.492  -3.720  1.00  0.00     0.091 C 
ENDBRANCH  14  16
ENDBRANCH   9  14
ENDBRANCH   7   8
ENDBRANCH   5   7
BRANCH   5  23
ATOM     23  O   UNL     1       3.912   5.119  -0.370  1.00  0.00    -0.377 OA
ATOM     24  H   UNL     1       4.565   4.463  -0.080  1.00  0.00     0.212 HD
ENDBRANCH   5  23
ENDBRANCH   3   5
ENDBRANCH   2   3
ENDBRANCH   1   2
BRANCH   1  25
ATOM     25  C   UNL     1       0.616   7.250  -2.409  1.00  0.00     0.275 C 
BRANCH  25  26
ATOM     26  O   UNL     1      -0.032   6.212  -1.663  1.00  0.00    -0.458 OA
BRANCH  26  27
ATOM     27  C   UNL     1       0.736   5.133  -1.472  1.00  0.00     0.338 C 
ATOM     28  O   UNL     1       1.814   4.902  -2.003  1.00  0.00    -0.246 OA
BRANCH  27  29
ATOM     29  C   UNL     1       0.220   4.220  -0.451  1.00  0.00     0.060 A 
ATOM     30  C   UNL     1       1.384   2.846  -0.097  1.00  0.00     0.016 A 
ATOM     31  C   UNL     1      -1.542   3.987  -0.032  1.00  0.00     0.016 A 
ATOM     32  C   UNL     1       0.787   1.335   0.697  1.00  0.00     0.010 A 
ATOM     33  C   UNL     1      -2.149   2.380   0.558  1.00  0.00     0.010 A 
ATOM     34  C   UNL     1      -0.977   1.072   0.949  1.00  0.00    -0.014 A 
BRANCH  34  35
ATOM     35  C   UNL     1      -1.422  -0.174   1.649  1.00  0.00     0.031 A 
ATOM     36  C   UNL     1      -1.710  -1.417   0.862  1.00  0.00     0.074 A 
ATOM     37  C   UNL     1      -1.549  -0.231   2.986  1.00  0.00     0.049 A 
ATOM     38  N   UNL     1      -1.661  -2.674   1.208  1.00  0.00    -0.248 NA
ATOM     39  C   UNL     1      -2.066  -1.204  -0.537  1.00  0.00     0.031 C 
ATOM     40  C   UNL     1      -1.381   0.881   3.910  1.00  0.00     0.029 A 
ATOM     41  N   UNL     1      -1.874  -1.287   3.802  1.00  0.00    -0.354 N 
ATOM     42  C   UNL     1      -1.818  -3.393   0.025  1.00  0.00     0.074 A 
ATOM     43  C   UNL     1      -1.999  -2.430  -1.037  1.00  0.00     0.031 C 
ATOM     44  C   UNL     1      -1.633   0.468   5.161  1.00  0.00     0.029 A 
ATOM     45  C   UNL     1      -1.964  -0.950   5.132  1.00  0.00     0.049 A 
ATOM     46  H   UNL     1      -2.028  -2.199   3.466  1.00  0.00     0.167 HD
ATOM     47  C   UNL     1      -1.846  -4.735  -0.153  1.00  0.00     0.034 A 
ATOM     48  C   UNL     1      -2.271  -1.702   6.206  1.00  0.00     0.034 A 
ATOM     49  C   UNL     1      -1.992  -5.655   0.947  1.00  0.00     0.049 A 
ATOM     50  C   UNL     1      -2.454  -3.183   6.005  1.00  0.00     0.074 A 
ATOM     51  C   UNL     1      -2.129  -7.031   0.920  1.00  0.00     0.029 A 
ATOM     52  N   UNL     1      -2.130  -5.268   2.275  1.00  0.00    -0.354 N 
ATOM     53  N   UNL     1      -2.388  -3.882   4.893  1.00  0.00    -0.248 NA
ATOM     54  C   UNL     1      -2.704  -3.983   7.208  1.00  0.00     0.031 C 
ATOM     55  C   UNL     1      -2.456  -7.459   2.213  1.00  0.00     0.029 A 
ATOM     56  C   UNL     1      -2.413  -6.367   3.067  1.00  0.00     0.049 A 
ATOM     57  H   UNL     1      -2.040  -4.344   2.604  1.00  0.00     0.167 HD
ATOM     58  C   UNL     1      -2.560  -5.211   5.269  1.00  0.00     0.074 A 
ATOM     59  C   UNL     1      -2.701  -5.211   6.713  1.00  0.00     0.031 C 
ATOM     60  C   UNL     1      -2.594  -6.332   4.499  1.00  0.00     0.034 A 
BRANCH  47  61
ATOM     61  C   UNL     1      -1.819  -5.254  -1.571  1.00  0.00     0.023 A 
ATOM     62  C   UNL     1      -0.689  -5.059  -2.390  1.00  0.00     0.031 A 
ATOM     63  C   UNL     1      -2.911  -5.947  -2.118  1.00  0.00     0.131 A 
ATOM     64  C   UNL     1      -0.690  -5.524  -3.715  1.00  0.00     0.055 A 
ATOM     65  C   UNL     1      -2.884  -6.458  -3.419  1.00  0.00     0.041 A 
ATOM     66  F   UNL     1      -4.031  -6.131  -1.401  1.00  0.00    -0.206 F 
ATOM     67  C   UNL     1      -1.772  -6.243  -4.228  1.00  0.00     0.022 A 
BRANCH  64  68
ATOM     68  S   UNL     1       0.699  -5.084  -4.798  1.00  0.00     0.124 S 
ATOM     69  O   UNL     1       0.656  -3.624  -4.754  1.00  0.00    -0.237 OA
ATOM     70  O   UNL     1       1.833  -5.710  -4.128  1.00  0.00    -0.237 OA
ATOM     71  O   UNL     1       0.332  -5.672  -6.084  1.00  0.00    -0.744 OA
ENDBRANCH  64  68
ENDBRANCH  47  61
BRANCH  48  72
ATOM     72  C   UNL     1      -2.407  -1.066   7.549  1.00  0.00     0.023 A 
ATOM     73  C   UNL     1      -1.548  -1.391   8.610  1.00  0.00     0.031 A 
ATOM     74  C   UNL     1      -3.420  -0.119   7.792  1.00  0.00     0.131 A 
ATOM     75  C   UNL     1      -1.739  -0.805   9.872  1.00  0.00     0.055 A 
ATOM     76  C   UNL     1      -3.571   0.504   9.032  1.00  0.00     0.041 A 
ATOM     77  F   UNL     1      -4.272   0.230   6.814  1.00  0.00    -0.206 F 
ATOM     78  C   UNL     1      -2.734   0.153  10.086  1.00  0.00     0.022 A 
BRANCH  75  79
ATOM     79  S   UNL     1      -0.722  -1.378  11.261  1.00  0.00     0.124 S 
ATOM     80  O   UNL     1      -0.969  -2.816  11.238  1.00  0.00    -0.237 OA
ATOM     81  O   UNL     1       0.612  -0.950  10.855  1.00  0.00    -0.237 OA
ATOM     82  O   UNL     1      -1.282  -0.667  12.409  1.00  0.00    -0.744 OA
ENDBRANCH  75  79
ENDBRANCH  48  72
BRANCH  60  83
ATOM     83  C   UNL     1      -2.782  -7.641   5.223  1.00  0.00     0.023 A 
ATOM     84  C   UNL     1      -3.944  -7.909   5.965  1.00  0.00     0.031 A 
ATOM     85  C   UNL     1      -1.765  -8.612   5.212  1.00  0.00     0.131 A 
ATOM     86  C   UNL     1      -4.019  -9.069   6.748  1.00  0.00     0.055 A 
ATOM     87  C   UNL     1      -1.884  -9.807   5.921  1.00  0.00     0.041 A 
ATOM     88  F   UNL     1      -0.632  -8.410   4.520  1.00  0.00    -0.206 F 
ATOM     89  C   UNL     1      -3.006 -10.030   6.714  1.00  0.00     0.022 A 
BRANCH  86  90
ATOM     90  S   UNL     1      -5.383  -9.222   7.931  1.00  0.00     0.124 S 
ATOM     91  O   UNL     1      -5.234  -8.003   8.720  1.00  0.00    -0.237 OA
ATOM     92  O   UNL     1      -6.550  -9.276   7.057  1.00  0.00    -0.237 OA
ATOM     93  O   UNL     1      -5.081 -10.463   8.643  1.00  0.00    -0.744 OA
ENDBRANCH  86  90
ENDBRANCH  60  83
ENDBRANCH  34  35
ENDBRANCH  27  29
ENDBRANCH  26  27
ENDBRANCH  25  26
ENDBRANCH   1  25
TORSDOF 19
