REMARK SMILES CCN(CC)c1ccc(NS(=O)(=O)c2ccc(Cl)s2)cc1C(=O)OCCOC(=O)c1ccc(-c2c3nc(c(-c4cc(S(=O)(=O)[O-])ccc4F)c4ccc([nH]4)c(-c4cc(S(=O)(=O)[O-])ccc4F)c4nc(c(-c5cc(S(=O)(=O)[O-])ccc5F)c5ccc2[nH]5)C=C4)C=C3)cc1
REMARK SMILES IDX 25 1 24 2 22 3 23 4 21 5 6 6 7 7 8 8 20 9 9 10 3 11 2 12
REMARK SMILES IDX 1 13 4 14 5 15 10 16 11 18 12 19 13 20 14 21 15 22 19 23
REMARK SMILES IDX 16 24 17 25 18 26 26 27 27 28 28 29 29 30 30 31 31 32 92 33
REMARK SMILES IDX 32 34 91 35 33 36 34 37 35 38 85 39 36 40 90 41 84 42 86 43
REMARK SMILES IDX 37 44 89 45 83 46 82 47 38 49 70 50 50 51 69 52 51 53 54 54
REMARK SMILES IDX 68 55 87 56 52 57 53 58 67 60 88 61 55 62 39 63 40 64 48 65
REMARK SMILES IDX 41 66 47 67 49 68 46 69 42 70 43 71 44 72 45 73 71 74 72 75
REMARK SMILES IDX 80 76 73 77 79 78 81 79 78 80 74 81 75 82 76 83 77 84 56 85
REMARK SMILES IDX 57 86 65 87 58 88 64 89 66 90 63 91 59 92 60 93 61 94 62 95
REMARK H PARENT 10 17 86 48 54 59
REMARK Flexibility Score: inf
ROOT
ATOM      1  C   UNL     1       1.088  -1.546  -0.642  1.00  0.00     0.275 C 
ENDROOT
BRANCH   1   2
ATOM      2  O   UNL     1       1.526  -0.221  -1.022  1.00  0.00    -0.458 OA
BRANCH   2   3
ATOM      3  C   UNL     1       2.597   0.251  -0.339  1.00  0.00     0.340 C 
ATOM      4  O   UNL     1       3.287  -0.389   0.445  1.00  0.00    -0.246 OA
BRANCH   3   5
ATOM      5  C   UNL     1       2.919   1.667  -0.614  1.00  0.00     0.085 A 
ATOM      6  C   UNL     1       2.057   2.698  -0.220  1.00  0.00     0.051 A 
ATOM      7  C   UNL     1       2.620   3.970  -0.060  1.00  0.00     0.029 A 
ATOM      8  C   UNL     1       3.936   4.245  -0.442  1.00  0.00     0.029 A 
ATOM      9  C   UNL     1       4.223   1.964  -1.056  1.00  0.00     0.044 A 
ATOM     10  C   UNL     1       4.723   3.263  -1.030  1.00  0.00     0.050 A 
BRANCH   6  11
ATOM     11  N   UNL     1       0.687   2.543  -0.091  1.00  0.00    -0.371 N 
BRANCH  11  12
ATOM     12  C   UNL     1       0.080   2.423   1.225  1.00  0.00     0.113 C 
ATOM     13  C   UNL     1      -0.319   0.980   1.488  1.00  0.00     0.027 C 
ENDBRANCH  11  12
BRANCH  11  14
ATOM     14  C   UNL     1      -0.133   2.922  -1.249  1.00  0.00     0.113 C 
ATOM     15  C   UNL     1      -0.334   4.432  -1.349  1.00  0.00     0.027 C 
ENDBRANCH  11  14
ENDBRANCH   6  11
BRANCH  10  16
ATOM     16  N   UNL     1       5.884   3.536  -1.824  1.00  0.00    -0.279 N 
ATOM     17  H   UNL     1       6.144   2.882  -2.513  1.00  0.00     0.180 HD
BRANCH  16  18
ATOM     18  S   UNL     1       6.827   4.918  -1.636  1.00  0.00     0.271 S 
ATOM     19  O   UNL     1       7.177   5.027  -0.238  1.00  0.00    -0.200 OA
ATOM     20  O   UNL     1       7.822   4.893  -2.685  1.00  0.00    -0.200 OA
BRANCH  18  21
ATOM     21  C   UNL     1       5.812   6.334  -2.013  1.00  0.00     0.141 A 
ATOM     22  C   UNL     1       4.673   6.487  -2.789  1.00  0.00     0.036 A 
ATOM     23  S   UNL     1       6.223   7.792  -1.210  1.00  0.00    -0.110 S 
ATOM     24  C   UNL     1       4.057   7.758  -2.587  1.00  0.00     0.034 A 
ATOM     25  C   UNL     1       4.802   8.536  -1.740  1.00  0.00     0.094 A 
ATOM     26  Cl  UNL     1       4.412  10.114  -1.186  1.00  0.00    -0.072 Cl
ENDBRANCH  18  21
ENDBRANCH  16  18
ENDBRANCH  10  16
ENDBRANCH   3   5
ENDBRANCH   2   3
ENDBRANCH   1   2
BRANCH   1  27
ATOM     27  C   UNL     1       1.163  -2.529  -1.807  1.00  0.00     0.275 C 
BRANCH  27  28
ATOM     28  O   UNL     1       2.536  -2.826  -2.097  1.00  0.00    -0.458 OA
BRANCH  28  29
ATOM     29  C   UNL     1       3.052  -2.135  -3.136  1.00  0.00     0.338 C 
ATOM     30  O   UNL     1       2.463  -1.409  -3.918  1.00  0.00    -0.246 OA
BRANCH  29  31
ATOM     31  C   UNL     1       4.511  -2.263  -3.108  1.00  0.00     0.060 A 
ATOM     32  C   UNL     1       5.208  -1.425  -2.245  1.00  0.00     0.016 A 
ATOM     33  C   UNL     1       5.190  -3.059  -4.022  1.00  0.00     0.016 A 
ATOM     34  C   UNL     1       6.578  -1.260  -2.380  1.00  0.00     0.010 A 
ATOM     35  C   UNL     1       6.585  -2.982  -4.075  1.00  0.00     0.010 A 
ATOM     36  C   UNL     1       7.290  -2.042  -3.294  1.00  0.00    -0.014 A 
BRANCH  36  37
ATOM     37  C   UNL     1       8.749  -1.828  -3.501  1.00  0.00     0.031 A 
ATOM     38  C   UNL     1       9.251  -1.512  -4.886  1.00  0.00     0.074 A 
ATOM     39  C   UNL     1       9.617  -1.897  -2.471  1.00  0.00     0.049 A 
ATOM     40  N   UNL     1      10.462  -1.584  -5.369  1.00  0.00    -0.248 NA
ATOM     41  C   UNL     1       8.238  -1.086  -5.865  1.00  0.00     0.031 C 
ATOM     42  C   UNL     1       9.258  -2.098  -1.065  1.00  0.00     0.029 A 
ATOM     43  N   UNL     1      10.987  -1.809  -2.448  1.00  0.00    -0.354 N 
ATOM     44  C   UNL     1      10.348  -1.290  -6.725  1.00  0.00     0.074 A 
ATOM     45  C   UNL     1       8.946  -1.040  -6.984  1.00  0.00     0.031 C 
ATOM     46  C   UNL     1      10.371  -2.088  -0.318  1.00  0.00     0.029 A 
ATOM     47  C   UNL     1      11.529  -2.007  -1.198  1.00  0.00     0.049 A 
ATOM     48  H   UNL     1      11.530  -1.621  -3.248  1.00  0.00     0.167 HD
ATOM     49  C   UNL     1      11.329  -1.247  -7.661  1.00  0.00     0.034 A 
ATOM     50  C   UNL     1      12.809  -2.180  -0.813  1.00  0.00     0.034 A 
ATOM     51  C   UNL     1      12.725  -1.447  -7.351  1.00  0.00     0.049 A 
ATOM     52  C   UNL     1      13.879  -2.179  -1.873  1.00  0.00     0.074 A 
ATOM     53  C   UNL     1      13.812  -1.439  -8.206  1.00  0.00     0.029 A 
ATOM     54  N   UNL     1      13.228  -1.672  -6.074  1.00  0.00    -0.354 N 
ATOM     55  N   UNL     1      13.754  -2.020  -3.172  1.00  0.00    -0.248 NA
ATOM     56  C   UNL     1      15.257  -2.401  -1.421  1.00  0.00     0.031 C 
ATOM     57  C   UNL     1      14.963  -1.713  -7.457  1.00  0.00     0.029 A 
ATOM     58  C   UNL     1      14.605  -1.820  -6.122  1.00  0.00     0.049 A 
ATOM     59  H   UNL     1      12.684  -1.720  -5.254  1.00  0.00     0.167 HD
ATOM     60  C   UNL     1      15.043  -2.105  -3.689  1.00  0.00     0.074 A 
ATOM     61  C   UNL     1      15.928  -2.308  -2.559  1.00  0.00     0.031 C 
ATOM     62  C   UNL     1      15.461  -2.029  -4.978  1.00  0.00     0.034 A 
BRANCH  49  63
ATOM     63  C   UNL     1      10.915  -1.056  -9.102  1.00  0.00     0.023 A 
ATOM     64  C   UNL     1      10.292   0.118  -9.560  1.00  0.00     0.031 A 
ATOM     65  C   UNL     1      11.115  -2.096 -10.030  1.00  0.00     0.131 A 
ATOM     66  C   UNL     1       9.829   0.195 -10.884  1.00  0.00     0.055 A 
ATOM     67  C   UNL     1      10.726  -1.981 -11.366  1.00  0.00     0.041 A 
ATOM     68  F   UNL     1      11.680  -3.252  -9.649  1.00  0.00    -0.206 F 
ATOM     69  C   UNL     1      10.066  -0.836 -11.797  1.00  0.00     0.022 A 
BRANCH  66  70
ATOM     70  S   UNL     1       8.787   1.602 -11.362  1.00  0.00     0.124 S 
ATOM     71  O   UNL     1       7.660   1.459 -10.442  1.00  0.00    -0.237 OA
ATOM     72  O   UNL     1       9.665   2.741 -11.126  1.00  0.00    -0.237 OA
ATOM     73  O   UNL     1       8.473   1.336 -12.764  1.00  0.00    -0.744 OA
ENDBRANCH  66  70
ENDBRANCH  49  63
BRANCH  50  74
ATOM     74  C   UNL     1      13.140  -2.464   0.616  1.00  0.00     0.023 A 
ATOM     75  C   UNL     1      13.958  -1.599   1.359  1.00  0.00     0.031 A 
ATOM     76  C   UNL     1      12.670  -3.630   1.251  1.00  0.00     0.131 A 
ATOM     77  C   UNL     1      14.311  -1.930   2.677  1.00  0.00     0.055 A 
ATOM     78  C   UNL     1      12.971  -3.922   2.582  1.00  0.00     0.041 A 
ATOM     79  F   UNL     1      11.890  -4.499   0.588  1.00  0.00    -0.206 F 
ATOM     80  C   UNL     1      13.808  -3.075   3.299  1.00  0.00     0.022 A 
BRANCH  77  81
ATOM     81  S   UNL     1      15.517  -0.887   3.542  1.00  0.00     0.124 S 
ATOM     82  O   UNL     1      16.657  -0.935   2.634  1.00  0.00    -0.237 OA
ATOM     83  O   UNL     1      14.813   0.388   3.623  1.00  0.00    -0.237 OA
ATOM     84  O   UNL     1      15.707  -1.574   4.818  1.00  0.00    -0.744 OA
ENDBRANCH  77  81
ENDBRANCH  50  74
BRANCH  62  85
ATOM     85  C   UNL     1      16.947  -2.114  -5.210  1.00  0.00     0.023 A 
ATOM     86  C   UNL     1      17.662  -3.304  -4.988  1.00  0.00     0.031 A 
ATOM     87  C   UNL     1      17.659  -0.980  -5.637  1.00  0.00     0.131 A 
ATOM     88  C   UNL     1      19.056  -3.316  -5.135  1.00  0.00     0.055 A 
ATOM     89  C   UNL     1      19.039  -1.014  -5.840  1.00  0.00     0.041 A 
ATOM     90  F   UNL     1      17.023   0.181  -5.863  1.00  0.00    -0.206 F 
ATOM     91  C   UNL     1      19.747  -2.183  -5.574  1.00  0.00     0.022 A 
BRANCH  88  92
ATOM     92  S   UNL     1      19.969  -4.807  -4.653  1.00  0.00     0.124 S 
ATOM     93  O   UNL     1      19.604  -4.944  -3.247  1.00  0.00    -0.237 OA
ATOM     94  O   UNL     1      19.421  -5.814  -5.555  1.00  0.00    -0.237 OA
ATOM     95  O   UNL     1      21.365  -4.449  -4.900  1.00  0.00    -0.744 OA
ENDBRANCH  88  92
ENDBRANCH  62  85
ENDBRANCH  36  37
ENDBRANCH  29  31
ENDBRANCH  28  29
ENDBRANCH  27  28
ENDBRANCH   1  27
TORSDOF 20
