REMARK SMILES O=C(OCCOC(=O)[C@H]1Cc2c([nH]c3ccccc23)[C@H](c2c[nH]c3ccccc23)[NH2+]1)c1ccc(-c2c3nc(c(-c4cc(S(=O)(=O)[O-])ccc4F)c4ccc([nH]4)c(-c4cc(S(=O)(=O)[O-])ccc4F)c4nc(c(-c5cc(S(=O)(=O)[O-])ccc5F)c5ccc2[nH]5)C=C4)C=C3)cc1
REMARK SMILES IDX 4 1 3 2 2 3 1 4 31 5 32 6 93 7 33 8 92 9 34 10 35 11 36 12
REMARK SMILES IDX 86 13 37 14 91 15 85 16 87 17 38 18 90 19 84 20 83 21 39 23
REMARK SMILES IDX 71 24 51 25 70 26 52 27 55 28 69 29 88 30 53 31 54 32 68 34
REMARK SMILES IDX 89 35 56 36 40 37 41 38 49 39 42 40 48 41 50 42 47 43 43 44
REMARK SMILES IDX 44 45 45 46 46 47 72 48 73 49 81 50 74 51 80 52 82 53 79 54
REMARK SMILES IDX 75 55 76 56 77 57 78 58 57 59 58 60 66 61 59 62 65 63 67 64
REMARK SMILES IDX 64 65 60 66 61 67 62 68 63 69 5 70 6 71 7 72 8 73 9 74 10 75
REMARK SMILES IDX 30 76 11 77 20 78 12 81 19 82 13 83 14 84 18 85 15 87 17 88
REMARK SMILES IDX 16 89 21 90 22 91 29 92 23 93 24 94 28 95 25 97 27 98 26 99
REMARK H PARENT 87 22 55 33 30 79 30 80 13 86 23 96
REMARK Flexibility Score: inf
ROOT
ATOM      1  C   UNL     1       4.476  -0.529  -1.882  1.00  0.00     0.275 C 
ENDROOT
BRANCH   1   2
ATOM      2  O   UNL     1       3.587  -1.203  -0.986  1.00  0.00    -0.458 OA
BRANCH   2   3
ATOM      3  C   UNL     1       3.308  -0.920   0.304  1.00  0.00     0.338 C 
ATOM      4  O   UNL     1       2.310  -1.451   0.795  1.00  0.00    -0.246 OA
BRANCH   3   5
ATOM      5  C   UNL     1       4.080   0.056   1.155  1.00  0.00     0.060 A 
ATOM      6  C   UNL     1       5.272   0.726   0.873  1.00  0.00     0.016 A 
ATOM      7  C   UNL     1       3.459   0.378   2.366  1.00  0.00     0.016 A 
ATOM      8  C   UNL     1       5.780   1.704   1.742  1.00  0.00     0.010 A 
ATOM      9  C   UNL     1       3.897   1.411   3.192  1.00  0.00     0.010 A 
ATOM     10  C   UNL     1       5.097   2.053   2.910  1.00  0.00    -0.014 A 
BRANCH  10  11
ATOM     11  C   UNL     1       5.741   2.918   3.924  1.00  0.00     0.031 A 
ATOM     12  C   UNL     1       6.170   2.285   5.222  1.00  0.00     0.074 A 
ATOM     13  C   UNL     1       5.991   4.216   3.664  1.00  0.00     0.049 A 
ATOM     14  N   UNL     1       6.861   2.796   6.207  1.00  0.00    -0.248 NA
ATOM     15  C   UNL     1       5.752   0.891   5.452  1.00  0.00     0.031 C 
ATOM     16  C   UNL     1       5.580   4.934   2.456  1.00  0.00     0.029 A 
ATOM     17  N   UNL     1       6.672   5.159   4.390  1.00  0.00    -0.354 N 
ATOM     18  C   UNL     1       6.967   1.783   7.153  1.00  0.00     0.074 A 
ATOM     19  C   UNL     1       6.178   0.672   6.682  1.00  0.00     0.031 C 
ATOM     20  C   UNL     1       6.053   6.192   2.507  1.00  0.00     0.029 A 
ATOM     21  C   UNL     1       6.782   6.375   3.755  1.00  0.00     0.049 A 
ATOM     22  H   UNL     1       7.047   4.982   5.283  1.00  0.00     0.167 HD
ATOM     23  C   UNL     1       7.701   1.758   8.290  1.00  0.00     0.034 A 
ATOM     24  C   UNL     1       7.416   7.500   4.140  1.00  0.00     0.034 A 
ATOM     25  C   UNL     1       8.468   2.885   8.745  1.00  0.00     0.049 A 
ATOM     26  C   UNL     1       8.173   7.475   5.442  1.00  0.00     0.074 A 
ATOM     27  C   UNL     1       9.261   2.997   9.870  1.00  0.00     0.029 A 
ATOM     28  N   UNL     1       8.522   4.112   8.091  1.00  0.00    -0.354 N 
ATOM     29  N   UNL     1       8.312   6.489   6.300  1.00  0.00    -0.248 NA
ATOM     30  C   UNL     1       8.879   8.706   5.812  1.00  0.00     0.031 C 
ATOM     31  C   UNL     1       9.734   4.312   9.937  1.00  0.00     0.029 A 
ATOM     32  C   UNL     1       9.310   4.995   8.806  1.00  0.00     0.049 A 
ATOM     33  H   UNL     1       8.066   4.320   7.244  1.00  0.00     0.167 HD
ATOM     34  C   UNL     1       9.159   6.970   7.292  1.00  0.00     0.074 A 
ATOM     35  C   UNL     1       9.501   8.329   6.918  1.00  0.00     0.031 C 
ATOM     36  C   UNL     1       9.622   6.347   8.407  1.00  0.00     0.034 A 
BRANCH  23  37
ATOM     37  C   UNL     1       7.653   0.487   9.105  1.00  0.00     0.023 A 
ATOM     38  C   UNL     1       8.083  -0.746   8.573  1.00  0.00     0.031 A 
ATOM     39  C   UNL     1       7.078   0.483  10.386  1.00  0.00     0.131 A 
ATOM     40  C   UNL     1       7.834  -1.936   9.273  1.00  0.00     0.055 A 
ATOM     41  C   UNL     1       6.920  -0.696  11.117  1.00  0.00     0.041 A 
ATOM     42  F   UNL     1       6.621   1.621  10.933  1.00  0.00    -0.206 F 
ATOM     43  C   UNL     1       7.279  -1.917  10.553  1.00  0.00     0.022 A 
BRANCH  40  44
ATOM     44  S   UNL     1       8.071  -3.515   8.409  1.00  0.00     0.124 S 
ATOM     45  O   UNL     1       7.136  -3.384   7.294  1.00  0.00    -0.237 OA
ATOM     46  O   UNL     1       9.487  -3.478   8.063  1.00  0.00    -0.237 OA
ATOM     47  O   UNL     1       7.699  -4.513   9.411  1.00  0.00    -0.744 OA
ENDBRANCH  40  44
ENDBRANCH  23  37
BRANCH  24  48
ATOM     48  C   UNL     1       7.373   8.741   3.314  1.00  0.00     0.023 A 
ATOM     49  C   UNL     1       8.525   9.260   2.698  1.00  0.00     0.031 A 
ATOM     50  C   UNL     1       6.184   9.481   3.213  1.00  0.00     0.131 A 
ATOM     51  C   UNL     1       8.469  10.502   2.042  1.00  0.00     0.055 A 
ATOM     52  C   UNL     1       6.122  10.689   2.514  1.00  0.00     0.041 A 
ATOM     53  F   UNL     1       5.066   9.048   3.817  1.00  0.00    -0.206 F 
ATOM     54  C   UNL     1       7.270  11.210   1.929  1.00  0.00     0.022 A 
BRANCH  51  55
ATOM     55  S   UNL     1      10.009  11.240   1.426  1.00  0.00     0.124 S 
ATOM     56  O   UNL     1      10.780  11.386   2.655  1.00  0.00    -0.237 OA
ATOM     57  O   UNL     1      10.480  10.225   0.489  1.00  0.00    -0.237 OA
ATOM     58  O   UNL     1       9.566  12.491   0.813  1.00  0.00    -0.744 OA
ENDBRANCH  51  55
ENDBRANCH  24  48
BRANCH  36  59
ATOM     59  C   UNL     1      10.596   7.122   9.255  1.00  0.00     0.023 A 
ATOM     60  C   UNL     1      10.217   8.292   9.932  1.00  0.00     0.031 A 
ATOM     61  C   UNL     1      11.930   6.693   9.359  1.00  0.00     0.131 A 
ATOM     62  C   UNL     1      11.183   9.037  10.621  1.00  0.00     0.055 A 
ATOM     63  C   UNL     1      12.868   7.396  10.113  1.00  0.00     0.041 A 
ATOM     64  F   UNL     1      12.344   5.582   8.726  1.00  0.00    -0.206 F 
ATOM     65  C   UNL     1      12.501   8.585  10.734  1.00  0.00     0.022 A 
BRANCH  62  66
ATOM     66  S   UNL     1      10.721  10.671  11.255  1.00  0.00     0.124 S 
ATOM     67  O   UNL     1      10.269  11.348  10.043  1.00  0.00    -0.237 OA
ATOM     68  O   UNL     1       9.683  10.346  12.228  1.00  0.00    -0.237 OA
ATOM     69  O   UNL     1      11.967  11.182  11.824  1.00  0.00    -0.744 OA
ENDBRANCH  62  66
ENDBRANCH  36  59
ENDBRANCH  10  11
ENDBRANCH   3   5
ENDBRANCH   2   3
ENDBRANCH   1   2
BRANCH   1  70
ATOM     70  C   UNL     1       3.971   0.842  -2.347  1.00  0.00     0.274 C 
BRANCH  70  71
ATOM     71  O   UNL     1       3.590   1.718  -1.267  1.00  0.00    -0.458 OA
BRANCH  71  72
ATOM     72  C   UNL     1       2.248   1.885  -1.026  1.00  0.00     0.365 C 
ATOM     73  O   UNL     1       1.367   1.365  -1.703  1.00  0.00    -0.245 OA
BRANCH  72  74
ATOM     74  C   UNL     1       2.024   2.820   0.187  1.00  0.00     0.298 C 
ATOM     75  C   UNL     1       2.412   4.233  -0.290  1.00  0.00     0.115 C 
ATOM     76  N   UNL     1       0.638   2.661   0.734  1.00  0.00    -0.323 N 
ATOM     77  C   UNL     1       1.932   5.242   0.676  1.00  0.00    -0.006 A 
ATOM     78  C   UNL     1       0.173   3.639   1.737  1.00  0.00     0.264 C 
ATOM     79  H   UNL     1       0.585   1.737   1.163  1.00  0.00     0.347 HD
ATOM     80  H   UNL     1       0.028   2.810  -0.070  1.00  0.00     0.347 HD
ATOM     81  C   UNL     1       0.917   4.949   1.568  1.00  0.00     0.083 A 
ATOM     82  C   UNL     1       2.346   6.587   0.879  1.00  0.00     0.003 A 
ATOM     83  N   UNL     1       0.666   6.106   2.256  1.00  0.00    -0.353 N 
ATOM     84  C   UNL     1       1.542   7.100   1.893  1.00  0.00     0.046 A 
ATOM     85  C   UNL     1       3.324   7.425   0.310  1.00  0.00     0.010 A 
ATOM     86  H   UNL     1      -0.049   6.212   2.925  1.00  0.00     0.166 HD
ATOM     87  C   UNL     1       1.668   8.401   2.386  1.00  0.00     0.026 A 
ATOM     88  C   UNL     1       3.459   8.736   0.784  1.00  0.00     0.001 A 
ATOM     89  C   UNL     1       2.644   9.213   1.808  1.00  0.00     0.002 A 
BRANCH  78  90
ATOM     90  C   UNL     1       0.113   3.155   3.204  1.00  0.00     0.041 A 
ATOM     91  C   UNL     1      -0.285   3.984   4.255  1.00  0.00     0.093 A 
ATOM     92  C   UNL     1       0.271   1.860   3.853  1.00  0.00     0.009 A 
ATOM     93  N   UNL     1      -0.012   3.387   5.447  1.00  0.00    -0.361 N 
ATOM     94  C   UNL     1       0.334   2.085   5.237  1.00  0.00     0.046 A 
ATOM     95  C   UNL     1       0.389   0.512   3.450  1.00  0.00     0.011 A 
ATOM     96  H   UNL     1      -0.057   3.828   6.327  1.00  0.00     0.166 HD
ATOM     97  C   UNL     1       0.673   1.111   6.186  1.00  0.00     0.026 A 
ATOM     98  C   UNL     1       0.702  -0.490   4.394  1.00  0.00     0.001 A 
ATOM     99  C   UNL     1       0.887  -0.184   5.735  1.00  0.00     0.002 A 
ENDBRANCH  78  90
ENDBRANCH  72  74
ENDBRANCH  71  72
ENDBRANCH  70  71
ENDBRANCH   1  70
TORSDOF 15
