REMARK SMILES C#CCN(CC(=O)OCCOC(=O)c1ccc(-c2c3nc(c(-c4cc(S(=O)(=O)[O-])ccc4F)c4ccc([nH]4)c(-c4cc(S(=O)(=O)[O-])ccc4F)c4nc(c(-c5cc(S(=O)(=O)[O-])ccc5F)c5ccc2[nH]5)C=C4)C=C3)cc1)C(=O)[C@@H]1CC(=O)N(C2CC2)C1
REMARK SMILES IDX 9 1 8 2 6 3 7 4 5 5 4 6 3 7 2 8 1 9 77 10 78 11 79 12 80 13
REMARK SMILES IDX 87 14 81 15 83 16 82 17 84 18 85 19 86 20 10 21 11 22 12 23
REMARK SMILES IDX 13 24 14 25 15 26 76 27 16 28 75 29 17 30 18 31 19 32 69 33
REMARK SMILES IDX 20 34 74 35 68 36 70 37 21 38 73 39 67 40 66 41 22 43 54 44
REMARK SMILES IDX 34 45 53 46 35 47 38 48 52 49 71 50 36 51 37 52 51 54 72 55
REMARK SMILES IDX 39 56 23 57 24 58 32 59 25 60 31 61 33 62 30 63 26 64 27 65
REMARK SMILES IDX 28 66 29 67 55 68 56 69 64 70 57 71 63 72 65 73 62 74 58 75
REMARK SMILES IDX 59 76 60 77 61 78 40 79 41 80 49 81 42 82 48 83 50 84 47 85
REMARK SMILES IDX 43 86 44 87 45 88 46 89
REMARK H PARENT 70 42 38 53
REMARK Flexibility Score: inf
ROOT
ATOM      1  C   UNL     1      -6.601   0.224   1.817  1.00  0.00     0.274 C 
ENDROOT
BRANCH   1   2
ATOM      2  O   UNL     1      -5.200   0.023   1.464  1.00  0.00    -0.461 OA
BRANCH   2   3
ATOM      3  C   UNL     1      -4.335   1.012   1.846  1.00  0.00     0.325 C 
ATOM      4  O   UNL     1      -4.709   2.125   2.211  1.00  0.00    -0.250 OA
BRANCH   3   5
ATOM      5  C   UNL     1      -2.861   0.554   2.023  1.00  0.00     0.243 C 
BRANCH   5   6
ATOM      6  N   UNL     1      -2.322  -0.526   1.193  1.00  0.00    -0.320 N 
BRANCH   6   7
ATOM      7  C   UNL     1      -1.794  -0.069  -0.065  1.00  0.00     0.210 C 
BRANCH   7   8
ATOM      8  C   UNL     1      -0.274  -0.069  -0.065  1.00  0.00    -0.085 C 
ATOM      9  C   UNL     1       1.030  -0.069  -0.065  1.00  0.00     0.006 C 
ENDBRANCH   7   8
ENDBRANCH   6   7
BRANCH   6  10
ATOM     10  C   UNL     1      -2.184  -1.886   1.462  1.00  0.00     0.229 C 
ATOM     11  O   UNL     1      -1.838  -2.665   0.566  1.00  0.00    -0.274 OA
BRANCH  10  12
ATOM     12  C   UNL     1      -2.456  -2.446   2.853  1.00  0.00     0.107 C 
ATOM     13  C   UNL     1      -1.663  -3.723   3.159  1.00  0.00     0.115 C 
ATOM     14  C   UNL     1      -3.884  -2.931   2.938  1.00  0.00     0.133 C 
ATOM     15  C   UNL     1      -2.616  -4.864   2.839  1.00  0.00     0.223 C 
ATOM     16  N   UNL     1      -3.885  -4.329   2.672  1.00  0.00    -0.339 N 
ATOM     17  O   UNL     1      -2.306  -6.048   2.824  1.00  0.00    -0.275 OA
BRANCH  16  18
ATOM     18  C   UNL     1      -5.145  -4.974   2.499  1.00  0.00     0.085 C 
ATOM     19  C   UNL     1      -5.379  -6.441   2.359  1.00  0.00     0.027 C 
ATOM     20  C   UNL     1      -5.752  -5.749   3.639  1.00  0.00     0.027 C 
ENDBRANCH  16  18
ENDBRANCH  10  12
ENDBRANCH   6  10
ENDBRANCH   5   6
ENDBRANCH   3   5
ENDBRANCH   2   3
ENDBRANCH   1   2
BRANCH   1  21
ATOM     21  C   UNL     1      -7.077  -0.620   3.037  1.00  0.00     0.275 C 
BRANCH  21  22
ATOM     22  O   UNL     1      -6.680  -0.121   4.348  1.00  0.00    -0.458 OA
BRANCH  22  23
ATOM     23  C   UNL     1      -5.372  -0.307   4.566  1.00  0.00     0.338 C 
ATOM     24  O   UNL     1      -4.601  -0.736   3.728  1.00  0.00    -0.246 OA
BRANCH  23  25
ATOM     25  C   UNL     1      -4.701   0.019   5.807  1.00  0.00     0.060 A 
ATOM     26  C   UNL     1      -3.638   0.917   5.634  1.00  0.00     0.016 A 
ATOM     27  C   UNL     1      -4.695  -0.899   6.860  1.00  0.00     0.016 A 
ATOM     28  C   UNL     1      -2.553   0.877   6.491  1.00  0.00     0.010 A 
ATOM     29  C   UNL     1      -3.658  -0.849   7.799  1.00  0.00     0.010 A 
ATOM     30  C   UNL     1      -2.595   0.054   7.627  1.00  0.00    -0.014 A 
BRANCH  30  31
ATOM     31  C   UNL     1      -1.671   0.387   8.734  1.00  0.00     0.031 A 
ATOM     32  C   UNL     1      -0.549  -0.500   9.169  1.00  0.00     0.074 A 
ATOM     33  C   UNL     1      -1.884   1.584   9.316  1.00  0.00     0.049 A 
ATOM     34  N   UNL     1       0.301  -0.311  10.145  1.00  0.00    -0.248 NA
ATOM     35  C   UNL     1      -0.353  -1.754   8.430  1.00  0.00     0.031 C 
ATOM     36  C   UNL     1      -2.953   2.518   8.934  1.00  0.00     0.029 A 
ATOM     37  N   UNL     1      -1.220   2.239  10.313  1.00  0.00    -0.354 N 
ATOM     38  C   UNL     1       1.127  -1.428  10.159  1.00  0.00     0.074 A 
ATOM     39  C   UNL     1       0.667  -2.294   9.090  1.00  0.00     0.031 C 
ATOM     40  C   UNL     1      -2.832   3.644   9.641  1.00  0.00     0.029 A 
ATOM     41  C   UNL     1      -1.757   3.470  10.603  1.00  0.00     0.049 A 
ATOM     42  H   UNL     1      -0.436   1.867  10.777  1.00  0.00     0.167 HD
ATOM     43  C   UNL     1       2.159  -1.694  11.001  1.00  0.00     0.034 A 
ATOM     44  C   UNL     1      -1.457   4.351  11.571  1.00  0.00     0.034 A 
ATOM     45  C   UNL     1       2.578  -0.802  12.063  1.00  0.00     0.049 A 
ATOM     46  C   UNL     1      -0.342   4.008  12.507  1.00  0.00     0.074 A 
ATOM     47  C   UNL     1       3.611  -0.965  12.972  1.00  0.00     0.029 A 
ATOM     48  N   UNL     1       1.981   0.418  12.367  1.00  0.00    -0.354 N 
ATOM     49  N   UNL     1       0.414   2.935  12.523  1.00  0.00    -0.248 NA
ATOM     50  C   UNL     1      -0.039   4.988  13.550  1.00  0.00     0.031 C 
ATOM     51  C   UNL     1       3.595   0.117  13.860  1.00  0.00     0.029 A 
ATOM     52  C   UNL     1       2.602   0.999  13.465  1.00  0.00     0.049 A 
ATOM     53  H   UNL     1       1.225   0.812  11.874  1.00  0.00     0.167 HD
ATOM     54  C   UNL     1       1.294   3.114  13.581  1.00  0.00     0.074 A 
ATOM     55  C   UNL     1       0.990   4.413  14.154  1.00  0.00     0.031 C 
ATOM     56  C   UNL     1       2.261   2.280  14.041  1.00  0.00     0.034 A 
BRANCH  43  57
ATOM     57  C   UNL     1       2.860  -3.025  10.856  1.00  0.00     0.023 A 
ATOM     58  C   UNL     1       3.612  -3.356   9.716  1.00  0.00     0.031 A 
ATOM     59  C   UNL     1       2.776  -3.982  11.885  1.00  0.00     0.131 A 
ATOM     60  C   UNL     1       4.206  -4.625   9.610  1.00  0.00     0.055 A 
ATOM     61  C   UNL     1       3.423  -5.217  11.803  1.00  0.00     0.041 A 
ATOM     62  F   UNL     1       2.058  -3.733  12.992  1.00  0.00    -0.206 F 
ATOM     63  C   UNL     1       4.134  -5.550  10.654  1.00  0.00     0.022 A 
BRANCH  60  64
ATOM     64  S   UNL     1       4.974  -5.099   8.036  1.00  0.00     0.124 S 
ATOM     65  O   UNL     1       3.866  -4.922   7.101  1.00  0.00    -0.237 OA
ATOM     66  O   UNL     1       6.067  -4.140   7.920  1.00  0.00    -0.237 OA
ATOM     67  O   UNL     1       5.381  -6.485   8.257  1.00  0.00    -0.744 OA
ENDBRANCH  60  64
ENDBRANCH  43  57
BRANCH  44  68
ATOM     68  C   UNL     1      -2.267   5.588  11.718  1.00  0.00     0.023 A 
ATOM     69  C   UNL     1      -1.700   6.852  11.515  1.00  0.00     0.031 A 
ATOM     70  C   UNL     1      -3.637   5.518  12.039  1.00  0.00     0.131 A 
ATOM     71  C   UNL     1      -2.492   8.000  11.662  1.00  0.00     0.055 A 
ATOM     72  C   UNL     1      -4.433   6.659  12.128  1.00  0.00     0.041 A 
ATOM     73  F   UNL     1      -4.231   4.328  12.227  1.00  0.00    -0.206 F 
ATOM     74  C   UNL     1      -3.857   7.912  11.950  1.00  0.00     0.022 A 
BRANCH  71  75
ATOM     75  S   UNL     1      -1.694   9.622  11.536  1.00  0.00     0.124 S 
ATOM     76  O   UNL     1      -0.658   9.524  12.557  1.00  0.00    -0.237 OA
ATOM     77  O   UNL     1      -1.233   9.624  10.152  1.00  0.00    -0.237 OA
ATOM     78  O   UNL     1      -2.778  10.557  11.832  1.00  0.00    -0.744 OA
ENDBRANCH  71  75
ENDBRANCH  44  68
BRANCH  56  79
ATOM     79  C   UNL     1       3.064   2.787  15.211  1.00  0.00     0.023 A 
ATOM     80  C   UNL     1       2.477   2.978  16.474  1.00  0.00     0.031 A 
ATOM     81  C   UNL     1       4.411   3.149  15.041  1.00  0.00     0.131 A 
ATOM     82  C   UNL     1       3.215   3.588  17.499  1.00  0.00     0.055 A 
ATOM     83  C   UNL     1       5.159   3.695  16.084  1.00  0.00     0.041 A 
ATOM     84  F   UNL     1       5.015   2.995  13.852  1.00  0.00    -0.206 F 
ATOM     85  C   UNL     1       4.556   3.934  17.317  1.00  0.00     0.022 A 
BRANCH  82  86
ATOM     86  S   UNL     1       2.360   4.035  19.035  1.00  0.00     0.124 S 
ATOM     87  O   UNL     1       1.299   4.910  18.547  1.00  0.00    -0.237 OA
ATOM     88  O   UNL     1       1.931   2.736  19.543  1.00  0.00    -0.237 OA
ATOM     89  O   UNL     1       3.396   4.698  19.824  1.00  0.00    -0.744 OA
ENDBRANCH  82  86
ENDBRANCH  56  79
ENDBRANCH  30  31
ENDBRANCH  23  25
ENDBRANCH  22  23
ENDBRANCH  21  22
ENDBRANCH   1  21
TORSDOF 20
