REMARK SMILES O=C(OCCOC(=O)[C@@]1(Cc2cn3ccccc3n2)CCC[NH2+]C1)c1ccc(-c2c3nc(c(-c4cc(S(=O)(=O)[O-])ccc4F)c4ccc([nH]4)c(-c4cc(S(=O)(=O)[O-])ccc4F)c4nc(c(-c5cc(S(=O)(=O)[O-])ccc5F)c5ccc2[nH]5)C=C4)C=C3)cc1
REMARK SMILES IDX 4 1 3 2 2 3 1 4 25 5 26 6 87 7 27 8 86 9 28 10 29 11 30 12
REMARK SMILES IDX 80 13 31 14 85 15 79 16 81 17 32 18 84 19 78 20 77 21 33 23
REMARK SMILES IDX 65 24 45 25 64 26 46 27 49 28 63 29 82 30 47 31 48 32 62 34
REMARK SMILES IDX 83 35 50 36 34 37 35 38 43 39 36 40 42 41 44 42 41 43 37 44
REMARK SMILES IDX 38 45 39 46 40 47 66 48 67 49 75 50 68 51 74 52 76 53 73 54
REMARK SMILES IDX 69 55 70 56 71 57 72 58 51 59 52 60 60 61 53 62 59 63 61 64
REMARK SMILES IDX 58 65 54 66 55 67 56 68 57 69 5 70 6 71 7 72 8 73 9 74 20 75
REMARK SMILES IDX 24 76 21 77 23 78 22 79 10 82 11 83 12 84 19 85 13 86 18 87
REMARK SMILES IDX 14 88 17 89 15 90 16 91
REMARK H PARENT 81 22 49 33 23 80 23 81
REMARK Flexibility Score: inf
ROOT
ATOM      1  C   UNL     1       3.841   5.553  -3.769  1.00  0.00     0.275 C 
ENDROOT
BRANCH   1   2
ATOM      2  O   UNL     1       4.916   4.601  -3.712  1.00  0.00    -0.458 OA
BRANCH   2   3
ATOM      3  C   UNL     1       5.493   3.998  -2.645  1.00  0.00     0.338 C 
ATOM      4  O   UNL     1       6.378   3.169  -2.860  1.00  0.00    -0.246 OA
BRANCH   3   5
ATOM      5  C   UNL     1       5.034   4.187  -1.230  1.00  0.00     0.060 A 
ATOM      6  C   UNL     1       4.394   5.317  -0.705  1.00  0.00     0.016 A 
ATOM      7  C   UNL     1       5.237   3.096  -0.370  1.00  0.00     0.016 A 
ATOM      8  C   UNL     1       3.807   5.303   0.574  1.00  0.00     0.010 A 
ATOM      9  C   UNL     1       4.656   3.077   0.903  1.00  0.00     0.010 A 
ATOM     10  C   UNL     1       3.889   4.165   1.372  1.00  0.00    -0.014 A 
BRANCH  10  11
ATOM     11  C   UNL     1       3.321   4.095   2.747  1.00  0.00     0.031 A 
ATOM     12  C   UNL     1       4.307   3.973   3.869  1.00  0.00     0.074 A 
ATOM     13  C   UNL     1       1.996   4.022   3.006  1.00  0.00     0.049 A 
ATOM     14  N   UNL     1       4.095   3.734   5.134  1.00  0.00    -0.248 NA
ATOM     15  C   UNL     1       5.726   4.152   3.511  1.00  0.00     0.031 C 
ATOM     16  C   UNL     1       0.908   4.203   2.044  1.00  0.00     0.029 A 
ATOM     17  N   UNL     1       1.335   3.652   4.159  1.00  0.00    -0.354 N 
ATOM     18  C   UNL     1       5.343   3.835   5.729  1.00  0.00     0.074 A 
ATOM     19  C   UNL     1       6.320   3.948   4.672  1.00  0.00     0.031 C 
ATOM     20  C   UNL     1      -0.246   3.770   2.587  1.00  0.00     0.029 A 
ATOM     21  C   UNL     1       0.008   3.325   3.949  1.00  0.00     0.049 A 
ATOM     22  H   UNL     1       1.765   3.623   5.044  1.00  0.00     0.167 HD
ATOM     23  C   UNL     1       5.633   3.953   7.044  1.00  0.00     0.034 A 
ATOM     24  C   UNL     1      -0.881   2.711   4.759  1.00  0.00     0.034 A 
ATOM     25  C   UNL     1       4.653   3.780   8.078  1.00  0.00     0.049 A 
ATOM     26  C   UNL     1      -0.493   2.519   6.203  1.00  0.00     0.074 A 
ATOM     27  C   UNL     1       4.802   3.896   9.445  1.00  0.00     0.029 A 
ATOM     28  N   UNL     1       3.334   3.410   7.845  1.00  0.00    -0.354 N 
ATOM     29  N   UNL     1       0.661   2.756   6.781  1.00  0.00    -0.248 NA
ATOM     30  C   UNL     1      -1.550   2.079   7.121  1.00  0.00     0.031 C 
ATOM     31  C   UNL     1       3.592   3.519  10.042  1.00  0.00     0.029 A 
ATOM     32  C   UNL     1       2.667   3.245   9.045  1.00  0.00     0.049 A 
ATOM     33  H   UNL     1       2.932   3.284   6.955  1.00  0.00     0.167 HD
ATOM     34  C   UNL     1       0.435   2.614   8.146  1.00  0.00     0.074 A 
ATOM     35  C   UNL     1      -0.949   2.211   8.295  1.00  0.00     0.031 C 
ATOM     36  C   UNL     1       1.282   2.857   9.179  1.00  0.00     0.034 A 
BRANCH  23  37
ATOM     37  C   UNL     1       7.058   4.310   7.370  1.00  0.00     0.023 A 
ATOM     38  C   UNL     1       7.618   5.510   6.886  1.00  0.00     0.031 A 
ATOM     39  C   UNL     1       7.897   3.412   8.042  1.00  0.00     0.131 A 
ATOM     40  C   UNL     1       8.998   5.724   6.975  1.00  0.00     0.055 A 
ATOM     41  C   UNL     1       9.258   3.675   8.210  1.00  0.00     0.041 A 
ATOM     42  F   UNL     1       7.422   2.243   8.499  1.00  0.00    -0.206 F 
ATOM     43  C   UNL     1       9.821   4.825   7.655  1.00  0.00     0.022 A 
BRANCH  40  44
ATOM     44  S   UNL     1       9.721   7.093   6.027  1.00  0.00     0.124 S 
ATOM     45  O   UNL     1       9.378   6.718   4.657  1.00  0.00    -0.237 OA
ATOM     46  O   UNL     1       9.023   8.255   6.563  1.00  0.00    -0.237 OA
ATOM     47  O   UNL     1      11.145   7.017   6.349  1.00  0.00    -0.744 OA
ENDBRANCH  40  44
ENDBRANCH  23  37
BRANCH  24  48
ATOM     48  C   UNL     1      -2.220   2.254   4.278  1.00  0.00     0.023 A 
ATOM     49  C   UNL     1      -3.404   2.905   4.660  1.00  0.00     0.031 A 
ATOM     50  C   UNL     1      -2.340   1.069   3.528  1.00  0.00     0.131 A 
ATOM     51  C   UNL     1      -4.653   2.345   4.335  1.00  0.00     0.055 A 
ATOM     52  C   UNL     1      -3.584   0.539   3.168  1.00  0.00     0.041 A 
ATOM     53  F   UNL     1      -1.245   0.382   3.172  1.00  0.00    -0.206 F 
ATOM     54  C   UNL     1      -4.752   1.171   3.585  1.00  0.00     0.022 A 
BRANCH  51  55
ATOM     55  S   UNL     1      -6.154   3.124   4.996  1.00  0.00     0.124 S 
ATOM     56  O   UNL     1      -5.906   3.075   6.432  1.00  0.00    -0.237 OA
ATOM     57  O   UNL     1      -6.104   4.445   4.380  1.00  0.00    -0.237 OA
ATOM     58  O   UNL     1      -7.229   2.256   4.519  1.00  0.00    -0.744 OA
ENDBRANCH  51  55
ENDBRANCH  24  48
BRANCH  36  59
ATOM     59  C   UNL     1       0.703   2.801  10.566  1.00  0.00     0.023 A 
ATOM     60  C   UNL     1       0.243   1.605  11.136  1.00  0.00     0.031 A 
ATOM     61  C   UNL     1       0.619   3.979  11.331  1.00  0.00     0.131 A 
ATOM     62  C   UNL     1      -0.331   1.622  12.415  1.00  0.00     0.055 A 
ATOM     63  C   UNL     1       0.117   3.976  12.631  1.00  0.00     0.041 A 
ATOM     64  F   UNL     1       1.036   5.153  10.829  1.00  0.00    -0.206 F 
ATOM     65  C   UNL     1      -0.373   2.793  13.176  1.00  0.00     0.022 A 
BRANCH  62  66
ATOM     66  S   UNL     1      -1.107   0.106  13.034  1.00  0.00     0.124 S 
ATOM     67  O   UNL     1      -2.144  -0.130  12.034  1.00  0.00    -0.237 OA
ATOM     68  O   UNL     1       0.006  -0.838  13.032  1.00  0.00    -0.237 OA
ATOM     69  O   UNL     1      -1.594   0.487  14.358  1.00  0.00    -0.744 OA
ENDBRANCH  62  66
ENDBRANCH  36  59
ENDBRANCH  10  11
ENDBRANCH   3   5
ENDBRANCH   2   3
ENDBRANCH   1   2
BRANCH   1  70
ATOM     70  C   UNL     1       2.438   4.956  -3.656  1.00  0.00     0.274 C 
BRANCH  70  71
ATOM     71  O   UNL     1       2.344   3.877  -2.714  1.00  0.00    -0.461 OA
BRANCH  71  72
ATOM     72  C   UNL     1       1.902   2.671  -3.176  1.00  0.00     0.318 C 
ATOM     73  O   UNL     1       1.684   2.435  -4.365  1.00  0.00    -0.251 OA
BRANCH  72  74
ATOM     74  C   UNL     1       1.658   1.633  -2.063  1.00  0.00     0.122 C 
ATOM     75  C   UNL     1       1.908   2.260  -0.694  1.00  0.00     0.031 C 
ATOM     76  C   UNL     1       0.142   1.334  -2.073  1.00  0.00     0.279 C 
ATOM     77  C   UNL     1       1.561   1.344   0.454  1.00  0.00     0.063 C 
ATOM     78  N   UNL     1      -0.429   0.614  -0.926  1.00  0.00    -0.345 N 
ATOM     79  C   UNL     1       0.090   0.979   0.396  1.00  0.00     0.260 C 
ATOM     80  H   UNL     1      -1.435   0.784  -0.922  1.00  0.00     0.346 HD
ATOM     81  H   UNL     1      -0.166  -0.362  -1.060  1.00  0.00     0.346 HD
BRANCH  74  82
ATOM     82  C   UNL     1       2.644   0.444  -2.365  1.00  0.00     0.082 C 
BRANCH  82  83
ATOM     83  C   UNL     1       2.290  -0.895  -1.792  1.00  0.00     0.061 A 
ATOM     84  C   UNL     1       1.246  -1.730  -2.142  1.00  0.00     0.116 A 
ATOM     85  N   UNL     1       2.951  -1.412  -0.697  1.00  0.00    -0.234 NA
ATOM     86  N   UNL     1       1.006  -2.453  -0.995  1.00  0.00    -0.307 N 
ATOM     87  C   UNL     1       2.127  -2.308  -0.188  1.00  0.00     0.136 A 
ATOM     88  C   UNL     1      -0.180  -3.050  -0.571  1.00  0.00     0.093 A 
ATOM     89  C   UNL     1       2.098  -2.966   1.077  1.00  0.00     0.048 A 
ATOM     90  C   UNL     1      -0.245  -3.557   0.672  1.00  0.00     0.018 A 
ATOM     91  C   UNL     1       0.955  -3.548   1.496  1.00  0.00     0.005 A 
ENDBRANCH  82  83
ENDBRANCH  74  82
ENDBRANCH  72  74
ENDBRANCH  71  72
ENDBRANCH  70  71
ENDBRANCH   1  70
TORSDOF 16
