REMARK SMILES Cc1cc(CS(=O)(=O)NC[C@@H]2CC[C@H](C(=O)OCCOC(=O)c3ccc(-c4c5nc(c(-c6cc(S(=O)(=O)[O-])ccc6F)c6ccc([nH]6)c(-c6cc(S(=O)(=O)[O-])ccc6F)c6nc(c(-c7cc(S(=O)(=O)[O-])ccc7F)c7ccc4[nH]7)C=C6)C=C5)cc3)O2)no1
REMARK SMILES IDX 18 1 17 2 15 3 16 4 14 5 11 6 12 7 86 8 13 9 10 10 9 11 6 13
REMARK SMILES IDX 7 14 8 15 5 16 4 17 1 18 2 19 3 20 88 21 87 22 19 23 20 24
REMARK SMILES IDX 21 25 22 26 23 27 24 28 85 29 25 30 84 31 26 32 27 33 28 34
REMARK SMILES IDX 78 35 29 36 83 37 77 38 79 39 30 40 82 41 76 42 75 43 31 45
REMARK SMILES IDX 63 46 43 47 62 48 44 49 47 50 61 51 80 52 45 53 46 54 60 56
REMARK SMILES IDX 81 57 48 58 32 59 33 60 41 61 34 62 40 63 42 64 39 65 35 66
REMARK SMILES IDX 36 67 37 68 38 69 64 70 65 71 73 72 66 73 72 74 74 75 71 76
REMARK SMILES IDX 67 77 68 78 69 79 70 80 49 81 50 82 58 83 51 84 57 85 59 86
REMARK SMILES IDX 56 87 52 88 53 89 54 90 55 91
REMARK H PARENT 9 12 79 44 47 55
REMARK Flexibility Score: inf
ROOT
ATOM      1  C   UNL     1       2.118   3.683   2.315  1.00  0.00     0.274 C 
ENDROOT
BRANCH   1   2
ATOM      2  O   UNL     1       0.820   3.078   2.468  1.00  0.00    -0.460 OA
BRANCH   2   3
ATOM      3  C   UNL     1       0.264   3.153   3.712  1.00  0.00     0.335 C 
ATOM      4  O   UNL     1       0.844   3.581   4.704  1.00  0.00    -0.249 OA
BRANCH   3   5
ATOM      5  C   UNL     1      -1.178   2.618   3.742  1.00  0.00     0.228 C 
ATOM      6  C   UNL     1      -2.072   0.569   3.038  1.00  0.00     0.134 C 
ATOM      7  C   UNL     1      -1.900   1.457   1.819  1.00  0.00     0.037 C 
ATOM      8  O   UNL     1      -1.242   1.214   4.039  1.00  0.00    -0.362 OA
ATOM      9  C   UNL     1      -1.942   2.827   2.441  1.00  0.00     0.047 C 
BRANCH   6  10
ATOM     10  C   UNL     1      -1.577  -0.868   2.879  1.00  0.00     0.130 C 
BRANCH  10  11
ATOM     11  N   UNL     1      -2.550  -1.893   2.453  1.00  0.00    -0.212 NA
ATOM     12  H   UNL     1      -2.000  -2.735   2.285  1.00  0.00     0.141 HD
BRANCH  11  13
ATOM     13  S   UNL     1      -3.577  -1.767   1.143  1.00  0.00     0.217 S 
ATOM     14  O   UNL     1      -4.134  -0.438   1.118  1.00  0.00    -0.212 OA
ATOM     15  O   UNL     1      -4.466  -2.903   1.308  1.00  0.00    -0.212 OA
BRANCH  13  16
ATOM     16  C   UNL     1      -2.603  -2.102  -0.333  1.00  0.00     0.213 C 
BRANCH  16  17
ATOM     17  C   UNL     1      -1.369  -1.304  -0.492  1.00  0.00     0.100 A 
ATOM     18  C   UNL     1       2.109  -0.158  -0.256  1.00  0.00     0.091 C 
ATOM     19  C   UNL     1       0.702  -0.547  -0.455  1.00  0.00     0.133 A 
ATOM     20  C   UNL     1      -0.048  -1.642  -0.105  1.00  0.00     0.073 A 
ATOM     21  O   UNL     1      -0.094   0.352  -1.090  1.00  0.00    -0.361 OA
ATOM     22  N   UNL     1      -1.388  -0.133  -1.140  1.00  0.00    -0.084 NA
ENDBRANCH  16  17
ENDBRANCH  13  16
ENDBRANCH  11  13
ENDBRANCH  10  11
ENDBRANCH   6  10
ENDBRANCH   3   5
ENDBRANCH   2   3
ENDBRANCH   1   2
BRANCH   1  23
ATOM     23  C   UNL     1       2.007   5.042   1.621  1.00  0.00     0.275 C 
BRANCH  23  24
ATOM     24  O   UNL     1       1.214   5.954   2.404  1.00  0.00    -0.458 OA
BRANCH  24  25
ATOM     25  C   UNL     1       0.002   6.262   1.883  1.00  0.00     0.338 C 
ATOM     26  O   UNL     1      -0.454   5.902   0.812  1.00  0.00    -0.246 OA
BRANCH  25  27
ATOM     27  C   UNL     1      -0.783   7.006   2.880  1.00  0.00     0.060 A 
ATOM     28  C   UNL     1      -1.803   6.326   3.548  1.00  0.00     0.016 A 
ATOM     29  C   UNL     1      -0.587   8.370   3.093  1.00  0.00     0.016 A 
ATOM     30  C   UNL     1      -2.632   7.000   4.436  1.00  0.00     0.010 A 
ATOM     31  C   UNL     1      -1.422   9.050   3.989  1.00  0.00     0.010 A 
ATOM     32  C   UNL     1      -2.455   8.369   4.660  1.00  0.00    -0.014 A 
BRANCH  32  33
ATOM     33  C   UNL     1      -3.406   9.079   5.549  1.00  0.00     0.031 A 
ATOM     34  C   UNL     1      -4.484   9.939   4.952  1.00  0.00     0.074 A 
ATOM     35  C   UNL     1      -3.344   8.889   6.881  1.00  0.00     0.049 A 
ATOM     36  N   UNL     1      -5.391  10.666   5.552  1.00  0.00    -0.248 NA
ATOM     37  C   UNL     1      -4.550   9.983   3.484  1.00  0.00     0.031 C 
ATOM     38  C   UNL     1      -2.381   8.022   7.564  1.00  0.00     0.029 A 
ATOM     39  N   UNL     1      -4.111   9.400   7.896  1.00  0.00    -0.354 N 
ATOM     40  C   UNL     1      -6.134  11.260   4.538  1.00  0.00     0.074 A 
ATOM     41  C   UNL     1      -5.551  10.828   3.284  1.00  0.00     0.031 C 
ATOM     42  C   UNL     1      -2.623   8.057   8.885  1.00  0.00     0.029 A 
ATOM     43  C   UNL     1      -3.720   8.982   9.148  1.00  0.00     0.049 A 
ATOM     44  H   UNL     1      -4.870  10.009   7.744  1.00  0.00     0.167 HD
ATOM     45  C   UNL     1      -7.205  12.085   4.646  1.00  0.00     0.034 A 
ATOM     46  C   UNL     1      -4.180   9.328  10.367  1.00  0.00     0.034 A 
ATOM     47  C   UNL     1      -7.770  12.509   5.905  1.00  0.00     0.049 A 
ATOM     48  C   UNL     1      -5.322  10.311  10.458  1.00  0.00     0.074 A 
ATOM     49  C   UNL     1      -8.836  13.364   6.129  1.00  0.00     0.029 A 
ATOM     50  N   UNL     1      -7.314  12.111   7.155  1.00  0.00    -0.354 N 
ATOM     51  N   UNL     1      -5.989  10.897   9.490  1.00  0.00    -0.248 NA
ATOM     52  C   UNL     1      -5.773  10.675  11.807  1.00  0.00     0.031 C 
ATOM     53  C   UNL     1      -8.989  13.524   7.512  1.00  0.00     0.029 A 
ATOM     54  C   UNL     1      -8.063  12.718   8.153  1.00  0.00     0.049 A 
ATOM     55  H   UNL     1      -6.569  11.487   7.311  1.00  0.00     0.167 HD
ATOM     56  C   UNL     1      -6.952  11.683  10.117  1.00  0.00     0.074 A 
ATOM     57  C   UNL     1      -6.796  11.473  11.542  1.00  0.00     0.031 C 
ATOM     58  C   UNL     1      -7.881  12.508   9.569  1.00  0.00     0.034 A 
BRANCH  45  59
ATOM     59  C   UNL     1      -7.794  12.623   3.366  1.00  0.00     0.023 A 
ATOM     60  C   UNL     1      -8.448  11.790   2.442  1.00  0.00     0.031 A 
ATOM     61  C   UNL     1      -7.680  13.991   3.057  1.00  0.00     0.131 A 
ATOM     62  C   UNL     1      -8.915  12.322   1.230  1.00  0.00     0.055 A 
ATOM     63  C   UNL     1      -8.206  14.526   1.881  1.00  0.00     0.041 A 
ATOM     64  F   UNL     1      -7.045  14.829   3.892  1.00  0.00    -0.206 F 
ATOM     65  C   UNL     1      -8.819  13.689   0.953  1.00  0.00     0.022 A 
BRANCH  62  66
ATOM     66  S   UNL     1      -9.551  11.187  -0.033  1.00  0.00     0.124 S 
ATOM     67  O   UNL     1      -8.378  10.360  -0.303  1.00  0.00    -0.237 OA
ATOM     68  O   UNL     1     -10.653  10.528   0.659  1.00  0.00    -0.237 OA
ATOM     69  O   UNL     1      -9.944  12.075  -1.126  1.00  0.00    -0.744 OA
ENDBRANCH  62  66
ENDBRANCH  45  59
BRANCH  46  70
ATOM     70  C   UNL     1      -3.538   8.797  11.604  1.00  0.00     0.023 A 
ATOM     71  C   UNL     1      -4.260   8.020  12.523  1.00  0.00     0.031 A 
ATOM     72  C   UNL     1      -2.208   9.126  11.922  1.00  0.00     0.131 A 
ATOM     73  C   UNL     1      -3.669   7.644  13.739  1.00  0.00     0.055 A 
ATOM     74  C   UNL     1      -1.605   8.702  13.107  1.00  0.00     0.041 A 
ATOM     75  F   UNL     1      -1.472   9.871  11.082  1.00  0.00    -0.206 F 
ATOM     76  C   UNL     1      -2.342   7.970  14.032  1.00  0.00     0.022 A 
BRANCH  73  77
ATOM     77  S   UNL     1      -4.695   6.818  14.987  1.00  0.00     0.124 S 
ATOM     78  O   UNL     1      -5.797   7.761  15.139  1.00  0.00    -0.237 OA
ATOM     79  O   UNL     1      -5.015   5.557  14.327  1.00  0.00    -0.237 OA
ATOM     80  O   UNL     1      -3.804   6.708  16.141  1.00  0.00    -0.744 OA
ENDBRANCH  73  77
ENDBRANCH  46  70
BRANCH  58  81
ATOM     81  C   UNL     1      -8.812  13.207  10.528  1.00  0.00     0.023 A 
ATOM     82  C   UNL     1      -8.347  14.186  11.424  1.00  0.00     0.031 A 
ATOM     83  C   UNL     1     -10.173  12.859  10.575  1.00  0.00     0.131 A 
ATOM     84  C   UNL     1      -9.220  14.732  12.376  1.00  0.00     0.055 A 
ATOM     85  C   UNL     1     -11.051  13.450  11.485  1.00  0.00     0.041 A 
ATOM     86  F   UNL     1     -10.671  11.931   9.742  1.00  0.00    -0.206 F 
ATOM     87  C   UNL     1     -10.572  14.380  12.404  1.00  0.00     0.022 A 
BRANCH  84  88
ATOM     88  S   UNL     1      -8.541  15.832  13.650  1.00  0.00     0.124 S 
ATOM     89  O   UNL     1      -7.517  14.992  14.263  1.00  0.00    -0.237 OA
ATOM     90  O   UNL     1      -8.053  16.958  12.861  1.00  0.00    -0.237 OA
ATOM     91  O   UNL     1      -9.693  16.125  14.501  1.00  0.00    -0.744 OA
ENDBRANCH  84  88
ENDBRANCH  58  81
ENDBRANCH  32  33
ENDBRANCH  25  27
ENDBRANCH  24  25
ENDBRANCH  23  24
ENDBRANCH   1  23
TORSDOF 19
