REMARK SMILES CC1=C([C@H](NC(=O)[C@@H]2[C@H](C)c3cc(F)ccc3N2C)C(=O)OCCOC(=O)c2ccc(-c3c4nc(c(-c5cc(S(=O)(=O)[O-])ccc5F)c5ccc([nH]5)c(-c5cc(S(=O)(=O)[O-])ccc5F)c5nc(c(-c6cc(S(=O)(=O)[O-])ccc6F)c6ccc3[nH]6)C=C5)C=C4)cc2)[C@@H](C)N=N1
REMARK SMILES IDX 24 1 23 2 22 3 20 4 21 5 4 6 3 7 1 8 2 9 94 10 91 11 93 12
REMARK SMILES IDX 92 13 5 14 6 15 7 17 8 18 9 19 18 20 11 21 10 22 17 23 19 24
REMARK SMILES IDX 12 25 16 26 13 27 15 28 14 29 25 30 26 31 27 32 28 33 29 34
REMARK SMILES IDX 90 35 30 36 89 37 31 38 32 39 33 40 83 41 34 42 88 43 82 44
REMARK SMILES IDX 84 45 35 46 87 47 81 48 80 49 36 51 68 52 48 53 67 54 49 55
REMARK SMILES IDX 52 56 66 57 85 58 50 59 51 60 65 62 86 63 53 64 37 65 38 66
REMARK SMILES IDX 46 67 39 68 45 69 47 70 44 71 40 72 41 73 42 74 43 75 69 76
REMARK SMILES IDX 70 77 78 78 71 79 77 80 79 81 76 82 72 83 73 84 74 85 75 86
REMARK SMILES IDX 54 87 55 88 63 89 56 90 62 91 64 92 61 93 57 94 58 95 59 96
REMARK SMILES IDX 60 97
REMARK H PARENT 5 16 84 50 52 61
REMARK Flexibility Score: inf
ROOT
ATOM      1  C   UNL     1      -4.712  -1.669   1.554  1.00  0.00     0.275 C 
ENDROOT
BRANCH   1   2
ATOM      2  C   UNL     1      -4.738  -2.587   0.300  1.00  0.00     0.274 C 
BRANCH   2   3
ATOM      3  O   UNL     1      -3.397  -2.931  -0.136  1.00  0.00    -0.460 OA
BRANCH   3   4
ATOM      4  C   UNL     1      -2.843  -1.888  -0.788  1.00  0.00     0.333 C 
ATOM      5  O   UNL     1      -3.468  -0.849  -0.956  1.00  0.00    -0.249 OA
BRANCH   4   6
ATOM      6  C   UNL     1      -1.389  -1.956  -1.201  1.00  0.00     0.223 C 
BRANCH   6   7
ATOM      7  C   UNL     1      -1.313  -1.478  -2.596  1.00  0.00     0.012 C 
ATOM      8  C   UNL     1      -3.898  -0.343  -3.496  1.00  0.00     0.069 C 
ATOM      9  C   UNL     1      -2.455  -0.827  -3.594  1.00  0.00     0.064 C 
ATOM     10  N   UNL     1      -1.724  -0.403  -5.206  1.00  0.00    -0.160 NA
ATOM     11  C   UNL     1       0.489  -1.447  -3.559  1.00  0.00     0.156 C 
ATOM     12  N   UNL     1      -0.105  -0.701  -5.320  1.00  0.00    -0.181 NA
ATOM     13  C   UNL     1       1.665  -2.384  -3.873  1.00  0.00     0.040 C 
ENDBRANCH   6   7
BRANCH   6  14
ATOM     14  N   UNL     1      -0.618  -3.150  -1.115  1.00  0.00    -0.337 N 
ATOM     15  C   UNL     1      -0.247  -3.888  -2.194  1.00  0.00     0.244 C 
ATOM     16  H   UNL     1      -0.337  -3.459  -0.223  1.00  0.00     0.164 HD
ATOM     17  O   UNL     1       0.581  -4.787  -2.023  1.00  0.00    -0.273 OA
BRANCH  15  18
ATOM     18  C   UNL     1      -0.957  -3.647  -3.583  1.00  0.00     0.178 C 
ATOM     19  C   UNL     1      -1.118  -2.085  -4.454  1.00  0.00     0.050 C 
ATOM     20  N   UNL     1      -2.289  -4.275  -3.468  1.00  0.00    -0.362 N 
ATOM     21  C   UNL     1      -2.619  -2.679  -5.165  1.00  0.00    -0.016 A 
ATOM     22  C   UNL     1      -0.673   0.012  -3.681  1.00  0.00     0.015 C 
ATOM     23  C   UNL     1      -3.152  -3.714  -4.385  1.00  0.00     0.041 A 
ATOM     24  C   UNL     1      -2.366  -5.705  -3.225  1.00  0.00     0.144 C 
ATOM     25  C   UNL     1      -3.394  -2.103  -6.196  1.00  0.00     0.045 A 
ATOM     26  C   UNL     1      -4.496  -4.062  -4.516  1.00  0.00     0.029 A 
ATOM     27  C   UNL     1      -4.748  -2.432  -6.269  1.00  0.00     0.123 A 
ATOM     28  C   UNL     1      -5.308  -3.385  -5.424  1.00  0.00     0.041 A 
ATOM     29  F   UNL     1      -5.558  -1.728  -7.072  1.00  0.00    -0.207 F 
ENDBRANCH  15  18
ENDBRANCH   6  14
ENDBRANCH   4   6
ENDBRANCH   3   4
ENDBRANCH   2   3
ENDBRANCH   1   2
BRANCH   1  30
ATOM     30  O   UNL     1      -4.483  -0.252   1.253  1.00  0.00    -0.458 OA
BRANCH  30  31
ATOM     31  C   UNL     1      -3.212   0.232   1.427  1.00  0.00     0.338 C 
ATOM     32  O   UNL     1      -2.345  -0.346   2.074  1.00  0.00    -0.246 OA
BRANCH  31  33
ATOM     33  C   UNL     1      -2.870   1.342   0.451  1.00  0.00     0.060 A 
ATOM     34  C   UNL     1      -3.787   2.216  -0.141  1.00  0.00     0.016 A 
ATOM     35  C   UNL     1      -1.563   1.346  -0.053  1.00  0.00     0.016 A 
ATOM     36  C   UNL     1      -3.444   2.925  -1.331  1.00  0.00     0.010 A 
ATOM     37  C   UNL     1      -1.241   2.045  -1.227  1.00  0.00     0.010 A 
ATOM     38  C   UNL     1      -2.201   2.747  -1.969  1.00  0.00    -0.014 A 
BRANCH  38  39
ATOM     39  C   UNL     1      -1.707   3.556  -3.143  1.00  0.00     0.031 A 
ATOM     40  C   UNL     1      -1.321   4.879  -2.644  1.00  0.00     0.074 A 
ATOM     41  C   UNL     1      -1.556   3.358  -4.491  1.00  0.00     0.049 A 
ATOM     42  N   UNL     1      -2.172   5.848  -2.626  1.00  0.00    -0.248 NA
ATOM     43  C   UNL     1      -0.107   5.112  -1.863  1.00  0.00     0.031 C 
ATOM     44  C   UNL     1      -2.022   2.267  -5.316  1.00  0.00     0.029 A 
ATOM     45  N   UNL     1      -0.894   4.119  -5.459  1.00  0.00    -0.354 N 
ATOM     46  C   UNL     1      -1.489   6.914  -2.097  1.00  0.00     0.074 A 
ATOM     47  C   UNL     1      -0.352   6.348  -1.413  1.00  0.00     0.031 C 
ATOM     48  C   UNL     1      -1.385   2.212  -6.508  1.00  0.00     0.029 A 
ATOM     49  C   UNL     1      -0.606   3.426  -6.674  1.00  0.00     0.049 A 
ATOM     50  H   UNL     1      -0.645   5.061  -5.314  1.00  0.00     0.167 HD
ATOM     51  C   UNL     1      -1.777   8.166  -2.540  1.00  0.00     0.034 A 
ATOM     52  C   UNL     1      -0.384   3.852  -7.962  1.00  0.00     0.034 A 
ATOM     53  C   UNL     1      -2.981   8.161  -3.349  1.00  0.00     0.049 A 
ATOM     54  C   UNL     1      -0.969   5.201  -8.080  1.00  0.00     0.074 A 
ATOM     55  C   UNL     1      -4.309   7.866  -3.116  1.00  0.00     0.029 A 
ATOM     56  N   UNL     1      -2.802   8.061  -4.710  1.00  0.00    -0.354 N 
ATOM     57  N   UNL     1      -2.250   5.418  -8.138  1.00  0.00    -0.248 NA
ATOM     58  C   UNL     1      -0.149   6.297  -7.596  1.00  0.00     0.031 C 
ATOM     59  C   UNL     1      -4.773   7.220  -4.297  1.00  0.00     0.029 A 
ATOM     60  C   UNL     1      -3.757   7.238  -5.253  1.00  0.00     0.049 A 
ATOM     61  H   UNL     1      -2.092   8.515  -5.220  1.00  0.00     0.167 HD
ATOM     62  C   UNL     1      -2.442   6.426  -7.210  1.00  0.00     0.074 A 
ATOM     63  C   UNL     1      -1.106   6.976  -6.963  1.00  0.00     0.031 C 
ATOM     64  C   UNL     1      -3.609   6.521  -6.511  1.00  0.00     0.034 A 
BRANCH  51  65
ATOM     65  C   UNL     1      -0.764   9.272  -2.568  1.00  0.00     0.023 A 
ATOM     66  C   UNL     1       0.617   9.060  -2.393  1.00  0.00     0.031 A 
ATOM     67  C   UNL     1      -1.149  10.567  -2.954  1.00  0.00     0.131 A 
ATOM     68  C   UNL     1       1.544  10.096  -2.539  1.00  0.00     0.055 A 
ATOM     69  C   UNL     1      -0.216  11.585  -3.177  1.00  0.00     0.041 A 
ATOM     70  F   UNL     1      -2.439  10.868  -3.168  1.00  0.00    -0.206 F 
ATOM     71  C   UNL     1       1.138  11.355  -2.962  1.00  0.00     0.022 A 
BRANCH  68  72
ATOM     72  S   UNL     1       3.296   9.817  -2.165  1.00  0.00     0.124 S 
ATOM     73  O   UNL     1       3.938  10.189  -3.421  1.00  0.00    -0.237 OA
ATOM     74  O   UNL     1       3.506  10.737  -1.050  1.00  0.00    -0.237 OA
ATOM     75  O   UNL     1       3.353   8.401  -1.815  1.00  0.00    -0.744 OA
ENDBRANCH  68  72
ENDBRANCH  51  65
BRANCH  52  76
ATOM     76  C   UNL     1       0.840   3.533  -8.771  1.00  0.00     0.023 A 
ATOM     77  C   UNL     1       1.955   2.944  -8.161  1.00  0.00     0.031 A 
ATOM     78  C   UNL     1       1.017   4.021 -10.088  1.00  0.00     0.131 A 
ATOM     79  C   UNL     1       3.207   2.959  -8.797  1.00  0.00     0.055 A 
ATOM     80  C   UNL     1       2.260   3.994 -10.742  1.00  0.00     0.041 A 
ATOM     81  F   UNL     1      -0.003   4.595 -10.748  1.00  0.00    -0.206 F 
ATOM     82  C   UNL     1       3.372   3.483 -10.082  1.00  0.00     0.022 A 
BRANCH  79  83
ATOM     83  S   UNL     1       4.682   2.412  -7.896  1.00  0.00     0.124 S 
ATOM     84  O   UNL     1       5.336   1.537  -8.867  1.00  0.00    -0.237 OA
ATOM     85  O   UNL     1       5.356   3.681  -7.643  1.00  0.00    -0.237 OA
ATOM     86  O   UNL     1       4.137   1.736  -6.723  1.00  0.00    -0.744 OA
ENDBRANCH  79  83
ENDBRANCH  52  76
BRANCH  64  87
ATOM     87  C   UNL     1      -4.813   5.714  -6.976  1.00  0.00     0.023 A 
ATOM     88  C   UNL     1      -6.007   6.426  -7.154  1.00  0.00     0.031 A 
ATOM     89  C   UNL     1      -4.898   4.310  -7.036  1.00  0.00     0.131 A 
ATOM     90  C   UNL     1      -7.229   5.756  -7.284  1.00  0.00     0.055 A 
ATOM     91  C   UNL     1      -6.114   3.636  -7.224  1.00  0.00     0.041 A 
ATOM     92  F   UNL     1      -3.825   3.539  -6.856  1.00  0.00    -0.206 F 
ATOM     93  C   UNL     1      -7.293   4.362  -7.325  1.00  0.00     0.022 A 
BRANCH  90  94
ATOM     94  S   UNL     1      -8.775   6.691  -7.232  1.00  0.00     0.124 S 
ATOM     95  O   UNL     1      -9.347   6.416  -8.547  1.00  0.00    -0.237 OA
ATOM     96  O   UNL     1      -9.470   6.074  -6.104  1.00  0.00    -0.237 OA
ATOM     97  O   UNL     1      -8.347   8.069  -7.013  1.00  0.00    -0.744 OA
ENDBRANCH  90  94
ENDBRANCH  64  87
ENDBRANCH  38  39
ENDBRANCH  31  33
ENDBRANCH  30  31
ENDBRANCH   1  30
TORSDOF 17
