REMARK SMILES O=C(OCCOC(=O)c1cc(SCc2csc(-c3ccsc3)n2)ccn1)c1ccc(-c2c3nc(c(-c4cc(S(=O)(=O)[O-])ccc4F)c4ccc([nH]4)c(-c4cc(S(=O)(=O)[O-])ccc4F)c4nc(c(-c5cc(S(=O)(=O)[O-])ccc5F)c5ccc2[nH]5)C=C4)C=C3)cc1
REMARK SMILES IDX 5 1 4 2 3 3 2 4 1 5 27 6 28 7 89 8 29 9 88 10 30 11 31 12
REMARK SMILES IDX 32 13 82 14 33 15 87 16 81 17 83 18 34 19 86 20 80 21 79 22
REMARK SMILES IDX 35 24 67 25 47 26 66 27 48 28 51 29 65 30 84 31 49 32 50 33
REMARK SMILES IDX 64 35 85 36 52 37 36 38 37 39 45 40 38 41 44 42 46 43 43 44
REMARK SMILES IDX 39 45 40 46 41 47 42 48 68 49 69 50 77 51 70 52 76 53 78 54
REMARK SMILES IDX 75 55 71 56 72 57 73 58 74 59 53 60 54 61 62 62 55 63 61 64
REMARK SMILES IDX 63 65 60 66 56 67 57 68 58 69 59 70 6 71 7 72 8 73 9 74
REMARK SMILES IDX 10 75 26 76 11 77 25 78 24 79 12 80 13 81 14 82 15 83 23 84
REMARK SMILES IDX 16 85 17 86 18 87 19 88 22 89 20 90 21 91
REMARK H PARENT 83 23 51 34
REMARK Flexibility Score: inf
ROOT
ATOM      1  C   UNL     1       3.525   0.036   1.993  1.00  0.00     0.275 C 
ENDROOT
BRANCH   1   2
ATOM      2  C   UNL     1       3.776   0.927   0.772  1.00  0.00     0.275 C 
BRANCH   2   3
ATOM      3  O   UNL     1       2.600   1.021  -0.058  1.00  0.00    -0.458 OA
BRANCH   3   4
ATOM      4  C   UNL     1       2.365   0.594  -1.324  1.00  0.00     0.338 C 
ATOM      5  O   UNL     1       1.473   1.162  -1.957  1.00  0.00    -0.246 OA
BRANCH   4   6
ATOM      6  C   UNL     1       3.075  -0.549  -2.003  1.00  0.00     0.060 A 
ATOM      7  C   UNL     1       4.079  -1.332  -1.450  1.00  0.00     0.016 A 
ATOM      8  C   UNL     1       2.653  -0.899  -3.305  1.00  0.00     0.016 A 
ATOM      9  C   UNL     1       4.657  -2.381  -2.175  1.00  0.00     0.010 A 
ATOM     10  C   UNL     1       3.220  -1.979  -4.020  1.00  0.00     0.010 A 
ATOM     11  C   UNL     1       4.249  -2.733  -3.459  1.00  0.00    -0.014 A 
BRANCH  11  12
ATOM     12  C   UNL     1       4.942  -3.863  -4.156  1.00  0.00     0.031 A 
ATOM     13  C   UNL     1       5.863  -3.594  -5.299  1.00  0.00     0.074 A 
ATOM     14  C   UNL     1       4.858  -5.133  -3.708  1.00  0.00     0.049 A 
ATOM     15  N   UNL     1       6.540  -4.452  -6.016  1.00  0.00    -0.248 NA
ATOM     16  C   UNL     1       6.077  -2.188  -5.659  1.00  0.00     0.031 C 
ATOM     17  C   UNL     1       4.130  -5.503  -2.512  1.00  0.00     0.029 A 
ATOM     18  N   UNL     1       5.384  -6.330  -4.144  1.00  0.00    -0.354 N 
ATOM     19  C   UNL     1       7.233  -3.697  -6.946  1.00  0.00     0.074 A 
ATOM     20  C   UNL     1       6.908  -2.307  -6.684  1.00  0.00     0.031 C 
ATOM     21  C   UNL     1       4.232  -6.821  -2.314  1.00  0.00     0.029 A 
ATOM     22  C   UNL     1       5.023  -7.415  -3.369  1.00  0.00     0.049 A 
ATOM     23  H   UNL     1       5.964  -6.406  -4.936  1.00  0.00     0.167 HD
ATOM     24  C   UNL     1       8.044  -4.134  -7.938  1.00  0.00     0.034 A 
ATOM     25  C   UNL     1       5.273  -8.739  -3.457  1.00  0.00     0.034 A 
ATOM     26  C   UNL     1       8.361  -5.519  -8.188  1.00  0.00     0.049 A 
ATOM     27  C   UNL     1       6.120  -9.199  -4.605  1.00  0.00     0.074 A 
ATOM     28  C   UNL     1       9.141  -6.049  -9.202  1.00  0.00     0.029 A 
ATOM     29  N   UNL     1       7.910  -6.597  -7.436  1.00  0.00    -0.354 N 
ATOM     30  N   UNL     1       6.740  -8.463  -5.497  1.00  0.00    -0.248 NA
ATOM     31  C   UNL     1       6.295 -10.645  -4.777  1.00  0.00     0.031 C 
ATOM     32  C   UNL     1       9.098  -7.444  -9.110  1.00  0.00     0.029 A 
ATOM     33  C   UNL     1       8.349  -7.789  -7.998  1.00  0.00     0.049 A 
ATOM     34  H   UNL     1       7.361  -6.526  -6.622  1.00  0.00     0.167 HD
ATOM     35  C   UNL     1       7.363  -9.360  -6.350  1.00  0.00     0.074 A 
ATOM     36  C   UNL     1       7.105 -10.686  -5.824  1.00  0.00     0.031 C 
ATOM     37  C   UNL     1       8.056  -9.107  -7.487  1.00  0.00     0.034 A 
BRANCH  24  38
ATOM     38  C   UNL     1       8.530  -3.091  -8.903  1.00  0.00     0.023 A 
ATOM     39  C   UNL     1       9.468  -2.111  -8.541  1.00  0.00     0.031 A 
ATOM     40  C   UNL     1       7.980  -3.046 -10.196  1.00  0.00     0.131 A 
ATOM     41  C   UNL     1       9.782  -1.089  -9.448  1.00  0.00     0.055 A 
ATOM     42  C   UNL     1       8.351  -2.069 -11.117  1.00  0.00     0.041 A 
ATOM     43  F   UNL     1       7.054  -3.942 -10.573  1.00  0.00    -0.206 F 
ATOM     44  C   UNL     1       9.249  -1.075 -10.741  1.00  0.00     0.022 A 
BRANCH  41  45
ATOM     45  S   UNL     1      10.801   0.297  -8.876  1.00  0.00     0.124 S 
ATOM     46  O   UNL     1       9.946   0.885  -7.848  1.00  0.00    -0.237 OA
ATOM     47  O   UNL     1      12.006  -0.371  -8.398  1.00  0.00    -0.237 OA
ATOM     48  O   UNL     1      10.975   1.113 -10.076  1.00  0.00    -0.744 OA
ENDBRANCH  41  45
ENDBRANCH  24  38
BRANCH  25  49
ATOM     49  C   UNL     1       4.685  -9.722  -2.482  1.00  0.00     0.023 A 
ATOM     50  C   UNL     1       5.488 -10.619  -1.755  1.00  0.00     0.031 A 
ATOM     51  C   UNL     1       3.290  -9.812  -2.293  1.00  0.00     0.131 A 
ATOM     52  C   UNL     1       4.895 -11.579  -0.913  1.00  0.00     0.055 A 
ATOM     53  C   UNL     1       2.711 -10.716  -1.400  1.00  0.00     0.041 A 
ATOM     54  F   UNL     1       2.458  -9.001  -2.967  1.00  0.00    -0.206 F 
ATOM     55  C   UNL     1       3.514 -11.618  -0.715  1.00  0.00     0.022 A 
BRANCH  52  56
ATOM     56  S   UNL     1       5.941 -12.861  -0.164  1.00  0.00     0.124 S 
ATOM     57  O   UNL     1       6.687 -13.353  -1.317  1.00  0.00    -0.237 OA
ATOM     58  O   UNL     1       6.703 -12.087   0.811  1.00  0.00    -0.237 OA
ATOM     59  O   UNL     1       4.976 -13.800   0.402  1.00  0.00    -0.744 OA
ENDBRANCH  52  56
ENDBRANCH  25  49
BRANCH  37  60
ATOM     60  C   UNL     1       8.546 -10.313  -8.242  1.00  0.00     0.023 A 
ATOM     61  C   UNL     1       7.637 -11.204  -8.839  1.00  0.00     0.031 A 
ATOM     62  C   UNL     1       9.916 -10.607  -8.320  1.00  0.00     0.131 A 
ATOM     63  C   UNL     1       8.104 -12.386  -9.428  1.00  0.00     0.055 A 
ATOM     64  C   UNL     1      10.380 -11.752  -8.968  1.00  0.00     0.041 A 
ATOM     65  F   UNL     1      10.824  -9.792  -7.758  1.00  0.00    -0.206 F 
ATOM     66  C   UNL     1       9.472 -12.657  -9.513  1.00  0.00     0.022 A 
BRANCH  63  67
ATOM     67  S   UNL     1       6.891 -13.609  -9.992  1.00  0.00     0.124 S 
ATOM     68  O   UNL     1       6.244 -13.989  -8.741  1.00  0.00    -0.237 OA
ATOM     69  O   UNL     1       6.075 -12.838 -10.924  1.00  0.00    -0.237 OA
ATOM     70  O   UNL     1       7.715 -14.649 -10.606  1.00  0.00    -0.744 OA
ENDBRANCH  63  67
ENDBRANCH  37  60
ENDBRANCH  11  12
ENDBRANCH   4   6
ENDBRANCH   3   4
ENDBRANCH   2   3
ENDBRANCH   1   2
BRANCH   1  71
ATOM     71  O   UNL     1       3.148  -1.286   1.596  1.00  0.00    -0.457 OA
BRANCH  71  72
ATOM     72  C   UNL     1       1.808  -1.495   1.446  1.00  0.00     0.357 C 
ATOM     73  O   UNL     1       0.911  -0.756   1.784  1.00  0.00    -0.244 OA
BRANCH  72  74
ATOM     74  C   UNL     1       1.658  -2.776   0.711  1.00  0.00     0.149 A 
ATOM     75  C   UNL     1       2.335  -3.897   1.172  1.00  0.00     0.051 A 
ATOM     76  N   UNL     1       0.895  -2.740  -0.409  1.00  0.00    -0.249 NA
ATOM     77  C   UNL     1       2.226  -5.069   0.447  1.00  0.00     0.012 A 
ATOM     78  C   UNL     1       0.809  -3.889  -1.105  1.00  0.00     0.113 A 
ATOM     79  C   UNL     1       1.417  -5.070  -0.701  1.00  0.00     0.035 A 
BRANCH  77  80
ATOM     80  S   UNL     1       3.036  -6.579   0.946  1.00  0.00    -0.120 SA
BRANCH  80  81
ATOM     81  C   UNL     1       4.635  -6.079   1.694  1.00  0.00     0.132 C 
BRANCH  81  82
ATOM     82  C   UNL     1       5.687  -5.490   0.794  1.00  0.00     0.062 A 
ATOM     83  C   UNL     1       6.535  -6.189  -0.048  1.00  0.00     0.091 A 
ATOM     84  N   UNL     1       5.997  -4.128   0.899  1.00  0.00    -0.240 NA
ATOM     85  S   UNL     1       7.649  -5.131  -0.803  1.00  0.00    -0.122 S 
ATOM     86  C   UNL     1       6.993  -3.817   0.085  1.00  0.00     0.124 A 
BRANCH  86  87
ATOM     87  C   UNL     1       7.433  -2.382  -0.098  1.00  0.00     0.021 A 
ATOM     88  C   UNL     1       7.093  -1.321   0.798  1.00  0.00     0.023 A 
ATOM     89  C   UNL     1       8.132  -1.913  -1.194  1.00  0.00     0.076 A 
ATOM     90  C   UNL     1       7.524  -0.093   0.345  1.00  0.00     0.065 A 
ATOM     91  S   UNL     1       8.320  -0.209  -1.163  1.00  0.00    -0.152 S 
ENDBRANCH  86  87
ENDBRANCH  81  82
ENDBRANCH  80  81
ENDBRANCH  77  80
ENDBRANCH  72  74
ENDBRANCH  71  72
ENDBRANCH   1  71
TORSDOF 18
