REMARK SMILES C[C@@H](Oc1ccc(-c2ccccc2)cc1)C(=O)N1CCC[C@H](C(=O)OCCOC(=O)c2ccc(-c3c4nc(c(-c5cc(S(=O)(=O)[O-])ccc5F)c5ccc([nH]5)c(-c5cc(S(=O)(=O)[O-])ccc5F)c5nc(c(-c6cc(S(=O)(=O)[O-])ccc6F)c6ccc3[nH]6)C=C5)C=C4)cc2)C1
REMARK SMILES IDX 26 1 25 2 23 3 24 4 22 5 18 6 19 7 94 8 20 9 21 10 16 11
REMARK SMILES IDX 17 12 2 13 1 14 3 15 4 16 5 17 15 18 6 19 14 20 7 21 8 22
REMARK SMILES IDX 9 23 13 24 10 25 12 26 11 27 27 28 28 29 29 30 30 31 31 32
REMARK SMILES IDX 32 33 93 34 33 35 92 36 34 37 35 38 36 39 86 40 37 41 91 42
REMARK SMILES IDX 85 43 87 44 38 45 90 46 84 47 83 48 39 50 71 51 51 52 70 53
REMARK SMILES IDX 52 54 55 55 69 56 88 57 53 58 54 59 68 61 89 62 56 63 40 64
REMARK SMILES IDX 41 65 49 66 42 67 48 68 50 69 47 70 43 71 44 72 45 73 46 74
REMARK SMILES IDX 72 75 73 76 81 77 74 78 80 79 82 80 79 81 75 82 76 83 77 84
REMARK SMILES IDX 78 85 57 86 58 87 66 88 59 89 65 90 67 91 64 92 60 93 61 94
REMARK SMILES IDX 62 95 63 96
REMARK H PARENT 87 49 55 60
REMARK Flexibility Score: inf
ROOT
ATOM      1  C   UNL     1      -3.161   2.413  -0.213  1.00  0.00     0.274 C 
ENDROOT
BRANCH   1   2
ATOM      2  O   UNL     1      -3.248   1.079   0.321  1.00  0.00    -0.462 OA
BRANCH   2   3
ATOM      3  C   UNL     1      -2.340   0.718   1.260  1.00  0.00     0.310 C 
ATOM      4  O   UNL     1      -1.440   1.443   1.669  1.00  0.00    -0.252 OA
BRANCH   3   5
ATOM      5  C   UNL     1      -2.500  -0.722   1.728  1.00  0.00     0.119 C 
ATOM      6  N   UNL     1      -1.733  -1.791  -0.334  1.00  0.00    -0.339 N 
ATOM      7  C   UNL     1      -3.005  -2.465  -0.577  1.00  0.00     0.119 C 
ATOM      8  C   UNL     1      -1.422  -1.581   1.078  1.00  0.00     0.134 C 
ATOM      9  C   UNL     1      -4.178  -1.741   0.077  1.00  0.00     0.022 C 
ATOM     10  C   UNL     1      -3.890  -1.338   1.526  1.00  0.00     0.019 C 
BRANCH   6  11
ATOM     11  C   UNL     1      -0.950  -1.379  -1.407  1.00  0.00     0.263 C 
ATOM     12  O   UNL     1      -1.414  -1.320  -2.552  1.00  0.00    -0.271 OA
BRANCH  11  13
ATOM     13  C   UNL     1       0.536  -1.019  -1.182  1.00  0.00     0.259 C 
ATOM     14  C   UNL     1       0.729   0.386  -0.616  1.00  0.00     0.064 C 
BRANCH  13  15
ATOM     15  O   UNL     1       1.102  -2.027  -0.337  1.00  0.00    -0.481 OA
BRANCH  15  16
ATOM     16  C   UNL     1       2.430  -2.236  -0.557  1.00  0.00     0.120 A 
ATOM     17  C   UNL     1       2.836  -3.223  -1.450  1.00  0.00     0.047 A 
ATOM     18  C   UNL     1       3.355  -1.574   0.239  1.00  0.00     0.047 A 
ATOM     19  C   UNL     1       4.193  -3.549  -1.546  1.00  0.00     0.012 A 
ATOM     20  C   UNL     1       4.707  -1.896   0.135  1.00  0.00     0.012 A 
ATOM     21  C   UNL     1       5.149  -2.903  -0.742  1.00  0.00    -0.018 A 
BRANCH  21  22
ATOM     22  C   UNL     1       6.567  -3.299  -0.762  1.00  0.00    -0.018 A 
ATOM     23  C   UNL     1       7.293  -3.382  -1.960  1.00  0.00     0.009 A 
ATOM     24  C   UNL     1       7.237  -3.599   0.437  1.00  0.00     0.009 A 
ATOM     25  C   UNL     1       8.646  -3.740  -1.956  1.00  0.00     0.001 A 
ATOM     26  C   UNL     1       8.587  -3.954   0.444  1.00  0.00     0.001 A 
ATOM     27  C   UNL     1       9.292  -4.022  -0.754  1.00  0.00     0.000 A 
ENDBRANCH  21  22
ENDBRANCH  15  16
ENDBRANCH  13  15
ENDBRANCH  11  13
ENDBRANCH   6  11
ENDBRANCH   3   5
ENDBRANCH   2   3
ENDBRANCH   1   2
BRANCH   1  28
ATOM     28  C   UNL     1      -4.265   3.305   0.357  1.00  0.00     0.275 C 
BRANCH  28  29
ATOM     29  O   UNL     1      -4.051   3.560   1.756  1.00  0.00    -0.458 OA
BRANCH  29  30
ATOM     30  C   UNL     1      -4.675   2.696   2.592  1.00  0.00     0.338 C 
ATOM     31  O   UNL     1      -5.443   1.801   2.290  1.00  0.00    -0.246 OA
BRANCH  30  32
ATOM     32  C   UNL     1      -4.163   2.889   3.955  1.00  0.00     0.060 A 
ATOM     33  C   UNL     1      -3.394   1.867   4.513  1.00  0.00     0.016 A 
ATOM     34  C   UNL     1      -4.497   4.018   4.703  1.00  0.00     0.016 A 
ATOM     35  C   UNL     1      -2.955   1.959   5.828  1.00  0.00     0.010 A 
ATOM     36  C   UNL     1      -4.057   4.111   6.027  1.00  0.00     0.010 A 
ATOM     37  C   UNL     1      -3.295   3.075   6.599  1.00  0.00    -0.014 A 
BRANCH  37  38
ATOM     38  C   UNL     1      -2.922   3.107   8.033  1.00  0.00     0.031 A 
ATOM     39  C   UNL     1      -3.977   2.862   9.072  1.00  0.00     0.074 A 
ATOM     40  C   UNL     1      -1.641   3.310   8.390  1.00  0.00     0.049 A 
ATOM     41  N   UNL     1      -3.889   2.924  10.375  1.00  0.00    -0.248 NA
ATOM     42  C   UNL     1      -5.314   2.505   8.573  1.00  0.00     0.031 C 
ATOM     43  C   UNL     1      -0.526   3.494   7.460  1.00  0.00     0.029 A 
ATOM     44  N   UNL     1      -1.061   3.394   9.630  1.00  0.00    -0.354 N 
ATOM     45  C   UNL     1      -5.161   2.632  10.855  1.00  0.00     0.074 A 
ATOM     46  C   UNL     1      -6.007   2.419   9.698  1.00  0.00     0.031 C 
ATOM     47  C   UNL     1       0.604   3.672   8.163  1.00  0.00     0.029 A 
ATOM     48  C   UNL     1       0.286   3.667   9.588  1.00  0.00     0.049 A 
ATOM     49  H   UNL     1      -1.561   3.272  10.469  1.00  0.00     0.167 HD
ATOM     50  C   UNL     1      -5.580   2.550  12.142  1.00  0.00     0.034 A 
ATOM     51  C   UNL     1       1.155   3.919  10.587  1.00  0.00     0.034 A 
ATOM     52  C   UNL     1      -4.716   2.767  13.278  1.00  0.00     0.049 A 
ATOM     53  C   UNL     1       0.651   3.894  12.008  1.00  0.00     0.074 A 
ATOM     54  C   UNL     1      -5.030   2.714  14.625  1.00  0.00     0.029 A 
ATOM     55  N   UNL     1      -3.365   3.085  13.200  1.00  0.00    -0.354 N 
ATOM     56  N   UNL     1      -0.562   3.650  12.451  1.00  0.00    -0.248 NA
ATOM     57  C   UNL     1       1.631   4.179  13.062  1.00  0.00     0.031 C 
ATOM     58  C   UNL     1      -3.887   3.059  15.357  1.00  0.00     0.029 A 
ATOM     59  C   UNL     1      -2.839   3.257  14.471  1.00  0.00     0.049 A 
ATOM     60  H   UNL     1      -2.855   3.174  12.362  1.00  0.00     0.167 HD
ATOM     61  C   UNL     1      -0.483   3.731  13.838  1.00  0.00     0.074 A 
ATOM     62  C   UNL     1       0.899   4.029  14.156  1.00  0.00     0.031 C 
ATOM     63  C   UNL     1      -1.461   3.571  14.766  1.00  0.00     0.034 A 
BRANCH  50  64
ATOM     64  C   UNL     1      -7.046   2.278  12.374  1.00  0.00     0.023 A 
ATOM     65  C   UNL     1      -7.648   1.067  11.991  1.00  0.00     0.031 A 
ATOM     66  C   UNL     1      -7.865   3.268  12.946  1.00  0.00     0.131 A 
ATOM     67  C   UNL     1      -9.037   0.904  12.117  1.00  0.00     0.055 A 
ATOM     68  C   UNL     1      -9.234   3.070  13.141  1.00  0.00     0.041 A 
ATOM     69  F   UNL     1      -7.352   4.454  13.309  1.00  0.00    -0.206 F 
ATOM     70  C   UNL     1      -9.830   1.889  12.711  1.00  0.00     0.022 A 
BRANCH  67  71
ATOM     71  S   UNL     1      -9.813  -0.552  11.364  1.00  0.00     0.124 S 
ATOM     72  O   UNL     1      -9.426  -0.402   9.963  1.00  0.00    -0.237 OA
ATOM     73  O   UNL     1      -9.187  -1.653  12.086  1.00  0.00    -0.237 OA
ATOM     74  O   UNL     1     -11.237  -0.360  11.633  1.00  0.00    -0.744 OA
ENDBRANCH  67  71
ENDBRANCH  50  64
BRANCH  51  75
ATOM     75  C   UNL     1       2.571   4.270  10.284  1.00  0.00     0.023 A 
ATOM     76  C   UNL     1       3.630   3.445  10.694  1.00  0.00     0.031 A 
ATOM     77  C   UNL     1       2.887   5.464   9.610  1.00  0.00     0.131 A 
ATOM     78  C   UNL     1       4.956   3.844  10.461  1.00  0.00     0.055 A 
ATOM     79  C   UNL     1       4.205   5.831   9.336  1.00  0.00     0.041 A 
ATOM     80  F   UNL     1       1.911   6.288   9.196  1.00  0.00    -0.206 F 
ATOM     81  C   UNL     1       5.250   5.024   9.773  1.00  0.00     0.022 A 
BRANCH  78  82
ATOM     82  S   UNL     1       6.300   2.831  11.138  1.00  0.00     0.124 S 
ATOM     83  O   UNL     1       5.992   2.841  12.563  1.00  0.00    -0.237 OA
ATOM     84  O   UNL     1       6.100   1.561  10.446  1.00  0.00    -0.237 OA
ATOM     85  O   UNL     1       7.505   3.563  10.754  1.00  0.00    -0.744 OA
ENDBRANCH  78  82
ENDBRANCH  51  75
BRANCH  63  86
ATOM     86  C   UNL     1      -1.047   3.677  16.213  1.00  0.00     0.023 A 
ATOM     87  C   UNL     1      -0.629   4.897  16.774  1.00  0.00     0.031 A 
ATOM     88  C   UNL     1      -1.051   2.536  17.034  1.00  0.00     0.131 A 
ATOM     89  C   UNL     1      -0.178   4.935  18.102  1.00  0.00     0.055 A 
ATOM     90  C   UNL     1      -0.655   2.592  18.371  1.00  0.00     0.041 A 
ATOM     91  F   UNL     1      -1.440   1.346  16.548  1.00  0.00    -0.206 F 
ATOM     92  C   UNL     1      -0.203   3.794  18.908  1.00  0.00     0.022 A 
BRANCH  89  93
ATOM     93  S   UNL     1       0.530   6.480  18.737  1.00  0.00     0.124 S 
ATOM     94  O   UNL     1       1.630   6.715  17.808  1.00  0.00    -0.237 OA
ATOM     95  O   UNL     1      -0.596   7.403  18.638  1.00  0.00    -0.237 OA
ATOM     96  O   UNL     1       0.932   6.138  20.100  1.00  0.00    -0.744 OA
ENDBRANCH  89  93
ENDBRANCH  63  86
ENDBRANCH  37  38
ENDBRANCH  30  32
ENDBRANCH  29  30
ENDBRANCH  28  29
ENDBRANCH   1  28
TORSDOF 19
