REMARK SMILES O=C(OCCOC(=O)c1cnccc1C(=O)Nc1ccc(Cl)c(Cl)c1)c1ccc(-c2c3nc(c(-c4cc(S(=O)(=O)[O-])ccc4F)c4ccc([nH]4)c(-c4cc(S(=O)(=O)[O-])ccc4F)c4nc(c(-c5cc(S(=O)(=O)[O-])ccc5F)c5ccc2[nH]5)C=C4)C=C3)cc1
REMARK SMILES IDX 4 1 3 2 2 3 1 4 26 5 27 6 88 7 28 8 87 9 29 10 30 11 31 12
REMARK SMILES IDX 81 13 32 14 86 15 80 16 82 17 33 18 85 19 79 20 78 21 34 23
REMARK SMILES IDX 66 24 46 25 65 26 47 27 50 28 64 29 83 30 48 31 49 32 63 34
REMARK SMILES IDX 84 35 51 36 35 37 36 38 44 39 37 40 43 41 45 42 42 43 38 44
REMARK SMILES IDX 39 45 40 46 41 47 67 48 68 49 76 50 69 51 75 52 77 53 74 54
REMARK SMILES IDX 70 55 71 56 72 57 73 58 52 59 53 60 61 61 54 62 60 63 62 64
REMARK SMILES IDX 59 65 55 66 56 67 57 68 58 69 5 70 6 71 7 72 8 73 9 74 10 75
REMARK SMILES IDX 14 76 11 77 13 78 12 79 15 80 16 81 17 82 18 84 19 85 25 86
REMARK SMILES IDX 20 87 23 88 21 89 24 90 22 91
REMARK H PARENT 82 22 50 33 17 83
REMARK Flexibility Score: inf
ROOT
ATOM      1  C   UNL     1       4.278  -0.868  -2.091  1.00  0.00     0.275 C 
ENDROOT
BRANCH   1   2
ATOM      2  O   UNL     1       3.761  -1.740  -0.642  1.00  0.00    -0.458 OA
BRANCH   2   3
ATOM      3  C   UNL     1       3.348  -1.859   0.747  1.00  0.00     0.338 C 
ATOM      4  O   UNL     1       2.684  -2.870   1.013  1.00  0.00    -0.246 OA
BRANCH   3   5
ATOM      5  C   UNL     1       3.508  -0.889   2.044  1.00  0.00     0.060 A 
ATOM      6  C   UNL     1       4.493   0.090   2.142  1.00  0.00     0.016 A 
ATOM      7  C   UNL     1       2.731  -0.851   3.208  1.00  0.00     0.016 A 
ATOM      8  C   UNL     1       5.103   0.636   3.247  1.00  0.00     0.010 A 
ATOM      9  C   UNL     1       3.079   0.042   4.317  1.00  0.00     0.010 A 
ATOM     10  C   UNL     1       4.292   0.795   4.332  1.00  0.00    -0.014 A 
BRANCH  10  11
ATOM     11  C   UNL     1       5.013   1.470   5.453  1.00  0.00     0.031 A 
ATOM     12  C   UNL     1       5.723   0.526   6.374  1.00  0.00     0.074 A 
ATOM     13  C   UNL     1       5.427   2.765   5.409  1.00  0.00     0.049 A 
ATOM     14  N   UNL     1       6.600   0.768   7.306  1.00  0.00    -0.248 NA
ATOM     15  C   UNL     1       5.477  -0.903   6.122  1.00  0.00     0.031 C 
ATOM     16  C   UNL     1       5.150   3.693   4.313  1.00  0.00     0.029 A 
ATOM     17  N   UNL     1       6.229   3.521   6.238  1.00  0.00    -0.354 N 
ATOM     18  C   UNL     1       7.008  -0.483   7.748  1.00  0.00     0.074 A 
ATOM     19  C   UNL     1       6.282  -1.473   6.993  1.00  0.00     0.031 C 
ATOM     20  C   UNL     1       5.693   4.898   4.564  1.00  0.00     0.029 A 
ATOM     21  C   UNL     1       6.387   4.840   5.841  1.00  0.00     0.049 A 
ATOM     22  H   UNL     1       6.655   3.153   7.046  1.00  0.00     0.167 HD
ATOM     23  C   UNL     1       7.913  -0.779   8.707  1.00  0.00     0.034 A 
ATOM     24  C   UNL     1       7.022   5.877   6.437  1.00  0.00     0.034 A 
ATOM     25  C   UNL     1       8.588   0.230   9.471  1.00  0.00     0.049 A 
ATOM     26  C   UNL     1       7.799   5.560   7.692  1.00  0.00     0.074 A 
ATOM     27  C   UNL     1       9.385   0.077  10.587  1.00  0.00     0.029 A 
ATOM     28  N   UNL     1       8.524   1.595   9.203  1.00  0.00    -0.354 N 
ATOM     29  N   UNL     1       8.050   4.381   8.217  1.00  0.00    -0.248 NA
ATOM     30  C   UNL     1       8.394   6.685   8.422  1.00  0.00     0.031 C 
ATOM     31  C   UNL     1       9.728   1.353  11.046  1.00  0.00     0.029 A 
ATOM     32  C   UNL     1       9.231   2.299  10.161  1.00  0.00     0.049 A 
ATOM     33  H   UNL     1       8.045   1.999   8.444  1.00  0.00     0.167 HD
ATOM     34  C   UNL     1       8.869   4.619   9.314  1.00  0.00     0.074 A 
ATOM     35  C   UNL     1       9.076   6.054   9.367  1.00  0.00     0.031 C 
ATOM     36  C   UNL     1       9.410   3.733  10.190  1.00  0.00     0.034 A 
BRANCH  23  37
ATOM     37  C   UNL     1       8.023  -2.239   9.061  1.00  0.00     0.023 A 
ATOM     38  C   UNL     1       8.502  -3.198   8.148  1.00  0.00     0.031 A 
ATOM     39  C   UNL     1       7.436  -2.692  10.254  1.00  0.00     0.131 A 
ATOM     40  C   UNL     1       8.275  -4.561   8.397  1.00  0.00     0.055 A 
ATOM     41  C   UNL     1       7.305  -4.051  10.538  1.00  0.00     0.041 A 
ATOM     42  F   UNL     1       6.914  -1.821  11.132  1.00  0.00    -0.206 F 
ATOM     43  C   UNL     1       7.705  -4.994   9.597  1.00  0.00     0.022 A 
BRANCH  40  44
ATOM     44  S   UNL     1       8.524  -5.746   7.042  1.00  0.00     0.124 S 
ATOM     45  O   UNL     1       7.565  -5.263   6.051  1.00  0.00    -0.237 OA
ATOM     46  O   UNL     1       9.932  -5.559   6.713  1.00  0.00    -0.237 OA
ATOM     47  O   UNL     1       8.191  -7.033   7.647  1.00  0.00    -0.744 OA
ENDBRANCH  40  44
ENDBRANCH  23  37
BRANCH  24  48
ATOM     48  C   UNL     1       6.914   7.295   5.938  1.00  0.00     0.023 A 
ATOM     49  C   UNL     1       8.042   8.086   5.643  1.00  0.00     0.031 A 
ATOM     50  C   UNL     1       5.656   7.929   5.872  1.00  0.00     0.131 A 
ATOM     51  C   UNL     1       7.895   9.458   5.346  1.00  0.00     0.055 A 
ATOM     52  C   UNL     1       5.511   9.279   5.534  1.00  0.00     0.041 A 
ATOM     53  F   UNL     1       4.536   7.246   6.161  1.00  0.00    -0.206 F 
ATOM     54  C   UNL     1       6.635  10.056   5.282  1.00  0.00     0.022 A 
BRANCH  51  55
ATOM     55  S   UNL     1       9.381  10.488   5.141  1.00  0.00     0.124 S 
ATOM     56  O   UNL     1      10.071  10.273   6.407  1.00  0.00    -0.237 OA
ATOM     57  O   UNL     1      10.000   9.893   3.961  1.00  0.00    -0.237 OA
ATOM     58  O   UNL     1       8.842  11.833   4.946  1.00  0.00    -0.744 OA
ENDBRANCH  51  55
ENDBRANCH  24  48
BRANCH  36  59
ATOM     59  C   UNL     1      10.318   4.297  11.250  1.00  0.00     0.023 A 
ATOM     60  C   UNL     1       9.839   5.158  12.250  1.00  0.00     0.031 A 
ATOM     61  C   UNL     1      11.683   3.962  11.257  1.00  0.00     0.131 A 
ATOM     62  C   UNL     1      10.732   5.709  13.177  1.00  0.00     0.055 A 
ATOM     63  C   UNL     1      12.552   4.450  12.230  1.00  0.00     0.041 A 
ATOM     64  F   UNL     1      12.192   3.145  10.319  1.00  0.00    -0.206 F 
ATOM     65  C   UNL     1      12.081   5.342  13.189  1.00  0.00     0.022 A 
BRANCH  62  66
ATOM     66  S   UNL     1      10.129   7.003  14.293  1.00  0.00     0.124 S 
ATOM     67  O   UNL     1       9.642   8.008  13.353  1.00  0.00    -0.237 OA
ATOM     68  O   UNL     1       9.106   6.301  15.061  1.00  0.00    -0.237 OA
ATOM     69  O   UNL     1      11.320   7.385  15.049  1.00  0.00    -0.744 OA
ENDBRANCH  62  66
ENDBRANCH  36  59
ENDBRANCH  10  11
ENDBRANCH   3   5
ENDBRANCH   2   3
ENDBRANCH   1   2
BRANCH   1  70
ATOM     70  C   UNL     1       4.306   1.036  -2.213  1.00  0.00     0.275 C 
BRANCH  70  71
ATOM     71  O   UNL     1       3.169   2.083  -0.889  1.00  0.00    -0.458 OA
BRANCH  71  72
ATOM     72  C   UNL     1       2.014   2.618  -0.280  1.00  0.00     0.340 C 
ATOM     73  O   UNL     1       0.851   2.550  -0.672  1.00  0.00    -0.246 OA
BRANCH  72  74
ATOM     74  C   UNL     1       2.226   3.128   1.053  1.00  0.00     0.091 A 
ATOM     75  C   UNL     1       1.385   2.542   2.017  1.00  0.00     0.127 A 
ATOM     76  C   UNL     1       2.952   4.264   1.357  1.00  0.00     0.057 A 
ATOM     77  N   UNL     1       1.190   3.023   3.260  1.00  0.00    -0.264 NA
ATOM     78  C   UNL     1       2.672   4.815   2.635  1.00  0.00     0.035 A 
ATOM     79  C   UNL     1       1.820   4.174   3.538  1.00  0.00     0.112 A 
BRANCH  76  80
ATOM     80  C   UNL     1       3.965   5.001   0.506  1.00  0.00     0.256 C 
ATOM     81  O   UNL     1       4.407   6.051   0.989  1.00  0.00    -0.269 OA
ATOM     82  N   UNL     1       4.487   4.659  -0.751  1.00  0.00    -0.322 N 
ATOM     83  H   UNL     1       4.893   5.401  -1.255  1.00  0.00     0.170 HD
BRANCH  82  84
ATOM     84  C   UNL     1       4.514   3.397  -1.402  1.00  0.00     0.043 A 
ATOM     85  C   UNL     1       3.205   3.099  -2.569  1.00  0.00     0.028 A 
ATOM     86  C   UNL     1       5.024   2.187  -0.288  1.00  0.00     0.048 A 
ATOM     87  C   UNL     1       2.225   1.589  -2.529  1.00  0.00     0.024 A 
ATOM     88  C   UNL     1       4.137   0.647  -0.194  1.00  0.00     0.061 A 
ATOM     89  C   UNL     1       2.604   0.353  -1.256  1.00  0.00     0.059 A 
ATOM     90  Cl  UNL     1       5.912  -0.392  -0.098  1.00  0.00    -0.083 Cl
ATOM     91  Cl  UNL     1       1.219  -0.652  -0.914  1.00  0.00    -0.083 Cl
ENDBRANCH  82  84
ENDBRANCH  76  80
ENDBRANCH  72  74
ENDBRANCH  71  72
ENDBRANCH  70  71
ENDBRANCH   1  70
TORSDOF 16
