REMARK SMILES CC[N@@H+]1CCO[C@H](C[N@H+]2CCCCC[C@@H]2C(=O)OCCOC(=O)c2ccc(-c3c4nc(c(-c5cc(S(=O)(=O)[O-])ccc5F)c5ccc([nH]5)c(-c5cc(S(=O)(=O)[O-])ccc5F)c5nc(c(-c6cc(S(=O)(=O)[O-])ccc6F)c6ccc3[nH]6)C=C5)C=C4)cc2)C1
REMARK SMILES IDX 19 1 18 2 16 3 17 4 15 5 9 6 8 8 7 9 3 10 4 11 87 12 5 14
REMARK SMILES IDX 6 15 2 16 1 17 10 18 11 19 14 21 13 22 12 23 20 25 21 26
REMARK SMILES IDX 22 27 23 28 24 29 25 30 86 31 26 32 85 33 27 34 28 35 29 36
REMARK SMILES IDX 79 37 30 38 84 39 78 40 80 41 31 42 83 43 77 44 76 45 32 47
REMARK SMILES IDX 64 48 44 49 63 50 45 51 48 52 62 53 81 54 46 55 47 56 61 58
REMARK SMILES IDX 82 59 49 60 33 61 34 62 42 63 35 64 41 65 43 66 40 67 36 68
REMARK SMILES IDX 37 69 38 70 39 71 65 72 66 73 74 74 67 75 73 76 75 77 72 78
REMARK SMILES IDX 68 79 69 80 70 81 71 82 50 83 51 84 59 85 52 86 58 87 60 88
REMARK SMILES IDX 57 89 53 90 54 91 55 92 56 93
REMARK H PARENT 9 7 3 13 80 46 48 57
REMARK Flexibility Score: 100.00
ROOT
ATOM      1  C   UNL     1       0.260   0.150   5.774  1.00  0.00     0.274 C 
ENDROOT
BRANCH   1   2
ATOM      2  O   UNL     1       0.053  -1.097   5.084  1.00  0.00    -0.458 OA
BRANCH   2   3
ATOM      3  C   UNL     1       0.514  -1.146   3.804  1.00  0.00     0.365 C 
ATOM      4  O   UNL     1       1.050  -0.191   3.246  1.00  0.00    -0.245 OA
BRANCH   3   5
ATOM      5  C   UNL     1       0.317  -2.529   3.117  1.00  0.00     0.295 C 
BRANCH   5   6
ATOM      6  N   UNL     1      -0.648  -2.386   1.995  1.00  0.00    -0.321 N 
ATOM      7  H   UNL     1      -1.356  -1.758   2.376  1.00  0.00     0.348 HD
BRANCH   6   8
ATOM      8  C   UNL     1      -0.011  -1.764   0.794  1.00  0.00     0.301 C 
BRANCH   8   9
ATOM      9  C   UNL     1       0.926  -2.648  -0.083  1.00  0.00     0.228 C 
ATOM     10  N   UNL     1       1.399  -1.150  -2.119  1.00  0.00    -0.331 N 
ATOM     11  C   UNL     1       0.616  -2.128  -2.897  1.00  0.00     0.291 C 
ATOM     12  C   UNL     1       1.938  -1.828  -0.928  1.00  0.00     0.300 C 
ATOM     13  H   UNL     1       2.204  -0.822  -2.652  1.00  0.00     0.348 HD
ATOM     14  C   UNL     1      -0.403  -2.919  -2.061  1.00  0.00     0.222 C 
ATOM     15  O   UNL     1       0.193  -3.561  -0.927  1.00  0.00    -0.361 OA
BRANCH  10  16
ATOM     16  C   UNL     1       0.669   0.097  -1.889  1.00  0.00     0.258 C 
ATOM     17  C   UNL     1       1.463   1.158  -1.133  1.00  0.00     0.071 C 
ENDBRANCH  10  16
ENDBRANCH   8   9
ENDBRANCH   6   8
BRANCH   6  18
ATOM     18  C   UNL     1      -1.398  -3.586   1.622  1.00  0.00     0.262 C 
BRANCH  18  19
ATOM     19  C   UNL     1      -2.571  -3.855   2.565  1.00  0.00     0.061 CG0
ATOM     20  G   UNL     1      -2.201  -4.614   3.829  1.00  0.00     0.000 G0
ENDBRANCH  18  19
ENDBRANCH   6  18
ENDBRANCH   5   6
BRANCH   5  21
ATOM     21  C   UNL     1       0.142  -3.689   4.114  1.00  0.00     0.077 C 
BRANCH  21  22
ATOM     22  C   UNL     1      -1.238  -3.864   4.735  1.00  0.00     0.007 C 
BRANCH  22  23
ATOM     23  C   UNL     1      -2.201  -4.614   3.829  1.00  0.00     0.006 CG0
ATOM     24  G   UNL     1      -2.571  -3.855   2.565  1.00  0.00     0.000 G0
ENDBRANCH  22  23
ENDBRANCH  21  22
ENDBRANCH   5  21
ENDBRANCH   3   5
ENDBRANCH   2   3
ENDBRANCH   1   2
BRANCH   1  25
ATOM     25  C   UNL     1       1.533   0.132   6.626  1.00  0.00     0.275 C 
BRANCH  25  26
ATOM     26  O   UNL     1       2.727   0.065   5.824  1.00  0.00    -0.458 OA
BRANCH  26  27
ATOM     27  C   UNL     1       3.204  -1.184   5.616  1.00  0.00     0.338 C 
ATOM     28  O   UNL     1       2.743  -2.229   6.043  1.00  0.00    -0.246 OA
BRANCH  27  29
ATOM     29  C   UNL     1       4.348  -1.142   4.695  1.00  0.00     0.060 A 
ATOM     30  C   UNL     1       4.164  -1.578   3.381  1.00  0.00     0.016 A 
ATOM     31  C   UNL     1       5.618  -0.802   5.159  1.00  0.00     0.016 A 
ATOM     32  C   UNL     1       5.254  -1.705   2.526  1.00  0.00     0.010 A 
ATOM     33  C   UNL     1       6.710  -0.908   4.292  1.00  0.00     0.010 A 
ATOM     34  C   UNL     1       6.538  -1.378   2.977  1.00  0.00    -0.014 A 
BRANCH  34  35
ATOM     35  C   UNL     1       7.708  -1.575   2.087  1.00  0.00     0.031 A 
ATOM     36  C   UNL     1       8.687  -2.678   2.377  1.00  0.00     0.074 A 
ATOM     37  C   UNL     1       7.886  -0.767   1.026  1.00  0.00     0.049 A 
ATOM     38  N   UNL     1       9.839  -2.932   1.815  1.00  0.00    -0.248 NA
ATOM     39  C   UNL     1       8.318  -3.614   3.449  1.00  0.00     0.031 C 
ATOM     40  C   UNL     1       6.974   0.302   0.617  1.00  0.00     0.029 A 
ATOM     41  N   UNL     1       8.901  -0.712   0.105  1.00  0.00    -0.354 N 
ATOM     42  C   UNL     1      10.351  -4.039   2.482  1.00  0.00     0.074 A 
ATOM     43  C   UNL     1       9.386  -4.396   3.501  1.00  0.00     0.031 C 
ATOM     44  C   UNL     1       7.476   0.913  -0.469  1.00  0.00     0.029 A 
ATOM     45  C   UNL     1       8.769   0.319  -0.795  1.00  0.00     0.049 A 
ATOM     46  H   UNL     1       9.651  -1.349   0.089  1.00  0.00     0.167 HD
ATOM     47  C   UNL     1      11.520  -4.692   2.263  1.00  0.00     0.034 A 
ATOM     48  C   UNL     1       9.615   0.764  -1.744  1.00  0.00     0.034 A 
ATOM     49  C   UNL     1      12.463  -4.324   1.233  1.00  0.00     0.049 A 
ATOM     50  C   UNL     1      10.935   0.063  -1.930  1.00  0.00     0.074 A 
ATOM     51  C   UNL     1      13.668  -4.924   0.912  1.00  0.00     0.029 A 
ATOM     52  N   UNL     1      12.309  -3.255   0.359  1.00  0.00    -0.354 N 
ATOM     53  N   UNL     1      11.424  -0.963  -1.271  1.00  0.00    -0.248 NA
ATOM     54  C   UNL     1      11.816   0.581  -2.983  1.00  0.00     0.031 C 
ATOM     55  C   UNL     1      14.269  -4.184  -0.114  1.00  0.00     0.029 A 
ATOM     56  C   UNL     1      13.409  -3.161  -0.480  1.00  0.00     0.049 A 
ATOM     57  H   UNL     1      11.532  -2.651   0.339  1.00  0.00     0.167 HD
ATOM     58  C   UNL     1      12.665  -1.223  -1.845  1.00  0.00     0.074 A 
ATOM     59  C   UNL     1      12.841  -0.256  -2.910  1.00  0.00     0.031 C 
ATOM     60  C   UNL     1      13.576  -2.177  -1.524  1.00  0.00     0.034 A 
BRANCH  47  61
ATOM     61  C   UNL     1      11.866  -5.825   3.197  1.00  0.00     0.023 A 
ATOM     62  C   UNL     1      11.116  -7.013   3.239  1.00  0.00     0.031 A 
ATOM     63  C   UNL     1      12.948  -5.697   4.086  1.00  0.00     0.131 A 
ATOM     64  C   UNL     1      11.418  -7.998   4.193  1.00  0.00     0.055 A 
ATOM     65  C   UNL     1      13.288  -6.711   4.984  1.00  0.00     0.041 A 
ATOM     66  F   UNL     1      13.686  -4.576   4.107  1.00  0.00    -0.206 F 
ATOM     67  C   UNL     1      12.512  -7.864   5.051  1.00  0.00     0.022 A 
BRANCH  64  68
ATOM     68  S   UNL     1      10.281  -9.398   4.388  1.00  0.00     0.124 S 
ATOM     69  O   UNL     1       9.030  -8.720   4.718  1.00  0.00    -0.237 OA
ATOM     70  O   UNL     1      10.338 -10.035   3.078  1.00  0.00    -0.237 OA
ATOM     71  O   UNL     1      10.870 -10.169   5.482  1.00  0.00    -0.744 OA
ENDBRANCH  64  68
ENDBRANCH  47  61
BRANCH  48  72
ATOM     72  C   UNL     1       9.271   1.972  -2.545  1.00  0.00     0.023 A 
ATOM     73  C   UNL     1       9.040   1.888  -3.926  1.00  0.00     0.031 A 
ATOM     74  C   UNL     1       9.198   3.238  -1.936  1.00  0.00     0.131 A 
ATOM     75  C   UNL     1       8.777   3.056  -4.660  1.00  0.00     0.055 A 
ATOM     76  C   UNL     1       8.890   4.389  -2.662  1.00  0.00     0.041 A 
ATOM     77  F   UNL     1       9.410   3.370  -0.617  1.00  0.00    -0.206 F 
ATOM     78  C   UNL     1       8.688   4.303  -4.035  1.00  0.00     0.022 A 
BRANCH  75  79
ATOM     79  S   UNL     1       8.617   2.932  -6.463  1.00  0.00     0.124 S 
ATOM     80  O   UNL     1       9.915   2.384  -6.840  1.00  0.00    -0.237 OA
ATOM     81  O   UNL     1       7.476   2.035  -6.606  1.00  0.00    -0.237 OA
ATOM     82  O   UNL     1       8.377   4.312  -6.879  1.00  0.00    -0.744 OA
ENDBRANCH  75  79
ENDBRANCH  48  72
BRANCH  60  83
ATOM     83  C   UNL     1      14.823  -2.235  -2.368  1.00  0.00     0.023 A 
ATOM     84  C   UNL     1      15.803  -1.229  -2.307  1.00  0.00     0.031 A 
ATOM     85  C   UNL     1      15.023  -3.304  -3.258  1.00  0.00     0.131 A 
ATOM     86  C   UNL     1      16.916  -1.287  -3.159  1.00  0.00     0.055 A 
ATOM     87  C   UNL     1      16.157  -3.383  -4.067  1.00  0.00     0.041 A 
ATOM     88  F   UNL     1      14.117  -4.290  -3.356  1.00  0.00    -0.206 F 
ATOM     89  C   UNL     1      17.106  -2.365  -4.029  1.00  0.00     0.022 A 
BRANCH  86  90
ATOM     90  S   UNL     1      18.077   0.107  -3.175  1.00  0.00     0.124 S 
ATOM     91  O   UNL     1      17.211   1.219  -3.556  1.00  0.00    -0.237 OA
ATOM     92  O   UNL     1      18.567   0.122  -1.801  1.00  0.00    -0.237 OA
ATOM     93  O   UNL     1      19.065  -0.281  -4.180  1.00  0.00    -0.744 OA
ENDBRANCH  86  90
ENDBRANCH  60  83
ENDBRANCH  34  35
ENDBRANCH  27  29
ENDBRANCH  26  27
ENDBRANCH  25  26
ENDBRANCH   1  25
TORSDOF 17
