REMARK SMILES CCC[NH2+][C@]1(C(=O)OCCOC(=O)c2ccc(-c3c4nc(c(-c5cc(S(=O)(=O)[O-])ccc5F)c5ccc([nH]5)c(-c5cc(S(=O)(=O)[O-])ccc5F)c5nc(c(-c6cc(S(=O)(=O)[O-])ccc6F)c6ccc3[nH]6)C=C5)C=C4)cc2)CCC[C@H](OC(C)(C)C)C1
REMARK SMILES IDX 9 1 8 2 6 3 7 4 5 5 77 6 86 7 78 8 80 9 79 10 4 11 3 14 2 15
REMARK SMILES IDX 1 16 81 17 82 18 83 19 84 20 85 21 10 22 11 23 12 24 13 25
REMARK SMILES IDX 14 26 15 27 76 28 16 29 75 30 17 31 18 32 19 33 69 34 20 35
REMARK SMILES IDX 74 36 68 37 70 38 21 39 73 40 67 41 66 42 22 44 54 45 34 46
REMARK SMILES IDX 53 47 35 48 38 49 52 50 71 51 36 52 37 53 51 55 72 56 39 57
REMARK SMILES IDX 23 58 24 59 32 60 25 61 31 62 33 63 30 64 26 65 27 66 28 67
REMARK SMILES IDX 29 68 55 69 56 70 64 71 57 72 63 73 65 74 62 75 58 76 59 77
REMARK SMILES IDX 60 78 61 79 40 80 41 81 49 82 42 83 48 84 50 85 47 86 43 87
REMARK SMILES IDX 44 88 45 89 46 90
REMARK H PARENT 4 12 4 13 70 43 38 54
REMARK Flexibility Score: inf
ROOT
ATOM      1  C   UNL     1      -1.544   1.570  -1.081  1.00  0.00     0.274 C 
ENDROOT
BRANCH   1   2
ATOM      2  O   UNL     1      -0.609   2.567  -1.539  1.00  0.00    -0.457 OA
BRANCH   2   3
ATOM      3  C   UNL     1      -0.186   3.484  -0.621  1.00  0.00     0.368 C 
ATOM      4  O   UNL     1      -0.513   3.445   0.563  1.00  0.00    -0.245 OA
BRANCH   3   5
ATOM      5  C   UNL     1       0.705   4.638  -1.232  1.00  0.00     0.196 C 
ATOM      6  C   UNL     1      -0.100   5.942  -0.997  1.00  0.00     0.081 C 
ATOM      7  C   UNL     1       2.010   4.660  -0.380  1.00  0.00     0.113 C 
ATOM      8  C   UNL     1       0.736   7.213  -1.088  1.00  0.00     0.010 C 
ATOM      9  C   UNL     1       2.809   5.973  -0.263  1.00  0.00     0.125 C 
ATOM     10  C   UNL     1       1.889   7.183  -0.089  1.00  0.00     0.032 C 
BRANCH   5  11
ATOM     11  N   UNL     1       0.847   4.402  -2.698  1.00  0.00    -0.332 N 
ATOM     12  H   UNL     1       0.738   3.400  -2.855  1.00  0.00     0.347 HD
ATOM     13  H   UNL     1       0.137   5.001  -3.119  1.00  0.00     0.347 HD
BRANCH  11  14
ATOM     14  C   UNL     1       2.082   4.805  -3.343  1.00  0.00     0.261 C 
BRANCH  14  15
ATOM     15  C   UNL     1       2.063   4.599  -4.860  1.00  0.00     0.058 C 
ATOM     16  C   UNL     1       1.185   5.612  -5.580  1.00  0.00     0.010 C 
ENDBRANCH  14  15
ENDBRANCH  11  14
ENDBRANCH   5  11
BRANCH   9  17
ATOM     17  O   UNL     1       3.632   6.193  -1.406  1.00  0.00    -0.372 OA
BRANCH  17  18
ATOM     18  C   UNL     1       5.039   5.917  -1.317  1.00  0.00     0.060 C 
ATOM     19  C   UNL     1       5.733   6.994  -0.477  1.00  0.00     0.042 C 
ATOM     20  C   UNL     1       5.359   4.515  -0.785  1.00  0.00     0.042 C 
ATOM     21  C   UNL     1       5.555   6.017  -2.762  1.00  0.00     0.042 C 
ENDBRANCH  17  18
ENDBRANCH   9  17
ENDBRANCH   3   5
ENDBRANCH   2   3
ENDBRANCH   1   2
BRANCH   1  22
ATOM     22  C   UNL     1      -0.883   0.219  -0.792  1.00  0.00     0.275 C 
BRANCH  22  23
ATOM     23  O   UNL     1      -0.178   0.227   0.462  1.00  0.00    -0.458 OA
BRANCH  23  24
ATOM     24  C   UNL     1       1.141   0.508   0.369  1.00  0.00     0.338 C 
ATOM     25  O   UNL     1       1.776   0.687  -0.664  1.00  0.00    -0.246 OA
BRANCH  24  26
ATOM     26  C   UNL     1       1.722   0.721   1.708  1.00  0.00     0.060 A 
ATOM     27  C   UNL     1       2.548   1.836   1.861  1.00  0.00     0.016 A 
ATOM     28  C   UNL     1       1.528  -0.157   2.777  1.00  0.00     0.016 A 
ATOM     29  C   UNL     1       3.167   2.102   3.075  1.00  0.00     0.010 A 
ATOM     30  C   UNL     1       2.177   0.092   3.996  1.00  0.00     0.010 A 
ATOM     31  C   UNL     1       3.005   1.219   4.146  1.00  0.00    -0.014 A 
BRANCH  31  32
ATOM     32  C   UNL     1       3.822   1.432   5.364  1.00  0.00     0.031 A 
ATOM     33  C   UNL     1       5.088   0.642   5.538  1.00  0.00     0.074 A 
ATOM     34  C   UNL     1       3.487   2.385   6.253  1.00  0.00     0.049 A 
ATOM     35  N   UNL     1       5.943   0.648   6.527  1.00  0.00    -0.248 NA
ATOM     36  C   UNL     1       5.436  -0.275   4.442  1.00  0.00     0.031 C 
ATOM     37  C   UNL     1       2.326   3.268   6.142  1.00  0.00     0.029 A 
ATOM     38  N   UNL     1       4.097   2.776   7.417  1.00  0.00    -0.354 N 
ATOM     39  C   UNL     1       6.928  -0.271   6.181  1.00  0.00     0.074 A 
ATOM     40  C   UNL     1       6.546  -0.832   4.901  1.00  0.00     0.031 C 
ATOM     41  C   UNL     1       2.309   4.099   7.199  1.00  0.00     0.029 A 
ATOM     42  C   UNL     1       3.429   3.779   8.080  1.00  0.00     0.049 A 
ATOM     43  H   UNL     1       4.935   2.377   7.747  1.00  0.00     0.167 HD
ATOM     44  C   UNL     1       8.046  -0.613   6.868  1.00  0.00     0.034 A 
ATOM     45  C   UNL     1       3.680   4.351   9.275  1.00  0.00     0.034 A 
ATOM     46  C   UNL     1       8.403  -0.051   8.148  1.00  0.00     0.049 A 
ATOM     47  C   UNL     1       4.886   3.896  10.061  1.00  0.00     0.074 A 
ATOM     48  C   UNL     1       9.492  -0.346   8.949  1.00  0.00     0.029 A 
ATOM     49  N   UNL     1       7.674   0.925   8.818  1.00  0.00    -0.354 N 
ATOM     50  N   UNL     1       5.786   2.992   9.746  1.00  0.00    -0.248 NA
ATOM     51  C   UNL     1       5.111   4.543  11.360  1.00  0.00     0.031 C 
ATOM     52  C   UNL     1       9.391   0.407  10.126  1.00  0.00     0.029 A 
ATOM     53  C   UNL     1       8.278   1.227  10.029  1.00  0.00     0.049 A 
ATOM     54  H   UNL     1       6.848   1.342   8.480  1.00  0.00     0.167 HD
ATOM     55  C   UNL     1       6.697   2.982  10.799  1.00  0.00     0.074 A 
ATOM     56  C   UNL     1       6.246   3.980  11.747  1.00  0.00     0.031 C 
ATOM     57  C   UNL     1       7.808   2.220  10.967  1.00  0.00     0.034 A 
BRANCH  44  58
ATOM     58  C   UNL     1       8.911  -1.697   6.272  1.00  0.00     0.023 A 
ATOM     59  C   UNL     1       9.590  -1.518   5.053  1.00  0.00     0.031 A 
ATOM     60  C   UNL     1       9.009  -2.949   6.904  1.00  0.00     0.131 A 
ATOM     61  C   UNL     1      10.273  -2.597   4.470  1.00  0.00     0.055 A 
ATOM     62  C   UNL     1       9.755  -3.994   6.356  1.00  0.00     0.041 A 
ATOM     63  F   UNL     1       8.362  -3.185   8.056  1.00  0.00    -0.206 F 
ATOM     64  C   UNL     1      10.379  -3.826   5.124  1.00  0.00     0.022 A 
BRANCH  61  65
ATOM     65  S   UNL     1      10.893  -2.417   2.774  1.00  0.00     0.124 S 
ATOM     66  O   UNL     1       9.666  -2.112   2.042  1.00  0.00    -0.237 OA
ATOM     67  O   UNL     1      11.849  -1.324   2.902  1.00  0.00    -0.237 OA
ATOM     68  O   UNL     1      11.475  -3.725   2.481  1.00  0.00    -0.744 OA
ENDBRANCH  61  65
ENDBRANCH  44  58
BRANCH  45  69
ATOM     69  C   UNL     1       2.752   5.375   9.833  1.00  0.00     0.023 A 
ATOM     70  C   UNL     1       3.172   6.693  10.070  1.00  0.00     0.031 A 
ATOM     71  C   UNL     1       1.437   5.028  10.195  1.00  0.00     0.131 A 
ATOM     72  C   UNL     1       2.302   7.604  10.691  1.00  0.00     0.055 A 
ATOM     73  C   UNL     1       0.559   5.950  10.765  1.00  0.00     0.041 A 
ATOM     74  F   UNL     1       0.985   3.780   9.993  1.00  0.00    -0.206 F 
ATOM     75  C   UNL     1       0.995   7.245  11.028  1.00  0.00     0.022 A 
BRANCH  72  76
ATOM     76  S   UNL     1       2.930   9.249  11.129  1.00  0.00     0.124 S 
ATOM     77  O   UNL     1       4.046   8.917  12.007  1.00  0.00    -0.237 OA
ATOM     78  O   UNL     1       3.281   9.796   9.823  1.00  0.00    -0.237 OA
ATOM     79  O   UNL     1       1.789   9.886  11.782  1.00  0.00    -0.744 OA
ENDBRANCH  72  76
ENDBRANCH  45  69
BRANCH  57  80
ATOM     80  C   UNL     1       8.634   2.482  12.204  1.00  0.00     0.023 A 
ATOM     81  C   UNL     1       8.155   2.186  13.492  1.00  0.00     0.031 A 
ATOM     82  C   UNL     1       9.911   3.058  12.088  1.00  0.00     0.131 A 
ATOM     83  C   UNL     1       8.924   2.523  14.617  1.00  0.00     0.055 A 
ATOM     84  C   UNL     1      10.695   3.339  13.208  1.00  0.00     0.041 A 
ATOM     85  F   UNL     1      10.417   3.362  10.882  1.00  0.00    -0.206 F 
ATOM     86  C   UNL     1      10.196   3.084  14.482  1.00  0.00     0.022 A 
BRANCH  83  87
ATOM     87  S   UNL     1       8.198   2.307  16.266  1.00  0.00     0.124 S 
ATOM     88  O   UNL     1       6.982   3.108  16.171  1.00  0.00    -0.237 OA
ATOM     89  O   UNL     1       8.006   0.862  16.335  1.00  0.00    -0.237 OA
ATOM     90  O   UNL     1       9.222   2.839  17.163  1.00  0.00    -0.744 OA
ENDBRANCH  83  87
ENDBRANCH  57  80
ENDBRANCH  31  32
ENDBRANCH  24  26
ENDBRANCH  23  24
ENDBRANCH  22  23
ENDBRANCH   1  22
TORSDOF 19
