REMARK SMILES Cc1ccc(C(=O)OCCOC(=O)c2ccc(-c3c4nc(c(-c5cc(S(=O)(=O)[O-])ccc5F)c5ccc([nH]5)c(-c5cc(S(=O)(=O)[O-])ccc5F)c5nc(c(-c6cc(S(=O)(=O)[O-])ccc6F)c6ccc3[nH]6)C=C5)C=C4)cc2)cc1S(=O)(=O)N(CC1CC1)C(C)C
REMARK SMILES IDX 9 1 8 2 6 3 7 4 5 5 1 6 2 7 3 8 78 9 4 10 77 11 79 12 80 13
REMARK SMILES IDX 81 14 82 15 83 16 84 17 85 18 86 19 87 20 88 21 89 22 10 23
REMARK SMILES IDX 11 24 12 25 13 26 14 27 15 28 76 29 16 30 75 31 17 32 18 33
REMARK SMILES IDX 19 34 69 35 20 36 74 37 68 38 70 39 21 40 73 41 67 42 66 43
REMARK SMILES IDX 22 45 54 46 34 47 53 48 35 49 38 50 52 51 71 52 36 53 37 54
REMARK SMILES IDX 51 56 72 57 39 58 23 59 24 60 32 61 25 62 31 63 33 64 30 65
REMARK SMILES IDX 26 66 27 67 28 68 29 69 55 70 56 71 64 72 57 73 63 74 65 75
REMARK SMILES IDX 62 76 58 77 59 78 60 79 61 80 40 81 41 82 49 83 42 84 48 85
REMARK SMILES IDX 50 86 47 87 43 88 44 89 45 90 46 91
REMARK H PARENT 70 44 38 55
REMARK Flexibility Score: inf
ROOT
ATOM      1  C   UNL     1      -4.650   1.637  -2.684  1.00  0.00     0.275 C 
ENDROOT
BRANCH   1   2
ATOM      2  O   UNL     1      -3.309   1.135  -2.566  1.00  0.00    -0.458 OA
BRANCH   2   3
ATOM      3  C   UNL     1      -2.659   1.689  -1.515  1.00  0.00     0.338 C 
ATOM      4  O   UNL     1      -3.105   2.569  -0.789  1.00  0.00    -0.246 OA
BRANCH   3   5
ATOM      5  C   UNL     1      -1.275   1.201  -1.339  1.00  0.00     0.061 A 
ATOM      6  C   UNL     1       2.429  -0.081   0.467  1.00  0.00     0.046 C 
ATOM      7  C   UNL     1       1.233   0.440  -0.280  1.00  0.00    -0.031 A 
ATOM      8  C   UNL     1       0.359  -0.508  -0.858  1.00  0.00     0.006 A 
ATOM      9  C   UNL     1       0.882   1.794  -0.377  1.00  0.00     0.086 A 
ATOM     10  C   UNL     1      -0.879  -0.131  -1.405  1.00  0.00     0.016 A 
ATOM     11  C   UNL     1      -0.372   2.156  -0.885  1.00  0.00     0.037 A 
BRANCH   9  12
ATOM     12  S   UNL     1       1.812   3.159   0.274  1.00  0.00     0.243 S 
ATOM     13  O   UNL     1       1.285   4.367  -0.312  1.00  0.00    -0.207 OA
ATOM     14  O   UNL     1       1.782   2.979   1.718  1.00  0.00    -0.207 OA
BRANCH  12  15
ATOM     15  N   UNL     1       3.421   3.058  -0.235  1.00  0.00    -0.195 NA
BRANCH  15  16
ATOM     16  C   UNL     1       3.833   2.420  -1.502  1.00  0.00     0.106 C 
BRANCH  16  17
ATOM     17  C   UNL     1       2.969   2.599  -2.713  1.00  0.00     0.004 C 
ATOM     18  C   UNL     1       2.432   3.904  -3.249  1.00  0.00     0.005 C 
ATOM     19  C   UNL     1       3.592   3.248  -3.933  1.00  0.00     0.005 C 
ENDBRANCH  16  17
ENDBRANCH  15  16
BRANCH  15  20
ATOM     20  C   UNL     1       4.367   4.133   0.243  1.00  0.00     0.067 C 
ATOM     21  C   UNL     1       4.350   5.363  -0.664  1.00  0.00     0.025 C 
ATOM     22  C   UNL     1       4.139   4.570   1.690  1.00  0.00     0.025 C 
ENDBRANCH  15  20
ENDBRANCH  12  15
ENDBRANCH   9  12
ENDBRANCH   3   5
ENDBRANCH   2   3
ENDBRANCH   1   2
BRANCH   1  23
ATOM     23  C   UNL     1      -5.554   0.745  -3.547  1.00  0.00     0.275 C 
BRANCH  23  24
ATOM     24  O   UNL     1      -5.733  -0.649  -3.203  1.00  0.00    -0.458 OA
BRANCH  24  25
ATOM     25  C   UNL     1      -4.744  -1.300  -2.539  1.00  0.00     0.338 C 
ATOM     26  O   UNL     1      -3.784  -1.819  -3.086  1.00  0.00    -0.246 OA
BRANCH  25  27
ATOM     27  C   UNL     1      -4.869  -1.085  -1.073  1.00  0.00     0.060 A 
ATOM     28  C   UNL     1      -3.793  -1.413  -0.235  1.00  0.00     0.016 A 
ATOM     29  C   UNL     1      -5.937  -0.330  -0.586  1.00  0.00     0.016 A 
ATOM     30  C   UNL     1      -3.721  -0.880   1.050  1.00  0.00     0.010 A 
ATOM     31  C   UNL     1      -5.827   0.277   0.642  1.00  0.00     0.010 A 
ATOM     32  C   UNL     1      -4.734  -0.014   1.469  1.00  0.00    -0.014 A 
BRANCH  32  33
ATOM     33  C   UNL     1      -4.968   0.317   2.865  1.00  0.00     0.031 A 
ATOM     34  C   UNL     1      -4.310   1.421   3.579  1.00  0.00     0.074 A 
ATOM     35  C   UNL     1      -5.946  -0.437   3.414  1.00  0.00     0.049 A 
ATOM     36  N   UNL     1      -4.176   1.462   4.862  1.00  0.00    -0.248 NA
ATOM     37  C   UNL     1      -3.728   2.577   2.905  1.00  0.00     0.031 C 
ATOM     38  C   UNL     1      -6.653  -0.287   4.670  1.00  0.00     0.029 A 
ATOM     39  N   UNL     1      -6.368  -1.686   2.942  1.00  0.00    -0.354 N 
ATOM     40  C   UNL     1      -3.834   2.756   5.195  1.00  0.00     0.074 A 
ATOM     41  C   UNL     1      -3.446   3.373   3.947  1.00  0.00     0.031 C 
ATOM     42  C   UNL     1      -7.127  -1.499   5.022  1.00  0.00     0.029 A 
ATOM     43  C   UNL     1      -6.577  -2.463   4.071  1.00  0.00     0.049 A 
ATOM     44  H   UNL     1      -6.491  -1.956   2.003  1.00  0.00     0.167 HD
ATOM     45  C   UNL     1      -4.117   3.217   6.450  1.00  0.00     0.034 A 
ATOM     46  C   UNL     1      -5.760  -3.516   4.374  1.00  0.00     0.034 A 
ATOM     47  C   UNL     1      -4.719   2.164   7.266  1.00  0.00     0.049 A 
ATOM     48  C   UNL     1      -5.164  -3.321   5.747  1.00  0.00     0.074 A 
ATOM     49  C   UNL     1      -6.042   1.878   7.559  1.00  0.00     0.029 A 
ATOM     50  N   UNL     1      -3.980   1.038   7.613  1.00  0.00    -0.354 N 
ATOM     51  N   UNL     1      -4.847  -2.157   6.248  1.00  0.00    -0.248 NA
ATOM     52  C   UNL     1      -4.948  -4.423   6.673  1.00  0.00     0.031 C 
ATOM     53  C   UNL     1      -6.109   0.531   7.989  1.00  0.00     0.029 A 
ATOM     54  C   UNL     1      -4.825   0.013   7.994  1.00  0.00     0.049 A 
ATOM     55  H   UNL     1      -2.998   0.980   7.592  1.00  0.00     0.167 HD
ATOM     56  C   UNL     1      -4.519  -2.322   7.570  1.00  0.00     0.074 A 
ATOM     57  C   UNL     1      -4.557  -3.762   7.775  1.00  0.00     0.031 C 
ATOM     58  C   UNL     1      -4.306  -1.273   8.421  1.00  0.00     0.034 A 
BRANCH  45  59
ATOM     59  C   UNL     1      -4.228   4.687   6.803  1.00  0.00     0.023 A 
ATOM     60  C   UNL     1      -5.222   5.099   7.720  1.00  0.00     0.031 A 
ATOM     61  C   UNL     1      -3.451   5.721   6.255  1.00  0.00     0.131 A 
ATOM     62  C   UNL     1      -5.495   6.456   7.963  1.00  0.00     0.055 A 
ATOM     63  C   UNL     1      -3.736   7.079   6.473  1.00  0.00     0.041 A 
ATOM     64  F   UNL     1      -2.366   5.458   5.511  1.00  0.00    -0.206 F 
ATOM     65  C   UNL     1      -4.777   7.455   7.316  1.00  0.00     0.022 A 
BRANCH  62  66
ATOM     66  S   UNL     1      -6.820   6.889   9.127  1.00  0.00     0.124 S 
ATOM     67  O   UNL     1      -7.989   6.271   8.511  1.00  0.00    -0.237 OA
ATOM     68  O   UNL     1      -6.352   6.285  10.370  1.00  0.00    -0.237 OA
ATOM     69  O   UNL     1      -6.819   8.351   9.116  1.00  0.00    -0.744 OA
ENDBRANCH  62  66
ENDBRANCH  45  59
BRANCH  46  70
ATOM     70  C   UNL     1      -5.052  -4.188   3.232  1.00  0.00     0.023 A 
ATOM     71  C   UNL     1      -5.796  -4.566   2.089  1.00  0.00     0.031 A 
ATOM     72  C   UNL     1      -3.654  -4.249   3.128  1.00  0.00     0.131 A 
ATOM     73  C   UNL     1      -5.154  -4.868   0.876  1.00  0.00     0.055 A 
ATOM     74  C   UNL     1      -3.015  -4.604   1.929  1.00  0.00     0.041 A 
ATOM     75  F   UNL     1      -2.873  -3.895   4.158  1.00  0.00    -0.206 F 
ATOM     76  C   UNL     1      -3.763  -4.890   0.789  1.00  0.00     0.022 A 
BRANCH  73  77
ATOM     77  S   UNL     1      -6.160  -5.013  -0.632  1.00  0.00     0.124 S 
ATOM     78  O   UNL     1      -6.757  -6.334  -0.474  1.00  0.00    -0.237 OA
ATOM     79  O   UNL     1      -7.070  -3.877  -0.508  1.00  0.00    -0.237 OA
ATOM     80  O   UNL     1      -5.177  -4.891  -1.704  1.00  0.00    -0.744 OA
ENDBRANCH  73  77
ENDBRANCH  46  70
BRANCH  58  81
ATOM     81  C   UNL     1      -3.734  -1.389   9.811  1.00  0.00     0.023 A 
ATOM     82  C   UNL     1      -2.968  -2.487  10.218  1.00  0.00     0.031 A 
ATOM     83  C   UNL     1      -3.857  -0.336  10.751  1.00  0.00     0.131 A 
ATOM     84  C   UNL     1      -2.457  -2.568  11.521  1.00  0.00     0.055 A 
ATOM     85  C   UNL     1      -3.268  -0.378  12.016  1.00  0.00     0.041 A 
ATOM     86  F   UNL     1      -4.544   0.783  10.480  1.00  0.00    -0.206 F 
ATOM     87  C   UNL     1      -2.577  -1.510  12.418  1.00  0.00     0.022 A 
BRANCH  84  88
ATOM     88  S   UNL     1      -1.704  -4.129  12.037  1.00  0.00     0.124 S 
ATOM     89  O   UNL     1      -2.825  -5.058  11.907  1.00  0.00    -0.237 OA
ATOM     90  O   UNL     1      -0.629  -4.297  11.064  1.00  0.00    -0.237 OA
ATOM     91  O   UNL     1      -1.270  -3.867  13.407  1.00  0.00    -0.744 OA
ENDBRANCH  84  88
ENDBRANCH  58  81
ENDBRANCH  32  33
ENDBRANCH  25  27
ENDBRANCH  24  25
ENDBRANCH  23  24
ENDBRANCH   1  23
TORSDOF 19
