REMARK SMILES CC1(C)CCCC[C@H]1NC(=O)Nc1ccccc1C(=O)OCCOC(=O)c1ccc(-c2c3nc(c(-c4cc(S(=O)(=O)[O-])ccc4F)c4ccc([nH]4)c(-c4cc(S(=O)(=O)[O-])ccc4F)c4nc(c(-c5cc(S(=O)(=O)[O-])ccc5F)c5ccc2[nH]5)C=C4)C=C3)cc1
REMARK SMILES IDX 23 1 22 2 21 3 19 4 20 5 18 6 13 7 14 8 15 9 17 10 16 11
REMARK SMILES IDX 12 12 9 13 10 14 11 16 8 18 1 19 2 20 3 21 4 22 5 23 7 24
REMARK SMILES IDX 6 25 24 26 25 27 26 28 27 29 28 30 89 31 29 32 88 33 30 34
REMARK SMILES IDX 31 35 32 36 82 37 33 38 87 39 81 40 83 41 34 42 86 43 80 44
REMARK SMILES IDX 79 45 35 47 67 48 47 49 66 50 48 51 51 52 65 53 84 54 49 55
REMARK SMILES IDX 50 56 64 58 85 59 52 60 36 61 37 62 45 63 38 64 44 65 46 66
REMARK SMILES IDX 43 67 39 68 40 69 41 70 42 71 68 72 69 73 77 74 70 75 76 76
REMARK SMILES IDX 78 77 75 78 71 79 72 80 73 81 74 82 53 83 54 84 62 85 55 86
REMARK SMILES IDX 61 87 63 88 60 89 56 90 57 91 58 92 59 93
REMARK H PARENT 9 15 12 17 83 46 51 57
REMARK Flexibility Score: inf
ROOT
ATOM      1  C   UNL     1       6.130  -0.164  -3.964  1.00  0.00     0.275 C 
ENDROOT
BRANCH   1   2
ATOM      2  C   UNL     1       4.903  -1.045  -3.672  1.00  0.00     0.275 C 
BRANCH   2   3
ATOM      3  O   UNL     1       3.803  -0.913  -4.598  1.00  0.00    -0.458 OA
BRANCH   3   4
ATOM      4  C   UNL     1       2.994   0.127  -4.307  1.00  0.00     0.340 C 
ATOM      5  O   UNL     1       3.251   1.021  -3.522  1.00  0.00    -0.246 OA
BRANCH   4   6
ATOM      6  C   UNL     1       1.686   0.122  -4.967  1.00  0.00     0.083 A 
ATOM      7  C   UNL     1       0.711  -0.852  -4.724  1.00  0.00     0.057 A 
ATOM      8  C   UNL     1      -0.536  -0.719  -5.361  1.00  0.00     0.027 A 
ATOM      9  C   UNL     1      -0.857   0.430  -6.091  1.00  0.00     0.002 A 
ATOM     10  C   UNL     1       1.368   1.260  -5.732  1.00  0.00     0.018 A 
ATOM     11  C   UNL     1       0.091   1.431  -6.262  1.00  0.00     0.001 A 
BRANCH   7  12
ATOM     12  N   UNL     1       0.846  -1.976  -3.888  1.00  0.00    -0.307 N 
ATOM     13  N   UNL     1       1.772  -1.298  -1.809  1.00  0.00    -0.335 N 
ATOM     14  C   UNL     1       1.557  -2.223  -2.767  1.00  0.00     0.319 C 
ATOM     15  H   UNL     1       2.437  -1.577  -1.139  1.00  0.00     0.165 HD
ATOM     16  O   UNL     1       1.919  -3.380  -2.539  1.00  0.00    -0.248 OA
ATOM     17  H   UNL     1       0.309  -2.746  -4.184  1.00  0.00     0.171 HD
BRANCH  13  18
ATOM     18  C   UNL     1       1.221   0.039  -1.558  1.00  0.00     0.089 C 
ATOM     19  C   UNL     1       0.095  -0.488   0.702  1.00  0.00     0.013 C 
ATOM     20  C   UNL     1      -0.104   0.059  -0.733  1.00  0.00    -0.015 C 
ATOM     21  C   UNL     1      -1.202  -0.776  -1.418  1.00  0.00     0.013 C 
ATOM     22  C   UNL     1      -0.591   1.541  -0.692  1.00  0.00     0.008 C 
ATOM     23  C   UNL     1       0.464   2.553  -0.221  1.00  0.00     0.001 C 
ATOM     24  C   UNL     1       2.267   0.933  -0.859  1.00  0.00     0.025 C 
ATOM     25  C   UNL     1       1.808   2.385  -0.921  1.00  0.00     0.002 C 
ENDBRANCH  13  18
ENDBRANCH   7  12
ENDBRANCH   4   6
ENDBRANCH   3   4
ENDBRANCH   2   3
ENDBRANCH   1   2
BRANCH   1  26
ATOM     26  O   UNL     1       5.919   1.236  -3.681  1.00  0.00    -0.458 OA
BRANCH  26  27
ATOM     27  C   UNL     1       5.699   2.020  -4.765  1.00  0.00     0.338 C 
ATOM     28  O   UNL     1       5.727   1.669  -5.935  1.00  0.00    -0.246 OA
BRANCH  27  29
ATOM     29  C   UNL     1       5.341   3.396  -4.367  1.00  0.00     0.060 A 
ATOM     30  C   UNL     1       3.990   3.733  -4.268  1.00  0.00     0.016 A 
ATOM     31  C   UNL     1       6.309   4.396  -4.288  1.00  0.00     0.016 A 
ATOM     32  C   UNL     1       3.583   5.049  -4.122  1.00  0.00     0.010 A 
ATOM     33  C   UNL     1       5.904   5.729  -4.124  1.00  0.00     0.010 A 
ATOM     34  C   UNL     1       4.537   6.061  -4.068  1.00  0.00    -0.014 A 
BRANCH  34  35
ATOM     35  C   UNL     1       4.073   7.466  -4.117  1.00  0.00     0.031 A 
ATOM     36  C   UNL     1       4.259   8.239  -5.389  1.00  0.00     0.074 A 
ATOM     37  C   UNL     1       3.400   8.000  -3.081  1.00  0.00     0.049 A 
ATOM     38  N   UNL     1       4.092   9.513  -5.620  1.00  0.00    -0.248 NA
ATOM     39  C   UNL     1       4.690   7.463  -6.563  1.00  0.00     0.031 C 
ATOM     40  C   UNL     1       3.023   7.285  -1.860  1.00  0.00     0.029 A 
ATOM     41  N   UNL     1       2.907   9.265  -2.893  1.00  0.00    -0.354 N 
ATOM     42  C   UNL     1       4.441   9.704  -6.952  1.00  0.00     0.074 A 
ATOM     43  C   UNL     1       4.827   8.412  -7.477  1.00  0.00     0.031 C 
ATOM     44  C   UNL     1       2.362   8.125  -1.048  1.00  0.00     0.029 A 
ATOM     45  C   UNL     1       2.347   9.454  -1.650  1.00  0.00     0.049 A 
ATOM     46  H   UNL     1       2.948   9.969  -3.580  1.00  0.00     0.167 HD
ATOM     47  C   UNL     1       4.448  10.860  -7.659  1.00  0.00     0.034 A 
ATOM     48  C   UNL     1       1.933  10.587  -1.048  1.00  0.00     0.034 A 
ATOM     49  C   UNL     1       4.047  12.127  -7.098  1.00  0.00     0.049 A 
ATOM     50  C   UNL     1       2.062  11.884  -1.808  1.00  0.00     0.074 A 
ATOM     51  C   UNL     1       4.061  13.380  -7.685  1.00  0.00     0.029 A 
ATOM     52  N   UNL     1       3.552  12.299  -5.809  1.00  0.00    -0.354 N 
ATOM     53  N   UNL     1       2.501  12.084  -3.031  1.00  0.00    -0.248 NA
ATOM     54  C   UNL     1       1.654  13.107  -1.107  1.00  0.00     0.031 C 
ATOM     55  C   UNL     1       3.637  14.313  -6.732  1.00  0.00     0.029 A 
ATOM     56  C   UNL     1       3.281  13.636  -5.575  1.00  0.00     0.049 A 
ATOM     57  H   UNL     1       3.415  11.573  -5.157  1.00  0.00     0.167 HD
ATOM     58  C   UNL     1       2.397  13.454  -3.253  1.00  0.00     0.074 A 
ATOM     59  C   UNL     1       1.842  14.027  -2.042  1.00  0.00     0.031 C 
ATOM     60  C   UNL     1       2.727  14.176  -4.355  1.00  0.00     0.034 A 
BRANCH  47  61
ATOM     61  C   UNL     1       4.997  10.807  -9.064  1.00  0.00     0.023 A 
ATOM     62  C   UNL     1       4.373  10.073 -10.088  1.00  0.00     0.031 A 
ATOM     63  C   UNL     1       6.212  11.450  -9.364  1.00  0.00     0.131 A 
ATOM     64  C   UNL     1       5.002   9.939 -11.336  1.00  0.00     0.055 A 
ATOM     65  C   UNL     1       6.793  11.378 -10.631  1.00  0.00     0.041 A 
ATOM     66  F   UNL     1       6.870  12.141  -8.419  1.00  0.00    -0.206 F 
ATOM     67  C   UNL     1       6.196  10.606 -11.622  1.00  0.00     0.022 A 
BRANCH  64  68
ATOM     68  S   UNL     1       4.319   8.758 -12.533  1.00  0.00     0.124 S 
ATOM     69  O   UNL     1       4.382   7.507 -11.781  1.00  0.00    -0.237 OA
ATOM     70  O   UNL     1       2.984   9.291 -12.775  1.00  0.00    -0.237 OA
ATOM     71  O   UNL     1       5.240   8.844 -13.664  1.00  0.00    -0.744 OA
ENDBRANCH  64  68
ENDBRANCH  47  61
BRANCH  48  72
ATOM     72  C   UNL     1       1.455  10.565   0.365  1.00  0.00     0.023 A 
ATOM     73  C   UNL     1       0.156  10.973   0.706  1.00  0.00     0.031 A 
ATOM     74  C   UNL     1       2.316  10.177   1.411  1.00  0.00     0.131 A 
ATOM     75  C   UNL     1      -0.232  11.022   2.055  1.00  0.00     0.055 A 
ATOM     76  C   UNL     1       1.907  10.172   2.745  1.00  0.00     0.041 A 
ATOM     77  F   UNL     1       3.572   9.785   1.147  1.00  0.00    -0.206 F 
ATOM     78  C   UNL     1       0.629  10.609   3.075  1.00  0.00     0.022 A 
BRANCH  75  79
ATOM     79  S   UNL     1      -1.854  11.721   2.470  1.00  0.00     0.124 S 
ATOM     80  O   UNL     1      -1.761  13.054   1.885  1.00  0.00    -0.237 OA
ATOM     81  O   UNL     1      -2.762  10.790   1.807  1.00  0.00    -0.237 OA
ATOM     82  O   UNL     1      -1.879  11.679   3.930  1.00  0.00    -0.744 OA
ENDBRANCH  75  79
ENDBRANCH  48  72
BRANCH  60  83
ATOM     83  C   UNL     1       2.432  15.654  -4.312  1.00  0.00     0.023 A 
ATOM     84  C   UNL     1       3.144  16.529  -3.474  1.00  0.00     0.031 A 
ATOM     85  C   UNL     1       1.420  16.190  -5.128  1.00  0.00     0.131 A 
ATOM     86  C   UNL     1       2.800  17.888  -3.435  1.00  0.00     0.055 A 
ATOM     87  C   UNL     1       1.122  17.552  -5.128  1.00  0.00     0.041 A 
ATOM     88  F   UNL     1       0.710  15.396  -5.946  1.00  0.00    -0.206 F 
ATOM     89  C   UNL     1       1.806  18.408  -4.269  1.00  0.00     0.022 A 
BRANCH  86  90
ATOM     90  S   UNL     1       3.616  18.958  -2.219  1.00  0.00     0.124 S 
ATOM     91  O   UNL     1       3.256  18.315  -0.959  1.00  0.00    -0.237 OA
ATOM     92  O   UNL     1       5.019  18.860  -2.607  1.00  0.00    -0.237 OA
ATOM     93  O   UNL     1       3.001  20.265  -2.446  1.00  0.00    -0.744 OA
ENDBRANCH  86  90
ENDBRANCH  60  83
ENDBRANCH  34  35
ENDBRANCH  27  29
ENDBRANCH  26  27
ENDBRANCH   1  26
TORSDOF 16
