REMARK SMILES C[C@@H]1C(=O)NC(=O)CN1C(=O)NC1(CC(=O)OCCOC(=O)c2ccc(-c3c4nc(c(-c5cc(S(=O)(=O)[O-])ccc5F)c5ccc([nH]5)c(-c5cc(S(=O)(=O)[O-])ccc5F)c5nc(c(-c6cc(S(=O)(=O)[O-])ccc6F)c6ccc3[nH]6)C=C5)C=C4)cc2)CCC1
REMARK SMILES IDX 18 1 17 2 15 3 16 4 14 5 13 6 86 7 88 8 87 9 12 10 10 11
REMARK SMILES IDX 11 12 9 14 1 15 2 16 3 17 4 18 5 19 8 20 6 21 7 23 19 24
REMARK SMILES IDX 20 25 21 26 22 27 23 28 24 29 85 30 25 31 84 32 26 33 27 34
REMARK SMILES IDX 28 35 78 36 29 37 83 38 77 39 79 40 30 41 82 42 76 43 75 44
REMARK SMILES IDX 31 46 63 47 43 48 62 49 44 50 47 51 61 52 80 53 45 54 46 55
REMARK SMILES IDX 60 57 81 58 48 59 32 60 33 61 41 62 34 63 40 64 42 65 39 66
REMARK SMILES IDX 35 67 36 68 37 69 38 70 64 71 65 72 73 73 66 74 72 75 74 76
REMARK SMILES IDX 71 77 67 78 68 79 69 80 70 81 49 82 50 83 58 84 51 85 57 86
REMARK SMILES IDX 59 87 56 88 52 89 53 90 54 91 55 92
REMARK H PARENT 12 13 5 22 79 45 47 56
REMARK Flexibility Score: inf
ROOT
ATOM      1  C   UNL     1      -0.992  -2.610   2.639  1.00  0.00     0.274 C 
ENDROOT
BRANCH   1   2
ATOM      2  O   UNL     1       0.201  -1.913   3.093  1.00  0.00    -0.462 OA
BRANCH   2   3
ATOM      3  C   UNL     1       1.479  -2.321   2.832  1.00  0.00     0.308 C 
ATOM      4  O   UNL     1       1.770  -3.397   2.306  1.00  0.00    -0.252 OA
BRANCH   3   5
ATOM      5  C   UNL     1       2.527  -1.250   3.227  1.00  0.00     0.151 C 
BRANCH   5   6
ATOM      6  C   UNL     1       1.856   0.009   3.744  1.00  0.00     0.052 C 
ATOM      7  C   UNL     1       2.453   1.186   4.650  1.00  0.00     0.029 C 
ATOM      8  C   UNL     1       1.131  -0.391   5.092  1.00  0.00     0.029 C 
ATOM      9  C   UNL     1       2.299   0.275   5.860  1.00  0.00     0.005 C 
BRANCH   6  10
ATOM     10  N   UNL     1       1.181   0.719   2.587  1.00  0.00    -0.332 N 
ATOM     11  C   UNL     1       0.184   0.345   1.770  1.00  0.00     0.318 C 
ATOM     12  O   UNL     1      -0.858   0.811   2.225  1.00  0.00    -0.249 OA
ATOM     13  H   UNL     1       1.539   1.617   2.401  1.00  0.00     0.165 HD
BRANCH  11  14
ATOM     14  N   UNL     1       0.326  -0.303   0.556  1.00  0.00    -0.304 N 
ATOM     15  C   UNL     1       2.008  -0.129  -1.261  1.00  0.00     0.042 C 
ATOM     16  C   UNL     1       1.519  -0.918  -0.047  1.00  0.00     0.174 C 
ATOM     17  C   UNL     1       1.220  -2.366  -0.541  1.00  0.00     0.249 C 
ATOM     18  O   UNL     1       2.109  -3.170  -0.821  1.00  0.00    -0.272 OA
ATOM     19  N   UNL     1      -0.077  -2.659  -0.891  1.00  0.00    -0.293 N 
ATOM     20  C   UNL     1      -0.818  -0.392  -0.379  1.00  0.00     0.222 C 
ATOM     21  C   UNL     1      -1.116  -1.776  -0.922  1.00  0.00     0.246 C 
ATOM     22  H   UNL     1      -0.273  -3.591  -1.143  1.00  0.00     0.173 HD
ATOM     23  O   UNL     1      -2.173  -2.066  -1.480  1.00  0.00    -0.273 OA
ENDBRANCH  11  14
ENDBRANCH   6  10
ENDBRANCH   5   6
ENDBRANCH   3   5
ENDBRANCH   2   3
ENDBRANCH   1   2
BRANCH   1  24
ATOM     24  C   UNL     1      -2.302  -1.755   2.879  1.00  0.00     0.275 C 
BRANCH  24  25
ATOM     25  O   UNL     1      -2.634  -0.768   1.837  1.00  0.00    -0.458 OA
BRANCH  25  26
ATOM     26  C   UNL     1      -3.678   0.110   2.066  1.00  0.00     0.338 C 
ATOM     27  O   UNL     1      -4.536  -0.115   2.913  1.00  0.00    -0.246 OA
BRANCH  26  28
ATOM     28  C   UNL     1      -3.746   1.405   1.210  1.00  0.00     0.060 A 
ATOM     29  C   UNL     1      -2.644   2.058   0.651  1.00  0.00     0.016 A 
ATOM     30  C   UNL     1      -4.950   2.111   1.068  1.00  0.00     0.016 A 
ATOM     31  C   UNL     1      -2.669   3.315   0.058  1.00  0.00     0.010 A 
ATOM     32  C   UNL     1      -5.011   3.371   0.388  1.00  0.00     0.010 A 
ATOM     33  C   UNL     1      -3.855   3.989  -0.128  1.00  0.00    -0.014 A 
BRANCH  33  34
ATOM     34  C   UNL     1      -3.749   5.359  -0.718  1.00  0.00     0.031 A 
ATOM     35  C   UNL     1      -4.082   6.547   0.138  1.00  0.00     0.074 A 
ATOM     36  C   UNL     1      -3.114   5.584  -1.894  1.00  0.00     0.049 A 
ATOM     37  N   UNL     1      -4.239   7.799  -0.200  1.00  0.00    -0.248 NA
ATOM     38  C   UNL     1      -4.225   6.285   1.577  1.00  0.00     0.031 C 
ATOM     39  C   UNL     1      -2.471   4.558  -2.724  1.00  0.00     0.029 A 
ATOM     40  N   UNL     1      -2.846   6.752  -2.572  1.00  0.00    -0.354 N 
ATOM     41  C   UNL     1      -4.582   8.464   0.971  1.00  0.00     0.074 A 
ATOM     42  C   UNL     1      -4.566   7.481   2.034  1.00  0.00     0.031 C 
ATOM     43  C   UNL     1      -1.846   5.146  -3.757  1.00  0.00     0.029 A 
ATOM     44  C   UNL     1      -2.175   6.565  -3.762  1.00  0.00     0.049 A 
ATOM     45  H   UNL     1      -3.110   7.640  -2.238  1.00  0.00     0.167 HD
ATOM     46  C   UNL     1      -4.912   9.771   1.124  1.00  0.00     0.034 A 
ATOM     47  C   UNL     1      -1.937   7.412  -4.788  1.00  0.00     0.034 A 
ATOM     48  C   UNL     1      -4.877  10.726   0.043  1.00  0.00     0.049 A 
ATOM     49  C   UNL     1      -2.498   8.807  -4.685  1.00  0.00     0.074 A 
ATOM     50  C   UNL     1      -5.283  12.048   0.032  1.00  0.00     0.029 A 
ATOM     51  N   UNL     1      -4.389  10.453  -1.231  1.00  0.00    -0.354 N 
ATOM     52  N   UNL     1      -3.064   9.392  -3.654  1.00  0.00    -0.248 NA
ATOM     53  C   UNL     1      -2.447   9.634  -5.896  1.00  0.00     0.031 C 
ATOM     54  C   UNL     1      -5.101  12.552  -1.264  1.00  0.00     0.029 A 
ATOM     55  C   UNL     1      -4.518  11.566  -2.045  1.00  0.00     0.049 A 
ATOM     56  H   UNL     1      -4.006   9.591  -1.513  1.00  0.00     0.167 HD
ATOM     57  C   UNL     1      -3.452  10.652  -4.098  1.00  0.00     0.074 A 
ATOM     58  C   UNL     1      -3.023  10.753  -5.480  1.00  0.00     0.031 C 
ATOM     59  C   UNL     1      -4.112  11.632  -3.430  1.00  0.00     0.034 A 
BRANCH  46  60
ATOM     60  C   UNL     1      -5.486  10.169   2.461  1.00  0.00     0.023 A 
ATOM     61  C   UNL     1      -4.734  10.151   3.648  1.00  0.00     0.031 A 
ATOM     62  C   UNL     1      -6.860  10.461   2.556  1.00  0.00     0.131 A 
ATOM     63  C   UNL     1      -5.380  10.329   4.884  1.00  0.00     0.055 A 
ATOM     64  C   UNL     1      -7.479  10.717   3.779  1.00  0.00     0.041 A 
ATOM     65  F   UNL     1      -7.635  10.463   1.459  1.00  0.00    -0.206 F 
ATOM     66  C   UNL     1      -6.742  10.632   4.955  1.00  0.00     0.022 A 
BRANCH  63  67
ATOM     67  S   UNL     1      -4.449   9.984   6.404  1.00  0.00     0.124 S 
ATOM     68  O   UNL     1      -4.029   8.597   6.184  1.00  0.00    -0.237 OA
ATOM     69  O   UNL     1      -3.403  10.983   6.372  1.00  0.00    -0.237 OA
ATOM     70  O   UNL     1      -5.452  10.153   7.463  1.00  0.00    -0.744 OA
ENDBRANCH  63  67
ENDBRANCH  46  60
BRANCH  47  71
ATOM     71  C   UNL     1      -1.321   6.926  -6.064  1.00  0.00     0.023 A 
ATOM     72  C   UNL     1      -0.147   7.492  -6.590  1.00  0.00     0.031 A 
ATOM     73  C   UNL     1      -1.950   5.915  -6.819  1.00  0.00     0.131 A 
ATOM     74  C   UNL     1       0.349   7.052  -7.832  1.00  0.00     0.055 A 
ATOM     75  C   UNL     1      -1.424   5.444  -8.023  1.00  0.00     0.041 A 
ATOM     76  F   UNL     1      -3.092   5.355  -6.389  1.00  0.00    -0.206 F 
ATOM     77  C   UNL     1      -0.271   6.019  -8.540  1.00  0.00     0.022 A 
BRANCH  74  78
ATOM     78  S   UNL     1       1.789   7.890  -8.554  1.00  0.00     0.124 S 
ATOM     79  O   UNL     1       1.294   9.253  -8.708  1.00  0.00    -0.237 OA
ATOM     80  O   UNL     1       2.806   7.686  -7.528  1.00  0.00    -0.237 OA
ATOM     81  O   UNL     1       2.016   7.163  -9.803  1.00  0.00    -0.744 OA
ENDBRANCH  74  78
ENDBRANCH  47  71
BRANCH  59  82
ATOM     82  C   UNL     1      -4.393  12.897  -4.196  1.00  0.00     0.023 A 
ATOM     83  C   UNL     1      -5.337  12.927  -5.237  1.00  0.00     0.031 A 
ATOM     84  C   UNL     1      -3.700  14.080  -3.889  1.00  0.00     0.131 A 
ATOM     85  C   UNL     1      -5.529  14.109  -5.967  1.00  0.00     0.055 A 
ATOM     86  C   UNL     1      -3.934  15.266  -4.585  1.00  0.00     0.041 A 
ATOM     87  F   UNL     1      -2.785  14.100  -2.907  1.00  0.00    -0.206 F 
ATOM     88  C   UNL     1      -4.846  15.283  -5.637  1.00  0.00     0.022 A 
BRANCH  85  89
ATOM     89  S   UNL     1      -6.635  14.076  -7.404  1.00  0.00     0.124 S 
ATOM     90  O   UNL     1      -5.976  13.105  -8.271  1.00  0.00    -0.237 OA
ATOM     91  O   UNL     1      -7.902  13.651  -6.817  1.00  0.00    -0.237 OA
ATOM     92  O   UNL     1      -6.611  15.456  -7.887  1.00  0.00    -0.744 OA
ENDBRANCH  85  89
ENDBRANCH  59  82
ENDBRANCH  33  34
ENDBRANCH  26  28
ENDBRANCH  25  26
ENDBRANCH  24  25
ENDBRANCH   1  24
TORSDOF 17
