REMARK SMILES C[C@@H](C(=O)OCCOC(=O)c1ccc(-c2c3nc(c(-c4cc(S(=O)(=O)[O-])ccc4F)c4ccc([nH]4)c(-c4cc(S(=O)(=O)[O-])ccc4F)c4nc(c(-c5cc(S(=O)(=O)[O-])ccc5F)c5ccc2[nH]5)C=C4)C=C3)cc1)c1ccc(-c2ccccc2)cc1
REMARK SMILES IDX 7 1 6 2 5 3 3 4 4 5 2 6 1 7 74 8 75 9 85 10 76 11 84 12
REMARK SMILES IDX 77 13 78 14 79 15 83 16 80 17 82 18 81 19 8 20 9 21 10 22
REMARK SMILES IDX 11 23 12 24 73 25 13 26 72 27 14 28 15 29 16 30 66 31 17 32
REMARK SMILES IDX 71 33 65 34 67 35 18 36 70 37 64 38 63 39 19 41 51 42 31 43
REMARK SMILES IDX 50 44 32 45 35 46 49 47 68 48 33 49 34 50 48 52 69 53 36 54
REMARK SMILES IDX 20 55 21 56 29 57 22 58 28 59 30 60 27 61 23 62 24 63 25 64
REMARK SMILES IDX 26 65 52 66 53 67 61 68 54 69 60 70 62 71 59 72 55 73 56 74
REMARK SMILES IDX 57 75 58 76 37 77 38 78 46 79 39 80 45 81 47 82 44 83 40 84
REMARK SMILES IDX 41 85 42 86 43 87
REMARK H PARENT 67 40 35 51
REMARK Flexibility Score: inf
ROOT
ATOM      1  C   UNL     1       2.282   2.292   3.643  1.00  0.00     0.275 C 
ENDROOT
BRANCH   1   2
ATOM      2  C   UNL     1       2.749   0.856   3.433  1.00  0.00     0.274 C 
BRANCH   2   3
ATOM      3  O   UNL     1       2.283   0.365   2.160  1.00  0.00    -0.462 OA
BRANCH   3   4
ATOM      4  C   UNL     1       1.260  -0.537   2.184  1.00  0.00     0.313 C 
ATOM      5  O   UNL     1       0.781  -0.994   3.216  1.00  0.00    -0.252 OA
BRANCH   4   6
ATOM      6  C   UNL     1       0.828  -0.974   0.777  1.00  0.00     0.126 C 
ATOM      7  C   UNL     1       1.509  -0.179  -0.343  1.00  0.00     0.025 C 
BRANCH   6   8
ATOM      8  C   UNL     1      -0.691  -1.018   0.644  1.00  0.00    -0.034 A 
ATOM      9  C   UNL     1      -1.438   0.042   0.120  1.00  0.00     0.005 A 
ATOM     10  C   UNL     1      -1.394  -2.136   1.113  1.00  0.00     0.005 A 
ATOM     11  C   UNL     1      -2.842  -0.003   0.101  1.00  0.00     0.009 A 
ATOM     12  C   UNL     1      -2.797  -2.177   1.088  1.00  0.00     0.009 A 
ATOM     13  C   UNL     1      -3.562  -1.099   0.611  1.00  0.00    -0.018 A 
BRANCH  13  14
ATOM     14  C   UNL     1      -5.048  -1.077   0.719  1.00  0.00    -0.018 A 
ATOM     15  C   UNL     1      -5.848  -0.304  -0.144  1.00  0.00     0.009 A 
ATOM     16  C   UNL     1      -5.722  -1.782   1.738  1.00  0.00     0.009 A 
ATOM     17  C   UNL     1      -7.237  -0.218   0.017  1.00  0.00     0.001 A 
ATOM     18  C   UNL     1      -7.112  -1.716   1.888  1.00  0.00     0.001 A 
ATOM     19  C   UNL     1      -7.869  -0.924   1.034  1.00  0.00     0.000 A 
ENDBRANCH  13  14
ENDBRANCH   6   8
ENDBRANCH   4   6
ENDBRANCH   3   4
ENDBRANCH   2   3
ENDBRANCH   1   2
BRANCH   1  20
ATOM     20  O   UNL     1       0.851   2.307   3.776  1.00  0.00    -0.458 OA
BRANCH  20  21
ATOM     21  C   UNL     1       0.174   3.019   2.848  1.00  0.00     0.338 C 
ATOM     22  O   UNL     1       0.649   3.714   1.960  1.00  0.00    -0.246 OA
BRANCH  21  23
ATOM     23  C   UNL     1      -1.273   2.853   3.060  1.00  0.00     0.060 A 
ATOM     24  C   UNL     1      -1.822   1.576   3.154  1.00  0.00     0.016 A 
ATOM     25  C   UNL     1      -2.105   3.974   3.053  1.00  0.00     0.016 A 
ATOM     26  C   UNL     1      -3.208   1.420   3.140  1.00  0.00     0.010 A 
ATOM     27  C   UNL     1      -3.494   3.811   3.127  1.00  0.00     0.010 A 
ATOM     28  C   UNL     1      -4.069   2.528   3.117  1.00  0.00    -0.014 A 
BRANCH  28  29
ATOM     29  C   UNL     1      -5.550   2.340   2.998  1.00  0.00     0.031 A 
ATOM     30  C   UNL     1      -6.310   2.981   1.859  1.00  0.00     0.074 A 
ATOM     31  C   UNL     1      -6.220   1.560   3.871  1.00  0.00     0.049 A 
ATOM     32  N   UNL     1      -7.602   3.092   1.677  1.00  0.00    -0.248 NA
ATOM     33  C   UNL     1      -5.507   3.605   0.796  1.00  0.00     0.031 C 
ATOM     34  C   UNL     1      -5.619   0.818   4.980  1.00  0.00     0.029 A 
ATOM     35  N   UNL     1      -7.551   1.223   3.938  1.00  0.00    -0.354 N 
ATOM     36  C   UNL     1      -7.765   3.865   0.530  1.00  0.00     0.074 A 
ATOM     37  C   UNL     1      -6.437   4.191   0.056  1.00  0.00     0.031 C 
ATOM     38  C   UNL     1      -6.552   0.037   5.545  1.00  0.00     0.029 A 
ATOM     39  C   UNL     1      -7.841   0.302   4.918  1.00  0.00     0.049 A 
ATOM     40  H   UNL     1      -8.233   1.606   3.340  1.00  0.00     0.167 HD
ATOM     41  C   UNL     1      -8.916   4.273  -0.062  1.00  0.00     0.034 A 
ATOM     42  C   UNL     1      -9.013  -0.254   5.286  1.00  0.00     0.034 A 
ATOM     43  C   UNL     1     -10.232   3.865   0.371  1.00  0.00     0.049 A 
ATOM     44  C   UNL     1     -10.277   0.189   4.597  1.00  0.00     0.074 A 
ATOM     45  C   UNL     1     -11.464   4.230  -0.146  1.00  0.00     0.029 A 
ATOM     46  N   UNL     1     -10.487   2.973   1.405  1.00  0.00    -0.354 N 
ATOM     47  N   UNL     1     -10.423   1.024   3.595  1.00  0.00    -0.248 NA
ATOM     48  C   UNL     1     -11.537  -0.363   5.112  1.00  0.00     0.031 C 
ATOM     49  C   UNL     1     -12.463   3.594   0.601  1.00  0.00     0.029 A 
ATOM     50  C   UNL     1     -11.854   2.784   1.546  1.00  0.00     0.049 A 
ATOM     51  H   UNL     1      -9.798   2.539   1.957  1.00  0.00     0.167 HD
ATOM     52  C   UNL     1     -11.794   1.114   3.377  1.00  0.00     0.074 A 
ATOM     53  C   UNL     1     -12.426   0.206   4.311  1.00  0.00     0.031 C 
ATOM     54  C   UNL     1     -12.472   1.895   2.498  1.00  0.00     0.034 A 
BRANCH  41  55
ATOM     55  C   UNL     1      -8.807   5.270  -1.191  1.00  0.00     0.023 A 
ATOM     56  C   UNL     1      -8.233   4.947  -2.432  1.00  0.00     0.031 A 
ATOM     57  C   UNL     1      -9.275   6.585  -1.004  1.00  0.00     0.131 A 
ATOM     58  C   UNL     1      -8.087   5.942  -3.413  1.00  0.00     0.055 A 
ATOM     59  C   UNL     1      -9.193   7.549  -2.010  1.00  0.00     0.041 A 
ATOM     60  F   UNL     1      -9.816   6.957   0.167  1.00  0.00    -0.206 F 
ATOM     61  C   UNL     1      -8.583   7.234  -3.219  1.00  0.00     0.022 A 
BRANCH  58  62
ATOM     62  S   UNL     1      -7.119   5.561  -4.899  1.00  0.00     0.124 S 
ATOM     63  O   UNL     1      -5.836   5.162  -4.323  1.00  0.00    -0.237 OA
ATOM     64  O   UNL     1      -7.899   4.496  -5.518  1.00  0.00    -0.237 OA
ATOM     65  O   UNL     1      -7.098   6.826  -5.630  1.00  0.00    -0.744 OA
ENDBRANCH  58  62
ENDBRANCH  41  55
BRANCH  42  66
ATOM     66  C   UNL     1      -9.062  -1.250   6.396  1.00  0.00     0.023 A 
ATOM     67  C   UNL     1      -9.493  -2.566   6.165  1.00  0.00     0.031 A 
ATOM     68  C   UNL     1      -8.708  -0.894   7.710  1.00  0.00     0.131 A 
ATOM     69  C   UNL     1      -9.582  -3.470   7.235  1.00  0.00     0.055 A 
ATOM     70  C   UNL     1      -8.743  -1.813   8.760  1.00  0.00     0.041 A 
ATOM     71  F   UNL     1      -8.299   0.354   7.990  1.00  0.00    -0.206 F 
ATOM     72  C   UNL     1      -9.192  -3.108   8.527  1.00  0.00     0.022 A 
BRANCH  69  73
ATOM     73  S   UNL     1     -10.288  -5.113   6.929  1.00  0.00     0.124 S 
ATOM     74  O   UNL     1     -11.616  -4.778   6.428  1.00  0.00    -0.237 OA
ATOM     75  O   UNL     1      -9.354  -5.666   5.954  1.00  0.00    -0.237 OA
ATOM     76  O   UNL     1     -10.259  -5.747   8.245  1.00  0.00    -0.744 OA
ENDBRANCH  69  73
ENDBRANCH  42  66
BRANCH  54  77
ATOM     77  C   UNL     1     -13.975   1.788   2.515  1.00  0.00     0.023 A 
ATOM     78  C   UNL     1     -14.729   2.264   3.603  1.00  0.00     0.031 A 
ATOM     79  C   UNL     1     -14.659   1.185   1.446  1.00  0.00     0.131 A 
ATOM     80  C   UNL     1     -16.119   2.083   3.622  1.00  0.00     0.055 A 
ATOM     81  C   UNL     1     -16.049   1.052   1.448  1.00  0.00     0.041 A 
ATOM     82  F   UNL     1     -13.987   0.713   0.385  1.00  0.00    -0.206 F 
ATOM     83  C   UNL     1     -16.785   1.490   2.546  1.00  0.00     0.022 A 
BRANCH  80  84
ATOM     84  S   UNL     1     -17.041   2.559   5.111  1.00  0.00     0.124 S 
ATOM     85  O   UNL     1     -16.405   1.740   6.137  1.00  0.00    -0.237 OA
ATOM     86  O   UNL     1     -16.785   3.994   5.191  1.00  0.00    -0.237 OA
ATOM     87  O   UNL     1     -18.420   2.193   4.792  1.00  0.00    -0.744 OA
ENDBRANCH  80  84
ENDBRANCH  54  77
ENDBRANCH  28  29
ENDBRANCH  21  23
ENDBRANCH  20  21
ENDBRANCH   1  20
TORSDOF 16
