REMARK SMILES Cn1c(=O)c2c(nc(Nc3cccc(Cl)c3Cl)n2CC(=O)OCCOC(=O)c2ccc(-c3c4nc(c(-c5cc(S(=O)(=O)[O-])ccc5F)c5ccc([nH]5)c(-c5cc(S(=O)(=O)[O-])ccc5F)c5nc(c(-c6cc(S(=O)(=O)[O-])ccc6F)c6ccc3[nH]6)C=C5)C=C4)cc2)n(C)c1=O
REMARK SMILES IDX 23 1 22 2 20 3 21 4 19 5 18 6 1 7 2 8 3 9 93 10 4 11 5 12
REMARK SMILES IDX 91 13 94 14 6 15 92 16 7 17 8 18 9 19 10 21 11 22 16 23
REMARK SMILES IDX 12 24 14 25 17 26 13 27 15 28 24 29 25 30 26 31 27 32 28 33
REMARK SMILES IDX 29 34 90 35 30 36 89 37 31 38 32 39 33 40 83 41 34 42 88 43
REMARK SMILES IDX 82 44 84 45 35 46 87 47 81 48 80 49 36 51 68 52 48 53 67 54
REMARK SMILES IDX 49 55 52 56 66 57 85 58 50 59 51 60 65 62 86 63 53 64 37 65
REMARK SMILES IDX 38 66 46 67 39 68 45 69 47 70 44 71 40 72 41 73 42 74 43 75
REMARK SMILES IDX 69 76 70 77 78 78 71 79 77 80 79 81 76 82 72 83 73 84 74 85
REMARK SMILES IDX 75 86 54 87 55 88 63 89 56 90 62 91 64 92 61 93 57 94 58 95
REMARK SMILES IDX 59 96 60 97
REMARK H PARENT 9 20 84 50 52 61
REMARK Flexibility Score: inf
ROOT
ATOM      1  C   UNL     1      -4.802   0.498  -4.160  1.00  0.00     0.274 C 
ENDROOT
BRANCH   1   2
ATOM      2  O   UNL     1      -3.601  -0.210  -4.558  1.00  0.00    -0.461 OA
BRANCH   2   3
ATOM      3  C   UNL     1      -2.737   0.498  -5.330  1.00  0.00     0.326 C 
ATOM      4  O   UNL     1      -3.044   1.561  -5.874  1.00  0.00    -0.250 OA
BRANCH   3   5
ATOM      5  C   UNL     1      -1.329  -0.035  -5.446  1.00  0.00     0.248 C 
BRANCH   5   6
ATOM      6  N   UNL     1      -0.982  -1.338  -4.896  1.00  0.00    -0.293 N 
ATOM      7  C   UNL     1       0.912  -0.389  -0.429  1.00  0.00     0.159 C 
ATOM      8  N   UNL     1       0.567  -1.250  -1.544  1.00  0.00    -0.261 N 
ATOM      9  C   UNL     1       0.369  -0.669  -2.795  1.00  0.00     0.282 A 
ATOM     10  C   UNL     1       0.645  -2.631  -1.336  1.00  0.00     0.332 A 
ATOM     11  O   UNL     1       0.809   0.432  -3.127  1.00  0.00    -0.267 OA
ATOM     12  C   UNL     1      -0.283  -1.538  -3.718  1.00  0.00     0.154 A 
ATOM     13  N   UNL     1       0.308  -3.450  -2.416  1.00  0.00    -0.279 N 
ATOM     14  O   UNL     1       1.013  -3.116  -0.266  1.00  0.00    -0.247 OA
ATOM     15  C   UNL     1      -0.246  -2.884  -3.538  1.00  0.00     0.170 A 
ATOM     16  C   UNL     1       0.549  -4.873  -2.334  1.00  0.00     0.157 C 
ATOM     17  N   UNL     1      -0.736  -3.540  -4.614  1.00  0.00    -0.194 NA
ATOM     18  C   UNL     1      -1.104  -2.600  -5.467  1.00  0.00     0.210 A 
BRANCH  18  19
ATOM     19  N   UNL     1      -1.570  -2.942  -6.685  1.00  0.00    -0.324 N 
ATOM     20  H   UNL     1      -1.744  -3.908  -6.770  1.00  0.00     0.170 HD
BRANCH  19  21
ATOM     21  C   UNL     1      -1.861  -2.230  -7.858  1.00  0.00     0.061 A 
ATOM     22  C   UNL     1      -3.134  -2.464  -8.410  1.00  0.00     0.028 A 
ATOM     23  C   UNL     1      -0.974  -1.382  -8.552  1.00  0.00     0.083 A 
ATOM     24  C   UNL     1      -3.564  -1.798  -9.553  1.00  0.00     0.004 A 
ATOM     25  C   UNL     1      -1.434  -0.663  -9.669  1.00  0.00     0.061 A 
ATOM     26  Cl  UNL     1       0.695  -1.275  -8.071  1.00  0.00    -0.080 Cl
ATOM     27  C   UNL     1      -2.727  -0.870 -10.161  1.00  0.00     0.022 A 
ATOM     28  Cl  UNL     1      -0.462   0.512 -10.488  1.00  0.00    -0.083 Cl
ENDBRANCH  19  21
ENDBRANCH  18  19
ENDBRANCH   5   6
ENDBRANCH   3   5
ENDBRANCH   2   3
ENDBRANCH   1   2
BRANCH   1  29
ATOM     29  C   UNL     1      -4.685   1.113  -2.761  1.00  0.00     0.275 C 
BRANCH  29  30
ATOM     30  O   UNL     1      -3.803   2.242  -2.697  1.00  0.00    -0.458 OA
BRANCH  30  31
ATOM     31  C   UNL     1      -2.518   1.863  -2.517  1.00  0.00     0.338 C 
ATOM     32  O   UNL     1      -2.062   0.755  -2.711  1.00  0.00    -0.246 OA
BRANCH  31  33
ATOM     33  C   UNL     1      -1.749   2.843  -1.761  1.00  0.00     0.060 A 
ATOM     34  C   UNL     1      -0.374   2.859  -1.983  1.00  0.00     0.016 A 
ATOM     35  C   UNL     1      -2.313   3.271  -0.558  1.00  0.00     0.016 A 
ATOM     36  C   UNL     1       0.457   3.074  -0.904  1.00  0.00     0.010 A 
ATOM     37  C   UNL     1      -1.478   3.535   0.506  1.00  0.00     0.010 A 
ATOM     38  C   UNL     1      -0.104   3.344   0.355  1.00  0.00    -0.014 A 
BRANCH  38  39
ATOM     39  C   UNL     1       0.802   3.724   1.436  1.00  0.00     0.031 A 
ATOM     40  C   UNL     1       1.637   4.876   1.000  1.00  0.00     0.074 A 
ATOM     41  C   UNL     1       0.741   3.216   2.687  1.00  0.00     0.049 A 
ATOM     42  N   UNL     1       2.921   4.919   0.870  1.00  0.00    -0.248 NA
ATOM     43  C   UNL     1       0.942   6.024   0.371  1.00  0.00     0.031 C 
ATOM     44  C   UNL     1      -0.194   2.203   3.187  1.00  0.00     0.029 A 
ATOM     45  N   UNL     1       1.411   3.571   3.824  1.00  0.00    -0.354 N 
ATOM     46  C   UNL     1       3.189   6.212   0.434  1.00  0.00     0.074 A 
ATOM     47  C   UNL     1       1.965   6.733  -0.103  1.00  0.00     0.031 C 
ATOM     48  C   UNL     1      -0.213   2.231   4.539  1.00  0.00     0.029 A 
ATOM     49  C   UNL     1       0.779   3.181   5.012  1.00  0.00     0.049 A 
ATOM     50  H   UNL     1       2.266   4.060   3.809  1.00  0.00     0.167 HD
ATOM     51  C   UNL     1       4.266   6.878   0.923  1.00  0.00     0.034 A 
ATOM     52  C   UNL     1       1.011   3.658   6.271  1.00  0.00     0.034 A 
ATOM     53  C   UNL     1       5.259   5.959   1.422  1.00  0.00     0.049 A 
ATOM     54  C   UNL     1       2.370   4.246   6.236  1.00  0.00     0.074 A 
ATOM     55  C   UNL     1       6.018   4.941   0.882  1.00  0.00     0.029 A 
ATOM     56  N   UNL     1       5.259   5.770   2.780  1.00  0.00    -0.354 N 
ATOM     57  N   UNL     1       3.452   3.550   6.021  1.00  0.00    -0.248 NA
ATOM     58  C   UNL     1       2.486   5.674   5.993  1.00  0.00     0.031 C 
ATOM     59  C   UNL     1       6.133   3.965   1.915  1.00  0.00     0.029 A 
ATOM     60  C   UNL     1       5.513   4.456   3.067  1.00  0.00     0.049 A 
ATOM     61  H   UNL     1       5.100   6.474   3.450  1.00  0.00     0.167 HD
ATOM     62  C   UNL     1       4.231   4.356   5.207  1.00  0.00     0.074 A 
ATOM     63  C   UNL     1       3.644   5.690   5.328  1.00  0.00     0.031 C 
ATOM     64  C   UNL     1       5.078   3.803   4.290  1.00  0.00     0.034 A 
BRANCH  51  65
ATOM     65  C   UNL     1       4.166   8.308   1.413  1.00  0.00     0.023 A 
ATOM     66  C   UNL     1       5.353   8.960   1.783  1.00  0.00     0.031 A 
ATOM     67  C   UNL     1       2.962   8.945   1.812  1.00  0.00     0.131 A 
ATOM     68  C   UNL     1       5.312  10.149   2.534  1.00  0.00     0.055 A 
ATOM     69  C   UNL     1       2.927  10.156   2.502  1.00  0.00     0.041 A 
ATOM     70  F   UNL     1       1.756   8.389   1.654  1.00  0.00    -0.206 F 
ATOM     71  C   UNL     1       4.109  10.757   2.887  1.00  0.00     0.022 A 
BRANCH  68  72
ATOM     72  S   UNL     1       6.867  10.841   3.148  1.00  0.00     0.124 S 
ATOM     73  O   UNL     1       7.350   9.766   4.008  1.00  0.00    -0.237 OA
ATOM     74  O   UNL     1       7.608  11.060   1.910  1.00  0.00    -0.237 OA
ATOM     75  O   UNL     1       6.446  12.056   3.842  1.00  0.00    -0.744 OA
ENDBRANCH  68  72
ENDBRANCH  51  65
BRANCH  52  76
ATOM     76  C   UNL     1       0.025   3.982   7.362  1.00  0.00     0.023 A 
ATOM     77  C   UNL     1       0.433   4.428   8.649  1.00  0.00     0.031 A 
ATOM     78  C   UNL     1      -1.349   4.126   7.072  1.00  0.00     0.131 A 
ATOM     79  C   UNL     1      -0.501   5.003   9.550  1.00  0.00     0.055 A 
ATOM     80  C   UNL     1      -2.265   4.694   7.965  1.00  0.00     0.041 A 
ATOM     81  F   UNL     1      -1.850   3.804   5.872  1.00  0.00    -0.206 F 
ATOM     82  C   UNL     1      -1.843   5.150   9.201  1.00  0.00     0.022 A 
BRANCH  79  83
ATOM     83  S   UNL     1       0.028   5.695  11.158  1.00  0.00     0.124 S 
ATOM     84  O   UNL     1       0.162   4.496  11.978  1.00  0.00    -0.237 OA
ATOM     85  O   UNL     1       1.263   6.390  10.818  1.00  0.00    -0.237 OA
ATOM     86  O   UNL     1      -1.083   6.572  11.531  1.00  0.00    -0.744 OA
ENDBRANCH  79  83
ENDBRANCH  52  76
BRANCH  64  87
ATOM     87  C   UNL     1       5.506   2.363   4.482  1.00  0.00     0.023 A 
ATOM     88  C   UNL     1       4.671   1.226   4.409  1.00  0.00     0.031 A 
ATOM     89  C   UNL     1       6.889   2.152   4.629  1.00  0.00     0.131 A 
ATOM     90  C   UNL     1       5.242  -0.065   4.478  1.00  0.00     0.055 A 
ATOM     91  C   UNL     1       7.449   0.879   4.671  1.00  0.00     0.041 A 
ATOM     92  F   UNL     1       7.731   3.198   4.687  1.00  0.00    -0.206 F 
ATOM     93  C   UNL     1       6.626  -0.236   4.596  1.00  0.00     0.022 A 
BRANCH  90  94
ATOM     94  S   UNL     1       4.196  -1.555   4.381  1.00  0.00     0.124 S 
ATOM     95  O   UNL     1       3.278  -1.390   5.502  1.00  0.00    -0.237 OA
ATOM     96  O   UNL     1       3.611  -1.441   3.048  1.00  0.00    -0.237 OA
ATOM     97  O   UNL     1       5.150  -2.655   4.534  1.00  0.00    -0.744 OA
ENDBRANCH  90  94
ENDBRANCH  64  87
ENDBRANCH  38  39
ENDBRANCH  31  33
ENDBRANCH  30  31
ENDBRANCH  29  30
ENDBRANCH   1  29
TORSDOF 17
