REMARK SMILES COc1ccc(C(=O)SC[C@H]([NH3+])C(=O)OCCOC(=O)c2ccc(-c3c4nc(c(-c5cc(S(=O)(=O)[O-])ccc5F)c5ccc([nH]5)c(-c5cc(S(=O)(=O)[O-])ccc5F)c5nc(c(-c6cc(S(=O)(=O)[O-])ccc6F)c6ccc3[nH]6)C=C5)C=C4)cc2)cc1
REMARK SMILES IDX 16 1 15 2 13 3 14 4 11 5 10 6 9 7 7 8 8 9 6 10 3 11 4 12
REMARK SMILES IDX 85 13 5 14 84 15 2 16 1 17 12 18 17 22 18 23 19 24 20 25
REMARK SMILES IDX 21 26 22 27 83 28 23 29 82 30 24 31 25 32 26 33 76 34 27 35
REMARK SMILES IDX 81 36 75 37 77 38 28 39 80 40 74 41 73 42 29 44 61 45 41 46
REMARK SMILES IDX 60 47 42 48 45 49 59 50 78 51 43 52 44 53 58 55 79 56 46 57
REMARK SMILES IDX 30 58 31 59 39 60 32 61 38 62 40 63 37 64 33 65 34 66 35 67
REMARK SMILES IDX 36 68 62 69 63 70 71 71 64 72 70 73 72 74 69 75 65 76 66 77
REMARK SMILES IDX 67 78 68 79 47 80 48 81 56 82 49 83 55 84 57 85 54 86 50 87
REMARK SMILES IDX 51 88 52 89 53 90
REMARK H PARENT 12 19 12 20 12 21 77 43 45 54
REMARK Flexibility Score: inf
ROOT
ATOM      1  C   UNL     1       3.274  -9.447   8.723  1.00  0.00     0.274 C 
ENDROOT
BRANCH   1   2
ATOM      2  O   UNL     1       3.057  -8.477   7.686  1.00  0.00    -0.458 OA
BRANCH   2   3
ATOM      3  C   UNL     1       2.974  -7.172   8.060  1.00  0.00     0.365 C 
ATOM      4  O   UNL     1       2.910  -6.784   9.222  1.00  0.00    -0.245 OA
BRANCH   3   5
ATOM      5  C   UNL     1       3.001  -6.209   6.862  1.00  0.00     0.302 C 
BRANCH   5   6
ATOM      6  C   UNL     1       1.621  -5.566   6.661  1.00  0.00     0.155 C 
BRANCH   6   7
ATOM      7  S   UNL     1       0.360  -6.658   5.923  1.00  0.00    -0.076 SA
BRANCH   7   8
ATOM      8  C   UNL     1       0.965  -6.706   4.266  1.00  0.00     0.219 C 
ATOM      9  O   UNL     1       1.476  -5.715   3.755  1.00  0.00    -0.282 OA
BRANCH   8  10
ATOM     10  C   UNL     1       0.756  -7.954   3.471  1.00  0.00     0.029 A 
ATOM     11  C   UNL     1       0.244 -10.146   1.787  1.00  0.00     0.118 A 
ATOM     12  C   UNL     1       1.063  -9.107   1.350  1.00  0.00     0.047 A 
ATOM     13  C   UNL     1      -0.254 -10.134   3.089  1.00  0.00     0.047 A 
ATOM     14  C   UNL     1       1.310  -8.011   2.182  1.00  0.00     0.016 A 
ATOM     15  C   UNL     1      -0.001  -9.042   3.927  1.00  0.00     0.016 A 
BRANCH  11  16
ATOM     16  O   UNL     1       0.001 -11.149   0.889  1.00  0.00    -0.497 OA
ATOM     17  C   UNL     1      -1.348 -11.612   0.906  1.00  0.00     0.278 C 
ENDBRANCH  11  16
ENDBRANCH   8  10
ENDBRANCH   7   8
ENDBRANCH   6   7
ENDBRANCH   5   6
BRANCH   5  18
ATOM     18  N   UNL     1       3.573  -6.831   5.647  1.00  0.00    -0.345 N 
ATOM     19  H   UNL     1       2.989  -7.615   5.359  1.00  0.00     0.345 HD
ATOM     20  H   UNL     1       4.516  -7.165   5.848  1.00  0.00     0.345 HD
ATOM     21  H   UNL     1       3.610  -6.141   4.897  1.00  0.00     0.345 HD
ENDBRANCH   5  18
ENDBRANCH   3   5
ENDBRANCH   2   3
ENDBRANCH   1   2
BRANCH   1  22
ATOM     22  C   UNL     1       4.691 -10.018   8.626  1.00  0.00     0.275 C 
BRANCH  22  23
ATOM     23  O   UNL     1       5.687  -9.047   9.005  1.00  0.00    -0.458 OA
BRANCH  23  24
ATOM     24  C   UNL     1       6.148  -8.273   7.994  1.00  0.00     0.338 C 
ATOM     25  O   UNL     1       5.829  -8.326   6.818  1.00  0.00    -0.246 OA
BRANCH  24  26
ATOM     26  C   UNL     1       7.009  -7.205   8.526  1.00  0.00     0.060 A 
ATOM     27  C   UNL     1       6.647  -5.886   8.242  1.00  0.00     0.016 A 
ATOM     28  C   UNL     1       8.197  -7.486   9.202  1.00  0.00     0.016 A 
ATOM     29  C   UNL     1       7.474  -4.835   8.620  1.00  0.00     0.010 A 
ATOM     30  C   UNL     1       9.031  -6.428   9.581  1.00  0.00     0.010 A 
ATOM     31  C   UNL     1       8.680  -5.099   9.280  1.00  0.00    -0.014 A 
BRANCH  31  32
ATOM     32  C   UNL     1       9.603  -3.978   9.575  1.00  0.00     0.031 A 
ATOM     33  C   UNL     1      10.825  -3.784   8.723  1.00  0.00     0.074 A 
ATOM     34  C   UNL     1       9.317  -3.116  10.568  1.00  0.00     0.049 A 
ATOM     35  N   UNL     1      11.799  -2.923   8.855  1.00  0.00    -0.248 NA
ATOM     36  C   UNL     1      10.965  -4.683   7.568  1.00  0.00     0.031 C 
ATOM     37  C   UNL     1       8.122  -3.170  11.411  1.00  0.00     0.029 A 
ATOM     38  N   UNL     1      10.008  -2.028  11.034  1.00  0.00    -0.354 N 
ATOM     39  C   UNL     1      12.679  -3.183   7.810  1.00  0.00     0.074 A 
ATOM     40  C   UNL     1      12.131  -4.299   7.068  1.00  0.00     0.031 C 
ATOM     41  C   UNL     1       8.166  -2.159  12.295  1.00  0.00     0.029 A 
ATOM     42  C   UNL     1       9.413  -1.421  12.116  1.00  0.00     0.049 A 
ATOM     43  H   UNL     1      10.850  -1.711  10.634  1.00  0.00     0.167 HD
ATOM     44  C   UNL     1      13.835  -2.545   7.501  1.00  0.00     0.034 A 
ATOM     45  C   UNL     1       9.844  -0.408  12.893  1.00  0.00     0.034 A 
ATOM     46  C   UNL     1      14.365  -1.436   8.257  1.00  0.00     0.049 A 
ATOM     47  C   UNL     1      11.173   0.233  12.577  1.00  0.00     0.074 A 
ATOM     48  C   UNL     1      15.536  -0.727   8.047  1.00  0.00     0.029 A 
ATOM     49  N   UNL     1      13.757  -0.873   9.372  1.00  0.00    -0.354 N 
ATOM     50  N   UNL     1      12.017  -0.049  11.611  1.00  0.00    -0.248 NA
ATOM     51  C   UNL     1      11.606   1.327  13.456  1.00  0.00     0.031 C 
ATOM     52  C   UNL     1      15.662   0.225   9.066  1.00  0.00     0.029 A 
ATOM     53  C   UNL     1      14.537   0.157   9.873  1.00  0.00     0.049 A 
ATOM     54  H   UNL     1      12.896  -1.164   9.752  1.00  0.00     0.167 HD
ATOM     55  C   UNL     1      13.068   0.853  11.752  1.00  0.00     0.074 A 
ATOM     56  C   UNL     1      12.744   1.694  12.886  1.00  0.00     0.031 C 
ATOM     57  C   UNL     1      14.198   0.979  11.011  1.00  0.00     0.034 A 
BRANCH  44  58
ATOM     58  C   UNL     1      14.628  -3.080   6.334  1.00  0.00     0.023 A 
ATOM     59  C   UNL     1      14.145  -3.013   5.016  1.00  0.00     0.031 A 
ATOM     60  C   UNL     1      15.873  -3.697   6.550  1.00  0.00     0.131 A 
ATOM     61  C   UNL     1      14.871  -3.610   3.974  1.00  0.00     0.055 A 
ATOM     62  C   UNL     1      16.625  -4.225   5.500  1.00  0.00     0.041 A 
ATOM     63  F   UNL     1      16.373  -3.810   7.791  1.00  0.00    -0.206 F 
ATOM     64  C   UNL     1      16.119  -4.195   4.204  1.00  0.00     0.022 A 
BRANCH  61  65
ATOM     65  S   UNL     1      14.105  -3.726   2.334  1.00  0.00     0.124 S 
ATOM     66  O   UNL     1      12.910  -4.515   2.622  1.00  0.00    -0.237 OA
ATOM     67  O   UNL     1      13.880  -2.327   1.991  1.00  0.00    -0.237 OA
ATOM     68  O   UNL     1      15.116  -4.410   1.530  1.00  0.00    -0.744 OA
ENDBRANCH  61  65
ENDBRANCH  44  58
BRANCH  45  69
ATOM     69  C   UNL     1       9.050   0.031  14.075  1.00  0.00     0.023 A 
ATOM     70  C   UNL     1       8.517   1.327  14.154  1.00  0.00     0.031 A 
ATOM     71  C   UNL     1       8.860  -0.829  15.173  1.00  0.00     0.131 A 
ATOM     72  C   UNL     1       7.861   1.742  15.323  1.00  0.00     0.055 A 
ATOM     73  C   UNL     1       8.161  -0.428  16.312  1.00  0.00     0.041 A 
ATOM     74  F   UNL     1       9.351  -2.078  15.150  1.00  0.00    -0.206 F 
ATOM     75  C   UNL     1       7.668   0.870  16.397  1.00  0.00     0.022 A 
BRANCH  72  76
ATOM     76  S   UNL     1       7.340   3.475  15.458  1.00  0.00     0.124 S 
ATOM     77  O   UNL     1       8.598   4.181  15.246  1.00  0.00    -0.237 OA
ATOM     78  O   UNL     1       6.356   3.579  14.385  1.00  0.00    -0.237 OA
ATOM     79  O   UNL     1       6.795   3.562  16.811  1.00  0.00    -0.744 OA
ENDBRANCH  72  76
ENDBRANCH  45  69
BRANCH  57  80
ATOM     80  C   UNL     1      15.133   2.103  11.382  1.00  0.00     0.023 A 
ATOM     81  C   UNL     1      15.868   2.087  12.579  1.00  0.00     0.031 A 
ATOM     82  C   UNL     1      15.272   3.212  10.530  1.00  0.00     0.131 A 
ATOM     83  C   UNL     1      16.671   3.187  12.918  1.00  0.00     0.055 A 
ATOM     84  C   UNL     1      16.113   4.279  10.848  1.00  0.00     0.041 A 
ATOM     85  F   UNL     1      14.591   3.276   9.375  1.00  0.00    -0.206 F 
ATOM     86  C   UNL     1      16.808   4.276  12.054  1.00  0.00     0.022 A 
BRANCH  83  87
ATOM     87  S   UNL     1      17.471   3.213  14.546  1.00  0.00     0.124 S 
ATOM     88  O   UNL     1      16.328   3.120  15.449  1.00  0.00    -0.237 OA
ATOM     89  O   UNL     1      18.335   2.039  14.488  1.00  0.00    -0.237 OA
ATOM     90  O   UNL     1      18.172   4.496  14.563  1.00  0.00    -0.744 OA
ENDBRANCH  83  87
ENDBRANCH  57  80
ENDBRANCH  31  32
ENDBRANCH  24  26
ENDBRANCH  23  24
ENDBRANCH  22  23
ENDBRANCH   1  22
TORSDOF 20
