REMARK SMILES CCCCn1cc(C(N)=O)c2cc(C(=O)OCCOC(=O)c3ccc(-c4c5nc(c(-c6cc(S(=O)(=O)[O-])ccc6F)c6ccc([nH]6)c(-c6cc(S(=O)(=O)[O-])ccc6F)c6nc(c(-c7cc(S(=O)(=O)[O-])ccc7F)c7ccc4[nH]7)C=C6)C=C5)cc3)cnc21
REMARK SMILES IDX 17 1 16 2 14 3 15 4 13 5 5 6 6 7 87 8 7 9 11 10 86 11 12 12
REMARK SMILES IDX 85 13 4 14 3 15 2 16 1 17 8 18 9 19 10 20 18 23 19 24 20 25
REMARK SMILES IDX 21 26 22 27 23 28 84 29 24 30 83 31 25 32 26 33 27 34 77 35
REMARK SMILES IDX 28 36 82 37 76 38 78 39 29 40 81 41 75 42 74 43 30 45 62 46
REMARK SMILES IDX 42 47 61 48 43 49 46 50 60 51 79 52 44 53 45 54 59 56 80 57
REMARK SMILES IDX 47 58 31 59 32 60 40 61 33 62 39 63 41 64 38 65 34 66 35 67
REMARK SMILES IDX 36 68 37 69 63 70 64 71 72 72 65 73 71 74 73 75 70 76 66 77
REMARK SMILES IDX 67 78 68 79 69 80 48 81 49 82 57 83 50 84 56 85 58 86 55 87
REMARK SMILES IDX 51 88 52 89 53 90 54 91
REMARK H PARENT 9 21 9 22 78 44 46 55
REMARK Flexibility Score: inf
ROOT
ATOM      1  C   UNL     1      -5.584   2.901   8.584  1.00  0.00     0.275 C 
ENDROOT
BRANCH   1   2
ATOM      2  O   UNL     1      -4.513   2.499   7.706  1.00  0.00    -0.458 OA
BRANCH   2   3
ATOM      3  C   UNL     1      -4.868   1.622   6.725  1.00  0.00     0.339 C 
ATOM      4  O   UNL     1      -5.918   1.025   6.650  1.00  0.00    -0.246 OA
BRANCH   3   5
ATOM      5  C   UNL     1      -3.839   1.558   5.657  1.00  0.00     0.079 A 
ATOM      6  N   UNL     1      -1.171   1.210   2.613  1.00  0.00    -0.332 N 
ATOM      7  C   UNL     1      -1.964   0.952   1.530  1.00  0.00     0.102 A 
ATOM      8  C   UNL     1      -1.963   1.423   3.714  1.00  0.00     0.140 A 
ATOM      9  C   UNL     1      -3.273   0.793   1.954  1.00  0.00     0.066 A 
ATOM     10  C   UNL     1      -3.275   1.098   3.355  1.00  0.00     0.033 A 
ATOM     11  N   UNL     1      -1.528   1.837   4.925  1.00  0.00    -0.237 NA
ATOM     12  C   UNL     1      -4.234   1.119   4.387  1.00  0.00     0.030 A 
ATOM     13  C   UNL     1      -2.520   1.936   5.849  1.00  0.00     0.129 A 
BRANCH   6  14
ATOM     14  C   UNL     1       0.281   1.236   2.585  1.00  0.00     0.123 C 
BRANCH  14  15
ATOM     15  C   UNL     1       0.927  -0.153   2.434  1.00  0.00     0.022 C 
BRANCH  15  16
ATOM     16  C   UNL     1       0.702  -0.880   1.101  1.00  0.00    -0.002 C 
ATOM     17  C   UNL     1       1.182  -0.110  -0.120  1.00  0.00     0.004 C 
ENDBRANCH  15  16
ENDBRANCH  14  15
ENDBRANCH   6  14
BRANCH   9  18
ATOM     18  C   UNL     1      -4.332   0.379   1.046  1.00  0.00     0.250 C 
ATOM     19  N   UNL     1      -5.603   0.726   1.388  1.00  0.00    -0.366 N 
ATOM     20  O   UNL     1      -4.115  -0.237   0.006  1.00  0.00    -0.269 OA
ATOM     21  H   UNL     1      -5.770   1.220   2.223  1.00  0.00     0.159 HD
ATOM     22  H   UNL     1      -6.355   0.483   0.801  1.00  0.00     0.159 HD
ENDBRANCH   9  18
ENDBRANCH   3   5
ENDBRANCH   2   3
ENDBRANCH   1   2
BRANCH   1  23
ATOM     23  C   UNL     1      -6.287   4.166   8.095  1.00  0.00     0.275 C 
BRANCH  23  24
ATOM     24  O   UNL     1      -6.989   3.958   6.868  1.00  0.00    -0.458 OA
BRANCH  24  25
ATOM     25  C   UNL     1      -6.251   4.210   5.764  1.00  0.00     0.338 C 
ATOM     26  O   UNL     1      -5.034   4.319   5.712  1.00  0.00    -0.246 OA
BRANCH  25  27
ATOM     27  C   UNL     1      -7.115   4.548   4.631  1.00  0.00     0.060 A 
ATOM     28  C   UNL     1      -6.471   4.790   3.414  1.00  0.00     0.016 A 
ATOM     29  C   UNL     1      -8.451   4.915   4.848  1.00  0.00     0.016 A 
ATOM     30  C   UNL     1      -7.108   5.577   2.483  1.00  0.00     0.010 A 
ATOM     31  C   UNL     1      -9.083   5.714   3.918  1.00  0.00     0.010 A 
ATOM     32  C   UNL     1      -8.372   6.098   2.786  1.00  0.00    -0.014 A 
BRANCH  32  33
ATOM     33  C   UNL     1      -8.935   7.029   1.835  1.00  0.00     0.031 A 
ATOM     34  C   UNL     1      -9.483   6.378   0.628  1.00  0.00     0.074 A 
ATOM     35  C   UNL     1      -8.966   8.357   2.035  1.00  0.00     0.049 A 
ATOM     36  N   UNL     1      -8.944   6.303  -0.543  1.00  0.00    -0.248 NA
ATOM     37  C   UNL     1     -10.682   5.550   0.804  1.00  0.00     0.031 C 
ATOM     38  C   UNL     1      -8.764   9.105   3.278  1.00  0.00     0.029 A 
ATOM     39  N   UNL     1      -9.274   9.326   1.137  1.00  0.00    -0.354 N 
ATOM     40  C   UNL     1      -9.847   5.583  -1.318  1.00  0.00     0.074 A 
ATOM     41  C   UNL     1     -10.778   4.980  -0.396  1.00  0.00     0.031 C 
ATOM     42  C   UNL     1      -9.175  10.383   3.094  1.00  0.00     0.029 A 
ATOM     43  C   UNL     1      -9.517  10.570   1.692  1.00  0.00     0.049 A 
ATOM     44  H   UNL     1      -9.322   9.157   0.168  1.00  0.00     0.167 HD
ATOM     45  C   UNL     1      -9.910   5.727  -2.671  1.00  0.00     0.034 A 
ATOM     46  C   UNL     1     -10.053  11.634   1.044  1.00  0.00     0.034 A 
ATOM     47  C   UNL     1      -8.755   6.411  -3.185  1.00  0.00     0.049 A 
ATOM     48  C   UNL     1      -9.885  11.405  -0.415  1.00  0.00     0.074 A 
ATOM     49  C   UNL     1      -7.404   6.138  -3.241  1.00  0.00     0.029 A 
ATOM     50  N   UNL     1      -8.883   7.756  -3.429  1.00  0.00    -0.354 N 
ATOM     51  N   UNL     1      -8.736  11.412  -1.031  1.00  0.00    -0.248 NA
ATOM     52  C   UNL     1     -10.967  10.734  -1.121  1.00  0.00     0.031 C 
ATOM     53  C   UNL     1      -6.763   7.398  -3.069  1.00  0.00     0.029 A 
ATOM     54  C   UNL     1      -7.755   8.376  -2.960  1.00  0.00     0.049 A 
ATOM     55  H   UNL     1      -9.648   8.197  -3.864  1.00  0.00     0.167 HD
ATOM     56  C   UNL     1      -8.834  10.394  -1.969  1.00  0.00     0.074 A 
ATOM     57  C   UNL     1     -10.259  10.082  -2.046  1.00  0.00     0.031 C 
ATOM     58  C   UNL     1      -7.732   9.708  -2.389  1.00  0.00     0.034 A 
BRANCH  45  59
ATOM     59  C   UNL     1     -11.184   5.577  -3.461  1.00  0.00     0.023 A 
ATOM     60  C   UNL     1     -12.454   5.582  -2.854  1.00  0.00     0.031 A 
ATOM     61  C   UNL     1     -11.174   5.661  -4.866  1.00  0.00     0.131 A 
ATOM     62  C   UNL     1     -13.632   5.630  -3.604  1.00  0.00     0.055 A 
ATOM     63  C   UNL     1     -12.351   5.783  -5.617  1.00  0.00     0.041 A 
ATOM     64  F   UNL     1     -10.018   5.688  -5.548  1.00  0.00    -0.206 F 
ATOM     65  C   UNL     1     -13.590   5.765  -4.986  1.00  0.00     0.022 A 
BRANCH  62  66
ATOM     66  S   UNL     1     -15.241   5.546  -2.771  1.00  0.00     0.124 S 
ATOM     67  O   UNL     1     -15.858   6.801  -3.184  1.00  0.00    -0.237 OA
ATOM     68  O   UNL     1     -15.810   4.334  -3.355  1.00  0.00    -0.237 OA
ATOM     69  O   UNL     1     -14.888   5.443  -1.358  1.00  0.00    -0.744 OA
ENDBRANCH  62  66
ENDBRANCH  45  59
BRANCH  46  70
ATOM     70  C   UNL     1     -11.124  12.516   1.567  1.00  0.00     0.023 A 
ATOM     71  C   UNL     1     -12.014  12.035   2.545  1.00  0.00     0.031 A 
ATOM     72  C   UNL     1     -11.483  13.694   0.890  1.00  0.00     0.131 A 
ATOM     73  C   UNL     1     -13.234  12.681   2.778  1.00  0.00     0.055 A 
ATOM     74  C   UNL     1     -12.698  14.346   1.132  1.00  0.00     0.041 A 
ATOM     75  F   UNL     1     -10.694  14.191  -0.075  1.00  0.00    -0.206 F 
ATOM     76  C   UNL     1     -13.588  13.831   2.070  1.00  0.00     0.022 A 
BRANCH  73  77
ATOM     77  S   UNL     1     -14.414  11.990   3.970  1.00  0.00     0.124 S 
ATOM     78  O   UNL     1     -14.898  13.184   4.659  1.00  0.00    -0.237 OA
ATOM     79  O   UNL     1     -15.377  11.337   3.092  1.00  0.00    -0.237 OA
ATOM     80  O   UNL     1     -13.590  11.103   4.786  1.00  0.00    -0.744 OA
ENDBRANCH  73  77
ENDBRANCH  46  70
BRANCH  58  81
ATOM     81  C   UNL     1      -6.367  10.241  -2.027  1.00  0.00     0.023 A 
ATOM     82  C   UNL     1      -5.455  10.422  -3.079  1.00  0.00     0.031 A 
ATOM     83  C   UNL     1      -5.880  10.345  -0.710  1.00  0.00     0.131 A 
ATOM     84  C   UNL     1      -4.102  10.649  -2.808  1.00  0.00     0.055 A 
ATOM     85  C   UNL     1      -4.538  10.635  -0.444  1.00  0.00     0.041 A 
ATOM     86  F   UNL     1      -6.661  10.083   0.346  1.00  0.00    -0.206 F 
ATOM     87  C   UNL     1      -3.638  10.773  -1.496  1.00  0.00     0.022 A 
BRANCH  84  88
ATOM     88  S   UNL     1      -2.893  10.654  -4.156  1.00  0.00     0.124 S 
ATOM     89  O   UNL     1      -2.288  11.976  -4.025  1.00  0.00    -0.237 OA
ATOM     90  O   UNL     1      -2.030   9.531  -3.797  1.00  0.00    -0.237 OA
ATOM     91  O   UNL     1      -3.700  10.456  -5.357  1.00  0.00    -0.744 OA
ENDBRANCH  84  88
ENDBRANCH  58  81
ENDBRANCH  32  33
ENDBRANCH  25  27
ENDBRANCH  24  25
ENDBRANCH  23  24
ENDBRANCH   1  23
TORSDOF 18
