REMARK SMILES Cc1cccc2c1N=CN1C2=[NH+]NC(=O)[C@@H]1CC(=O)OCCOC(=O)c1ccc(-c2c3nc(c(-c4cc(S(=O)(=O)[O-])ccc4F)c4ccc([nH]4)c(-c4cc(S(=O)(=O)[O-])ccc4F)c4nc(c(-c5cc(S(=O)(=O)[O-])ccc5F)c5ccc2[nH]5)C=C4)C=C3)cc1
REMARK SMILES IDX 22 1 21 2 20 3 18 4 19 5 17 6 16 7 1 8 2 9 3 10 7 11 4 12
REMARK SMILES IDX 6 13 8 14 5 15 11 16 9 17 10 18 12 19 13 20 14 22 15 24
REMARK SMILES IDX 23 25 24 26 25 27 26 28 27 29 88 30 28 31 87 32 29 33 30 34
REMARK SMILES IDX 31 35 81 36 32 37 86 38 80 39 82 40 33 41 85 42 79 43 78 44
REMARK SMILES IDX 34 46 66 47 46 48 65 49 47 50 50 51 64 52 83 53 48 54 49 55
REMARK SMILES IDX 63 57 84 58 51 59 35 60 36 61 44 62 37 63 43 64 45 65 42 66
REMARK SMILES IDX 38 67 39 68 40 69 41 70 67 71 68 72 76 73 69 74 75 75 77 76
REMARK SMILES IDX 74 77 70 78 71 79 72 80 73 81 52 82 53 83 61 84 54 85 60 86
REMARK SMILES IDX 62 87 59 88 55 89 56 90 57 91 58 92
REMARK H PARENT 12 21 13 23 82 45 50 56
REMARK Flexibility Score: inf
ROOT
ATOM      1  C   UNL     1       2.048   6.195  -4.353  1.00  0.00     0.275 C 
ENDROOT
BRANCH   1   2
ATOM      2  C   UNL     1       2.374   4.768  -3.928  1.00  0.00     0.274 C 
BRANCH   2   3
ATOM      3  O   UNL     1       2.683   4.772  -2.515  1.00  0.00    -0.462 OA
BRANCH   3   4
ATOM      4  C   UNL     1       4.003   4.871  -2.230  1.00  0.00     0.310 C 
ATOM      5  O   UNL     1       4.908   4.688  -3.038  1.00  0.00    -0.252 OA
BRANCH   4   6
ATOM      6  C   UNL     1       4.311   5.296  -0.820  1.00  0.00     0.183 C 
BRANCH   6   7
ATOM      7  C   UNL     1       3.185   5.377   0.205  1.00  0.00     0.286 C 
ATOM      8  C   UNL     1       0.933  -0.651   0.038  1.00  0.00     0.047 C 
ATOM      9  C   UNL     1       0.276   0.655   0.388  1.00  0.00    -0.024 A 
ATOM     10  C   UNL     1      -1.131   0.715   0.404  1.00  0.00     0.006 A 
ATOM     11  C   UNL     1       1.024   1.814   0.650  1.00  0.00     0.085 A 
ATOM     12  C   UNL     1      -1.799   1.903   0.704  1.00  0.00     0.001 A 
ATOM     13  C   UNL     1       0.326   3.011   0.906  1.00  0.00     0.092 A 
ATOM     14  N   UNL     1       2.436   1.768   0.572  1.00  0.00    -0.215 NA
ATOM     15  C   UNL     1      -1.071   3.054   0.969  1.00  0.00     0.019 A 
ATOM     16  C   UNL     1       1.101   4.279   0.824  1.00  0.00     0.309 C 
ATOM     17  C   UNL     1       3.038   2.908   0.459  1.00  0.00     0.317 C 
ATOM     18  N   UNL     1       2.433   4.141   0.452  1.00  0.00    -0.202 N 
ATOM     19  N   UNL     1       0.460   5.396   1.013  1.00  0.00    -0.169 N 
ATOM     20  N   UNL     1       1.078   6.540   0.622  1.00  0.00    -0.193 N 
ATOM     21  H   UNL     1      -0.436   5.410   1.421  1.00  0.00     0.340 HD
ATOM     22  C   UNL     1       2.257   6.553  -0.085  1.00  0.00     0.300 C 
ATOM     23  H   UNL     1       0.662   7.401   0.857  1.00  0.00     0.216 HD
ATOM     24  O   UNL     1       2.564   7.502  -0.800  1.00  0.00    -0.267 OA
ENDBRANCH   6   7
ENDBRANCH   4   6
ENDBRANCH   3   4
ENDBRANCH   2   3
ENDBRANCH   1   2
BRANCH   1  25
ATOM     25  O   UNL     1       3.184   7.034  -4.084  1.00  0.00    -0.458 OA
BRANCH  25  26
ATOM     26  C   UNL     1       2.873   8.297  -3.719  1.00  0.00     0.338 C 
ATOM     27  O   UNL     1       1.739   8.771  -3.675  1.00  0.00    -0.246 OA
BRANCH  26  28
ATOM     28  C   UNL     1       4.093   9.094  -3.458  1.00  0.00     0.060 A 
ATOM     29  C   UNL     1       5.322   8.534  -3.077  1.00  0.00     0.016 A 
ATOM     30  C   UNL     1       3.979  10.477  -3.618  1.00  0.00     0.016 A 
ATOM     31  C   UNL     1       6.427   9.365  -2.846  1.00  0.00     0.010 A 
ATOM     32  C   UNL     1       5.087  11.295  -3.437  1.00  0.00     0.010 A 
ATOM     33  C   UNL     1       6.316  10.750  -3.042  1.00  0.00    -0.014 A 
BRANCH  33  34
ATOM     34  C   UNL     1       7.465  11.675  -2.907  1.00  0.00     0.031 A 
ATOM     35  C   UNL     1       7.478  12.697  -1.808  1.00  0.00     0.074 A 
ATOM     36  C   UNL     1       8.404  11.688  -3.871  1.00  0.00     0.049 A 
ATOM     37  N   UNL     1       8.280  13.713  -1.635  1.00  0.00    -0.248 NA
ATOM     38  C   UNL     1       6.434  12.569  -0.778  1.00  0.00     0.031 C 
ATOM     39  C   UNL     1       8.458  10.754  -4.997  1.00  0.00     0.029 A 
ATOM     40  N   UNL     1       9.461  12.535  -4.086  1.00  0.00    -0.354 N 
ATOM     41  C   UNL     1       7.836  14.355  -0.485  1.00  0.00     0.074 A 
ATOM     42  C   UNL     1       6.671  13.632  -0.021  1.00  0.00     0.031 C 
ATOM     43  C   UNL     1       9.486  11.086  -5.791  1.00  0.00     0.029 A 
ATOM     44  C   UNL     1      10.134  12.282  -5.258  1.00  0.00     0.049 A 
ATOM     45  H   UNL     1       9.713  13.254  -3.463  1.00  0.00     0.167 HD
ATOM     46  C   UNL     1       8.362  15.442   0.127  1.00  0.00     0.034 A 
ATOM     47  C   UNL     1      11.141  12.952  -5.853  1.00  0.00     0.034 A 
ATOM     48  C   UNL     1       9.513  16.153  -0.367  1.00  0.00     0.049 A 
ATOM     49  C   UNL     1      11.697  14.172  -5.171  1.00  0.00     0.074 A 
ATOM     50  C   UNL     1      10.151  17.246   0.191  1.00  0.00     0.029 A 
ATOM     51  N   UNL     1      10.195  15.845  -1.537  1.00  0.00    -0.354 N 
ATOM     52  N   UNL     1      11.309  14.733  -4.049  1.00  0.00    -0.248 NA
ATOM     53  C   UNL     1      12.826  14.850  -5.822  1.00  0.00     0.031 C 
ATOM     54  C   UNL     1      11.189  17.625  -0.663  1.00  0.00     0.029 A 
ATOM     55  C   UNL     1      11.236  16.737  -1.728  1.00  0.00     0.049 A 
ATOM     56  H   UNL     1       9.971  15.101  -2.142  1.00  0.00     0.167 HD
ATOM     57  C   UNL     1      12.156  15.818  -3.849  1.00  0.00     0.074 A 
ATOM     58  C   UNL     1      13.088  15.824  -4.959  1.00  0.00     0.031 C 
ATOM     59  C   UNL     1      12.159  16.724  -2.838  1.00  0.00     0.034 A 
BRANCH  46  60
ATOM     60  C   UNL     1       7.720  15.924   1.403  1.00  0.00     0.023 A 
ATOM     61  C   UNL     1       7.101  17.187   1.458  1.00  0.00     0.031 A 
ATOM     62  C   UNL     1       7.800  15.170   2.588  1.00  0.00     0.131 A 
ATOM     63  C   UNL     1       6.601  17.663   2.678  1.00  0.00     0.055 A 
ATOM     64  C   UNL     1       7.274  15.636   3.793  1.00  0.00     0.041 A 
ATOM     65  F   UNL     1       8.378  13.958   2.585  1.00  0.00    -0.206 F 
ATOM     66  C   UNL     1       6.678  16.892   3.843  1.00  0.00     0.022 A 
BRANCH  63  67
ATOM     67  S   UNL     1       5.856  19.312   2.811  1.00  0.00     0.124 S 
ATOM     68  O   UNL     1       4.538  19.003   3.363  1.00  0.00    -0.237 OA
ATOM     69  O   UNL     1       6.772  19.987   3.726  1.00  0.00    -0.237 OA
ATOM     70  O   UNL     1       5.852  19.807   1.439  1.00  0.00    -0.744 OA
ENDBRANCH  63  67
ENDBRANCH  46  60
BRANCH  47  71
ATOM     71  C   UNL     1      11.704  12.414  -7.123  1.00  0.00     0.023 A 
ATOM     72  C   UNL     1      10.935  12.371  -8.300  1.00  0.00     0.031 A 
ATOM     73  C   UNL     1      12.962  11.790  -7.127  1.00  0.00     0.131 A 
ATOM     74  C   UNL     1      11.402  11.651  -9.408  1.00  0.00     0.055 A 
ATOM     75  C   UNL     1      13.449  11.124  -8.253  1.00  0.00     0.041 A 
ATOM     76  F   UNL     1      13.722  11.795  -6.021  1.00  0.00    -0.206 F 
ATOM     77  C   UNL     1      12.660  11.038  -9.396  1.00  0.00     0.022 A 
BRANCH  74  78
ATOM     78  S   UNL     1      10.347  11.386 -10.861  1.00  0.00     0.124 S 
ATOM     79  O   UNL     1      11.217  11.810 -11.955  1.00  0.00    -0.237 OA
ATOM     80  O   UNL     1      10.091   9.951 -10.780  1.00  0.00    -0.237 OA
ATOM     81  O   UNL     1       9.194  12.243 -10.609  1.00  0.00    -0.744 OA
ENDBRANCH  74  78
ENDBRANCH  47  71
BRANCH  59  82
ATOM     82  C   UNL     1      13.201  17.812  -2.861  1.00  0.00     0.023 A 
ATOM     83  C   UNL     1      14.194  17.852  -1.865  1.00  0.00     0.031 A 
ATOM     84  C   UNL     1      13.116  18.882  -3.767  1.00  0.00     0.131 A 
ATOM     85  C   UNL     1      15.039  18.963  -1.772  1.00  0.00     0.055 A 
ATOM     86  C   UNL     1      13.989  19.968  -3.696  1.00  0.00     0.041 A 
ATOM     87  F   UNL     1      12.179  18.888  -4.729  1.00  0.00    -0.206 F 
ATOM     88  C   UNL     1      14.947  20.018  -2.687  1.00  0.00     0.022 A 
BRANCH  85  89
ATOM     89  S   UNL     1      16.242  19.112  -0.423  1.00  0.00     0.124 S 
ATOM     90  O   UNL     1      17.493  19.307  -1.152  1.00  0.00    -0.237 OA
ATOM     91  O   UNL     1      15.749  20.283   0.297  1.00  0.00    -0.237 OA
ATOM     92  O   UNL     1      16.131  17.843   0.289  1.00  0.00    -0.744 OA
ENDBRANCH  85  89
ENDBRANCH  59  82
ENDBRANCH  33  34
ENDBRANCH  26  28
ENDBRANCH  25  26
ENDBRANCH   1  25
TORSDOF 15
