REMARK SMILES C=CCn1cc(CC)cc1C(=O)OCCOC(=O)c1ccc(-c2c3nc(c(-c4cc(S(=O)(=O)[O-])ccc4F)c4ccc([nH]4)c(-c4cc(S(=O)(=O)[O-])ccc4F)c4nc(c(-c5cc(S(=O)(=O)[O-])ccc5F)c5ccc2[nH]5)C=C4)C=C3)cc1
REMARK SMILES IDX 15 1 14 2 13 3 11 4 12 5 10 6 4 7 5 8 6 9 9 10 3 11 2 12
REMARK SMILES IDX 1 13 7 14 8 15 16 16 17 17 18 18 19 19 20 20 81 21 21 22
REMARK SMILES IDX 80 23 22 24 23 25 24 26 74 27 25 28 79 29 73 30 75 31 26 32
REMARK SMILES IDX 78 33 72 34 71 35 27 37 59 38 39 39 58 40 40 41 43 42 57 43
REMARK SMILES IDX 76 44 41 45 42 46 56 48 77 49 44 50 28 51 29 52 37 53 30 54
REMARK SMILES IDX 36 55 38 56 35 57 31 58 32 59 33 60 34 61 60 62 61 63 69 64
REMARK SMILES IDX 62 65 68 66 70 67 67 68 63 69 64 70 65 71 66 72 45 73 46 74
REMARK SMILES IDX 54 75 47 76 53 77 55 78 52 79 48 80 49 81 50 82 51 83
REMARK H PARENT 75 36 43 47
REMARK Flexibility Score: inf
ROOT
ATOM      1  C   UNL     1      -3.780   4.089   2.965  1.00  0.00     0.275 C 
ENDROOT
BRANCH   1   2
ATOM      2  C   UNL     1      -2.260   3.944   2.883  1.00  0.00     0.275 C 
BRANCH   2   3
ATOM      3  O   UNL     1      -1.842   2.597   2.592  1.00  0.00    -0.457 OA
BRANCH   3   4
ATOM      4  C   UNL     1      -1.636   1.793   3.672  1.00  0.00     0.355 C 
ATOM      5  O   UNL     1      -1.573   2.210   4.828  1.00  0.00    -0.244 OA
BRANCH   4   6
ATOM      6  C   UNL     1      -1.602   0.384   3.318  1.00  0.00     0.128 A 
ATOM      7  N   UNL     1      -1.381  -0.225   2.096  1.00  0.00    -0.338 N 
ATOM      8  C   UNL     1      -1.432  -1.597   2.242  1.00  0.00     0.090 A 
ATOM      9  C   UNL     1      -1.708  -1.899   3.557  1.00  0.00    -0.030 A 
ATOM     10  C   UNL     1      -1.844  -0.651   4.216  1.00  0.00     0.039 A 
BRANCH   7  11
ATOM     11  C   UNL     1      -1.036   0.398   0.823  1.00  0.00     0.149 C 
BRANCH  11  12
ATOM     12  C   UNL     1       0.455   0.561   0.702  1.00  0.00    -0.013 C 
ATOM     13  C   UNL     1       1.202   0.022  -0.271  1.00  0.00     0.006 C 
ENDBRANCH  11  12
ENDBRANCH   7  11
BRANCH   9  14
ATOM     14  C   UNL     1      -1.834  -3.259   4.160  1.00  0.00     0.034 C 
ATOM     15  C   UNL     1      -0.982  -3.423   5.411  1.00  0.00     0.009 C 
ENDBRANCH   9  14
ENDBRANCH   4   6
ENDBRANCH   3   4
ENDBRANCH   2   3
ENDBRANCH   1   2
BRANCH   1  16
ATOM     16  O   UNL     1      -4.362   3.356   4.046  1.00  0.00    -0.458 OA
BRANCH  16  17
ATOM     17  C   UNL     1      -4.710   2.102   3.681  1.00  0.00     0.338 C 
ATOM     18  O   UNL     1      -4.307   1.486   2.705  1.00  0.00    -0.246 OA
BRANCH  17  19
ATOM     19  C   UNL     1      -5.873   1.629   4.423  1.00  0.00     0.060 A 
ATOM     20  C   UNL     1      -6.104   0.252   4.385  1.00  0.00     0.016 A 
ATOM     21  C   UNL     1      -6.882   2.550   4.733  1.00  0.00     0.016 A 
ATOM     22  C   UNL     1      -7.400  -0.198   4.499  1.00  0.00     0.010 A 
ATOM     23  C   UNL     1      -8.186   2.101   4.812  1.00  0.00     0.010 A 
ATOM     24  C   UNL     1      -8.439   0.732   4.659  1.00  0.00    -0.014 A 
BRANCH  24  25
ATOM     25  C   UNL     1      -9.765   0.181   4.969  1.00  0.00     0.031 A 
ATOM     26  C   UNL     1      -9.768  -0.179   6.484  1.00  0.00     0.074 A 
ATOM     27  C   UNL     1     -10.630   0.006   3.910  1.00  0.00     0.049 A 
ATOM     28  N   UNL     1     -10.335  -1.163   7.102  1.00  0.00    -0.248 NA
ATOM     29  C   UNL     1      -8.895   0.580   7.444  1.00  0.00     0.031 C 
ATOM     30  C   UNL     1     -10.415   0.491   2.517  1.00  0.00     0.029 A 
ATOM     31  N   UNL     1     -11.864  -0.600   3.762  1.00  0.00    -0.354 N 
ATOM     32  C   UNL     1     -10.168  -0.947   8.492  1.00  0.00     0.074 A 
ATOM     33  C   UNL     1      -9.115   0.001   8.626  1.00  0.00     0.031 C 
ATOM     34  C   UNL     1     -11.413   0.091   1.683  1.00  0.00     0.029 A 
ATOM     35  C   UNL     1     -12.402  -0.671   2.425  1.00  0.00     0.049 A 
ATOM     36  H   UNL     1     -12.354  -0.966   4.534  1.00  0.00     0.167 HD
ATOM     37  C   UNL     1     -11.071  -1.397   9.415  1.00  0.00     0.034 A 
ATOM     38  C   UNL     1     -13.549  -1.312   1.989  1.00  0.00     0.034 A 
ATOM     39  C   UNL     1     -12.095  -2.113   8.729  1.00  0.00     0.049 A 
ATOM     40  C   UNL     1     -14.196  -1.657   3.259  1.00  0.00     0.074 A 
ATOM     41  C   UNL     1     -12.066  -3.274   8.003  1.00  0.00     0.029 A 
ATOM     42  N   UNL     1     -13.210  -1.377   8.385  1.00  0.00    -0.354 N 
ATOM     43  N   UNL     1     -14.790  -0.794   4.021  1.00  0.00    -0.248 NA
ATOM     44  C   UNL     1     -14.168  -3.048   3.723  1.00  0.00     0.031 C 
ATOM     45  C   UNL     1     -12.813  -2.917   6.866  1.00  0.00     0.029 A 
ATOM     46  C   UNL     1     -13.541  -1.744   7.113  1.00  0.00     0.049 A 
ATOM     47  H   UNL     1     -13.675  -0.716   8.947  1.00  0.00     0.167 HD
ATOM     48  C   UNL     1     -14.874  -1.469   5.205  1.00  0.00     0.074 A 
ATOM     49  C   UNL     1     -14.805  -2.885   4.881  1.00  0.00     0.031 C 
ATOM     50  C   UNL     1     -14.366  -0.871   6.315  1.00  0.00     0.034 A 
BRANCH  37  51
ATOM     51  C   UNL     1     -11.371  -1.024  10.844  1.00  0.00     0.023 A 
ATOM     52  C   UNL     1     -12.384  -1.798  11.468  1.00  0.00     0.031 A 
ATOM     53  C   UNL     1     -11.038   0.182  11.470  1.00  0.00     0.131 A 
ATOM     54  C   UNL     1     -13.148  -1.290  12.522  1.00  0.00     0.055 A 
ATOM     55  C   UNL     1     -11.747   0.649  12.588  1.00  0.00     0.041 A 
ATOM     56  F   UNL     1     -10.091   0.993  10.983  1.00  0.00    -0.206 F 
ATOM     57  C   UNL     1     -12.837  -0.062  13.090  1.00  0.00     0.022 A 
BRANCH  54  58
ATOM     58  S   UNL     1     -14.669  -2.177  12.967  1.00  0.00     0.124 S 
ATOM     59  O   UNL     1     -15.388  -2.202  11.698  1.00  0.00    -0.237 OA
ATOM     60  O   UNL     1     -14.148  -3.460  13.432  1.00  0.00    -0.237 OA
ATOM     61  O   UNL     1     -15.259  -1.334  14.004  1.00  0.00    -0.744 OA
ENDBRANCH  54  58
ENDBRANCH  37  51
BRANCH  38  62
ATOM     62  C   UNL     1     -14.399  -1.785   0.781  1.00  0.00     0.023 A 
ATOM     63  C   UNL     1     -14.081  -1.764  -0.590  1.00  0.00     0.031 A 
ATOM     64  C   UNL     1     -15.628  -2.491   1.069  1.00  0.00     0.131 A 
ATOM     65  C   UNL     1     -14.892  -2.493  -1.530  1.00  0.00     0.055 A 
ATOM     66  C   UNL     1     -16.335  -3.292   0.175  1.00  0.00     0.041 A 
ATOM     67  F   UNL     1     -16.218  -2.450   2.272  1.00  0.00    -0.206 F 
ATOM     68  C   UNL     1     -15.957  -3.312  -1.138  1.00  0.00     0.022 A 
BRANCH  65  69
ATOM     69  S   UNL     1     -14.603  -2.434  -3.330  1.00  0.00     0.124 S 
ATOM     70  O   UNL     1     -15.420  -1.293  -3.730  1.00  0.00    -0.237 OA
ATOM     71  O   UNL     1     -13.159  -2.258  -3.427  1.00  0.00    -0.237 OA
ATOM     72  O   UNL     1     -15.093  -3.734  -3.795  1.00  0.00    -0.744 OA
ENDBRANCH  65  69
ENDBRANCH  38  62
BRANCH  50  73
ATOM     73  C   UNL     1     -14.383   0.661   6.292  1.00  0.00     0.023 A 
ATOM     74  C   UNL     1     -15.570   1.341   5.934  1.00  0.00     0.031 A 
ATOM     75  C   UNL     1     -13.256   1.479   6.489  1.00  0.00     0.131 A 
ATOM     76  C   UNL     1     -15.593   2.738   5.742  1.00  0.00     0.055 A 
ATOM     77  C   UNL     1     -13.275   2.873   6.302  1.00  0.00     0.041 A 
ATOM     78  F   UNL     1     -12.086   0.959   6.861  1.00  0.00    -0.206 F 
ATOM     79  C   UNL     1     -14.448   3.510   5.923  1.00  0.00     0.022 A 
BRANCH  76  80
ATOM     80  S   UNL     1     -17.151   3.545   5.274  1.00  0.00     0.124 S 
ATOM     81  O   UNL     1     -17.335   3.115   3.892  1.00  0.00    -0.237 OA
ATOM     82  O   UNL     1     -18.095   3.001   6.245  1.00  0.00    -0.237 OA
ATOM     83  O   UNL     1     -16.861   4.970   5.440  1.00  0.00    -0.744 OA
ENDBRANCH  76  80
ENDBRANCH  50  73
ENDBRANCH  24  25
ENDBRANCH  17  19
ENDBRANCH  16  17
ENDBRANCH   1  16
TORSDOF 17
