REMARK SMILES C[N@H+]1Cc2ccccc2C[C@@H]1C(=O)NCCC(=O)NCC(=O)OCCOC(=O)c1ccc(-c2c3nc(c(-c4cc(S(=O)(=O)[O-])ccc4F)c4ccc([nH]4)c(-c4cc(S(=O)(=O)[O-])ccc4F)c4nc(c(-c5cc(S(=O)(=O)[O-])ccc5F)c5ccc2[nH]5)C=C4)C=C3)cc1
REMARK SMILES IDX 24 1 23 2 21 3 22 4 20 5 19 6 17 7 18 8 16 10 15 11 14 12
REMARK SMILES IDX 12 13 13 14 11 16 1 17 2 18 3 19 4 21 10 22 5 23 9 24 6 25
REMARK SMILES IDX 8 26 7 27 25 28 26 29 27 30 28 31 29 32 30 33 91 34 31 35
REMARK SMILES IDX 90 36 32 37 33 38 34 39 84 40 35 41 89 42 83 43 85 44 36 45
REMARK SMILES IDX 88 46 82 47 81 48 37 50 69 51 49 52 68 53 50 54 53 55 67 56
REMARK SMILES IDX 86 57 51 58 52 59 66 61 87 62 54 63 38 64 39 65 47 66 40 67
REMARK SMILES IDX 46 68 48 69 45 70 41 71 42 72 43 73 44 74 70 75 71 76 79 77
REMARK SMILES IDX 72 78 78 79 80 80 77 81 73 82 74 83 75 84 76 85 55 86 56 87
REMARK SMILES IDX 64 88 57 89 63 90 65 91 62 92 58 93 59 94 60 95 61 96
REMARK H PARENT 19 9 14 15 2 20 85 49 53 60
REMARK Flexibility Score: inf
ROOT
ATOM      1  C   UNL     1      -6.283   2.318   2.324  1.00  0.00     0.274 C 
ENDROOT
BRANCH   1   2
ATOM      2  O   UNL     1      -5.684   3.457   1.683  1.00  0.00    -0.461 OA
BRANCH   2   3
ATOM      3  C   UNL     1      -5.450   3.330   0.345  1.00  0.00     0.325 C 
ATOM      4  O   UNL     1      -5.585   2.282  -0.279  1.00  0.00    -0.250 OA
BRANCH   3   5
ATOM      5  C   UNL     1      -5.183   4.679  -0.326  1.00  0.00     0.238 C 
BRANCH   5   6
ATOM      6  N   UNL     1      -4.829   5.758   0.578  1.00  0.00    -0.345 N 
ATOM      7  C   UNL     1      -3.585   6.160   0.937  1.00  0.00     0.222 C 
ATOM      8  O   UNL     1      -3.448   7.051   1.775  1.00  0.00    -0.275 OA
ATOM      9  H   UNL     1      -5.579   6.256   0.976  1.00  0.00     0.164 HD
BRANCH   7  10
ATOM     10  C   UNL     1      -2.387   5.475   0.332  1.00  0.00     0.121 C 
BRANCH  10  11
ATOM     11  C   UNL     1      -1.957   4.293   1.194  1.00  0.00     0.126 C 
BRANCH  11  12
ATOM     12  N   UNL     1      -2.350   2.945   0.800  1.00  0.00    -0.350 N 
ATOM     13  C   UNL     1      -2.119   2.457  -0.473  1.00  0.00     0.278 C 
ATOM     14  O   UNL     1      -2.380   3.090  -1.492  1.00  0.00    -0.268 OA
ATOM     15  H   UNL     1      -2.794   2.365   1.461  1.00  0.00     0.163 HD
BRANCH  13  16
ATOM     16  C   UNL     1      -1.263   1.185  -0.526  1.00  0.00     0.278 C 
ATOM     17  C   UNL     1      -3.098  -0.333   0.021  1.00  0.00     0.333 C 
ATOM     18  N   UNL     1      -1.723   0.072   0.353  1.00  0.00    -0.323 N 
ATOM     19  C   UNL     1      -0.830  -1.100   0.108  1.00  0.00     0.299 C 
ATOM     20  H   UNL     1      -1.695   0.382   1.325  1.00  0.00     0.348 HD
ATOM     21  C   UNL     1       0.657  -0.790   0.112  1.00  0.00     0.010 A 
ATOM     22  C   UNL     1       0.130   1.649  -0.057  1.00  0.00     0.111 C 
ATOM     23  C   UNL     1       1.600  -1.826   0.139  1.00  0.00     0.010 A 
ATOM     24  C   UNL     1       1.119   0.529  -0.000  1.00  0.00    -0.033 A 
ATOM     25  C   UNL     1       2.969  -1.544   0.099  1.00  0.00     0.001 A 
ATOM     26  C   UNL     1       2.490   0.812  -0.006  1.00  0.00     0.004 A 
ATOM     27  C   UNL     1       3.414  -0.225   0.039  1.00  0.00     0.000 A 
ENDBRANCH  13  16
ENDBRANCH  11  12
ENDBRANCH  10  11
ENDBRANCH   7  10
ENDBRANCH   5   6
ENDBRANCH   3   5
ENDBRANCH   2   3
ENDBRANCH   1   2
BRANCH   1  28
ATOM     28  C   UNL     1      -7.808   2.463   2.393  1.00  0.00     0.275 C 
BRANCH  28  29
ATOM     29  O   UNL     1      -8.426   2.315   1.099  1.00  0.00    -0.458 OA
BRANCH  29  30
ATOM     30  C   UNL     1      -8.584   3.463   0.402  1.00  0.00     0.338 C 
ATOM     31  O   UNL     1      -8.280   4.592   0.766  1.00  0.00    -0.246 OA
BRANCH  30  32
ATOM     32  C   UNL     1      -9.066   3.172  -0.955  1.00  0.00     0.060 A 
ATOM     33  C   UNL     1      -8.169   3.285  -2.020  1.00  0.00     0.016 A 
ATOM     34  C   UNL     1     -10.416   2.918  -1.193  1.00  0.00     0.016 A 
ATOM     35  C   UNL     1      -8.618   3.200  -3.329  1.00  0.00     0.010 A 
ATOM     36  C   UNL     1     -10.863   2.796  -2.513  1.00  0.00     0.010 A 
ATOM     37  C   UNL     1      -9.969   2.960  -3.587  1.00  0.00    -0.014 A 
BRANCH  37  38
ATOM     38  C   UNL     1     -10.447   2.965  -4.988  1.00  0.00     0.031 A 
ATOM     39  C   UNL     1     -11.285   4.112  -5.471  1.00  0.00     0.074 A 
ATOM     40  C   UNL     1     -10.074   1.983  -5.830  1.00  0.00     0.049 A 
ATOM     41  N   UNL     1     -11.933   4.249  -6.597  1.00  0.00    -0.248 NA
ATOM     42  C   UNL     1     -11.407   5.261  -4.560  1.00  0.00     0.031 C 
ATOM     43  C   UNL     1      -9.170   0.881  -5.493  1.00  0.00     0.029 A 
ATOM     44  N   UNL     1     -10.399   1.757  -7.141  1.00  0.00    -0.354 N 
ATOM     45  C   UNL     1     -12.563   5.486  -6.523  1.00  0.00     0.074 A 
ATOM     46  C   UNL     1     -12.228   6.053  -5.233  1.00  0.00     0.031 C 
ATOM     47  C   UNL     1      -9.006   0.102  -6.574  1.00  0.00     0.029 A 
ATOM     48  C   UNL     1      -9.851   0.603  -7.653  1.00  0.00     0.049 A 
ATOM     49  H   UNL     1     -10.970   2.362  -7.668  1.00  0.00     0.167 HD
ATOM     50  C   UNL     1     -13.351   6.085  -7.449  1.00  0.00     0.034 A 
ATOM     51  C   UNL     1     -10.050  -0.002  -8.840  1.00  0.00     0.034 A 
ATOM     52  C   UNL     1     -13.665   5.494  -8.726  1.00  0.00     0.049 A 
ATOM     53  C   UNL     1     -11.010   0.634  -9.813  1.00  0.00     0.074 A 
ATOM     54  C   UNL     1     -14.507   5.965  -9.718  1.00  0.00     0.029 A 
ATOM     55  N   UNL     1     -13.136   4.296  -9.192  1.00  0.00    -0.354 N 
ATOM     56  N   UNL     1     -11.691   1.751  -9.691  1.00  0.00    -0.248 NA
ATOM     57  C   UNL     1     -11.238  -0.077 -11.077  1.00  0.00     0.031 C 
ATOM     58  C   UNL     1     -14.518   5.033 -10.763  1.00  0.00     0.029 A 
ATOM     59  C   UNL     1     -13.639   4.008 -10.450  1.00  0.00     0.049 A 
ATOM     60  H   UNL     1     -12.495   3.734  -8.699  1.00  0.00     0.167 HD
ATOM     61  C   UNL     1     -12.412   1.886 -10.873  1.00  0.00     0.074 A 
ATOM     62  C   UNL     1     -12.071   0.745 -11.699  1.00  0.00     0.031 C 
ATOM     63  C   UNL     1     -13.279   2.860 -11.246  1.00  0.00     0.034 A 
BRANCH  50  64
ATOM     64  C   UNL     1     -13.976   7.404  -7.070  1.00  0.00     0.023 A 
ATOM     65  C   UNL     1     -13.205   8.564  -6.880  1.00  0.00     0.031 A 
ATOM     66  C   UNL     1     -15.362   7.488  -6.845  1.00  0.00     0.131 A 
ATOM     67  C   UNL     1     -13.815   9.740  -6.416  1.00  0.00     0.055 A 
ATOM     68  C   UNL     1     -15.973   8.680  -6.452  1.00  0.00     0.041 A 
ATOM     69  F   UNL     1     -16.143   6.405  -6.986  1.00  0.00    -0.206 F 
ATOM     70  C   UNL     1     -15.197   9.812  -6.222  1.00  0.00     0.022 A 
BRANCH  67  71
ATOM     71  S   UNL     1     -12.763  11.141  -5.947  1.00  0.00     0.124 S 
ATOM     72  O   UNL     1     -11.974  10.566  -4.860  1.00  0.00    -0.237 OA
ATOM     73  O   UNL     1     -12.041  11.422  -7.182  1.00  0.00    -0.237 OA
ATOM     74  O   UNL     1     -13.720  12.167  -5.538  1.00  0.00    -0.744 OA
ENDBRANCH  67  71
ENDBRANCH  50  64
BRANCH  51  75
ATOM     75  C   UNL     1      -9.399  -1.307  -9.148  1.00  0.00     0.023 A 
ATOM     76  C   UNL     1      -8.506  -1.439 -10.223  1.00  0.00     0.031 A 
ATOM     77  C   UNL     1      -9.706  -2.461  -8.403  1.00  0.00     0.131 A 
ATOM     78  C   UNL     1      -7.986  -2.701 -10.550  1.00  0.00     0.055 A 
ATOM     79  C   UNL     1      -9.144  -3.704  -8.697  1.00  0.00     0.041 A 
ATOM     80  F   UNL     1     -10.558  -2.395  -7.367  1.00  0.00    -0.206 F 
ATOM     81  C   UNL     1      -8.288  -3.832  -9.787  1.00  0.00     0.022 A 
BRANCH  78  82
ATOM     82  S   UNL     1      -6.984  -2.867 -12.053  1.00  0.00     0.124 S 
ATOM     83  O   UNL     1      -7.874  -2.316 -13.068  1.00  0.00    -0.237 OA
ATOM     84  O   UNL     1      -5.811  -2.064 -11.723  1.00  0.00    -0.237 OA
ATOM     85  O   UNL     1      -6.746  -4.306 -12.146  1.00  0.00    -0.744 OA
ENDBRANCH  78  82
ENDBRANCH  51  75
BRANCH  63  86
ATOM     86  C   UNL     1     -13.867   2.744 -12.627  1.00  0.00     0.023 A 
ATOM     87  C   UNL     1     -14.818   1.759 -12.941  1.00  0.00     0.031 A 
ATOM     88  C   UNL     1     -13.451   3.620 -13.643  1.00  0.00     0.131 A 
ATOM     89  C   UNL     1     -15.286   1.640 -14.257  1.00  0.00     0.055 A 
ATOM     90  C   UNL     1     -13.955   3.528 -14.940  1.00  0.00     0.041 A 
ATOM     91  F   UNL     1     -12.544   4.578 -13.390  1.00  0.00    -0.206 F 
ATOM     92  C   UNL     1     -14.870   2.526 -15.255  1.00  0.00     0.022 A 
BRANCH  89  93
ATOM     93  S   UNL     1     -16.395   0.265 -14.666  1.00  0.00     0.124 S 
ATOM     94  O   UNL     1     -15.571  -0.896 -14.344  1.00  0.00    -0.237 OA
ATOM     95  O   UNL     1     -17.531   0.505 -13.782  1.00  0.00    -0.237 OA
ATOM     96  O   UNL     1     -16.668   0.456 -16.089  1.00  0.00    -0.744 OA
ENDBRANCH  89  93
ENDBRANCH  63  86
ENDBRANCH  37  38
ENDBRANCH  30  32
ENDBRANCH  29  30
ENDBRANCH  28  29
ENDBRANCH   1  28
TORSDOF 19
