REMARK SMILES Cc1nc2ccc(Cl)cc2cc1C(=O)N1CCC(C(=O)OCCOC(=O)c2ccc(-c3c4nc(c(-c5cc(S(=O)(=O)[O-])ccc5F)c5ccc([nH]5)c(-c5cc(S(=O)(=O)[O-])ccc5F)c5nc(c(-c6cc(S(=O)(=O)[O-])ccc6F)c6ccc3[nH]6)C=C5)C=C4)cc2)CC1
REMARK SMILES IDX 23 1 22 2 21 3 19 4 20 5 18 6 13 7 14 8 15 9 16 10 91 11
REMARK SMILES IDX 17 12 90 13 12 14 1 15 2 16 3 17 4 18 11 19 5 20 10 21 6 22
REMARK SMILES IDX 9 23 7 24 8 25 24 26 25 27 26 28 27 29 28 30 89 31 29 32
REMARK SMILES IDX 88 33 30 34 31 35 32 36 82 37 33 38 87 39 81 40 83 41 34 42
REMARK SMILES IDX 86 43 80 44 79 45 35 47 67 48 47 49 66 50 48 51 51 52 65 53
REMARK SMILES IDX 84 54 49 55 50 56 64 58 85 59 52 60 36 61 37 62 45 63 38 64
REMARK SMILES IDX 44 65 46 66 43 67 39 68 40 69 41 70 42 71 68 72 69 73 77 74
REMARK SMILES IDX 70 75 76 76 78 77 75 78 71 79 72 80 73 81 74 82 53 83 54 84
REMARK SMILES IDX 62 85 55 86 61 87 63 88 60 89 56 90 57 91 58 92 59 93
REMARK H PARENT 83 46 51 57
REMARK Flexibility Score: inf
ROOT
ATOM      1  C   UNL     1      -4.865 -10.488   0.874  1.00  0.00     0.275 C 
ENDROOT
BRANCH   1   2
ATOM      2  C   UNL     1      -5.056  -9.418   1.952  1.00  0.00     0.274 C 
BRANCH   2   3
ATOM      3  O   UNL     1      -4.737  -8.113   1.436  1.00  0.00    -0.462 OA
BRANCH   3   4
ATOM      4  C   UNL     1      -3.581  -7.552   1.871  1.00  0.00     0.309 C 
ATOM      5  O   UNL     1      -2.860  -8.022   2.743  1.00  0.00    -0.252 OA
BRANCH   4   6
ATOM      6  C   UNL     1      -3.237  -6.268   1.142  1.00  0.00     0.103 C 
ATOM      7  C   UNL     1      -3.580  -2.305  -0.410  1.00  0.00     0.255 C 
ATOM      8  O   UNL     1      -4.471  -2.056  -1.218  1.00  0.00    -0.269 OA
ATOM      9  N   UNL     1      -3.368  -3.580   0.116  1.00  0.00    -0.339 N 
ATOM     10  C   UNL     1      -3.616  -4.709  -0.778  1.00  0.00     0.120 C 
ATOM     11  C   UNL     1      -2.658  -3.849   1.371  1.00  0.00     0.120 C 
ATOM     12  C   UNL     1      -4.130  -5.943  -0.056  1.00  0.00     0.037 C 
ATOM     13  C   UNL     1      -3.217  -5.074   2.095  1.00  0.00     0.037 C 
BRANCH   7  14
ATOM     14  C   UNL     1      -2.608  -1.233  -0.092  1.00  0.00     0.061 A 
ATOM     15  C   UNL     1      -4.434   0.503   0.209  1.00  0.00     0.067 C 
ATOM     16  C   UNL     1      -2.994   0.084   0.146  1.00  0.00     0.051 A 
ATOM     17  N   UNL     1      -2.087   1.095   0.281  1.00  0.00    -0.252 NA
ATOM     18  C   UNL     1      -0.775   0.818   0.163  1.00  0.00     0.071 A 
ATOM     19  C   UNL     1      -1.242  -1.510  -0.208  1.00  0.00     0.026 A 
ATOM     20  C   UNL     1       0.158   1.843   0.246  1.00  0.00     0.030 A 
ATOM     21  C   UNL     1      -0.300  -0.489  -0.067  1.00  0.00     0.002 A 
ATOM     22  C   UNL     1       1.531   1.601   0.124  1.00  0.00     0.023 A 
ATOM     23  C   UNL     1       1.077  -0.745  -0.178  1.00  0.00     0.030 A 
ATOM     24  C   UNL     1       1.986   0.303  -0.078  1.00  0.00     0.041 A 
ATOM     25  Cl  UNL     1       3.671  -0.004  -0.211  1.00  0.00    -0.084 Cl
ENDBRANCH   7  14
ENDBRANCH   4   6
ENDBRANCH   3   4
ENDBRANCH   2   3
ENDBRANCH   1   2
BRANCH   1  26
ATOM     26  O   UNL     1      -3.477 -10.639   0.518  1.00  0.00    -0.458 OA
BRANCH  26  27
ATOM     27  C   UNL     1      -3.087  -9.948  -0.579  1.00  0.00     0.338 C 
ATOM     28  O   UNL     1      -3.778  -9.238  -1.287  1.00  0.00    -0.246 OA
BRANCH  27  29
ATOM     29  C   UNL     1      -1.633 -10.076  -0.755  1.00  0.00     0.060 A 
ATOM     30  C   UNL     1      -0.845  -8.939  -0.563  1.00  0.00     0.016 A 
ATOM     31  C   UNL     1      -1.060 -11.268  -1.200  1.00  0.00     0.016 A 
ATOM     32  C   UNL     1       0.523  -8.983  -0.819  1.00  0.00     0.010 A 
ATOM     33  C   UNL     1       0.316 -11.313  -1.451  1.00  0.00     0.010 A 
ATOM     34  C   UNL     1       1.114 -10.168  -1.273  1.00  0.00    -0.014 A 
BRANCH  34  35
ATOM     35  C   UNL     1       2.558 -10.187  -1.615  1.00  0.00     0.031 A 
ATOM     36  C   UNL     1       2.983 -10.224  -3.056  1.00  0.00     0.074 A 
ATOM     37  C   UNL     1       3.481 -10.150  -0.636  1.00  0.00     0.049 A 
ATOM     38  N   UNL     1       4.182 -10.343  -3.564  1.00  0.00    -0.248 NA
ATOM     39  C   UNL     1       1.910 -10.116  -4.055  1.00  0.00     0.031 C 
ATOM     40  C   UNL     1       3.187 -10.058   0.795  1.00  0.00     0.029 A 
ATOM     41  N   UNL     1       4.851 -10.188  -0.695  1.00  0.00    -0.354 N 
ATOM     42  C   UNL     1       4.011 -10.344  -4.944  1.00  0.00     0.074 A 
ATOM     43  C   UNL     1       2.587 -10.235  -5.188  1.00  0.00     0.031 C 
ATOM     44  C   UNL     1       4.343 -10.052   1.479  1.00  0.00     0.029 A 
ATOM     45  C   UNL     1       5.454 -10.194   0.541  1.00  0.00     0.049 A 
ATOM     46  H   UNL     1       5.354 -10.211  -1.540  1.00  0.00     0.167 HD
ATOM     47  C   UNL     1       4.956 -10.426  -5.914  1.00  0.00     0.034 A 
ATOM     48  C   UNL     1       6.751 -10.335   0.880  1.00  0.00     0.034 A 
ATOM     49  C   UNL     1       6.371 -10.534  -5.651  1.00  0.00     0.049 A 
ATOM     50  C   UNL     1       7.776 -10.502  -0.212  1.00  0.00     0.074 A 
ATOM     51  C   UNL     1       7.415 -10.619  -6.556  1.00  0.00     0.029 A 
ATOM     52  N   UNL     1       6.943 -10.578  -4.385  1.00  0.00    -0.354 N 
ATOM     53  N   UNL     1       7.599 -10.529  -1.513  1.00  0.00    -0.248 NA
ATOM     54  C   UNL     1       9.173 -10.658   0.210  1.00  0.00     0.031 C 
ATOM     55  C   UNL     1       8.608 -10.775  -5.840  1.00  0.00     0.029 A 
ATOM     56  C   UNL     1       8.319 -10.719  -4.486  1.00  0.00     0.049 A 
ATOM     57  H   UNL     1       6.443 -10.519  -3.538  1.00  0.00     0.167 HD
ATOM     58  C   UNL     1       8.867 -10.686  -2.064  1.00  0.00     0.074 A 
ATOM     59  C   UNL     1       9.799 -10.732  -0.955  1.00  0.00     0.031 C 
ATOM     60  C   UNL     1       9.231 -10.780  -3.369  1.00  0.00     0.034 A 
BRANCH  47  61
ATOM     61  C   UNL     1       4.475 -10.464  -7.344  1.00  0.00     0.023 A 
ATOM     62  C   UNL     1       3.825  -9.368  -7.938  1.00  0.00     0.031 A 
ATOM     63  C   UNL     1       4.636 -11.630  -8.113  1.00  0.00     0.131 A 
ATOM     64  C   UNL     1       3.299  -9.486  -9.234  1.00  0.00     0.055 A 
ATOM     65  C   UNL     1       4.176 -11.715  -9.428  1.00  0.00     0.041 A 
ATOM     66  F   UNL     1       5.229 -12.715  -7.591  1.00  0.00    -0.206 F 
ATOM     67  C   UNL     1       3.490 -10.644  -9.992  1.00  0.00     0.022 A 
BRANCH  64  68
ATOM     68  S   UNL     1       2.238  -8.156  -9.865  1.00  0.00     0.124 S 
ATOM     69  O   UNL     1       1.178  -8.122  -8.860  1.00  0.00    -0.237 OA
ATOM     70  O   UNL     1       3.143  -7.012  -9.878  1.00  0.00    -0.237 OA
ATOM     71  O   UNL     1       1.825  -8.641 -11.180  1.00  0.00    -0.744 OA
ENDBRANCH  64  68
ENDBRANCH  47  61
BRANCH  48  72
ATOM     72  C   UNL     1       7.151 -10.387   2.315  1.00  0.00     0.023 A 
ATOM     73  C   UNL     1       7.965  -9.394   2.880  1.00  0.00     0.031 A 
ATOM     74  C   UNL     1       6.754 -11.461   3.132  1.00  0.00     0.131 A 
ATOM     75  C   UNL     1       8.386  -9.512   4.214  1.00  0.00     0.055 A 
ATOM     76  C   UNL     1       7.136 -11.549   4.471  1.00  0.00     0.041 A 
ATOM     77  F   UNL     1       5.975 -12.438   2.640  1.00  0.00    -0.206 F 
ATOM     78  C   UNL     1       7.967 -10.576   5.016  1.00  0.00     0.022 A 
BRANCH  75  79
ATOM     79  S   UNL     1       9.554  -8.288   4.868  1.00  0.00     0.124 S 
ATOM     80  O   UNL     1      10.680  -8.432   3.953  1.00  0.00    -0.237 OA
ATOM     81  O   UNL     1       8.789  -7.051   4.756  1.00  0.00    -0.237 OA
ATOM     82  O   UNL     1       9.797  -8.746   6.234  1.00  0.00    -0.744 OA
ENDBRANCH  75  79
ENDBRANCH  48  72
BRANCH  60  83
ATOM     83  C   UNL     1      10.707 -10.902  -3.655  1.00  0.00     0.023 A 
ATOM     84  C   UNL     1      11.431 -12.060  -3.323  1.00  0.00     0.031 A 
ATOM     85  C   UNL     1      11.400  -9.834  -4.251  1.00  0.00     0.131 A 
ATOM     86  C   UNL     1      12.816 -12.103  -3.542  1.00  0.00     0.055 A 
ATOM     87  C   UNL     1      12.769  -9.903  -4.514  1.00  0.00     0.041 A 
ATOM     88  F   UNL     1      10.756  -8.704  -4.586  1.00  0.00    -0.206 F 
ATOM     89  C   UNL     1      13.487 -11.037  -4.148  1.00  0.00     0.022 A 
BRANCH  86  90
ATOM     90  S   UNL     1      13.749 -13.541  -2.947  1.00  0.00     0.124 S 
ATOM     91  O   UNL     1      13.465 -13.517  -1.516  1.00  0.00    -0.237 OA
ATOM     92  O   UNL     1      13.145 -14.637  -3.698  1.00  0.00    -0.237 OA
ATOM     93  O   UNL     1      15.130 -13.229  -3.310  1.00  0.00    -0.744 OA
ENDBRANCH  86  90
ENDBRANCH  60  83
ENDBRANCH  34  35
ENDBRANCH  27  29
ENDBRANCH  26  27
ENDBRANCH   1  26
TORSDOF 15
