REMARK SMILES O=C(OCCOC(=O)c1cc(=O)[nH]c2c(Br)cccc12)c1ccc(-c2c3nc(c(-c4cc(S(=O)(=O)[O-])ccc4F)c4ccc([nH]4)c(-c4cc(S(=O)(=O)[O-])ccc4F)c4nc(c(-c5cc(S(=O)(=O)[O-])ccc5F)c5ccc2[nH]5)C=C4)C=C3)cc1
REMARK SMILES IDX 3 1 2 2 1 3 21 4 22 5 83 6 23 7 82 8 24 9 25 10 26 11 76 12
REMARK SMILES IDX 27 13 81 14 75 15 77 16 28 17 80 18 74 19 73 20 29 22 61 23
REMARK SMILES IDX 41 24 60 25 42 26 45 27 59 28 78 29 43 30 44 31 58 33 79 34
REMARK SMILES IDX 46 35 30 36 31 37 39 38 32 39 38 40 40 41 37 42 33 43 34 44
REMARK SMILES IDX 35 45 36 46 62 47 63 48 71 49 64 50 70 51 72 52 69 53 65 54
REMARK SMILES IDX 66 55 67 56 68 57 47 58 48 59 56 60 49 61 55 62 57 63 54 64
REMARK SMILES IDX 50 65 51 66 52 67 53 68 4 69 5 70 6 71 7 72 8 73 9 74 10 75
REMARK SMILES IDX 20 76 11 77 14 78 19 79 12 80 13 81 15 82 18 83 16 85 17 86
REMARK H PARENT 77 21 45 32 13 84
REMARK Flexibility Score: inf
ROOT
ATOM      1  O   UNL     1       3.485  -1.052   0.116  1.00  0.00    -0.458 OA
ENDROOT
BRANCH   1   2
ATOM      2  C   UNL     1       3.443  -0.284   1.235  1.00  0.00     0.338 C 
ATOM      3  O   UNL     1       2.788  -0.670   2.200  1.00  0.00    -0.246 OA
BRANCH   2   4
ATOM      4  C   UNL     1       3.954   1.120   1.236  1.00  0.00     0.060 A 
ATOM      5  C   UNL     1       3.139   2.070   1.868  1.00  0.00     0.016 A 
ATOM      6  C   UNL     1       5.156   1.559   0.678  1.00  0.00     0.016 A 
ATOM      7  C   UNL     1       3.439   3.433   1.806  1.00  0.00     0.010 A 
ATOM      8  C   UNL     1       5.478   2.922   0.641  1.00  0.00     0.010 A 
ATOM      9  C   UNL     1       4.612   3.874   1.182  1.00  0.00    -0.014 A 
BRANCH   9  10
ATOM     10  C   UNL     1       5.034   5.291   1.297  1.00  0.00     0.031 A 
ATOM     11  C   UNL     1       5.139   6.207   0.111  1.00  0.00     0.074 A 
ATOM     12  C   UNL     1       5.378   5.729   2.522  1.00  0.00     0.049 A 
ATOM     13  N   UNL     1       5.358   7.496   0.096  1.00  0.00    -0.248 NA
ATOM     14  C   UNL     1       4.966   5.617  -1.224  1.00  0.00     0.031 C 
ATOM     15  C   UNL     1       5.364   4.905   3.733  1.00  0.00     0.029 A 
ATOM     16  N   UNL     1       5.825   6.950   2.954  1.00  0.00    -0.354 N 
ATOM     17  C   UNL     1       5.259   7.886  -1.236  1.00  0.00     0.074 A 
ATOM     18  C   UNL     1       5.030   6.688  -2.009  1.00  0.00     0.031 C 
ATOM     19  C   UNL     1       5.783   5.641   4.769  1.00  0.00     0.029 A 
ATOM     20  C   UNL     1       6.151   6.968   4.289  1.00  0.00     0.049 A 
ATOM     21  H   UNL     1       5.905   7.735   2.366  1.00  0.00     0.167 HD
ATOM     22  C   UNL     1       5.347   9.135  -1.753  1.00  0.00     0.034 A 
ATOM     23  C   UNL     1       6.713   7.933   5.042  1.00  0.00     0.034 A 
ATOM     24  C   UNL     1       5.725  10.288  -0.978  1.00  0.00     0.049 A 
ATOM     25  C   UNL     1       6.968   9.272   4.410  1.00  0.00     0.074 A 
ATOM     26  C   UNL     1       5.858  11.597  -1.404  1.00  0.00     0.029 A 
ATOM     27  N   UNL     1       6.089  10.263   0.361  1.00  0.00    -0.354 N 
ATOM     28  N   UNL     1       6.699   9.666   3.187  1.00  0.00    -0.248 NA
ATOM     29  C   UNL     1       7.584  10.303   5.251  1.00  0.00     0.031 C 
ATOM     30  C   UNL     1       6.417  12.334  -0.360  1.00  0.00     0.029 A 
ATOM     31  C   UNL     1       6.530  11.515   0.754  1.00  0.00     0.049 A 
ATOM     32  H   UNL     1       6.042   9.472   0.945  1.00  0.00     0.167 HD
ATOM     33  C   UNL     1       7.086  10.999   3.119  1.00  0.00     0.074 A 
ATOM     34  C   UNL     1       7.589  11.348   4.433  1.00  0.00     0.031 C 
ATOM     35  C   UNL     1       7.030  11.854   2.067  1.00  0.00     0.034 A 
BRANCH  22  36
ATOM     36  C   UNL     1       5.040   9.355  -3.214  1.00  0.00     0.023 A 
ATOM     37  C   UNL     1       6.039   9.809  -4.096  1.00  0.00     0.031 A 
ATOM     38  C   UNL     1       3.713   9.307  -3.679  1.00  0.00     0.131 A 
ATOM     39  C   UNL     1       5.688  10.243  -5.383  1.00  0.00     0.055 A 
ATOM     40  C   UNL     1       3.375   9.706  -4.974  1.00  0.00     0.041 A 
ATOM     41  F   UNL     1       2.721   8.915  -2.865  1.00  0.00    -0.206 F 
ATOM     42  C   UNL     1       4.362  10.190  -5.828  1.00  0.00     0.022 A 
BRANCH  39  43
ATOM     43  S   UNL     1       6.923  10.961  -6.502  1.00  0.00     0.124 S 
ATOM     44  O   UNL     1       6.783  10.118  -7.688  1.00  0.00    -0.237 OA
ATOM     45  O   UNL     1       6.442  12.331  -6.651  1.00  0.00    -0.237 OA
ATOM     46  O   UNL     1       8.181  10.805  -5.780  1.00  0.00    -0.744 OA
ENDBRANCH  39  43
ENDBRANCH  22  36
BRANCH  23  47
ATOM     47  C   UNL     1       7.015   7.636   6.472  1.00  0.00     0.023 A 
ATOM     48  C   UNL     1       7.879   6.577   6.815  1.00  0.00     0.031 A 
ATOM     49  C   UNL     1       6.335   8.295   7.507  1.00  0.00     0.131 A 
ATOM     50  C   UNL     1       7.968   6.151   8.146  1.00  0.00     0.055 A 
ATOM     51  C   UNL     1       6.490   7.920   8.842  1.00  0.00     0.041 A 
ATOM     52  F   UNL     1       5.487   9.297   7.229  1.00  0.00    -0.206 F 
ATOM     53  C   UNL     1       7.291   6.827   9.165  1.00  0.00     0.022 A 
BRANCH  50  54
ATOM     54  S   UNL     1       8.818   4.603   8.568  1.00  0.00     0.124 S 
ATOM     55  O   UNL     1       9.902   5.076   9.423  1.00  0.00    -0.237 OA
ATOM     56  O   UNL     1       7.761   3.854   9.243  1.00  0.00    -0.237 OA
ATOM     57  O   UNL     1       9.223   4.067   7.272  1.00  0.00    -0.744 OA
ENDBRANCH  50  54
ENDBRANCH  23  47
BRANCH  35  58
ATOM     58  C   UNL     1       7.526  13.266   2.259  1.00  0.00     0.023 A 
ATOM     59  C   UNL     1       6.646  14.348   2.062  1.00  0.00     0.031 A 
ATOM     60  C   UNL     1       8.887  13.544   2.467  1.00  0.00     0.131 A 
ATOM     61  C   UNL     1       7.147  15.653   2.018  1.00  0.00     0.055 A 
ATOM     62  C   UNL     1       9.371  14.852   2.487  1.00  0.00     0.041 A 
ATOM     63  F   UNL     1       9.768  12.546   2.648  1.00  0.00    -0.206 F 
ATOM     64  C   UNL     1       8.503  15.912   2.241  1.00  0.00     0.022 A 
BRANCH  61  65
ATOM     65  S   UNL     1       6.081  17.046   1.555  1.00  0.00     0.124 S 
ATOM     66  O   UNL     1       6.150  17.887   2.747  1.00  0.00    -0.237 OA
ATOM     67  O   UNL     1       6.764  17.575   0.377  1.00  0.00    -0.237 OA
ATOM     68  O   UNL     1       4.783  16.429   1.304  1.00  0.00    -0.744 OA
ENDBRANCH  61  65
ENDBRANCH  35  58
ENDBRANCH   9  10
ENDBRANCH   2   4
ENDBRANCH   1   2
BRANCH   1  69
ATOM     69  C   UNL     1       4.467  -1.024  -0.932  1.00  0.00     0.275 C 
BRANCH  69  70
ATOM     70  C   UNL     1       4.071  -0.190  -2.152  1.00  0.00     0.275 C 
BRANCH  70  71
ATOM     71  O   UNL     1       3.471   1.071  -1.822  1.00  0.00    -0.458 OA
BRANCH  71  72
ATOM     72  C   UNL     1       2.110   1.086  -1.795  1.00  0.00     0.339 C 
ATOM     73  O   UNL     1       1.378   0.135  -2.027  1.00  0.00    -0.246 OA
BRANCH  72  74
ATOM     74  C   UNL     1       1.620   2.421  -1.378  1.00  0.00     0.074 A 
ATOM     75  C   UNL     1       2.067   3.470  -2.084  1.00  0.00     0.088 A 
ATOM     76  C   UNL     1       0.696   2.633  -0.247  1.00  0.00     0.014 A 
ATOM     77  C   UNL     1       1.666   4.847  -1.742  1.00  0.00     0.249 A 
ATOM     78  C   UNL     1       0.445   3.953   0.173  1.00  0.00     0.063 A 
ATOM     79  C   UNL     1       0.143   1.576   0.491  1.00  0.00     0.011 A 
ATOM     80  O   UNL     1       1.982   5.774  -2.475  1.00  0.00    -0.270 OA
ATOM     81  N   UNL     1       0.957   5.014  -0.591  1.00  0.00    -0.321 N 
ATOM     82  C   UNL     1      -0.300   4.200   1.335  1.00  0.00     0.042 A 
ATOM     83  C   UNL     1      -0.606   1.827   1.645  1.00  0.00     0.002 A 
ATOM     84  H   UNL     1       0.794   5.933  -0.277  1.00  0.00     0.170 HD
ATOM     85  Br  UNL     1      -0.604   5.962   1.968  1.00  0.00    -0.049 Br
ATOM     86  C   UNL     1      -0.817   3.135   2.074  1.00  0.00     0.018 A 
ENDBRANCH  72  74
ENDBRANCH  71  72
ENDBRANCH  70  71
ENDBRANCH  69  70
ENDBRANCH   1  69
TORSDOF 14
