REMARK SMILES CC[C@@H]1SC[C@@H](C(=O)OCCOC(=O)c2ccc(-c3c4nc(c(-c5cc(S(=O)(=O)[O-])ccc5F)c5ccc([nH]5)c(-c5cc(S(=O)(=O)[O-])ccc5F)c5nc(c(-c6cc(S(=O)(=O)[O-])ccc6F)c6ccc3[nH]6)C=C5)C=C4)cc2)N1C(=O)c1ccc(C[NH3+])o1
REMARK SMILES IDX 10 1 9 2 7 3 8 4 6 5 3 6 4 7 78 8 5 9 2 10 1 11 79 12 80 13
REMARK SMILES IDX 81 14 82 15 87 16 83 17 84 18 85 19 86 20 11 24 12 25 13 26
REMARK SMILES IDX 14 27 15 28 16 29 77 30 17 31 76 32 18 33 19 34 20 35 70 36
REMARK SMILES IDX 21 37 75 38 69 39 71 40 22 41 74 42 68 43 67 44 23 46 55 47
REMARK SMILES IDX 35 48 54 49 36 50 39 51 53 52 72 53 37 54 38 55 52 57 73 58
REMARK SMILES IDX 40 59 24 60 25 61 33 62 26 63 32 64 34 65 31 66 27 67 28 68
REMARK SMILES IDX 29 69 30 70 56 71 57 72 65 73 58 74 64 75 66 76 63 77 59 78
REMARK SMILES IDX 60 79 61 80 62 81 41 82 42 83 50 84 43 85 49 86 51 87 48 88
REMARK SMILES IDX 44 89 45 90 46 91 47 92
REMARK H PARENT 86 21 86 22 86 23 71 45 39 56
REMARK Flexibility Score: inf
ROOT
ATOM      1  C   UNL     1       1.834   1.743  -0.739  1.00  0.00     0.274 C 
ENDROOT
BRANCH   1   2
ATOM      2  O   UNL     1       1.674   0.772   0.314  1.00  0.00    -0.461 OA
BRANCH   2   3
ATOM      3  C   UNL     1       2.831   0.265   0.826  1.00  0.00     0.329 C 
ATOM      4  O   UNL     1       3.954   0.558   0.426  1.00  0.00    -0.250 OA
BRANCH   3   5
ATOM      5  C   UNL     1       2.598  -0.808   1.901  1.00  0.00     0.206 C 
ATOM      6  C   UNL     1       0.392  -1.860   1.613  1.00  0.00     0.144 C 
ATOM      7  S   UNL     1       1.562  -2.787   0.526  1.00  0.00    -0.134 SA
ATOM      8  N   UNL     1       1.220  -0.955   2.401  1.00  0.00    -0.309 N 
ATOM      9  C   UNL     1       3.043  -2.149   1.348  1.00  0.00     0.109 C 
BRANCH   6  10
ATOM     10  C   UNL     1      -0.485  -2.885   2.348  1.00  0.00     0.033 C 
ATOM     11  C   UNL     1       0.169  -3.637   3.501  1.00  0.00     0.007 C 
ENDBRANCH   6  10
BRANCH   8  12
ATOM     12  C   UNL     1       0.849  -0.149   3.475  1.00  0.00     0.291 C 
ATOM     13  O   UNL     1       1.685   0.605   3.974  1.00  0.00    -0.265 OA
BRANCH  12  14
ATOM     14  C   UNL     1      -0.454  -0.284   4.078  1.00  0.00     0.192 A 
ATOM     15  C   UNL     1      -0.770  -0.573   5.393  1.00  0.00     0.057 A 
ATOM     16  O   UNL     1      -1.596   0.009   3.379  1.00  0.00    -0.450 OA
ATOM     17  C   UNL     1      -2.170  -0.466   5.511  1.00  0.00     0.052 A 
ATOM     18  C   UNL     1      -2.631  -0.061   4.276  1.00  0.00     0.159 A 
BRANCH  18  19
ATOM     19  C   UNL     1      -3.977   0.352   3.808  1.00  0.00     0.335 C 
BRANCH  19  20
ATOM     20  N   UNL     1      -4.695  -0.768   3.205  1.00  0.00    -0.351 N 
ATOM     21  H   UNL     1      -4.174  -1.110   2.397  1.00  0.00     0.344 HD
ATOM     22  H   UNL     1      -5.620  -0.457   2.906  1.00  0.00     0.344 HD
ATOM     23  H   UNL     1      -4.792  -1.518   3.889  1.00  0.00     0.344 HD
ENDBRANCH  19  20
ENDBRANCH  18  19
ENDBRANCH  12  14
ENDBRANCH   8  12
ENDBRANCH   3   5
ENDBRANCH   2   3
ENDBRANCH   1   2
BRANCH   1  24
ATOM     24  C   UNL     1       1.593   3.151  -0.208  1.00  0.00     0.275 C 
BRANCH  24  25
ATOM     25  O   UNL     1       2.472   3.402   0.898  1.00  0.00    -0.458 OA
BRANCH  25  26
ATOM     26  C   UNL     1       1.856   3.713   2.064  1.00  0.00     0.338 C 
ATOM     27  O   UNL     1       0.662   3.879   2.244  1.00  0.00    -0.246 OA
BRANCH  26  28
ATOM     28  C   UNL     1       2.872   3.901   3.111  1.00  0.00     0.060 A 
ATOM     29  C   UNL     1       3.679   2.837   3.514  1.00  0.00     0.016 A 
ATOM     30  C   UNL     1       2.941   5.129   3.768  1.00  0.00     0.016 A 
ATOM     31  C   UNL     1       4.495   2.970   4.636  1.00  0.00     0.010 A 
ATOM     32  C   UNL     1       3.817   5.285   4.843  1.00  0.00     0.010 A 
ATOM     33  C   UNL     1       4.571   4.194   5.314  1.00  0.00    -0.014 A 
BRANCH  33  34
ATOM     34  C   UNL     1       5.373   4.324   6.559  1.00  0.00     0.031 A 
ATOM     35  C   UNL     1       4.678   4.613   7.863  1.00  0.00     0.074 A 
ATOM     36  C   UNL     1       6.712   4.188   6.524  1.00  0.00     0.049 A 
ATOM     37  N   UNL     1       5.189   4.935   9.024  1.00  0.00    -0.248 NA
ATOM     38  C   UNL     1       3.209   4.547   7.850  1.00  0.00     0.031 C 
ATOM     39  C   UNL     1       7.498   3.860   5.333  1.00  0.00     0.029 A 
ATOM     40  N   UNL     1       7.649   4.313   7.518  1.00  0.00    -0.354 N 
ATOM     41  C   UNL     1       4.105   5.152   9.869  1.00  0.00     0.074 A 
ATOM     42  C   UNL     1       2.910   4.943   9.078  1.00  0.00     0.031 C 
ATOM     43  C   UNL     1       8.796   3.798   5.669  1.00  0.00     0.029 A 
ATOM     44  C   UNL     1       8.942   4.149   7.078  1.00  0.00     0.049 A 
ATOM     45  H   UNL     1       7.419   4.503   8.456  1.00  0.00     0.167 HD
ATOM     46  C   UNL     1       4.109   5.493  11.182  1.00  0.00     0.034 A 
ATOM     47  C   UNL     1      10.113   4.303   7.725  1.00  0.00     0.034 A 
ATOM     48  C   UNL     1       5.312   5.670  11.962  1.00  0.00     0.049 A 
ATOM     49  C   UNL     1      10.096   4.720   9.173  1.00  0.00     0.074 A 
ATOM     50  C   UNL     1       5.435   6.010  13.298  1.00  0.00     0.029 A 
ATOM     51  N   UNL     1       6.604   5.513  11.474  1.00  0.00    -0.354 N 
ATOM     52  N   UNL     1       9.067   4.978   9.946  1.00  0.00    -0.248 NA
ATOM     53  C   UNL     1      11.400   4.870   9.831  1.00  0.00     0.031 C 
ATOM     54  C   UNL     1       6.798   6.107  13.605  1.00  0.00     0.029 A 
ATOM     55  C   UNL     1       7.528   5.766  12.477  1.00  0.00     0.049 A 
ATOM     56  H   UNL     1       6.830   5.259  10.550  1.00  0.00     0.167 HD
ATOM     57  C   UNL     1       9.601   5.307  11.188  1.00  0.00     0.074 A 
ATOM     58  C   UNL     1      11.040   5.196  11.064  1.00  0.00     0.031 C 
ATOM     59  C   UNL     1       8.961   5.668  12.330  1.00  0.00     0.034 A 
BRANCH  46  60
ATOM     60  C   UNL     1       2.772   5.757  11.832  1.00  0.00     0.023 A 
ATOM     61  C   UNL     1       1.811   4.744  12.004  1.00  0.00     0.031 A 
ATOM     62  C   UNL     1       2.437   7.059  12.248  1.00  0.00     0.131 A 
ATOM     63  C   UNL     1       0.540   5.063  12.509  1.00  0.00     0.055 A 
ATOM     64  C   UNL     1       1.198   7.355  12.819  1.00  0.00     0.041 A 
ATOM     65  F   UNL     1       3.305   8.071  12.091  1.00  0.00    -0.206 F 
ATOM     66  C   UNL     1       0.235   6.357  12.938  1.00  0.00     0.022 A 
BRANCH  63  67
ATOM     67  S   UNL     1      -0.755   3.793  12.471  1.00  0.00     0.124 S 
ATOM     68  O   UNL     1      -0.830   3.487  11.045  1.00  0.00    -0.237 OA
ATOM     69  O   UNL     1      -0.198   2.748  13.321  1.00  0.00    -0.237 OA
ATOM     70  O   UNL     1      -1.926   4.480  13.014  1.00  0.00    -0.744 OA
ENDBRANCH  63  67
ENDBRANCH  46  60
BRANCH  47  71
ATOM     71  C   UNL     1      11.401   4.122   7.000  1.00  0.00     0.023 A 
ATOM     72  C   UNL     1      12.278   3.077   7.329  1.00  0.00     0.031 A 
ATOM     73  C   UNL     1      11.786   5.014   5.983  1.00  0.00     0.131 A 
ATOM     74  C   UNL     1      13.514   2.970   6.671  1.00  0.00     0.055 A 
ATOM     75  C   UNL     1      12.995   4.876   5.300  1.00  0.00     0.041 A 
ATOM     76  F   UNL     1      10.981   6.029   5.630  1.00  0.00    -0.206 F 
ATOM     77  C   UNL     1      13.872   3.855   5.651  1.00  0.00     0.022 A 
BRANCH  74  78
ATOM     78  S   UNL     1      14.681   1.693   7.216  1.00  0.00     0.124 S 
ATOM     79  O   UNL     1      14.879   2.048   8.617  1.00  0.00    -0.237 OA
ATOM     80  O   UNL     1      13.929   0.468   6.964  1.00  0.00    -0.237 OA
ATOM     81  O   UNL     1      15.840   1.900   6.350  1.00  0.00    -0.744 OA
ENDBRANCH  74  78
ENDBRANCH  47  71
BRANCH  59  82
ATOM     82  C   UNL     1       9.826   5.926  13.537  1.00  0.00     0.023 A 
ATOM     83  C   UNL     1      10.676   7.043  13.610  1.00  0.00     0.031 A 
ATOM     84  C   UNL     1       9.820   5.024  14.614  1.00  0.00     0.131 A 
ATOM     85  C   UNL     1      11.527   7.200  14.714  1.00  0.00     0.055 A 
ATOM     86  C   UNL     1      10.631   5.213  15.733  1.00  0.00     0.041 A 
ATOM     87  F   UNL     1       9.027   3.940  14.593  1.00  0.00    -0.206 F 
ATOM     88  C   UNL     1      11.501   6.299  15.782  1.00  0.00     0.022 A 
BRANCH  85  89
ATOM     89  S   UNL     1      12.737   8.553  14.698  1.00  0.00     0.124 S 
ATOM     90  O   UNL     1      13.497   8.267  13.486  1.00  0.00    -0.237 OA
ATOM     91  O   UNL     1      11.882   9.735  14.652  1.00  0.00    -0.237 OA
ATOM     92  O   UNL     1      13.472   8.370  15.948  1.00  0.00    -0.744 OA
ENDBRANCH  85  89
ENDBRANCH  59  82
ENDBRANCH  33  34
ENDBRANCH  26  28
ENDBRANCH  25  26
ENDBRANCH  24  25
ENDBRANCH   1  24
TORSDOF 19
