REMARK SMILES O=C(NC(=S)Nc1ccccc1C(=O)OCCOC(=O)c1ccc(-c2c3nc(c(-c4cc(S(=O)(=O)[O-])ccc4F)c4ccc([nH]4)c(-c4cc(S(=O)(=O)[O-])ccc4F)c4nc(c(-c5cc(S(=O)(=O)[O-])ccc5F)c5ccc2[nH]5)C=C4)C=C3)cc1)c1ccc2ccccc2c1
REMARK SMILES IDX 16 1 15 2 13 3 14 4 12 5 7 6 8 7 9 8 11 9 10 10 6 11 4 13
REMARK SMILES IDX 5 14 3 15 1 16 2 17 84 19 85 20 93 21 86 22 92 23 87 24
REMARK SMILES IDX 91 25 88 26 90 27 89 28 17 29 18 30 19 31 20 32 21 33 22 34
REMARK SMILES IDX 83 35 23 36 82 37 24 38 25 39 26 40 76 41 27 42 81 43 75 44
REMARK SMILES IDX 77 45 28 46 80 47 74 48 73 49 29 51 61 52 41 53 60 54 42 55
REMARK SMILES IDX 45 56 59 57 78 58 43 59 44 60 58 62 79 63 46 64 30 65 31 66
REMARK SMILES IDX 39 67 32 68 38 69 40 70 37 71 33 72 34 73 35 74 36 75 62 76
REMARK SMILES IDX 63 77 71 78 64 79 70 80 72 81 69 82 65 83 66 84 67 85 68 86
REMARK SMILES IDX 47 87 48 88 56 89 49 90 55 91 57 92 54 93 50 94 51 95 52 96
REMARK SMILES IDX 53 97
REMARK H PARENT 6 12 3 18 77 50 45 61
REMARK Flexibility Score: inf
ROOT
ATOM      1  C   UNL     1       3.474  -1.280   2.986  1.00  0.00     0.275 C 
ENDROOT
BRANCH   1   2
ATOM      2  O   UNL     1       4.202  -0.241   2.281  1.00  0.00    -0.458 OA
BRANCH   2   3
ATOM      3  C   UNL     1       3.384   0.555   1.563  1.00  0.00     0.340 C 
ATOM      4  O   UNL     1       2.162   0.468   1.566  1.00  0.00    -0.246 OA
BRANCH   3   5
ATOM      5  C   UNL     1       4.008   1.470   0.569  1.00  0.00     0.083 A 
ATOM      6  C   UNL     1       5.132   0.600  -0.797  1.00  0.00     0.055 A 
ATOM      7  C   UNL     1       5.145   1.331  -2.673  1.00  0.00     0.027 A 
ATOM      8  C   UNL     1       3.967   2.909  -2.878  1.00  0.00     0.002 A 
ATOM      9  C   UNL     1       2.802   3.019   0.336  1.00  0.00     0.018 A 
ATOM     10  C   UNL     1       2.836   3.776  -1.521  1.00  0.00     0.001 A 
BRANCH   6  11
ATOM     11  N   UNL     1       5.319  -0.791  -0.703  1.00  0.00    -0.332 N 
ATOM     12  H   UNL     1       6.240  -1.129  -0.784  1.00  0.00     0.169 HD
BRANCH  11  13
ATOM     13  C   UNL     1       4.337  -1.704  -0.510  1.00  0.00     0.177 C 
ATOM     14  S   UNL     1       4.777  -3.267  -0.097  1.00  0.00    -0.040 S 
BRANCH  13  15
ATOM     15  N   UNL     1       2.986  -1.431  -0.709  1.00  0.00    -0.299 N 
ATOM     16  O   UNL     1       0.872  -0.838  -1.327  1.00  0.00    -0.269 OA
ATOM     17  C   UNL     1       2.042  -0.471  -1.195  1.00  0.00     0.257 C 
ATOM     18  H   UNL     1       2.476  -2.209  -0.387  1.00  0.00     0.172 HD
BRANCH  17  19
ATOM     19  C   UNL     1       2.342   0.922  -1.654  1.00  0.00     0.040 A 
ATOM     20  C   UNL     1       3.577   1.245  -1.658  1.00  0.00     0.014 A 
ATOM     21  C   UNL     1       3.011   1.939  -1.131  1.00  0.00     0.022 A 
ATOM     22  C   UNL     1       5.148   2.468  -1.218  1.00  0.00     0.009 A 
ATOM     23  C   UNL     1       4.425   3.333  -0.522  1.00  0.00    -0.018 A 
ATOM     24  C   UNL     1       5.640   3.549  -0.785  1.00  0.00    -0.018 A 
ATOM     25  C   UNL     1       4.546   4.659   0.436  1.00  0.00     0.009 A 
ATOM     26  C   UNL     1       6.325   4.672  -1.382  1.00  0.00     0.009 A 
ATOM     27  C   UNL     1       5.476   5.755   0.440  1.00  0.00     0.001 A 
ATOM     28  C   UNL     1       6.335   5.802  -0.623  1.00  0.00     0.001 A 
ENDBRANCH  17  19
ENDBRANCH  13  15
ENDBRANCH  11  13
ENDBRANCH   6  11
ENDBRANCH   3   5
ENDBRANCH   2   3
ENDBRANCH   1   2
BRANCH   1  29
ATOM     29  C   UNL     1       3.024  -0.886   4.398  1.00  0.00     0.275 C 
BRANCH  29  30
ATOM     30  O   UNL     1       2.023   0.148   4.394  1.00  0.00    -0.458 OA
BRANCH  30  31
ATOM     31  C   UNL     1       2.515   1.396   4.564  1.00  0.00     0.338 C 
ATOM     32  O   UNL     1       3.684   1.699   4.748  1.00  0.00    -0.246 OA
BRANCH  31  33
ATOM     33  C   UNL     1       1.463   2.419   4.458  1.00  0.00     0.060 A 
ATOM     34  C   UNL     1       0.888   2.677   3.222  1.00  0.00     0.016 A 
ATOM     35  C   UNL     1       1.250   3.304   5.511  1.00  0.00     0.016 A 
ATOM     36  C   UNL     1       0.288   3.904   2.975  1.00  0.00     0.010 A 
ATOM     37  C   UNL     1       0.478   4.453   5.302  1.00  0.00     0.010 A 
ATOM     38  C   UNL     1       0.038   4.802   4.013  1.00  0.00    -0.014 A 
BRANCH  38  39
ATOM     39  C   UNL     1      -0.640   6.102   3.736  1.00  0.00     0.031 A 
ATOM     40  C   UNL     1      -0.043   7.385   4.255  1.00  0.00     0.074 A 
ATOM     41  C   UNL     1      -1.783   6.144   3.018  1.00  0.00     0.049 A 
ATOM     42  N   UNL     1      -0.596   8.562   4.391  1.00  0.00    -0.248 NA
ATOM     43  C   UNL     1       1.356   7.326   4.709  1.00  0.00     0.031 C 
ATOM     44  C   UNL     1      -2.430   4.997   2.372  1.00  0.00     0.029 A 
ATOM     45  N   UNL     1      -2.612   7.195   2.707  1.00  0.00    -0.354 N 
ATOM     46  C   UNL     1       0.353   9.359   5.024  1.00  0.00     0.074 A 
ATOM     47  C   UNL     1       1.516   8.527   5.246  1.00  0.00     0.031 C 
ATOM     48  C   UNL     1      -3.515   5.410   1.708  1.00  0.00     0.029 A 
ATOM     49  C   UNL     1      -3.741   6.812   2.017  1.00  0.00     0.049 A 
ATOM     50  H   UNL     1      -2.418   8.128   2.953  1.00  0.00     0.167 HD
ATOM     51  C   UNL     1       0.246  10.660   5.393  1.00  0.00     0.034 A 
ATOM     52  C   UNL     1      -4.880   7.475   1.743  1.00  0.00     0.034 A 
ATOM     53  C   UNL     1      -0.918  11.469   5.113  1.00  0.00     0.049 A 
ATOM     54  C   UNL     1      -5.017   8.887   2.236  1.00  0.00     0.074 A 
ATOM     55  C   UNL     1      -1.137  12.800   5.419  1.00  0.00     0.029 A 
ATOM     56  N   UNL     1      -2.060  11.021   4.457  1.00  0.00    -0.354 N 
ATOM     57  N   UNL     1      -4.153   9.611   2.911  1.00  0.00    -0.248 NA
ATOM     58  C   UNL     1      -6.282   9.567   1.945  1.00  0.00     0.031 C 
ATOM     59  C   UNL     1      -2.441  13.129   5.034  1.00  0.00     0.029 A 
ATOM     60  C   UNL     1      -3.000  12.038   4.388  1.00  0.00     0.049 A 
ATOM     61  H   UNL     1      -2.183  10.114   4.096  1.00  0.00     0.167 HD
ATOM     62  C   UNL     1      -4.764  10.845   3.103  1.00  0.00     0.074 A 
ATOM     63  C   UNL     1      -6.060  10.768   2.458  1.00  0.00     0.031 C 
ATOM     64  C   UNL     1      -4.294  11.942   3.749  1.00  0.00     0.034 A 
BRANCH  51  65
ATOM     65  C   UNL     1       1.370  11.255   6.213  1.00  0.00     0.023 A 
ATOM     66  C   UNL     1       2.686  11.361   5.730  1.00  0.00     0.031 A 
ATOM     67  C   UNL     1       1.122  11.689   7.529  1.00  0.00     0.131 A 
ATOM     68  C   UNL     1       3.712  11.803   6.581  1.00  0.00     0.055 A 
ATOM     69  C   UNL     1       2.129  12.218   8.339  1.00  0.00     0.041 A 
ATOM     70  F   UNL     1      -0.107  11.591   8.062  1.00  0.00    -0.206 F 
ATOM     71  C   UNL     1       3.438  12.259   7.872  1.00  0.00     0.022 A 
BRANCH  68  72
ATOM     72  S   UNL     1       5.432  11.605   6.038  1.00  0.00     0.124 S 
ATOM     73  O   UNL     1       5.493  10.169   5.771  1.00  0.00    -0.237 OA
ATOM     74  O   UNL     1       5.497  12.474   4.870  1.00  0.00    -0.237 OA
ATOM     75  O   UNL     1       6.210  12.049   7.193  1.00  0.00    -0.744 OA
ENDBRANCH  68  72
ENDBRANCH  51  65
BRANCH  52  76
ATOM     76  C   UNL     1      -6.009   6.775   1.061  1.00  0.00     0.023 A 
ATOM     77  C   UNL     1      -6.484   7.207  -0.185  1.00  0.00     0.031 A 
ATOM     78  C   UNL     1      -6.637   5.662   1.654  1.00  0.00     0.131 A 
ATOM     79  C   UNL     1      -7.571   6.552  -0.783  1.00  0.00     0.055 A 
ATOM     80  C   UNL     1      -7.671   4.970   1.022  1.00  0.00     0.041 A 
ATOM     81  F   UNL     1      -6.231   5.208   2.851  1.00  0.00    -0.206 F 
ATOM     82  C   UNL     1      -8.152   5.423  -0.201  1.00  0.00     0.022 A 
BRANCH  79  83
ATOM     83  S   UNL     1      -8.279   7.255  -2.297  1.00  0.00     0.124 S 
ATOM     84  O   UNL     1      -8.638   8.599  -1.859  1.00  0.00    -0.237 OA
ATOM     85  O   UNL     1      -7.160   7.160  -3.228  1.00  0.00    -0.237 OA
ATOM     86  O   UNL     1      -9.406   6.371  -2.588  1.00  0.00    -0.744 OA
ENDBRANCH  79  83
ENDBRANCH  52  76
BRANCH  64  87
ATOM     87  C   UNL     1      -5.169  13.171   3.728  1.00  0.00     0.023 A 
ATOM     88  C   UNL     1      -6.420  13.204   4.366  1.00  0.00     0.031 A 
ATOM     89  C   UNL     1      -4.745  14.322   3.040  1.00  0.00     0.131 A 
ATOM     90  C   UNL     1      -7.231  14.342   4.247  1.00  0.00     0.055 A 
ATOM     91  C   UNL     1      -5.522  15.478   2.993  1.00  0.00     0.041 A 
ATOM     92  F   UNL     1      -3.562  14.342   2.403  1.00  0.00    -0.206 F 
ATOM     93  C   UNL     1      -6.781  15.487   3.586  1.00  0.00     0.022 A 
BRANCH  90  94
ATOM     94  S   UNL     1      -8.935  14.262   4.864  1.00  0.00     0.124 S 
ATOM     95  O   UNL     1      -9.476  13.137   4.109  1.00  0.00    -0.237 OA
ATOM     96  O   UNL     1      -8.739  14.037   6.293  1.00  0.00    -0.237 OA
ATOM     97  O   UNL     1      -9.488  15.569   4.513  1.00  0.00    -0.744 OA
ENDBRANCH  90  94
ENDBRANCH  64  87
ENDBRANCH  38  39
ENDBRANCH  31  33
ENDBRANCH  30  31
ENDBRANCH  29  30
ENDBRANCH   1  29
TORSDOF 18
