REMARK SMILES O=C(OCCOC(=O)[C@@H]1[C@@H](C(=O)NCCCn2ccnc2)[C@@H]2C=C[C@H]1C2)c1ccc(-c2c3nc(c(-c4cc(S(=O)(=O)[O-])ccc4F)c4ccc([nH]4)c(-c4cc(S(=O)(=O)[O-])ccc4F)c4nc(c(-c5cc(S(=O)(=O)[O-])ccc5F)c5ccc2[nH]5)C=C4)C=C3)cc1
REMARK SMILES IDX 5 1 4 2 3 3 2 4 1 5 27 6 28 7 89 8 29 9 88 10 30 11 31 12
REMARK SMILES IDX 32 13 82 14 33 15 87 16 81 17 83 18 34 19 86 20 80 21 79 22
REMARK SMILES IDX 35 24 67 25 47 26 66 27 48 28 51 29 65 30 84 31 49 32 50 33
REMARK SMILES IDX 64 35 85 36 52 37 36 38 37 39 45 40 38 41 44 42 46 43 43 44
REMARK SMILES IDX 39 45 40 46 41 47 42 48 68 49 69 50 77 51 70 52 76 53 78 54
REMARK SMILES IDX 75 55 71 56 72 57 73 58 74 59 53 60 54 61 62 62 55 63 61 64
REMARK SMILES IDX 63 65 60 66 56 67 57 68 58 69 59 70 6 71 7 72 8 73 9 74
REMARK SMILES IDX 10 75 25 76 22 77 24 78 26 79 23 80 11 81 12 82 13 83 14 85
REMARK SMILES IDX 15 86 16 87 17 88 18 89 21 90 19 91 20 92
REMARK H PARENT 83 23 51 34 13 84
REMARK Flexibility Score: inf
ROOT
ATOM      1  C   UNL     1       4.437  -1.160  -0.713  1.00  0.00     0.274 C 
ENDROOT
BRANCH   1   2
ATOM      2  C   UNL     1       5.003  -0.704   0.635  1.00  0.00     0.275 C 
BRANCH   2   3
ATOM      3  O   UNL     1       4.066  -0.343   1.661  1.00  0.00    -0.458 OA
BRANCH   3   4
ATOM      4  C   UNL     1       2.837   0.053   1.265  1.00  0.00     0.338 C 
ATOM      5  O   UNL     1       1.927  -0.700   0.988  1.00  0.00    -0.246 OA
BRANCH   4   6
ATOM      6  C   UNL     1       2.713   1.527   1.315  1.00  0.00     0.060 A 
ATOM      7  C   UNL     1       3.789   2.397   1.087  1.00  0.00     0.016 A 
ATOM      8  C   UNL     1       1.434   2.034   1.530  1.00  0.00     0.016 A 
ATOM      9  C   UNL     1       3.585   3.774   1.097  1.00  0.00     0.010 A 
ATOM     10  C   UNL     1       1.230   3.402   1.516  1.00  0.00     0.010 A 
ATOM     11  C   UNL     1       2.304   4.277   1.333  1.00  0.00    -0.014 A 
BRANCH  11  12
ATOM     12  C   UNL     1       2.070   5.720   1.326  1.00  0.00     0.031 A 
ATOM     13  C   UNL     1       2.418   6.448   0.071  1.00  0.00     0.074 A 
ATOM     14  C   UNL     1       1.389   6.344   2.309  1.00  0.00     0.049 A 
ATOM     15  N   UNL     1       3.380   7.291  -0.125  1.00  0.00    -0.248 NA
ATOM     16  C   UNL     1       1.669   6.127  -1.150  1.00  0.00     0.031 C 
ATOM     17  C   UNL     1       0.728   5.752   3.476  1.00  0.00     0.029 A 
ATOM     18  N   UNL     1       1.041   7.656   2.402  1.00  0.00    -0.354 N 
ATOM     19  C   UNL     1       3.221   7.782  -1.424  1.00  0.00     0.074 A 
ATOM     20  C   UNL     1       2.284   6.891  -2.056  1.00  0.00     0.031 C 
ATOM     21  C   UNL     1      -0.135   6.646   4.008  1.00  0.00     0.029 A 
ATOM     22  C   UNL     1       0.048   7.921   3.339  1.00  0.00     0.049 A 
ATOM     23  H   UNL     1       1.458   8.358   1.853  1.00  0.00     0.167 HD
ATOM     24  C   UNL     1       3.710   9.004  -1.792  1.00  0.00     0.034 A 
ATOM     25  C   UNL     1      -0.596   9.100   3.544  1.00  0.00     0.034 A 
ATOM     26  C   UNL     1       4.618   9.516  -0.788  1.00  0.00     0.049 A 
ATOM     27  C   UNL     1       0.297  10.164   3.022  1.00  0.00     0.074 A 
ATOM     28  C   UNL     1       5.799   9.073  -0.226  1.00  0.00     0.029 A 
ATOM     29  N   UNL     1       4.145  10.482   0.074  1.00  0.00    -0.354 N 
ATOM     30  N   UNL     1       1.470  10.418   3.538  1.00  0.00    -0.248 NA
ATOM     31  C   UNL     1       0.125  10.595   1.643  1.00  0.00     0.031 C 
ATOM     32  C   UNL     1       5.667   9.376   1.162  1.00  0.00     0.029 A 
ATOM     33  C   UNL     1       4.468  10.071   1.343  1.00  0.00     0.049 A 
ATOM     34  H   UNL     1       3.668  11.307  -0.173  1.00  0.00     0.167 HD
ATOM     35  C   UNL     1       2.306  10.612   2.449  1.00  0.00     0.074 A 
ATOM     36  C   UNL     1       1.403  10.817   1.315  1.00  0.00     0.031 C 
ATOM     37  C   UNL     1       3.637  10.306   2.508  1.00  0.00     0.034 A 
BRANCH  24  38
ATOM     38  C   UNL     1       3.143   9.930  -2.855  1.00  0.00     0.023 A 
ATOM     39  C   UNL     1       3.797  11.168  -3.047  1.00  0.00     0.031 A 
ATOM     40  C   UNL     1       1.874   9.815  -3.460  1.00  0.00     0.131 A 
ATOM     41  C   UNL     1       3.152  12.245  -3.680  1.00  0.00     0.055 A 
ATOM     42  C   UNL     1       1.265  10.868  -4.153  1.00  0.00     0.041 A 
ATOM     43  F   UNL     1       1.113   8.722  -3.341  1.00  0.00    -0.206 F 
ATOM     44  C   UNL     1       1.885  12.104  -4.234  1.00  0.00     0.022 A 
BRANCH  41  45
ATOM     45  S   UNL     1       3.921  13.886  -3.589  1.00  0.00     0.124 S 
ATOM     46  O   UNL     1       4.106  14.042  -2.150  1.00  0.00    -0.237 OA
ATOM     47  O   UNL     1       5.133  13.696  -4.378  1.00  0.00    -0.237 OA
ATOM     48  O   UNL     1       2.918  14.764  -4.188  1.00  0.00    -0.744 OA
ENDBRANCH  41  45
ENDBRANCH  24  38
BRANCH  25  49
ATOM     49  C   UNL     1      -2.039   9.286   3.855  1.00  0.00     0.023 A 
ATOM     50  C   UNL     1      -2.559  10.455   4.448  1.00  0.00     0.031 A 
ATOM     51  C   UNL     1      -2.980   8.364   3.341  1.00  0.00     0.131 A 
ATOM     52  C   UNL     1      -3.960  10.660   4.510  1.00  0.00     0.055 A 
ATOM     53  C   UNL     1      -4.360   8.571   3.404  1.00  0.00     0.041 A 
ATOM     54  F   UNL     1      -2.583   7.263   2.683  1.00  0.00    -0.206 F 
ATOM     55  C   UNL     1      -4.856   9.727   3.982  1.00  0.00     0.022 A 
BRANCH  52  56
ATOM     56  S   UNL     1      -4.643  12.199   5.209  1.00  0.00     0.124 S 
ATOM     57  O   UNL     1      -4.324  12.066   6.625  1.00  0.00    -0.237 OA
ATOM     58  O   UNL     1      -3.916  13.228   4.474  1.00  0.00    -0.237 OA
ATOM     59  O   UNL     1      -6.069  12.116   4.891  1.00  0.00    -0.744 OA
ENDBRANCH  52  56
ENDBRANCH  25  49
BRANCH  37  60
ATOM     60  C   UNL     1       4.253   9.973   3.854  1.00  0.00     0.023 A 
ATOM     61  C   UNL     1       3.833   8.917   4.696  1.00  0.00     0.031 A 
ATOM     62  C   UNL     1       5.417  10.671   4.218  1.00  0.00     0.131 A 
ATOM     63  C   UNL     1       4.572   8.601   5.854  1.00  0.00     0.055 A 
ATOM     64  C   UNL     1       6.158  10.342   5.352  1.00  0.00     0.041 A 
ATOM     65  F   UNL     1       5.886  11.664   3.444  1.00  0.00    -0.206 F 
ATOM     66  C   UNL     1       5.735   9.308   6.178  1.00  0.00     0.022 A 
BRANCH  63  67
ATOM     67  S   UNL     1       4.032   7.267   6.974  1.00  0.00     0.124 S 
ATOM     68  O   UNL     1       2.608   7.523   7.153  1.00  0.00    -0.237 OA
ATOM     69  O   UNL     1       4.377   6.063   6.221  1.00  0.00    -0.237 OA
ATOM     70  O   UNL     1       4.844   7.482   8.174  1.00  0.00    -0.744 OA
ENDBRANCH  63  67
ENDBRANCH  37  60
ENDBRANCH  11  12
ENDBRANCH   4   6
ENDBRANCH   3   4
ENDBRANCH   2   3
ENDBRANCH   1   2
BRANCH   1  71
ATOM     71  O   UNL     1       3.690  -0.116  -1.377  1.00  0.00    -0.462 OA
BRANCH  71  72
ATOM     72  C   UNL     1       2.657  -0.548  -2.157  1.00  0.00     0.310 C 
ATOM     73  O   UNL     1       2.340  -1.727  -2.286  1.00  0.00    -0.252 OA
BRANCH  72  74
ATOM     74  C   UNL     1       2.059   0.534  -3.043  1.00  0.00     0.119 C 
ATOM     75  C   UNL     1       2.308   2.035  -2.705  1.00  0.00     0.100 C 
ATOM     76  C   UNL     1       0.516   0.431  -3.086  1.00  0.00     0.027 C 
ATOM     77  C   UNL     1       0.845   2.600  -2.682  1.00  0.00     0.025 C 
ATOM     78  C   UNL     1      -0.065   0.723  -1.726  1.00  0.00    -0.027 C 
ATOM     79  C   UNL     1       0.173   1.757  -3.772  1.00  0.00     0.017 C 
ATOM     80  C   UNL     1       0.104   2.031  -1.502  1.00  0.00    -0.027 C 
BRANCH  75  81
ATOM     81  C   UNL     1       3.099   2.845  -3.740  1.00  0.00     0.224 C 
ATOM     82  O   UNL     1       2.696   3.936  -4.153  1.00  0.00    -0.275 OA
ATOM     83  N   UNL     1       4.313   2.465  -4.211  1.00  0.00    -0.356 N 
ATOM     84  H   UNL     1       4.809   3.184  -4.664  1.00  0.00     0.163 HD
BRANCH  83  85
ATOM     85  C   UNL     1       5.012   1.202  -4.173  1.00  0.00     0.117 C 
BRANCH  85  86
ATOM     86  C   UNL     1       4.814   0.427  -5.479  1.00  0.00     0.043 C 
BRANCH  86  87
ATOM     87  C   UNL     1       5.607   1.004  -6.652  1.00  0.00     0.125 C 
BRANCH  87  88
ATOM     88  N   UNL     1       7.035   0.852  -6.468  1.00  0.00    -0.337 N 
ATOM     89  C   UNL     1       7.759  -0.281  -6.709  1.00  0.00     0.107 A 
ATOM     90  C   UNL     1       7.883   1.786  -5.946  1.00  0.00     0.199 A 
ATOM     91  C   UNL     1       9.027   0.013  -6.268  1.00  0.00     0.130 A 
ATOM     92  N   UNL     1       9.093   1.298  -5.797  1.00  0.00    -0.245 NA
ENDBRANCH  87  88
ENDBRANCH  86  87
ENDBRANCH  85  86
ENDBRANCH  83  85
ENDBRANCH  75  81
ENDBRANCH  72  74
ENDBRANCH  71  72
ENDBRANCH   1  71
TORSDOF 19
