REMARK SMILES Cc1[nH]cnc1C[NH+]1CCC(Oc2cccc(F)c2)(C(=O)OCCOC(=O)c2ccc(-c3c4nc(c(-c5cc(S(=O)(=O)[O-])ccc5F)c5ccc([nH]5)c(-c5cc(S(=O)(=O)[O-])ccc5F)c5nc(c(-c6cc(S(=O)(=O)[O-])ccc6F)c6ccc3[nH]6)C=C5)C=C4)cc2)CC1
REMARK SMILES IDX 24 1 23 2 22 3 20 4 21 5 11 6 8 7 9 8 92 9 10 11 91 12 7 13
REMARK SMILES IDX 6 14 1 15 2 16 3 17 4 18 5 20 12 21 13 22 14 23 19 24 15 25
REMARK SMILES IDX 17 26 16 27 18 28 25 29 26 30 27 31 28 32 29 33 90 34 30 35
REMARK SMILES IDX 89 36 31 37 32 38 33 39 83 40 34 41 88 42 82 43 84 44 35 45
REMARK SMILES IDX 87 46 81 47 80 48 36 50 68 51 48 52 67 53 49 54 52 55 66 56
REMARK SMILES IDX 85 57 50 58 51 59 65 61 86 62 53 63 37 64 38 65 46 66 39 67
REMARK SMILES IDX 45 68 47 69 44 70 40 71 41 72 42 73 43 74 69 75 70 76 78 77
REMARK SMILES IDX 71 78 77 79 79 80 76 81 72 82 73 83 74 84 75 85 54 86 55 87
REMARK SMILES IDX 63 88 56 89 62 90 64 91 61 92 57 93 58 94 59 95 60 96
REMARK H PARENT 8 10 3 19 84 49 52 60
REMARK Flexibility Score: inf
ROOT
ATOM      1  C   UNL     1      -2.670   0.675   4.512  1.00  0.00     0.275 C 
ENDROOT
BRANCH   1   2
ATOM      2  C   UNL     1      -2.387  -0.488   5.455  1.00  0.00     0.274 C 
BRANCH   2   3
ATOM      3  O   UNL     1      -1.524  -1.465   4.839  1.00  0.00    -0.459 OA
BRANCH   3   4
ATOM      4  C   UNL     1      -2.158  -2.549   4.303  1.00  0.00     0.351 C 
ATOM      5  O   UNL     1      -3.381  -2.654   4.242  1.00  0.00    -0.247 OA
BRANCH   4   6
ATOM      6  C   UNL     1      -1.200  -3.689   3.915  1.00  0.00     0.216 C 
ATOM      7  N   UNL     1       0.347  -3.334   1.479  1.00  0.00    -0.330 N 
ATOM      8  C   UNL     1       0.725  -2.557   2.656  1.00  0.00     0.267 C 
ATOM      9  C   UNL     1      -1.107  -3.434   1.376  1.00  0.00     0.267 C 
ATOM     10  H   UNL     1       0.731  -4.268   1.621  1.00  0.00     0.348 HD
ATOM     11  C   UNL     1       0.291  -3.309   3.913  1.00  0.00     0.122 C 
ATOM     12  C   UNL     1      -1.634  -4.263   2.546  1.00  0.00     0.122 C 
BRANCH   7  13
ATOM     13  C   UNL     1       0.961  -2.870   0.218  1.00  0.00     0.321 C 
BRANCH  13  14
ATOM     14  C   UNL     1       0.781  -1.409  -0.074  1.00  0.00     0.115 A 
ATOM     15  C   UNL     1       3.119  -0.335   0.445  1.00  0.00     0.066 C 
ATOM     16  C   UNL     1       1.703  -0.379   0.025  1.00  0.00     0.040 A 
ATOM     17  N   UNL     1       1.035   0.737  -0.408  1.00  0.00    -0.348 N 
ATOM     18  C   UNL     1      -0.214   0.352  -0.788  1.00  0.00     0.197 A 
ATOM     19  H   UNL     1       1.395   1.653  -0.439  1.00  0.00     0.167 HD
ATOM     20  N   UNL     1      -0.412  -0.926  -0.571  1.00  0.00    -0.236 NA
ENDBRANCH  13  14
ENDBRANCH   7  13
BRANCH   6  21
ATOM     21  O   UNL     1      -1.443  -4.530   5.090  1.00  0.00    -0.475 OA
BRANCH  21  22
ATOM     22  C   UNL     1      -1.521  -5.872   4.879  1.00  0.00     0.123 A 
ATOM     23  C   UNL     1      -0.370  -6.650   4.989  1.00  0.00     0.047 A 
ATOM     24  C   UNL     1      -2.762  -6.462   4.655  1.00  0.00     0.085 A 
ATOM     25  C   UNL     1      -0.448  -8.031   4.812  1.00  0.00     0.007 A 
ATOM     26  C   UNL     1      -2.827  -7.839   4.482  1.00  0.00     0.126 A 
ATOM     27  C   UNL     1      -1.681  -8.627   4.551  1.00  0.00     0.039 A 
ATOM     28  F   UNL     1      -4.010  -8.422   4.254  1.00  0.00    -0.207 F 
ENDBRANCH  21  22
ENDBRANCH   6  21
ENDBRANCH   4   6
ENDBRANCH   3   4
ENDBRANCH   2   3
ENDBRANCH   1   2
BRANCH   1  29
ATOM     29  O   UNL     1      -3.307   0.185   3.323  1.00  0.00    -0.458 OA
BRANCH  29  30
ATOM     30  C   UNL     1      -2.806   0.652   2.158  1.00  0.00     0.338 C 
ATOM     31  O   UNL     1      -1.949   1.520   2.035  1.00  0.00    -0.246 OA
BRANCH  30  32
ATOM     32  C   UNL     1      -3.452  -0.016   1.006  1.00  0.00     0.060 A 
ATOM     33  C   UNL     1      -3.845  -1.356   1.054  1.00  0.00     0.016 A 
ATOM     34  C   UNL     1      -3.551   0.692  -0.194  1.00  0.00     0.016 A 
ATOM     35  C   UNL     1      -4.203  -2.021  -0.120  1.00  0.00     0.010 A 
ATOM     36  C   UNL     1      -3.979   0.045  -1.354  1.00  0.00     0.010 A 
ATOM     37  C   UNL     1      -4.275  -1.325  -1.334  1.00  0.00    -0.014 A 
BRANCH  37  38
ATOM     38  C   UNL     1      -4.733  -1.989  -2.579  1.00  0.00     0.031 A 
ATOM     39  C   UNL     1      -3.818  -2.136  -3.762  1.00  0.00     0.074 A 
ATOM     40  C   UNL     1      -6.011  -2.405  -2.654  1.00  0.00     0.049 A 
ATOM     41  N   UNL     1      -4.116  -2.438  -5.000  1.00  0.00    -0.248 NA
ATOM     42  C   UNL     1      -2.383  -1.919  -3.525  1.00  0.00     0.031 C 
ATOM     43  C   UNL     1      -6.975  -2.373  -1.552  1.00  0.00     0.029 A 
ATOM     44  N   UNL     1      -6.724  -2.916  -3.707  1.00  0.00    -0.354 N 
ATOM     45  C   UNL     1      -2.913  -2.424  -5.698  1.00  0.00     0.074 A 
ATOM     46  C   UNL     1      -1.878  -2.084  -4.742  1.00  0.00     0.031 C 
ATOM     47  C   UNL     1      -8.152  -2.842  -1.986  1.00  0.00     0.029 A 
ATOM     48  C   UNL     1      -8.050  -3.118  -3.413  1.00  0.00     0.049 A 
ATOM     49  H   UNL     1      -6.326  -3.117  -4.585  1.00  0.00     0.167 HD
ATOM     50  C   UNL     1      -2.704  -2.667  -7.015  1.00  0.00     0.034 A 
ATOM     51  C   UNL     1      -9.090  -3.420  -4.211  1.00  0.00     0.034 A 
ATOM     52  C   UNL     1      -3.754  -3.013  -7.946  1.00  0.00     0.049 A 
ATOM     53  C   UNL     1      -8.858  -3.571  -5.683  1.00  0.00     0.074 A 
ATOM     54  C   UNL     1      -3.651  -3.286  -9.300  1.00  0.00     0.029 A 
ATOM     55  N   UNL     1      -5.099  -3.132  -7.621  1.00  0.00    -0.354 N 
ATOM     56  N   UNL     1      -7.737  -3.455  -6.353  1.00  0.00    -0.248 NA
ATOM     57  C   UNL     1     -10.034  -3.869  -6.508  1.00  0.00     0.031 C 
ATOM     58  C   UNL     1      -4.938  -3.517  -9.802  1.00  0.00     0.029 A 
ATOM     59  C   UNL     1      -5.838  -3.445  -8.752  1.00  0.00     0.049 A 
ATOM     60  H   UNL     1      -5.473  -3.012  -6.718  1.00  0.00     0.167 HD
ATOM     61  C   UNL     1      -8.070  -3.666  -7.684  1.00  0.00     0.074 A 
ATOM     62  C   UNL     1      -9.497  -3.925  -7.720  1.00  0.00     0.031 C 
ATOM     63  C   UNL     1      -7.266  -3.653  -8.777  1.00  0.00     0.034 A 
BRANCH  50  64
ATOM     64  C   UNL     1      -1.306  -2.508  -7.555  1.00  0.00     0.023 A 
ATOM     65  C   UNL     1      -0.292  -3.447  -7.299  1.00  0.00     0.031 A 
ATOM     66  C   UNL     1      -1.006  -1.419  -8.395  1.00  0.00     0.131 A 
ATOM     67  C   UNL     1       0.982  -3.268  -7.865  1.00  0.00     0.055 A 
ATOM     68  C   UNL     1       0.248  -1.272  -8.991  1.00  0.00     0.041 A 
ATOM     69  F   UNL     1      -1.934  -0.487  -8.660  1.00  0.00    -0.206 F 
ATOM     70  C   UNL     1       1.250  -2.199  -8.726  1.00  0.00     0.022 A 
BRANCH  67  71
ATOM     71  S   UNL     1       2.309  -4.434  -7.446  1.00  0.00     0.124 S 
ATOM     72  O   UNL     1       2.521  -4.147  -6.030  1.00  0.00    -0.237 OA
ATOM     73  O   UNL     1       1.708  -5.727  -7.754  1.00  0.00    -0.237 OA
ATOM     74  O   UNL     1       3.406  -4.036  -8.326  1.00  0.00    -0.744 OA
ENDBRANCH  67  71
ENDBRANCH  50  64
BRANCH  51  75
ATOM     75  C   UNL     1     -10.451  -3.495  -3.622  1.00  0.00     0.023 A 
ATOM     76  C   UNL     1     -11.083  -4.729  -3.421  1.00  0.00     0.031 A 
ATOM     77  C   UNL     1     -11.101  -2.328  -3.181  1.00  0.00     0.131 A 
ATOM     78  C   UNL     1     -12.334  -4.770  -2.788  1.00  0.00     0.055 A 
ATOM     79  C   UNL     1     -12.329  -2.377  -2.523  1.00  0.00     0.041 A 
ATOM     80  F   UNL     1     -10.521  -1.128  -3.339  1.00  0.00    -0.206 F 
ATOM     81  C   UNL     1     -12.952  -3.605  -2.323  1.00  0.00     0.022 A 
BRANCH  78  82
ATOM     82  S   UNL     1     -13.143  -6.376  -2.559  1.00  0.00     0.124 S 
ATOM     83  O   UNL     1     -13.444  -6.755  -3.935  1.00  0.00    -0.237 OA
ATOM     84  O   UNL     1     -12.104  -7.153  -1.892  1.00  0.00    -0.237 OA
ATOM     85  O   UNL     1     -14.304  -6.057  -1.731  1.00  0.00    -0.744 OA
ENDBRANCH  78  82
ENDBRANCH  51  75
BRANCH  63  86
ATOM     86  C   UNL     1      -7.925  -3.941 -10.096  1.00  0.00     0.023 A 
ATOM     87  C   UNL     1      -8.748  -2.991 -10.723  1.00  0.00     0.031 A 
ATOM     88  C   UNL     1      -7.747  -5.189 -10.718  1.00  0.00     0.131 A 
ATOM     89  C   UNL     1      -9.402  -3.321 -11.920  1.00  0.00     0.055 A 
ATOM     90  C   UNL     1      -8.365  -5.495 -11.930  1.00  0.00     0.041 A 
ATOM     91  F   UNL     1      -6.972  -6.128 -10.153  1.00  0.00    -0.206 F 
ATOM     92  C   UNL     1      -9.205  -4.562 -12.533  1.00  0.00     0.022 A 
BRANCH  89  93
ATOM     93  S   UNL     1     -10.559  -2.126 -12.641  1.00  0.00     0.124 S 
ATOM     94  O   UNL     1     -11.610  -2.077 -11.629  1.00  0.00    -0.237 OA
ATOM     95  O   UNL     1      -9.739  -0.926 -12.767  1.00  0.00    -0.237 OA
ATOM     96  O   UNL     1     -10.946  -2.745 -13.907  1.00  0.00    -0.744 OA
ENDBRANCH  89  93
ENDBRANCH  63  86
ENDBRANCH  37  38
ENDBRANCH  30  32
ENDBRANCH  29  30
ENDBRANCH   1  29
TORSDOF 18
