REMARK SMILES CNc1cc(-c2cncc(SCC(=O)OCCOC(=O)c3ccc(-c4c5nc(c(-c6cc(S(=O)(=O)[O-])ccc6F)c6ccc([nH]6)c(-c6cc(S(=O)(=O)[O-])ccc6F)c6nc(c(-c7cc(S(=O)(=O)[O-])ccc7F)c7ccc4[nH]7)C=C6)C=C5)cc3)n2)c2cc[nH]c2n1
REMARK SMILES IDX 16 1 15 2 13 3 14 4 12 5 11 6 10 7 6 8 7 9 84 10 8 11 9 12
REMARK SMILES IDX 5 13 3 14 4 15 90 16 89 17 85 18 88 19 86 20 87 21 2 23 1 24
REMARK SMILES IDX 17 26 18 27 19 28 20 29 21 30 22 31 83 32 23 33 82 34 24 35
REMARK SMILES IDX 25 36 26 37 76 38 27 39 81 40 75 41 77 42 28 43 80 44 74 45
REMARK SMILES IDX 73 46 29 48 61 49 41 50 60 51 42 52 45 53 59 54 78 55 43 56
REMARK SMILES IDX 44 57 58 59 79 60 46 61 30 62 31 63 39 64 32 65 38 66 40 67
REMARK SMILES IDX 37 68 33 69 34 70 35 71 36 72 62 73 63 74 71 75 64 76 70 77
REMARK SMILES IDX 72 78 69 79 65 80 66 81 67 82 68 83 47 84 48 85 56 86 49 87
REMARK SMILES IDX 55 88 57 89 54 90 50 91 51 92 52 93 53 94
REMARK H PARENT 88 22 2 25 77 47 45 58
REMARK Flexibility Score: inf
ROOT
ATOM      1  C   UNL     1      -3.823  -2.474  -8.489  1.00  0.00     0.274 C 
ENDROOT
BRANCH   1   2
ATOM      2  O   UNL     1      -4.449  -2.906  -7.261  1.00  0.00    -0.461 OA
BRANCH   2   3
ATOM      3  C   UNL     1      -3.855  -3.937  -6.605  1.00  0.00     0.316 C 
ATOM      4  O   UNL     1      -2.973  -4.636  -7.104  1.00  0.00    -0.251 OA
BRANCH   3   5
ATOM      5  C   UNL     1      -4.276  -4.130  -5.158  1.00  0.00     0.199 C 
BRANCH   5   6
ATOM      6  S   UNL     1      -5.785  -3.270  -4.632  1.00  0.00    -0.093 SA
BRANCH   6   7
ATOM      7  C   UNL     1      -5.197  -2.444  -3.156  1.00  0.00     0.116 A 
ATOM      8  C   UNL     1      -3.859  -0.802  -2.179  1.00  0.00     0.091 A 
ATOM      9  C   UNL     1      -4.538  -1.002  -0.980  1.00  0.00     0.140 A 
ATOM     10  N   UNL     1      -4.186  -1.553  -3.268  1.00  0.00    -0.238 NA
ATOM     11  N   UNL     1      -5.548  -1.900  -0.835  1.00  0.00    -0.260 NA
ATOM     12  C   UNL     1      -5.863  -2.602  -1.950  1.00  0.00     0.146 A 
BRANCH   8  13
ATOM     13  C   UNL     1      -2.856   0.263  -2.362  1.00  0.00     0.016 A 
ATOM     14  C   UNL     1      -0.961   1.639  -1.627  1.00  0.00     0.128 A 
ATOM     15  C   UNL     1      -1.833   0.562  -1.428  1.00  0.00     0.058 A 
ATOM     16  N   UNL     1      -1.005   2.429  -2.713  1.00  0.00    -0.213 NA
ATOM     17  C   UNL     1      -1.967   2.120  -3.588  1.00  0.00     0.140 A 
ATOM     18  C   UNL     1      -2.914   1.111  -3.493  1.00  0.00     0.028 A 
ATOM     19  N   UNL     1      -2.150   2.788  -4.765  1.00  0.00    -0.346 N 
ATOM     20  C   UNL     1      -3.738   1.254  -4.652  1.00  0.00     0.030 A 
ATOM     21  C   UNL     1      -3.222   2.266  -5.434  1.00  0.00     0.085 A 
ATOM     22  H   UNL     1      -1.592   3.534  -5.085  1.00  0.00     0.167 HD
BRANCH  14  23
ATOM     23  N   UNL     1      -0.009   2.036  -0.725  1.00  0.00    -0.373 N 
ATOM     24  C   UNL     1       0.686   1.166   0.186  1.00  0.00     0.141 C 
ATOM     25  H   UNL     1       0.216   2.993  -0.697  1.00  0.00     0.161 HD
ENDBRANCH  14  23
ENDBRANCH   8  13
ENDBRANCH   6   7
ENDBRANCH   5   6
ENDBRANCH   3   5
ENDBRANCH   2   3
ENDBRANCH   1   2
BRANCH   1  26
ATOM     26  C   UNL     1      -2.925  -1.240  -8.286  1.00  0.00     0.275 C 
BRANCH  26  27
ATOM     27  O   UNL     1      -1.728  -1.526  -7.529  1.00  0.00    -0.458 OA
BRANCH  27  28
ATOM     28  C   UNL     1      -1.953  -1.495  -6.196  1.00  0.00     0.338 C 
ATOM     29  O   UNL     1      -3.035  -1.309  -5.680  1.00  0.00    -0.246 OA
BRANCH  28  30
ATOM     30  C   UNL     1      -0.778  -1.785  -5.374  1.00  0.00     0.060 A 
ATOM     31  C   UNL     1      -0.585  -3.087  -4.904  1.00  0.00     0.016 A 
ATOM     32  C   UNL     1      -0.023  -0.725  -4.874  1.00  0.00     0.016 A 
ATOM     33  C   UNL     1       0.373  -3.335  -3.923  1.00  0.00     0.010 A 
ATOM     34  C   UNL     1       0.943  -0.974  -3.900  1.00  0.00     0.010 A 
ATOM     35  C   UNL     1       1.148  -2.280  -3.422  1.00  0.00    -0.014 A 
BRANCH  35  36
ATOM     36  C   UNL     1       2.306  -2.552  -2.545  1.00  0.00     0.031 A 
ATOM     37  C   UNL     1       2.233  -2.395  -1.061  1.00  0.00     0.074 A 
ATOM     38  C   UNL     1       3.462  -2.875  -3.149  1.00  0.00     0.049 A 
ATOM     39  N   UNL     1       3.208  -2.293  -0.195  1.00  0.00    -0.248 NA
ATOM     40  C   UNL     1       0.891  -2.325  -0.472  1.00  0.00     0.031 C 
ATOM     41  C   UNL     1       3.614  -3.115  -4.587  1.00  0.00     0.029 A 
ATOM     42  N   UNL     1       4.720  -3.042  -2.643  1.00  0.00    -0.354 N 
ATOM     43  C   UNL     1       2.607  -2.029   1.031  1.00  0.00     0.074 A 
ATOM     44  C   UNL     1       1.175  -2.083   0.803  1.00  0.00     0.031 C 
ATOM     45  C   UNL     1       4.898  -3.396  -4.848  1.00  0.00     0.029 A 
ATOM     46  C   UNL     1       5.660  -3.298  -3.609  1.00  0.00     0.049 A 
ATOM     47  H   UNL     1       4.930  -2.985  -1.683  1.00  0.00     0.167 HD
ATOM     48  C   UNL     1       3.219  -1.704   2.200  1.00  0.00     0.034 A 
ATOM     49  C   UNL     1       6.995  -3.411  -3.510  1.00  0.00     0.034 A 
ATOM     50  C   UNL     1       4.655  -1.766   2.390  1.00  0.00     0.049 A 
ATOM     51  C   UNL     1       7.631  -3.240  -2.165  1.00  0.00     0.074 A 
ATOM     52  C   UNL     1       5.392  -1.509   3.535  1.00  0.00     0.029 A 
ATOM     53  N   UNL     1       5.572  -2.142   1.413  1.00  0.00    -0.354 N 
ATOM     54  N   UNL     1       7.074  -2.874  -1.034  1.00  0.00    -0.248 NA
ATOM     55  C   UNL     1       9.070  -3.508  -2.078  1.00  0.00     0.031 C 
ATOM     56  C   UNL     1       6.750  -1.693   3.241  1.00  0.00     0.029 A 
ATOM     57  C   UNL     1       6.860  -2.129   1.931  1.00  0.00     0.049 A 
ATOM     58  H   UNL     1       5.341  -2.383   0.487  1.00  0.00     0.167 HD
ATOM     59  C   UNL     1       8.096  -2.870  -0.095  1.00  0.00     0.074 A 
ATOM     60  C   UNL     1       9.297  -3.297  -0.789  1.00  0.00     0.031 C 
ATOM     61  C   UNL     1       8.047  -2.539   1.220  1.00  0.00     0.034 A 
BRANCH  48  62
ATOM     62  C   UNL     1       2.366  -1.141   3.316  1.00  0.00     0.023 A 
ATOM     63  C   UNL     1       1.341  -1.865   3.944  1.00  0.00     0.031 A 
ATOM     64  C   UNL     1       2.579   0.187   3.743  1.00  0.00     0.131 A 
ATOM     65  C   UNL     1       0.524  -1.237   4.902  1.00  0.00     0.055 A 
ATOM     66  C   UNL     1       1.824   0.774   4.761  1.00  0.00     0.041 A 
ATOM     67  F   UNL     1       3.519   0.948   3.161  1.00  0.00    -0.206 F 
ATOM     68  C   UNL     1       0.777   0.066   5.336  1.00  0.00     0.022 A 
BRANCH  65  69
ATOM     69  S   UNL     1      -0.973  -2.096   5.458  1.00  0.00     0.124 S 
ATOM     70  O   UNL     1      -1.708  -2.232   4.202  1.00  0.00    -0.237 OA
ATOM     71  O   UNL     1      -0.439  -3.329   6.023  1.00  0.00    -0.237 OA
ATOM     72  O   UNL     1      -1.563  -1.170   6.422  1.00  0.00    -0.744 OA
ENDBRANCH  65  69
ENDBRANCH  48  62
BRANCH  49  73
ATOM     73  C   UNL     1       7.792  -3.707  -4.724  1.00  0.00     0.023 A 
ATOM     74  C   UNL     1       8.330  -4.986  -4.921  1.00  0.00     0.031 A 
ATOM     75  C   UNL     1       7.971  -2.742  -5.729  1.00  0.00     0.131 A 
ATOM     76  C   UNL     1       9.040  -5.266  -6.095  1.00  0.00     0.055 A 
ATOM     77  C   UNL     1       8.652  -3.035  -6.911  1.00  0.00     0.041 A 
ATOM     78  F   UNL     1       7.447  -1.514  -5.592  1.00  0.00    -0.206 F 
ATOM     79  C   UNL     1       9.196  -4.303  -7.096  1.00  0.00     0.022 A 
BRANCH  76  80
ATOM     80  S   UNL     1       9.773  -6.912  -6.286  1.00  0.00     0.124 S 
ATOM     81  O   UNL     1      10.680  -6.970  -5.145  1.00  0.00    -0.237 OA
ATOM     82  O   UNL     1       8.599  -7.776  -6.216  1.00  0.00    -0.237 OA
ATOM     83  O   UNL     1      10.418  -6.848  -7.595  1.00  0.00    -0.744 OA
ENDBRANCH  76  80
ENDBRANCH  49  73
BRANCH  61  84
ATOM     84  C   UNL     1       9.337  -2.664   1.985  1.00  0.00     0.023 A 
ATOM     85  C   UNL     1      10.415  -1.790   1.758  1.00  0.00     0.031 A 
ATOM     86  C   UNL     1       9.505  -3.703   2.915  1.00  0.00     0.131 A 
ATOM     87  C   UNL     1      11.637  -2.010   2.408  1.00  0.00     0.055 A 
ATOM     88  C   UNL     1      10.709  -3.889   3.594  1.00  0.00     0.041 A 
ATOM     89  F   UNL     1       8.506  -4.565   3.163  1.00  0.00    -0.206 F 
ATOM     90  C   UNL     1      11.789  -3.049   3.331  1.00  0.00     0.022 A 
BRANCH  87  91
ATOM     91  S   UNL     1      13.060  -0.979   1.958  1.00  0.00     0.124 S 
ATOM     92  O   UNL     1      13.171  -1.224   0.523  1.00  0.00    -0.237 OA
ATOM     93  O   UNL     1      12.612   0.355   2.344  1.00  0.00    -0.237 OA
ATOM     94  O   UNL     1      14.149  -1.525   2.766  1.00  0.00    -0.744 OA
ENDBRANCH  87  91
ENDBRANCH  61  84
ENDBRANCH  35  36
ENDBRANCH  28  30
ENDBRANCH  27  28
ENDBRANCH  26  27
ENDBRANCH   1  26
TORSDOF 18
