REMARK SMILES C[C@@H](C(=O)OCCOC(=O)c1ccc(-c2c3nc(c(-c4cc(S(=O)(=O)[O-])ccc4F)c4ccc([nH]4)c(-c4cc(S(=O)(=O)[O-])ccc4F)c4nc(c(-c5cc(S(=O)(=O)[O-])ccc5F)c5ccc2[nH]5)C=C4)C=C3)cc1)c1cccn(C(F)F)c1=O
REMARK SMILES IDX 7 1 6 2 5 3 3 4 4 5 2 6 1 7 74 8 75 9 82 10 76 11 78 12
REMARK SMILES IDX 83 13 77 14 79 15 80 16 81 17 8 18 9 19 10 20 11 21 12 22
REMARK SMILES IDX 73 23 13 24 72 25 14 26 15 27 16 28 66 29 17 30 71 31 65 32
REMARK SMILES IDX 67 33 18 34 70 35 64 36 63 37 19 39 51 40 31 41 50 42 32 43
REMARK SMILES IDX 35 44 49 45 68 46 33 47 34 48 48 50 69 51 36 52 20 53 21 54
REMARK SMILES IDX 29 55 22 56 28 57 30 58 27 59 23 60 24 61 25 62 26 63 52 64
REMARK SMILES IDX 53 65 61 66 54 67 60 68 62 69 59 70 55 71 56 72 57 73 58 74
REMARK SMILES IDX 37 75 38 76 46 77 39 78 45 79 47 80 44 81 40 82 41 83 42 84
REMARK SMILES IDX 43 85
REMARK H PARENT 67 38 35 49
REMARK Flexibility Score: inf
ROOT
ATOM      1  C   UNL     1       2.289   3.306   2.945  1.00  0.00     0.275 C 
ENDROOT
BRANCH   1   2
ATOM      2  C   UNL     1       2.813   1.891   3.173  1.00  0.00     0.274 C 
BRANCH   2   3
ATOM      3  O   UNL     1       2.373   1.018   2.112  1.00  0.00    -0.462 OA
BRANCH   3   4
ATOM      4  C   UNL     1       1.265   0.267   2.367  1.00  0.00     0.313 C 
ATOM      5  O   UNL     1       0.697   0.231   3.454  1.00  0.00    -0.252 OA
BRANCH   4   6
ATOM      6  C   UNL     1       0.902  -0.648   1.196  1.00  0.00     0.132 C 
ATOM      7  C   UNL     1       1.528  -0.238  -0.140  1.00  0.00     0.025 C 
BRANCH   6   8
ATOM      8  C   UNL     1      -0.602  -0.848   1.149  1.00  0.00     0.032 A 
ATOM      9  C   UNL     1      -1.208  -1.904   1.724  1.00  0.00     0.012 A 
ATOM     10  C   UNL     1      -1.464   0.166   0.445  1.00  0.00     0.259 A 
ATOM     11  C   UNL     1      -2.635  -2.085   1.667  1.00  0.00     0.019 A 
ATOM     12  N   UNL     1      -2.819  -0.108   0.391  1.00  0.00    -0.258 N 
ATOM     13  O   UNL     1      -0.956   1.179  -0.029  1.00  0.00    -0.269 OA
ATOM     14  C   UNL     1      -3.389  -1.210   0.997  1.00  0.00     0.095 A 
BRANCH  12  15
ATOM     15  C   UNL     1      -3.650   0.782  -0.387  1.00  0.00     0.451 C 
ATOM     16  F   UNL     1      -3.830   0.245  -1.620  1.00  0.00    -0.185 F 
ATOM     17  F   UNL     1      -4.881   0.883   0.176  1.00  0.00    -0.185 F 
ENDBRANCH  12  15
ENDBRANCH   6   8
ENDBRANCH   4   6
ENDBRANCH   3   4
ENDBRANCH   2   3
ENDBRANCH   1   2
BRANCH   1  18
ATOM     18  O   UNL     1       0.859   3.289   3.058  1.00  0.00    -0.458 OA
BRANCH  18  19
ATOM     19  C   UNL     1       0.186   4.088   2.196  1.00  0.00     0.338 C 
ATOM     20  O   UNL     1       0.677   4.892   1.422  1.00  0.00    -0.246 OA
BRANCH  19  21
ATOM     21  C   UNL     1      -1.273   3.876   2.357  1.00  0.00     0.060 A 
ATOM     22  C   UNL     1      -1.791   2.631   2.712  1.00  0.00     0.016 A 
ATOM     23  C   UNL     1      -2.149   4.928   2.080  1.00  0.00     0.016 A 
ATOM     24  C   UNL     1      -3.170   2.413   2.692  1.00  0.00     0.010 A 
ATOM     25  C   UNL     1      -3.534   4.728   2.158  1.00  0.00     0.010 A 
ATOM     26  C   UNL     1      -4.069   3.454   2.416  1.00  0.00    -0.014 A 
BRANCH  26  27
ATOM     27  C   UNL     1      -5.542   3.192   2.322  1.00  0.00     0.031 A 
ATOM     28  C   UNL     1      -6.306   3.567   1.069  1.00  0.00     0.074 A 
ATOM     29  C   UNL     1      -6.203   2.565   3.319  1.00  0.00     0.049 A 
ATOM     30  N   UNL     1      -7.597   3.559   0.849  1.00  0.00    -0.248 NA
ATOM     31  C   UNL     1      -5.511   4.014  -0.086  1.00  0.00     0.031 C 
ATOM     32  C   UNL     1      -5.602   2.076   4.561  1.00  0.00     0.029 A 
ATOM     33  N   UNL     1      -7.527   2.212   3.439  1.00  0.00    -0.354 N 
ATOM     34  C   UNL     1      -7.770   4.027  -0.451  1.00  0.00     0.074 A 
ATOM     35  C   UNL     1      -6.451   4.328  -0.965  1.00  0.00     0.031 C 
ATOM     36  C   UNL     1      -6.533   1.436   5.283  1.00  0.00     0.029 A 
ATOM     37  C   UNL     1      -7.826   1.572   4.622  1.00  0.00     0.049 A 
ATOM     38  H   UNL     1      -8.199   2.399   2.744  1.00  0.00     0.167 HD
ATOM     39  C   UNL     1      -8.918   4.193  -1.155  1.00  0.00     0.034 A 
ATOM     40  C   UNL     1      -9.006   1.187   5.152  1.00  0.00     0.034 A 
ATOM     41  C   UNL     1     -10.231   3.870  -0.652  1.00  0.00     0.049 A 
ATOM     42  C   UNL     1     -10.277   1.480   4.399  1.00  0.00     0.074 A 
ATOM     43  C   UNL     1     -11.457   4.025  -1.278  1.00  0.00     0.029 A 
ATOM     44  N   UNL     1     -10.493   3.319   0.595  1.00  0.00    -0.354 N 
ATOM     45  N   UNL     1     -10.429   2.026   3.216  1.00  0.00    -0.248 NA
ATOM     46  C   UNL     1     -11.537   1.130   5.068  1.00  0.00     0.031 C 
ATOM     47  C   UNL     1     -12.461   3.629  -0.388  1.00  0.00     0.029 A 
ATOM     48  C   UNL     1     -11.861   3.158   0.768  1.00  0.00     0.049 A 
ATOM     49  H   UNL     1      -9.809   3.078   1.260  1.00  0.00     0.167 HD
ATOM     50  C   UNL     1     -11.803   2.087   3.002  1.00  0.00     0.074 A 
ATOM     51  C   UNL     1     -12.433   1.492   4.162  1.00  0.00     0.031 C 
ATOM     52  C   UNL     1     -12.483   2.597   1.943  1.00  0.00     0.034 A 
BRANCH  39  53
ATOM     53  C   UNL     1      -8.810   4.821  -2.524  1.00  0.00     0.023 A 
ATOM     54  C   UNL     1      -8.203   4.162  -3.607  1.00  0.00     0.031 A 
ATOM     55  C   UNL     1      -9.321   6.114  -2.740  1.00  0.00     0.131 A 
ATOM     56  C   UNL     1      -8.080   4.818  -4.843  1.00  0.00     0.055 A 
ATOM     57  C   UNL     1      -9.254   6.734  -3.989  1.00  0.00     0.041 A 
ATOM     58  F   UNL     1      -9.891   6.799  -1.736  1.00  0.00    -0.206 F 
ATOM     59  C   UNL     1      -8.621   6.090  -5.046  1.00  0.00     0.022 A 
BRANCH  56  60
ATOM     60  S   UNL     1      -7.098   4.036  -6.154  1.00  0.00     0.124 S 
ATOM     61  O   UNL     1      -5.804   3.872  -5.498  1.00  0.00    -0.237 OA
ATOM     62  O   UNL     1      -7.844   2.811  -6.417  1.00  0.00    -0.237 OA
ATOM     63  O   UNL     1      -7.120   5.023  -7.233  1.00  0.00    -0.744 OA
ENDBRANCH  56  60
ENDBRANCH  39  53
BRANCH  40  64
ATOM     64  C   UNL     1      -9.055   0.581   6.517  1.00  0.00     0.023 A 
ATOM     65  C   UNL     1      -9.541  -0.719   6.725  1.00  0.00     0.031 A 
ATOM     66  C   UNL     1      -8.647   1.320   7.644  1.00  0.00     0.131 A 
ATOM     67  C   UNL     1      -9.628  -1.231   8.031  1.00  0.00     0.055 A 
ATOM     68  C   UNL     1      -8.678   0.784   8.931  1.00  0.00     0.041 A 
ATOM     69  F   UNL     1      -8.188   2.574   7.505  1.00  0.00    -0.206 F 
ATOM     70  C   UNL     1      -9.181  -0.496   9.132  1.00  0.00     0.022 A 
BRANCH  67  71
ATOM     71  S   UNL     1     -10.410  -2.848   8.285  1.00  0.00     0.124 S 
ATOM     72  O   UNL     1     -11.743  -2.624   7.738  1.00  0.00    -0.237 OA
ATOM     73  O   UNL     1      -9.540  -3.731   7.515  1.00  0.00    -0.237 OA
ATOM     74  O   UNL     1     -10.352  -3.030   9.734  1.00  0.00    -0.744 OA
ENDBRANCH  67  71
ENDBRANCH  40  64
BRANCH  52  75
ATOM     75  C   UNL     1     -13.988   2.514   1.996  1.00  0.00     0.023 A 
ATOM     76  C   UNL     1     -14.732   3.268   2.921  1.00  0.00     0.031 A 
ATOM     77  C   UNL     1     -14.684   1.652   1.132  1.00  0.00     0.131 A 
ATOM     78  C   UNL     1     -16.123   3.104   2.998  1.00  0.00     0.055 A 
ATOM     79  C   UNL     1     -16.074   1.534   1.175  1.00  0.00     0.041 A 
ATOM     80  F   UNL     1     -14.023   0.906   0.232  1.00  0.00    -0.206 F 
ATOM     81  C   UNL     1     -16.800   2.252   2.121  1.00  0.00     0.022 A 
BRANCH  78  82
ATOM     82  S   UNL     1     -17.030   3.951   4.322  1.00  0.00     0.124 S 
ATOM     83  O   UNL     1     -16.378   3.430   5.518  1.00  0.00    -0.237 OA
ATOM     84  O   UNL     1     -16.781   5.357   4.021  1.00  0.00    -0.237 OA
ATOM     85  O   UNL     1     -18.411   3.512   4.128  1.00  0.00    -0.744 OA
ENDBRANCH  78  82
ENDBRANCH  52  75
ENDBRANCH  26  27
ENDBRANCH  19  21
ENDBRANCH  18  19
ENDBRANCH   1  18
TORSDOF 16
