REMARK SMILES CC[C@H](C)[C@H](NC(=O)[C@H](C(C)C)n1c(=O)[nH]c2ccccc2c1=O)C(=O)OCCOC(=O)c1ccc(-c2c3nc(c(-c4cc(S(=O)(=O)[O-])ccc4F)c4ccc([nH]4)c(-c4cc(S(=O)(=O)[O-])ccc4F)c4nc(c(-c5cc(S(=O)(=O)[O-])ccc5F)c5ccc2[nH]5)C=C4)C=C3)cc1
REMARK SMILES IDX 28 1 27 2 25 3 26 4 5 5 3 6 4 7 2 8 1 9 6 10 7 11 8 13 9 14
REMARK SMILES IDX 13 15 14 16 23 17 15 18 16 19 22 20 24 21 17 22 21 24 18 25
REMARK SMILES IDX 20 26 19 27 10 28 11 29 12 30 29 31 30 32 31 33 32 34 33 35
REMARK SMILES IDX 34 36 95 37 35 38 94 39 36 40 37 41 38 42 88 43 39 44 93 45
REMARK SMILES IDX 87 46 89 47 40 48 92 49 86 50 85 51 41 53 73 54 53 55 72 56
REMARK SMILES IDX 54 57 57 58 71 59 90 60 55 61 56 62 70 64 91 65 58 66 42 67
REMARK SMILES IDX 43 68 51 69 44 70 50 71 52 72 49 73 45 74 46 75 47 76 48 77
REMARK SMILES IDX 74 78 75 79 83 80 76 81 82 82 84 83 81 84 77 85 78 86 79 87
REMARK SMILES IDX 80 88 59 89 60 90 68 91 61 92 67 93 69 94 66 95 62 96 63 97
REMARK SMILES IDX 64 98 65 99
REMARK H PARENT 6 12 16 23 89 52 57 63
REMARK Flexibility Score: inf
ROOT
ATOM      1  C   UNL     1       2.260   0.926   1.567  1.00  0.00     0.274 C 
ENDROOT
BRANCH   1   2
ATOM      2  O   UNL     1       0.932   1.536   1.805  1.00  0.00    -0.461 OA
BRANCH   2   3
ATOM      3  C   UNL     1       0.608   1.923   3.100  1.00  0.00     0.329 C 
ATOM      4  O   UNL     1       1.216   1.492   4.077  1.00  0.00    -0.250 OA
BRANCH   3   5
ATOM      5  C   UNL     1      -0.443   3.142   3.210  1.00  0.00     0.195 C 
BRANCH   5   6
ATOM      6  C   UNL     1      -1.110   3.405   4.616  1.00  0.00     0.019 C 
ATOM      7  C   UNL     1      -2.189   4.519   4.558  1.00  0.00     0.010 C 
BRANCH   6   8
ATOM      8  C   UNL     1      -1.666   2.134   5.281  1.00  0.00     0.002 C 
ATOM      9  C   UNL     1      -2.532   2.404   6.510  1.00  0.00     0.004 C 
ENDBRANCH   6   8
ENDBRANCH   5   6
BRANCH   5  10
ATOM     10  N   UNL     1      -1.450   3.358   2.164  1.00  0.00    -0.341 N 
ATOM     11  C   UNL     1      -1.699   4.511   1.457  1.00  0.00     0.244 C 
ATOM     12  H   UNL     1      -2.015   2.583   1.942  1.00  0.00     0.164 HD
ATOM     13  O   UNL     1      -2.888   4.750   1.211  1.00  0.00    -0.273 OA
BRANCH  11  14
ATOM     14  C   UNL     1      -0.580   5.341   0.777  1.00  0.00     0.187 C 
BRANCH  14  15
ATOM     15  N   UNL     1       0.254   6.283   1.656  1.00  0.00    -0.247 N 
ATOM     16  C   UNL     1      -0.184   7.609   1.676  1.00  0.00     0.329 A 
ATOM     17  C   UNL     1       1.384   5.933   2.410  1.00  0.00     0.264 A 
ATOM     18  O   UNL     1      -1.112   8.040   0.987  1.00  0.00    -0.248 OA
ATOM     19  N   UNL     1       0.447   8.491   2.510  1.00  0.00    -0.307 N 
ATOM     20  C   UNL     1       1.867   6.844   3.455  1.00  0.00     0.064 A 
ATOM     21  O   UNL     1       2.066   4.917   2.332  1.00  0.00    -0.268 OA
ATOM     22  C   UNL     1       1.419   8.144   3.438  1.00  0.00     0.055 A 
ATOM     23  H   UNL     1       0.193   9.441   2.448  1.00  0.00     0.171 HD
ATOM     24  C   UNL     1       2.786   6.415   4.429  1.00  0.00     0.016 A 
ATOM     25  C   UNL     1       1.929   9.063   4.356  1.00  0.00     0.027 A 
ATOM     26  C   UNL     1       3.274   7.317   5.370  1.00  0.00     0.001 A 
ATOM     27  C   UNL     1       2.858   8.646   5.321  1.00  0.00     0.002 A 
ENDBRANCH  14  15
BRANCH  14  28
ATOM     28  C   UNL     1       0.053   4.454  -0.333  1.00  0.00     0.016 C 
ATOM     29  C   UNL     1       1.204   3.710   0.205  1.00  0.00     0.010 C 
ATOM     30  C   UNL     1      -0.848   3.352  -0.953  1.00  0.00     0.010 C 
ENDBRANCH  14  28
ENDBRANCH  11  14
ENDBRANCH   5  10
ENDBRANCH   3   5
ENDBRANCH   2   3
ENDBRANCH   1   2
BRANCH   1  31
ATOM     31  C   UNL     1       3.018   1.238   0.191  1.00  0.00     0.275 C 
BRANCH  31  32
ATOM     32  O   UNL     1       3.762   2.526   0.141  1.00  0.00    -0.458 OA
BRANCH  32  33
ATOM     33  C   UNL     1       3.882   3.196  -1.069  1.00  0.00     0.338 C 
ATOM     34  O   UNL     1       3.486   2.767  -2.144  1.00  0.00    -0.246 OA
BRANCH  33  35
ATOM     35  C   UNL     1       4.354   4.632  -0.902  1.00  0.00     0.060 A 
ATOM     36  C   UNL     1       5.686   4.994  -0.721  1.00  0.00     0.016 A 
ATOM     37  C   UNL     1       3.425   5.683  -0.970  1.00  0.00     0.016 A 
ATOM     38  C   UNL     1       6.036   6.352  -0.472  1.00  0.00     0.010 A 
ATOM     39  C   UNL     1       3.739   6.993  -0.581  1.00  0.00     0.010 A 
ATOM     40  C   UNL     1       5.061   7.362  -0.334  1.00  0.00    -0.014 A 
BRANCH  40  41
ATOM     41  C   UNL     1       5.395   8.795  -0.033  1.00  0.00     0.031 A 
ATOM     42  C   UNL     1       5.894   9.236   1.323  1.00  0.00     0.074 A 
ATOM     43  C   UNL     1       5.133   9.770  -0.931  1.00  0.00     0.049 A 
ATOM     44  N   UNL     1       6.465  10.365   1.671  1.00  0.00    -0.248 NA
ATOM     45  C   UNL     1       5.665   8.314   2.442  1.00  0.00     0.031 C 
ATOM     46  C   UNL     1       4.460   9.577  -2.213  1.00  0.00     0.029 A 
ATOM     47  N   UNL     1       5.388  11.125  -0.892  1.00  0.00    -0.354 N 
ATOM     48  C   UNL     1       6.698  10.282   3.042  1.00  0.00     0.074 A 
ATOM     49  C   UNL     1       6.143   9.012   3.468  1.00  0.00     0.031 C 
ATOM     50  C   UNL     1       4.348  10.760  -2.835  1.00  0.00     0.029 A 
ATOM     51  C   UNL     1       5.016  11.788  -2.038  1.00  0.00     0.049 A 
ATOM     52  H   UNL     1       5.796  11.575  -0.117  1.00  0.00     0.167 HD
ATOM     53  C   UNL     1       7.332  11.171   3.853  1.00  0.00     0.034 A 
ATOM     54  C   UNL     1       5.251  13.050  -2.460  1.00  0.00     0.034 A 
ATOM     55  C   UNL     1       7.862  12.439   3.395  1.00  0.00     0.049 A 
ATOM     56  C   UNL     1       6.144  13.953  -1.650  1.00  0.00     0.074 A 
ATOM     57  C   UNL     1       8.687  13.323   4.074  1.00  0.00     0.029 A 
ATOM     58  N   UNL     1       7.603  13.018   2.162  1.00  0.00    -0.354 N 
ATOM     59  N   UNL     1       6.645  13.756  -0.455  1.00  0.00    -0.248 NA
ATOM     60  C   UNL     1       6.563  15.219  -2.271  1.00  0.00     0.031 C 
ATOM     61  C   UNL     1       8.867  14.461   3.283  1.00  0.00     0.029 A 
ATOM     62  C   UNL     1       8.228  14.254   2.074  1.00  0.00     0.049 A 
ATOM     63  H   UNL     1       7.055  12.612   1.452  1.00  0.00     0.167 HD
ATOM     64  C   UNL     1       7.463  14.854  -0.195  1.00  0.00     0.074 A 
ATOM     65  C   UNL     1       7.407  15.702  -1.366  1.00  0.00     0.031 C 
ATOM     66  C   UNL     1       8.193  15.120   0.918  1.00  0.00     0.034 A 
BRANCH  53  67
ATOM     67  C   UNL     1       7.592  10.812   5.307  1.00  0.00     0.023 A 
ATOM     68  C   UNL     1       7.208  11.687   6.347  1.00  0.00     0.031 A 
ATOM     69  C   UNL     1       8.410   9.718   5.645  1.00  0.00     0.131 A 
ATOM     70  C   UNL     1       7.676  11.475   7.654  1.00  0.00     0.055 A 
ATOM     71  C   UNL     1       8.830   9.483   6.956  1.00  0.00     0.041 A 
ATOM     72  F   UNL     1       8.837   8.866   4.698  1.00  0.00    -0.206 F 
ATOM     73  C   UNL     1       8.477  10.373   7.964  1.00  0.00     0.022 A 
BRANCH  70  74
ATOM     74  S   UNL     1       7.354  12.668   8.986  1.00  0.00     0.124 S 
ATOM     75  O   UNL     1       6.605  11.852   9.939  1.00  0.00    -0.237 OA
ATOM     76  O   UNL     1       8.705  13.032   9.404  1.00  0.00    -0.237 OA
ATOM     77  O   UNL     1       6.588  13.723   8.334  1.00  0.00    -0.744 OA
ENDBRANCH  70  74
ENDBRANCH  53  67
BRANCH  54  78
ATOM     78  C   UNL     1       4.812  13.411  -3.839  1.00  0.00     0.023 A 
ATOM     79  C   UNL     1       3.450  13.541  -4.162  1.00  0.00     0.031 A 
ATOM     80  C   UNL     1       5.753  13.432  -4.885  1.00  0.00     0.131 A 
ATOM     81  C   UNL     1       3.067  13.617  -5.508  1.00  0.00     0.055 A 
ATOM     82  C   UNL     1       5.369  13.569  -6.218  1.00  0.00     0.041 A 
ATOM     83  F   UNL     1       7.060  13.283  -4.620  1.00  0.00    -0.206 F 
ATOM     84  C   UNL     1       4.017  13.643  -6.536  1.00  0.00     0.022 A 
BRANCH  81  85
ATOM     85  S   UNL     1       1.318  13.528  -5.986  1.00  0.00     0.124 S 
ATOM     86  O   UNL     1       1.142  14.774  -6.727  1.00  0.00    -0.237 OA
ATOM     87  O   UNL     1       1.293  12.308  -6.789  1.00  0.00    -0.237 OA
ATOM     88  O   UNL     1       0.617  13.448  -4.710  1.00  0.00    -0.744 OA
ENDBRANCH  81  85
ENDBRANCH  54  78
BRANCH  66  89
ATOM     89  C   UNL     1       9.013  16.391   0.977  1.00  0.00     0.023 A 
ATOM     90  C   UNL     1      10.411  16.325   1.143  1.00  0.00     0.031 A 
ATOM     91  C   UNL     1       8.405  17.658   1.016  1.00  0.00     0.131 A 
ATOM     92  C   UNL     1      11.148  17.496   1.368  1.00  0.00     0.055 A 
ATOM     93  C   UNL     1       9.148  18.827   1.198  1.00  0.00     0.041 A 
ATOM     94  F   UNL     1       7.074  17.781   0.880  1.00  0.00    -0.206 F 
ATOM     95  C   UNL     1      10.524  18.748   1.388  1.00  0.00     0.022 A 
BRANCH  92  96
ATOM     96  S   UNL     1      12.928  17.438   1.717  1.00  0.00     0.124 S 
ATOM     97  O   UNL     1      13.477  18.237   0.624  1.00  0.00    -0.237 OA
ATOM     98  O   UNL     1      13.003  18.056   3.038  1.00  0.00    -0.237 OA
ATOM     99  O   UNL     1      13.251  16.016   1.670  1.00  0.00    -0.744 OA
ENDBRANCH  92  96
ENDBRANCH  66  89
ENDBRANCH  40  41
ENDBRANCH  33  35
ENDBRANCH  32  33
ENDBRANCH  31  32
ENDBRANCH   1  31
TORSDOF 20
