REMARK SMILES COCCCN1C(=O)CC[C@@H](C(=O)OCCOC(=O)c2ccc(-c3c4nc(c(-c5cc(S(=O)(=O)[O-])ccc5F)c5ccc([nH]5)c(-c5cc(S(=O)(=O)[O-])ccc5F)c5nc(c(-c6cc(S(=O)(=O)[O-])ccc6F)c6ccc3[nH]6)C=C5)C=C4)cc2)[C@@H]1c1ccc(F)cc1
REMARK SMILES IDX 15 1 14 2 12 3 13 4 11 5 6 6 7 7 83 8 8 9 9 10 10 11 5 12
REMARK SMILES IDX 4 13 3 14 2 15 1 16 84 17 85 18 90 19 86 20 89 21 87 22
REMARK SMILES IDX 88 23 16 24 17 25 18 26 19 27 20 28 21 29 82 30 22 31 81 32
REMARK SMILES IDX 23 33 24 34 25 35 75 36 26 37 80 38 74 39 76 40 27 41 79 42
REMARK SMILES IDX 73 43 72 44 28 46 60 47 40 48 59 49 41 50 44 51 58 52 77 53
REMARK SMILES IDX 42 54 43 55 57 57 78 58 45 59 29 60 30 61 38 62 31 63 37 64
REMARK SMILES IDX 39 65 36 66 32 67 33 68 34 69 35 70 61 71 62 72 70 73 63 74
REMARK SMILES IDX 69 75 71 76 68 77 64 78 65 79 66 80 67 81 46 82 47 83 55 84
REMARK SMILES IDX 48 85 54 86 56 87 53 88 49 89 50 90 51 91 52 92
REMARK H PARENT 76 45 44 56
REMARK Flexibility Score: inf
ROOT
ATOM      1  C   UNL     1       4.515   0.330  -1.677  1.00  0.00     0.274 C 
ENDROOT
BRANCH   1   2
ATOM      2  O   UNL     1       4.615   0.470  -0.237  1.00  0.00    -0.462 OA
BRANCH   2   3
ATOM      3  C   UNL     1       4.179  -0.596   0.497  1.00  0.00     0.311 C 
ATOM      4  O   UNL     1       3.745  -1.629   0.008  1.00  0.00    -0.252 OA
BRANCH   3   5
ATOM      5  C   UNL     1       4.248  -0.308   1.996  1.00  0.00     0.127 C 
ATOM      6  N   UNL     1       1.953  -1.172   2.472  1.00  0.00    -0.335 N 
ATOM      7  C   UNL     1       2.438  -2.472   2.642  1.00  0.00     0.223 C 
ATOM      8  C   UNL     1       2.833   0.004   2.503  1.00  0.00     0.129 C 
ATOM      9  O   UNL     1       1.688  -3.450   2.649  1.00  0.00    -0.275 OA
ATOM     10  C   UNL     1       3.935  -2.690   2.777  1.00  0.00     0.101 C 
ATOM     11  C   UNL     1       4.804  -1.447   2.842  1.00  0.00     0.028 C 
BRANCH   6  12
ATOM     12  C   UNL     1       0.510  -1.052   2.212  1.00  0.00     0.122 C 
BRANCH  12  13
ATOM     13  C   UNL     1      -0.222   0.258   2.511  1.00  0.00     0.050 C 
BRANCH  13  14
ATOM     14  C   UNL     1      -0.127   1.407   1.506  1.00  0.00     0.161 C 
BRANCH  14  15
ATOM     15  O   UNL     1      -0.594   1.083   0.202  1.00  0.00    -0.385 OA
ATOM     16  C   UNL     1       0.387   0.533  -0.667  1.00  0.00     0.194 C 
ENDBRANCH  14  15
ENDBRANCH  13  14
ENDBRANCH  12  13
ENDBRANCH   6  12
BRANCH   8  17
ATOM     17  C   UNL     1       2.878   0.659   3.889  1.00  0.00    -0.024 A 
ATOM     18  C   UNL     1       2.473  -0.024   5.054  1.00  0.00     0.009 A 
ATOM     19  C   UNL     1       3.393   1.961   4.026  1.00  0.00     0.009 A 
ATOM     20  C   UNL     1       2.580   0.570   6.311  1.00  0.00     0.039 A 
ATOM     21  C   UNL     1       3.505   2.552   5.287  1.00  0.00     0.039 A 
ATOM     22  C   UNL     1       3.097   1.852   6.416  1.00  0.00     0.123 A 
ATOM     23  F   UNL     1       3.206   2.424   7.622  1.00  0.00    -0.207 F 
ENDBRANCH   8  17
ENDBRANCH   3   5
ENDBRANCH   2   3
ENDBRANCH   1   2
BRANCH   1  24
ATOM     24  C   UNL     1       5.864  -0.026  -2.303  1.00  0.00     0.275 C 
BRANCH  24  25
ATOM     25  O   UNL     1       6.252  -1.327  -1.840  1.00  0.00    -0.458 OA
BRANCH  25  26
ATOM     26  C   UNL     1       7.567  -1.509  -1.575  1.00  0.00     0.338 C 
ATOM     27  O   UNL     1       8.485  -0.750  -1.822  1.00  0.00    -0.246 OA
BRANCH  26  28
ATOM     28  C   UNL     1       7.694  -2.777  -0.832  1.00  0.00     0.060 A 
ATOM     29  C   UNL     1       6.960  -2.913   0.344  1.00  0.00     0.016 A 
ATOM     30  C   UNL     1       8.561  -3.789  -1.231  1.00  0.00     0.016 A 
ATOM     31  C   UNL     1       7.089  -4.040   1.145  1.00  0.00     0.010 A 
ATOM     32  C   UNL     1       8.659  -4.950  -0.449  1.00  0.00     0.010 A 
ATOM     33  C   UNL     1       7.934  -5.077   0.752  1.00  0.00    -0.014 A 
BRANCH  33  34
ATOM     34  C   UNL     1       8.140  -6.228   1.668  1.00  0.00     0.031 A 
ATOM     35  C   UNL     1       9.452  -6.356   2.385  1.00  0.00     0.074 A 
ATOM     36  C   UNL     1       7.145  -7.096   1.932  1.00  0.00     0.049 A 
ATOM     37  N   UNL     1       9.920  -7.349   3.093  1.00  0.00    -0.248 NA
ATOM     38  C   UNL     1      10.353  -5.196   2.298  1.00  0.00     0.031 C 
ATOM     39  C   UNL     1       5.775  -6.998   1.425  1.00  0.00     0.029 A 
ATOM     40  N   UNL     1       7.131  -8.233   2.704  1.00  0.00    -0.354 N 
ATOM     41  C   UNL     1      11.185  -6.952   3.510  1.00  0.00     0.074 A 
ATOM     42  C   UNL     1      11.409  -5.627   2.970  1.00  0.00     0.031 C 
ATOM     43  C   UNL     1       5.057  -8.030   1.899  1.00  0.00     0.029 A 
ATOM     44  C   UNL     1       5.932  -8.908   2.670  1.00  0.00     0.049 A 
ATOM     45  H   UNL     1       7.906  -8.536   3.231  1.00  0.00     0.167 HD
ATOM     46  C   UNL     1      12.079  -7.638   4.264  1.00  0.00     0.034 A 
ATOM     47  C   UNL     1       5.598 -10.122   3.154  1.00  0.00     0.034 A 
ATOM     48  C   UNL     1      11.834  -8.957   4.790  1.00  0.00     0.049 A 
ATOM     49  C   UNL     1       6.655 -10.933   3.865  1.00  0.00     0.074 A 
ATOM     50  C   UNL     1      12.687  -9.775   5.510  1.00  0.00     0.029 A 
ATOM     51  N   UNL     1      10.640  -9.655   4.653  1.00  0.00    -0.354 N 
ATOM     52  N   UNL     1       7.895 -10.606   4.154  1.00  0.00    -0.248 NA
ATOM     53  C   UNL     1       6.276 -12.285   4.296  1.00  0.00     0.031 C 
ATOM     54  C   UNL     1      12.031 -10.987   5.756  1.00  0.00     0.029 A 
ATOM     55  C   UNL     1      10.743 -10.902   5.250  1.00  0.00     0.049 A 
ATOM     56  H   UNL     1       9.837  -9.314   4.197  1.00  0.00     0.167 HD
ATOM     57  C   UNL     1       8.434 -11.706   4.816  1.00  0.00     0.074 A 
ATOM     58  C   UNL     1       7.381 -12.697   4.899  1.00  0.00     0.031 C 
ATOM     59  C   UNL     1       9.685 -11.882   5.312  1.00  0.00     0.034 A 
BRANCH  46  60
ATOM     60  C   UNL     1      13.430  -7.001   4.465  1.00  0.00     0.023 A 
ATOM     61  C   UNL     1      13.597  -5.822   5.213  1.00  0.00     0.031 A 
ATOM     62  C   UNL     1      14.561  -7.549   3.835  1.00  0.00     0.131 A 
ATOM     63  C   UNL     1      14.850  -5.191   5.250  1.00  0.00     0.055 A 
ATOM     64  C   UNL     1      15.821  -6.958   3.938  1.00  0.00     0.041 A 
ATOM     65  F   UNL     1      14.454  -8.657   3.084  1.00  0.00    -0.206 F 
ATOM     66  C   UNL     1      15.968  -5.763   4.636  1.00  0.00     0.022 A 
BRANCH  63  67
ATOM     67  S   UNL     1      14.969  -3.536   5.982  1.00  0.00     0.124 S 
ATOM     68  O   UNL     1      14.014  -2.784   5.172  1.00  0.00    -0.237 OA
ATOM     69  O   UNL     1      14.583  -3.775   7.368  1.00  0.00    -0.237 OA
ATOM     70  O   UNL     1      16.370  -3.170   5.778  1.00  0.00    -0.744 OA
ENDBRANCH  63  67
ENDBRANCH  46  60
BRANCH  47  71
ATOM     71  C   UNL     1       4.247 -10.702   2.894  1.00  0.00     0.023 A 
ATOM     72  C   UNL     1       3.383 -11.050   3.945  1.00  0.00     0.031 A 
ATOM     73  C   UNL     1       3.830 -10.988   1.580  1.00  0.00     0.131 A 
ATOM     74  C   UNL     1       2.170 -11.701   3.668  1.00  0.00     0.055 A 
ATOM     75  C   UNL     1       2.597 -11.581   1.306  1.00  0.00     0.041 A 
ATOM     76  F   UNL     1       4.622 -10.694   0.536  1.00  0.00    -0.206 F 
ATOM     77  C   UNL     1       1.764 -11.954   2.355  1.00  0.00     0.022 A 
BRANCH  74  78
ATOM     78  S   UNL     1       1.168 -12.309   5.054  1.00  0.00     0.124 S 
ATOM     79  O   UNL     1       2.102 -13.208   5.723  1.00  0.00    -0.237 OA
ATOM     80  O   UNL     1       0.847 -11.075   5.763  1.00  0.00    -0.237 OA
ATOM     81  O   UNL     1       0.037 -12.961   4.398  1.00  0.00    -0.744 OA
ENDBRANCH  74  78
ENDBRANCH  47  71
BRANCH  59  82
ATOM     82  C   UNL     1       9.960 -13.182   6.025  1.00  0.00     0.023 A 
ATOM     83  C   UNL     1      10.023 -14.406   5.335  1.00  0.00     0.031 A 
ATOM     84  C   UNL     1      10.155 -13.194   7.418  1.00  0.00     0.131 A 
ATOM     85  C   UNL     1      10.229 -15.598   6.047  1.00  0.00     0.055 A 
ATOM     86  C   UNL     1      10.410 -14.376   8.113  1.00  0.00     0.041 A 
ATOM     87  F   UNL     1      10.105 -12.053   8.124  1.00  0.00    -0.206 F 
ATOM     88  C   UNL     1      10.437 -15.588   7.429  1.00  0.00     0.022 A 
BRANCH  85  89
ATOM     89  S   UNL     1      10.149 -17.174   5.153  1.00  0.00     0.124 S 
ATOM     90  O   UNL     1       8.796 -17.148   4.609  1.00  0.00    -0.237 OA
ATOM     91  O   UNL     1      11.230 -17.038   4.181  1.00  0.00    -0.237 OA
ATOM     92  O   UNL     1      10.379 -18.172   6.196  1.00  0.00    -0.744 OA
ENDBRANCH  85  89
ENDBRANCH  59  82
ENDBRANCH  33  34
ENDBRANCH  26  28
ENDBRANCH  25  26
ENDBRANCH  24  25
ENDBRANCH   1  24
TORSDOF 19
