REMARK SMILES CCC[C@@H]([NH2+]Cc1cc(Cl)cs1)C(=O)OCCOC(=O)c1ccc(-c2c3nc(c(-c4cc(S(=O)(=O)[O-])ccc4F)c4ccc([nH]4)c(-c4cc(S(=O)(=O)[O-])ccc4F)c4nc(c(-c5cc(S(=O)(=O)[O-])ccc5F)c5ccc2[nH]5)C=C4)C=C3)cc1
REMARK SMILES IDX 16 1 15 2 13 3 14 4 4 5 3 6 2 7 1 8 5 9 6 12 7 13 8 14 12 15
REMARK SMILES IDX 9 16 11 17 10 18 17 19 18 20 19 21 20 22 21 23 22 24 83 25
REMARK SMILES IDX 23 26 82 27 24 28 25 29 26 30 76 31 27 32 81 33 75 34 77 35
REMARK SMILES IDX 28 36 80 37 74 38 73 39 29 41 61 42 41 43 60 44 42 45 45 46
REMARK SMILES IDX 59 47 78 48 43 49 44 50 58 52 79 53 46 54 30 55 31 56 39 57
REMARK SMILES IDX 32 58 38 59 40 60 37 61 33 62 34 63 35 64 36 65 62 66 63 67
REMARK SMILES IDX 71 68 64 69 70 70 72 71 69 72 65 73 66 74 67 75 68 76 47 77
REMARK SMILES IDX 48 78 56 79 49 80 55 81 57 82 54 83 50 84 51 85 52 86 53 87
REMARK H PARENT 5 10 5 11 77 40 45 51
REMARK Flexibility Score: inf
ROOT
ATOM      1  C   UNL     1       1.288   2.901   5.741  1.00  0.00     0.274 C 
ENDROOT
BRANCH   1   2
ATOM      2  O   UNL     1       0.798   2.012   4.719  1.00  0.00    -0.458 OA
BRANCH   2   3
ATOM      3  C   UNL     1       0.339   2.609   3.585  1.00  0.00     0.364 C 
ATOM      4  O   UNL     1       0.265   3.827   3.442  1.00  0.00    -0.245 OA
BRANCH   3   5
ATOM      5  C   UNL     1      -0.057   1.608   2.475  1.00  0.00     0.293 C 
BRANCH   5   6
ATOM      6  C   UNL     1       0.461   0.176   2.734  1.00  0.00     0.077 C 
BRANCH   6   7
ATOM      7  C   UNL     1       0.347  -0.795   1.549  1.00  0.00     0.003 C 
ATOM      8  C   UNL     1       1.178  -0.391   0.339  1.00  0.00     0.004 C 
ENDBRANCH   6   7
ENDBRANCH   5   6
BRANCH   5   9
ATOM      9  N   UNL     1      -1.521   1.583   2.224  1.00  0.00    -0.330 N 
ATOM     10  H   UNL     1      -1.980   1.231   3.064  1.00  0.00     0.347 HD
ATOM     11  H   UNL     1      -1.659   0.990   1.406  1.00  0.00     0.347 HD
BRANCH   9  12
ATOM     12  C   UNL     1      -2.119   2.884   1.891  1.00  0.00     0.309 C 
BRANCH  12  13
ATOM     13  C   UNL     1      -1.560   3.563   0.671  1.00  0.00     0.060 A 
ATOM     14  C   UNL     1      -1.148   4.879   0.563  1.00  0.00     0.041 A 
ATOM     15  S   UNL     1      -1.433   2.751  -0.836  1.00  0.00    -0.141 S 
ATOM     16  C   UNL     1      -0.727   5.213  -0.752  1.00  0.00     0.052 A 
ATOM     17  C   UNL     1      -0.790   4.138  -1.605  1.00  0.00     0.085 A 
ATOM     18  Cl  UNL     1      -0.220   6.783  -1.185  1.00  0.00    -0.083 Cl
ENDBRANCH  12  13
ENDBRANCH   9  12
ENDBRANCH   5   9
ENDBRANCH   3   5
ENDBRANCH   2   3
ENDBRANCH   1   2
BRANCH   1  19
ATOM     19  C   UNL     1       2.814   3.032   5.702  1.00  0.00     0.275 C 
BRANCH  19  20
ATOM     20  O   UNL     1       3.275   3.678   4.500  1.00  0.00    -0.458 OA
BRANCH  20  21
ATOM     21  C   UNL     1       3.626   2.836   3.499  1.00  0.00     0.338 C 
ATOM     22  O   UNL     1       3.595   1.618   3.517  1.00  0.00    -0.246 OA
BRANCH  21  23
ATOM     23  C   UNL     1       3.980   3.605   2.299  1.00  0.00     0.060 A 
ATOM     24  C   UNL     1       3.102   3.586   1.213  1.00  0.00     0.016 A 
ATOM     25  C   UNL     1       5.217   4.239   2.200  1.00  0.00     0.016 A 
ATOM     26  C   UNL     1       3.461   4.184   0.009  1.00  0.00     0.010 A 
ATOM     27  C   UNL     1       5.572   4.854   0.996  1.00  0.00     0.010 A 
ATOM     28  C   UNL     1       4.703   4.816  -0.110  1.00  0.00    -0.014 A 
BRANCH  28  29
ATOM     29  C   UNL     1       5.127   5.396  -1.407  1.00  0.00     0.031 A 
ATOM     30  C   UNL     1       6.204   4.718  -2.200  1.00  0.00     0.074 A 
ATOM     31  C   UNL     1       4.556   6.527  -1.857  1.00  0.00     0.049 A 
ATOM     32  N   UNL     1       6.861   5.150  -3.244  1.00  0.00    -0.248 NA
ATOM     33  C   UNL     1       6.599   3.375  -1.749  1.00  0.00     0.031 C 
ATOM     34  C   UNL     1       3.451   7.229  -1.204  1.00  0.00     0.029 A 
ATOM     35  N   UNL     1       4.836   7.294  -2.959  1.00  0.00    -0.354 N 
ATOM     36  C   UNL     1       7.772   4.149  -3.559  1.00  0.00     0.074 A 
ATOM     37  C   UNL     1       7.586   3.091  -2.586  1.00  0.00     0.031 C 
ATOM     38  C   UNL     1       3.153   8.330  -1.913  1.00  0.00     0.029 A 
ATOM     39  C   UNL     1       4.092   8.449  -3.024  1.00  0.00     0.049 A 
ATOM     40  H   UNL     1       5.504   7.043  -3.637  1.00  0.00     0.167 HD
ATOM     41  C   UNL     1       8.683   4.125  -4.563  1.00  0.00     0.034 A 
ATOM     42  C   UNL     1       4.194   9.509  -3.851  1.00  0.00     0.034 A 
ATOM     43  C   UNL     1       8.845   5.194  -5.519  1.00  0.00     0.049 A 
ATOM     44  C   UNL     1       5.271   9.502  -4.905  1.00  0.00     0.074 A 
ATOM     45  C   UNL     1       9.738   5.285  -6.572  1.00  0.00     0.029 A 
ATOM     46  N   UNL     1       8.094   6.364  -5.534  1.00  0.00    -0.354 N 
ATOM     47  N   UNL     1       6.168   8.577  -5.161  1.00  0.00    -0.248 NA
ATOM     48  C   UNL     1       5.360  10.684  -5.771  1.00  0.00     0.031 C 
ATOM     49  C   UNL     1       9.567   6.531  -7.187  1.00  0.00     0.029 A 
ATOM     50  C   UNL     1       8.521   7.191  -6.561  1.00  0.00     0.049 A 
ATOM     51  H   UNL     1       7.366   6.574  -4.907  1.00  0.00     0.167 HD
ATOM     52  C   UNL     1       6.911   9.056  -6.236  1.00  0.00     0.074 A 
ATOM     53  C   UNL     1       6.355  10.350  -6.581  1.00  0.00     0.031 C 
ATOM     54  C   UNL     1       7.953   8.478  -6.884  1.00  0.00     0.034 A 
BRANCH  41  55
ATOM     55  C   UNL     1       9.614   2.940  -4.624  1.00  0.00     0.023 A 
ATOM     56  C   UNL     1       9.150   1.642  -4.897  1.00  0.00     0.031 A 
ATOM     57  C   UNL     1      10.986   3.109  -4.362  1.00  0.00     0.131 A 
ATOM     58  C   UNL     1      10.037   0.556  -4.836  1.00  0.00     0.055 A 
ATOM     59  C   UNL     1      11.876   2.034  -4.376  1.00  0.00     0.041 A 
ATOM     60  F   UNL     1      11.482   4.322  -4.071  1.00  0.00    -0.206 F 
ATOM     61  C   UNL     1      11.401   0.746  -4.599  1.00  0.00     0.022 A 
BRANCH  58  62
ATOM     62  S   UNL     1       9.361  -1.125  -4.933  1.00  0.00     0.124 S 
ATOM     63  O   UNL     1       8.436  -1.137  -3.802  1.00  0.00    -0.237 OA
ATOM     64  O   UNL     1       8.750  -1.143  -6.258  1.00  0.00    -0.237 OA
ATOM     65  O   UNL     1      10.537  -1.978  -4.777  1.00  0.00    -0.744 OA
ENDBRANCH  58  62
ENDBRANCH  41  55
BRANCH  42  66
ATOM     66  C   UNL     1       3.309  10.693  -3.667  1.00  0.00     0.023 A 
ATOM     67  C   UNL     1       2.383  11.068  -4.652  1.00  0.00     0.031 A 
ATOM     68  C   UNL     1       3.401  11.488  -2.510  1.00  0.00     0.131 A 
ATOM     69  C   UNL     1       1.609  12.226  -4.477  1.00  0.00     0.055 A 
ATOM     70  C   UNL     1       2.593  12.609  -2.317  1.00  0.00     0.041 A 
ATOM     71  F   UNL     1       4.273  11.175  -1.538  1.00  0.00    -0.206 F 
ATOM     72  C   UNL     1       1.697  12.990  -3.311  1.00  0.00     0.022 A 
BRANCH  69  73
ATOM     73  S   UNL     1       0.533  12.766  -5.834  1.00  0.00     0.124 S 
ATOM     74  O   UNL     1       1.490  12.937  -6.922  1.00  0.00    -0.237 OA
ATOM     75  O   UNL     1      -0.387  11.641  -5.960  1.00  0.00    -0.237 OA
ATOM     76  O   UNL     1      -0.062  14.001  -5.327  1.00  0.00    -0.744 OA
ENDBRANCH  69  73
ENDBRANCH  42  66
BRANCH  54  77
ATOM     77  C   UNL     1       8.514   9.218  -8.070  1.00  0.00     0.023 A 
ATOM     78  C   UNL     1       9.280  10.386  -7.920  1.00  0.00     0.031 A 
ATOM     79  C   UNL     1       8.283   8.733  -9.369  1.00  0.00     0.131 A 
ATOM     80  C   UNL     1       9.760  11.053  -9.057  1.00  0.00     0.055 A 
ATOM     81  C   UNL     1       8.801   9.376 -10.494  1.00  0.00     0.041 A 
ATOM     82  F   UNL     1       7.558   7.620  -9.563  1.00  0.00    -0.206 F 
ATOM     83  C   UNL     1       9.538  10.547 -10.341  1.00  0.00     0.022 A 
BRANCH  80  84
ATOM     84  S   UNL     1      10.644  12.623  -8.843  1.00  0.00     0.124 S 
ATOM     85  O   UNL     1       9.614  13.472  -8.253  1.00  0.00    -0.237 OA
ATOM     86  O   UNL     1      11.743  12.247  -7.961  1.00  0.00    -0.237 OA
ATOM     87  O   UNL     1      11.039  12.982 -10.204  1.00  0.00    -0.744 OA
ENDBRANCH  80  84
ENDBRANCH  54  77
ENDBRANCH  28  29
ENDBRANCH  21  23
ENDBRANCH  20  21
ENDBRANCH  19  20
ENDBRANCH   1  19
TORSDOF 19
