REMARK SMILES O=C(OCCOC(=O)c1ccccc1NCc1ccccc1[N+](=O)[O-])c1ccc(-c2c3nc(c(-c4cc(S(=O)(=O)[O-])ccc4F)c4ccc([nH]4)c(-c4cc(S(=O)(=O)[O-])ccc4F)c4nc(c(-c5cc(S(=O)(=O)[O-])ccc5F)c5ccc2[nH]5)C=C4)C=C3)cc1
REMARK SMILES IDX 5 1 4 2 3 3 2 4 1 5 26 6 27 7 88 8 28 9 87 10 29 11 30 12
REMARK SMILES IDX 31 13 81 14 32 15 86 16 80 17 82 18 33 19 85 20 79 21 78 22
REMARK SMILES IDX 34 24 66 25 46 26 65 27 47 28 50 29 64 30 83 31 48 32 49 33
REMARK SMILES IDX 63 35 84 36 51 37 35 38 36 39 44 40 37 41 43 42 45 43 42 44
REMARK SMILES IDX 38 45 39 46 40 47 41 48 67 49 68 50 76 51 69 52 75 53 77 54
REMARK SMILES IDX 74 55 70 56 71 57 72 58 73 59 52 60 53 61 61 62 54 63 60 64
REMARK SMILES IDX 62 65 59 66 55 67 56 68 57 69 58 70 6 71 7 72 8 73 9 74
REMARK SMILES IDX 10 75 14 76 11 77 13 78 12 79 15 80 16 82 17 83 18 84 22 85
REMARK SMILES IDX 19 86 21 87 20 88 23 89 24 90 25 91
REMARK H PARENT 82 23 50 34 15 81
REMARK Flexibility Score: inf
ROOT
ATOM      1  C   UNL     1       4.361   0.555  -2.025  1.00  0.00     0.275 C 
ENDROOT
BRANCH   1   2
ATOM      2  C   UNL     1       4.324  -0.740  -1.214  1.00  0.00     0.275 C 
BRANCH   2   3
ATOM      3  O   UNL     1       3.099  -0.952  -0.486  1.00  0.00    -0.458 OA
BRANCH   3   4
ATOM      4  C   UNL     1       2.714  -0.577   0.757  1.00  0.00     0.338 C 
ATOM      5  O   UNL     1       1.649  -1.020   1.188  1.00  0.00    -0.246 OA
BRANCH   4   6
ATOM      6  C   UNL     1       3.438   0.420   1.613  1.00  0.00     0.060 A 
ATOM      7  C   UNL     1       4.802   0.698   1.572  1.00  0.00     0.016 A 
ATOM      8  C   UNL     1       2.665   1.101   2.580  1.00  0.00     0.016 A 
ATOM      9  C   UNL     1       5.369   1.644   2.432  1.00  0.00     0.010 A 
ATOM     10  C   UNL     1       3.227   2.056   3.441  1.00  0.00     0.010 A 
ATOM     11  C   UNL     1       4.592   2.330   3.371  1.00  0.00    -0.014 A 
BRANCH  11  12
ATOM     12  C   UNL     1       5.294   3.175   4.367  1.00  0.00     0.031 A 
ATOM     13  C   UNL     1       5.903   2.493   5.547  1.00  0.00     0.074 A 
ATOM     14  C   UNL     1       5.473   4.493   4.172  1.00  0.00     0.049 A 
ATOM     15  N   UNL     1       6.779   2.943   6.401  1.00  0.00    -0.248 NA
ATOM     16  C   UNL     1       5.460   1.113   5.788  1.00  0.00     0.031 C 
ATOM     17  C   UNL     1       4.885   5.237   3.072  1.00  0.00     0.029 A 
ATOM     18  N   UNL     1       6.220   5.431   4.840  1.00  0.00    -0.354 N 
ATOM     19  C   UNL     1       6.990   1.903   7.295  1.00  0.00     0.074 A 
ATOM     20  C   UNL     1       6.147   0.803   6.875  1.00  0.00     0.031 C 
ATOM     21  C   UNL     1       5.341   6.499   3.086  1.00  0.00     0.029 A 
ATOM     22  C   UNL     1       6.272   6.652   4.195  1.00  0.00     0.049 A 
ATOM     23  H   UNL     1       6.675   5.252   5.695  1.00  0.00     0.167 HD
ATOM     24  C   UNL     1       7.799   1.884   8.381  1.00  0.00     0.034 A 
ATOM     25  C   UNL     1       7.033   7.739   4.445  1.00  0.00     0.034 A 
ATOM     26  C   UNL     1       8.565   3.025   8.813  1.00  0.00     0.049 A 
ATOM     27  C   UNL     1       7.974   7.669   5.625  1.00  0.00     0.074 A 
ATOM     28  C   UNL     1       9.352   3.165   9.941  1.00  0.00     0.029 A 
ATOM     29  N   UNL     1       8.616   4.241   8.139  1.00  0.00    -0.354 N 
ATOM     30  N   UNL     1       8.225   6.654   6.422  1.00  0.00    -0.248 NA
ATOM     31  C   UNL     1       8.739   8.883   5.935  1.00  0.00     0.031 C 
ATOM     32  C   UNL     1       9.831   4.481   9.978  1.00  0.00     0.029 A 
ATOM     33  C   UNL     1       9.402   5.143   8.837  1.00  0.00     0.049 A 
ATOM     34  H   UNL     1       8.159   4.433   7.288  1.00  0.00     0.167 HD
ATOM     35  C   UNL     1       9.177   7.111   7.327  1.00  0.00     0.074 A 
ATOM     36  C   UNL     1       9.508   8.465   6.929  1.00  0.00     0.031 C 
ATOM     37  C   UNL     1       9.707   6.489   8.412  1.00  0.00     0.034 A 
BRANCH  24  38
ATOM     38  C   UNL     1       7.768   0.624   9.206  1.00  0.00     0.023 A 
ATOM     39  C   UNL     1       8.213  -0.606   8.688  1.00  0.00     0.031 A 
ATOM     40  C   UNL     1       7.156   0.628  10.470  1.00  0.00     0.131 A 
ATOM     41  C   UNL     1       7.945  -1.792   9.386  1.00  0.00     0.055 A 
ATOM     42  C   UNL     1       6.970  -0.548  11.199  1.00  0.00     0.041 A 
ATOM     43  F   UNL     1       6.682   1.768  10.997  1.00  0.00    -0.206 F 
ATOM     44  C   UNL     1       7.347  -1.770  10.649  1.00  0.00     0.022 A 
BRANCH  41  45
ATOM     45  S   UNL     1       8.220  -3.374   8.540  1.00  0.00     0.124 S 
ATOM     46  O   UNL     1       7.317  -3.256   7.397  1.00  0.00    -0.237 OA
ATOM     47  O   UNL     1       9.645  -3.327   8.235  1.00  0.00    -0.237 OA
ATOM     48  O   UNL     1       7.827  -4.369   9.536  1.00  0.00    -0.744 OA
ENDBRANCH  41  45
ENDBRANCH  24  38
BRANCH  25  49
ATOM     49  C   UNL     1       7.018   8.942   3.552  1.00  0.00     0.023 A 
ATOM     50  C   UNL     1       8.205   9.388   2.945  1.00  0.00     0.031 A 
ATOM     51  C   UNL     1       5.855   9.696   3.320  1.00  0.00     0.131 A 
ATOM     52  C   UNL     1       8.218  10.565   2.178  1.00  0.00     0.055 A 
ATOM     53  C   UNL     1       5.859  10.835   2.506  1.00  0.00     0.041 A 
ATOM     54  F   UNL     1       4.688   9.334   3.875  1.00  0.00    -0.206 F 
ATOM     55  C   UNL     1       7.048  11.283   1.938  1.00  0.00     0.022 A 
BRANCH  52  56
ATOM     56  S   UNL     1       9.810  11.157   1.546  1.00  0.00     0.124 S 
ATOM     57  O   UNL     1      10.534  11.425   2.783  1.00  0.00    -0.237 OA
ATOM     58  O   UNL     1      10.266  10.002   0.778  1.00  0.00    -0.237 OA
ATOM     59  O   UNL     1       9.453  12.335   0.761  1.00  0.00    -0.744 OA
ENDBRANCH  52  56
ENDBRANCH  25  49
BRANCH  37  60
ATOM     60  C   UNL     1      10.696   7.284   9.226  1.00  0.00     0.023 A 
ATOM     61  C   UNL     1      10.306   8.447   9.913  1.00  0.00     0.031 A 
ATOM     62  C   UNL     1      12.042   6.891   9.297  1.00  0.00     0.131 A 
ATOM     63  C   UNL     1      11.266   9.219  10.581  1.00  0.00     0.055 A 
ATOM     64  C   UNL     1      12.982   7.627  10.020  1.00  0.00     0.041 A 
ATOM     65  F   UNL     1      12.467   5.788   8.660  1.00  0.00    -0.206 F 
ATOM     66  C   UNL     1      12.599   8.807  10.653  1.00  0.00     0.022 A 
BRANCH  63  67
ATOM     67  S   UNL     1      10.766  10.823  11.261  1.00  0.00     0.124 S 
ATOM     68  O   UNL     1      10.267  11.513  10.076  1.00  0.00    -0.237 OA
ATOM     69  O   UNL     1       9.761  10.444  12.248  1.00  0.00    -0.237 OA
ATOM     70  O   UNL     1      12.007  11.361  11.816  1.00  0.00    -0.744 OA
ENDBRANCH  63  67
ENDBRANCH  37  60
ENDBRANCH  11  12
ENDBRANCH   4   6
ENDBRANCH   3   4
ENDBRANCH   2   3
ENDBRANCH   1   2
BRANCH   1  71
ATOM     71  O   UNL     1       3.950   1.698  -1.264  1.00  0.00    -0.458 OA
BRANCH  71  72
ATOM     72  C   UNL     1       2.646   2.045  -1.431  1.00  0.00     0.340 C 
ATOM     73  O   UNL     1       1.850   1.508  -2.188  1.00  0.00    -0.246 OA
BRANCH  72  74
ATOM     74  C   UNL     1       2.249   3.095  -0.468  1.00  0.00     0.083 A 
ATOM     75  C   UNL     1       1.014   2.864   0.174  1.00  0.00     0.018 A 
ATOM     76  C   UNL     1       3.007   4.263  -0.227  1.00  0.00     0.049 A 
ATOM     77  C   UNL     1       0.505   3.785   1.079  1.00  0.00     0.001 A 
ATOM     78  C   UNL     1       2.411   5.208   0.626  1.00  0.00     0.026 A 
ATOM     79  C   UNL     1       1.200   4.965   1.294  1.00  0.00     0.002 A 
BRANCH  76  80
ATOM     80  N   UNL     1       4.244   4.469  -0.822  1.00  0.00    -0.380 N 
ATOM     81  H   UNL     1       4.612   3.711  -1.332  1.00  0.00     0.160 HD
BRANCH  80  82
ATOM     82  C   UNL     1       5.065   5.676  -0.780  1.00  0.00     0.156 C 
BRANCH  82  83
ATOM     83  C   UNL     1       6.401   5.517  -0.072  1.00  0.00     0.049 A 
ATOM     84  C   UNL     1       6.846   4.292   0.449  1.00  0.00     0.013 A 
ATOM     85  C   UNL     1       7.269   6.624   0.099  1.00  0.00     0.274 A 
ATOM     86  C   UNL     1       8.058   4.196   1.151  1.00  0.00     0.001 A 
ATOM     87  C   UNL     1       8.492   6.535   0.779  1.00  0.00     0.086 A 
ATOM     88  C   UNL     1       8.871   5.315   1.327  1.00  0.00     0.007 A 
BRANCH  85  89
ATOM     89  N   UNL     1       6.917   7.917  -0.464  1.00  0.00     0.063 N 
ATOM     90  O   UNL     1       7.596   8.315  -1.417  1.00  0.00    -0.258 OA
ATOM     91  O   UNL     1       5.895   8.464  -0.027  1.00  0.00    -0.258 OA
ENDBRANCH  85  89
ENDBRANCH  82  83
ENDBRANCH  80  82
ENDBRANCH  76  80
ENDBRANCH  72  74
ENDBRANCH  71  72
ENDBRANCH   1  71
TORSDOF 18
