REMARK SMILES O=C(OCCOC(=O)[C@@H]1[C@@H](C(=O)NCCn2cc(Cl)cn2)[C@H]2CC[C@@H]1O2)c1ccc(-c2c3nc(c(-c4cc(S(=O)(=O)[O-])ccc4F)c4ccc([nH]4)c(-c4cc(S(=O)(=O)[O-])ccc4F)c4nc(c(-c5cc(S(=O)(=O)[O-])ccc5F)c5ccc2[nH]5)C=C4)C=C3)cc1
REMARK SMILES IDX 5 1 4 2 3 3 2 4 1 5 27 6 28 7 89 8 29 9 88 10 30 11 31 12
REMARK SMILES IDX 32 13 82 14 33 15 87 16 81 17 83 18 34 19 86 20 80 21 79 22
REMARK SMILES IDX 35 24 67 25 47 26 66 27 48 28 51 29 65 30 84 31 49 32 50 33
REMARK SMILES IDX 64 35 85 36 52 37 36 38 37 39 45 40 38 41 44 42 46 43 43 44
REMARK SMILES IDX 39 45 40 46 41 47 42 48 68 49 69 50 77 51 70 52 76 53 78 54
REMARK SMILES IDX 75 55 71 56 72 57 73 58 74 59 53 60 54 61 62 62 55 63 61 64
REMARK SMILES IDX 63 65 60 66 56 67 57 68 58 69 59 70 6 71 7 72 8 73 9 74
REMARK SMILES IDX 10 75 25 76 22 77 24 78 26 79 23 80 11 81 12 82 13 83 14 85
REMARK SMILES IDX 15 86 16 87 17 88 21 89 18 90 20 91 19 92
REMARK H PARENT 83 23 51 34 13 84
REMARK Flexibility Score: inf
ROOT
ATOM      1  C   UNL     1       4.432   0.943   1.194  1.00  0.00     0.274 C 
ENDROOT
BRANCH   1   2
ATOM      2  C   UNL     1       4.722   0.964  -0.309  1.00  0.00     0.275 C 
BRANCH   2   3
ATOM      3  O   UNL     1       3.599   0.851  -1.199  1.00  0.00    -0.458 OA
BRANCH   3   4
ATOM      4  C   UNL     1       2.483   0.247  -0.731  1.00  0.00     0.338 C 
ATOM      5  O   UNL     1       1.649   0.784  -0.029  1.00  0.00    -0.246 OA
BRANCH   4   6
ATOM      6  C   UNL     1       2.367  -1.128  -1.264  1.00  0.00     0.060 A 
ATOM      7  C   UNL     1       3.492  -1.931  -1.498  1.00  0.00     0.016 A 
ATOM      8  C   UNL     1       1.082  -1.644  -1.434  1.00  0.00     0.016 A 
ATOM      9  C   UNL     1       3.332  -3.241  -1.929  1.00  0.00     0.010 A 
ATOM     10  C   UNL     1       0.925  -2.960  -1.841  1.00  0.00     0.010 A 
ATOM     11  C   UNL     1       2.046  -3.752  -2.119  1.00  0.00    -0.014 A 
BRANCH  11  12
ATOM     12  C   UNL     1       1.898  -5.151  -2.520  1.00  0.00     0.031 A 
ATOM     13  C   UNL     1       2.518  -6.173  -1.622  1.00  0.00     0.074 A 
ATOM     14  C   UNL     1       1.075  -5.549  -3.509  1.00  0.00     0.049 A 
ATOM     15  N   UNL     1       3.544  -6.935  -1.829  1.00  0.00    -0.248 NA
ATOM     16  C   UNL     1       1.977  -6.280  -0.264  1.00  0.00     0.031 C 
ATOM     17  C   UNL     1       0.143  -4.749  -4.304  1.00  0.00     0.029 A 
ATOM     18  N   UNL     1       0.822  -6.817  -3.929  1.00  0.00    -0.354 N 
ATOM     19  C   UNL     1       3.658  -7.765  -0.708  1.00  0.00     0.074 A 
ATOM     20  C   UNL     1       2.801  -7.175   0.285  1.00  0.00     0.031 C 
ATOM     21  C   UNL     1      -0.739  -5.569  -4.919  1.00  0.00     0.029 A 
ATOM     22  C   UNL     1      -0.321  -6.943  -4.705  1.00  0.00     0.049 A 
ATOM     23  H   UNL     1       1.400  -7.580  -3.701  1.00  0.00     0.167 HD
ATOM     24  C   UNL     1       4.288  -8.979  -0.758  1.00  0.00     0.034 A 
ATOM     25  C   UNL     1      -0.906  -8.099  -5.109  1.00  0.00     0.034 A 
ATOM     26  C   UNL     1       5.042  -9.111  -1.986  1.00  0.00     0.049 A 
ATOM     27  C   UNL     1       0.147  -9.146  -5.061  1.00  0.00     0.074 A 
ATOM     28  C   UNL     1       6.085  -8.420  -2.573  1.00  0.00     0.029 A 
ATOM     29  N   UNL     1       4.492  -9.859  -3.005  1.00  0.00    -0.354 N 
ATOM     30  N   UNL     1       1.218  -9.107  -5.809  1.00  0.00    -0.248 NA
ATOM     31  C   UNL     1       0.266  -9.954  -3.856  1.00  0.00     0.031 C 
ATOM     32  C   UNL     1       5.736  -8.357  -3.957  1.00  0.00     0.029 A 
ATOM     33  C   UNL     1       4.557  -9.085  -4.135  1.00  0.00     0.049 A 
ATOM     34  H   UNL     1       4.124 -10.770  -2.934  1.00  0.00     0.167 HD
ATOM     35  C   UNL     1       2.254  -9.508  -4.978  1.00  0.00     0.074 A 
ATOM     36  C   UNL     1       1.594 -10.115  -3.822  1.00  0.00     0.031 C 
ATOM     37  C   UNL     1       3.535  -9.065  -5.163  1.00  0.00     0.034 A 
BRANCH  24  38
ATOM     38  C   UNL     1       3.967 -10.205   0.090  1.00  0.00     0.023 A 
ATOM     39  C   UNL     1       4.633 -11.408  -0.242  1.00  0.00     0.031 A 
ATOM     40  C   UNL     1       2.886 -10.351   0.985  1.00  0.00     0.131 A 
ATOM     41  C   UNL     1       4.138 -12.660   0.164  1.00  0.00     0.055 A 
ATOM     42  C   UNL     1       2.434 -11.597   1.440  1.00  0.00     0.041 A 
ATOM     43  F   UNL     1       2.157  -9.322   1.421  1.00  0.00    -0.206 F 
ATOM     44  C   UNL     1       3.031 -12.763   0.997  1.00  0.00     0.022 A 
BRANCH  41  45
ATOM     45  S   UNL     1       4.845 -14.152  -0.585  1.00  0.00     0.124 S 
ATOM     46  O   UNL     1       4.784 -13.824  -2.006  1.00  0.00    -0.237 OA
ATOM     47  O   UNL     1       6.175 -14.186   0.013  1.00  0.00    -0.237 OA
ATOM     48  O   UNL     1       3.938 -15.212  -0.151  1.00  0.00    -0.744 OA
ENDBRANCH  41  45
ENDBRANCH  24  38
BRANCH  25  49
ATOM     49  C   UNL     1      -2.369  -8.363  -5.152  1.00  0.00     0.023 A 
ATOM     50  C   UNL     1      -2.955  -9.350  -5.968  1.00  0.00     0.031 A 
ATOM     51  C   UNL     1      -3.210  -7.750  -4.192  1.00  0.00     0.131 A 
ATOM     52  C   UNL     1      -4.325  -9.675  -5.816  1.00  0.00     0.055 A 
ATOM     53  C   UNL     1      -4.560  -8.074  -4.047  1.00  0.00     0.041 A 
ATOM     54  F   UNL     1      -2.722  -6.864  -3.309  1.00  0.00    -0.206 F 
ATOM     55  C   UNL     1      -5.123  -9.045  -4.857  1.00  0.00     0.022 A 
BRANCH  52  56
ATOM     56  S   UNL     1      -5.080 -10.989  -6.828  1.00  0.00     0.124 S 
ATOM     57  O   UNL     1      -5.045 -10.409  -8.166  1.00  0.00    -0.237 OA
ATOM     58  O   UNL     1      -4.191 -12.120  -6.588  1.00  0.00    -0.237 OA
ATOM     59  O   UNL     1      -6.421 -11.134  -6.258  1.00  0.00    -0.744 OA
ENDBRANCH  52  56
ENDBRANCH  25  49
BRANCH  37  60
ATOM     60  C   UNL     1       3.871  -8.295  -6.425  1.00  0.00     0.023 A 
ATOM     61  C   UNL     1       3.285  -7.062  -6.794  1.00  0.00     0.031 A 
ATOM     62  C   UNL     1       4.959  -8.754  -7.186  1.00  0.00     0.131 A 
ATOM     63  C   UNL     1       3.799  -6.338  -7.890  1.00  0.00     0.055 A 
ATOM     64  C   UNL     1       5.476  -8.027  -8.257  1.00  0.00     0.041 A 
ATOM     65  F   UNL     1       5.580  -9.902  -6.862  1.00  0.00    -0.206 F 
ATOM     66  C   UNL     1       4.896  -6.816  -8.615  1.00  0.00     0.022 A 
BRANCH  63  67
ATOM     67  S   UNL     1       3.055  -4.751  -8.394  1.00  0.00     0.124 S 
ATOM     68  O   UNL     1       1.630  -5.050  -8.470  1.00  0.00    -0.237 OA
ATOM     69  O   UNL     1       3.465  -3.851  -7.319  1.00  0.00    -0.237 OA
ATOM     70  O   UNL     1       3.687  -4.475  -9.686  1.00  0.00    -0.744 OA
ENDBRANCH  63  67
ENDBRANCH  37  60
ENDBRANCH  11  12
ENDBRANCH   4   6
ENDBRANCH   3   4
ENDBRANCH   2   3
ENDBRANCH   1   2
BRANCH   1  71
ATOM     71  O   UNL     1       3.904  -0.334   1.613  1.00  0.00    -0.462 OA
BRANCH  71  72
ATOM     72  C   UNL     1       3.045  -0.291   2.666  1.00  0.00     0.312 C 
ATOM     73  O   UNL     1       2.760   0.735   3.279  1.00  0.00    -0.252 OA
BRANCH  72  74
ATOM     74  C   UNL     1       2.522  -1.641   3.107  1.00  0.00     0.143 C 
ATOM     75  C   UNL     1       3.505  -2.813   2.983  1.00  0.00     0.124 C 
ATOM     76  C   UNL     1       1.357  -2.095   2.225  1.00  0.00     0.133 C 
ATOM     77  C   UNL     1       2.655  -3.844   2.235  1.00  0.00     0.132 C 
ATOM     78  C   UNL     1       0.500  -3.120   2.965  1.00  0.00     0.036 C 
ATOM     79  O   UNL     1       2.025  -2.958   1.276  1.00  0.00    -0.373 OA
ATOM     80  C   UNL     1       1.401  -4.354   2.949  1.00  0.00     0.035 C 
BRANCH  75  81
ATOM     81  C   UNL     1       4.031  -3.292   4.314  1.00  0.00     0.226 C 
ATOM     82  O   UNL     1       3.569  -4.253   4.923  1.00  0.00    -0.275 OA
ATOM     83  N   UNL     1       5.056  -2.618   4.896  1.00  0.00    -0.354 N 
ATOM     84  H   UNL     1       5.357  -3.004   5.750  1.00  0.00     0.163 HD
BRANCH  83  85
ATOM     85  C   UNL     1       5.791  -1.430   4.491  1.00  0.00     0.139 C 
BRANCH  85  86
ATOM     86  C   UNL     1       5.452  -0.224   5.371  1.00  0.00     0.165 C 
BRANCH  86  87
ATOM     87  N   UNL     1       5.703  -0.426   6.789  1.00  0.00    -0.269 N 
ATOM     88  C   UNL     1       5.129   0.275   7.813  1.00  0.00     0.129 A 
ATOM     89  N   UNL     1       6.533  -1.403   7.215  1.00  0.00    -0.180 NA
ATOM     90  C   UNL     1       5.577  -0.313   8.970  1.00  0.00     0.079 A 
ATOM     91  C   UNL     1       6.426  -1.349   8.546  1.00  0.00     0.155 A 
ATOM     92  Cl  UNL     1       5.203   0.093  10.566  1.00  0.00    -0.081 Cl
ENDBRANCH  86  87
ENDBRANCH  85  86
ENDBRANCH  83  85
ENDBRANCH  75  81
ENDBRANCH  72  74
ENDBRANCH  71  72
ENDBRANCH   1  71
TORSDOF 18
