REMARK SMILES CCOc1c(Br)cc(CNc2cccc(C(=O)OCCOC(=O)c3ccc(-c4c5nc(c(-c6cc(S(=O)(=O)[O-])ccc6F)c6ccc([nH]6)c(-c6cc(S(=O)(=O)[O-])ccc6F)c6nc(c(-c7cc(S(=O)(=O)[O-])ccc7F)c7ccc4[nH]7)C=C6)C=C5)cc3)c2C)cc1OC
REMARK SMILES IDX 19 1 18 2 16 3 17 4 15 5 11 6 12 7 87 8 13 9 88 10 14 11
REMARK SMILES IDX 10 12 9 14 8 15 4 16 5 17 90 18 6 19 7 20 89 21 3 22 2 23
REMARK SMILES IDX 1 24 91 25 92 26 20 27 21 28 22 29 23 30 24 31 25 32 86 33
REMARK SMILES IDX 26 34 85 35 27 36 28 37 29 38 79 39 30 40 84 41 78 42 80 43
REMARK SMILES IDX 31 44 83 45 77 46 76 47 32 49 64 50 44 51 63 52 45 53 48 54
REMARK SMILES IDX 62 55 81 56 46 57 47 58 61 60 82 61 49 62 33 63 34 64 42 65
REMARK SMILES IDX 35 66 41 67 43 68 40 69 36 70 37 71 38 72 39 73 65 74 66 75
REMARK SMILES IDX 74 76 67 77 73 78 75 79 72 80 68 81 69 82 70 83 71 84 50 85
REMARK SMILES IDX 51 86 59 87 52 88 58 89 60 90 57 91 53 92 54 93 55 94 56 95
REMARK H PARENT 10 13 80 48 48 59
REMARK Flexibility Score: inf
ROOT
ATOM      1  C   UNL     1      11.423  -0.915  -3.359  1.00  0.00     0.275 C 
ENDROOT
BRANCH   1   2
ATOM      2  O   UNL     1      10.692  -0.456  -2.211  1.00  0.00    -0.458 OA
BRANCH   2   3
ATOM      3  C   UNL     1      10.856  -1.030  -0.999  1.00  0.00     0.338 C 
ATOM      4  O   UNL     1      11.540  -2.005  -0.747  1.00  0.00    -0.246 OA
BRANCH   3   5
ATOM      5  C   UNL     1      10.209  -0.144   0.017  1.00  0.00     0.065 A 
ATOM      6  C   UNL     1       8.660   0.398   1.854  1.00  0.00     0.038 A 
ATOM      7  C   UNL     1       9.287   1.651   1.945  1.00  0.00     0.026 A 
ATOM      8  C   UNL     1       9.161  -0.530   0.896  1.00  0.00    -0.013 A 
ATOM      9  C   UNL     1      10.320   2.023   1.083  1.00  0.00     0.003 A 
ATOM     10  C   UNL     1       8.532  -1.898   0.832  1.00  0.00     0.047 C 
ATOM     11  C   UNL     1      10.763   1.140   0.110  1.00  0.00     0.016 A 
BRANCH   6  12
ATOM     12  N   UNL     1       7.563   0.072   2.643  1.00  0.00    -0.381 N 
ATOM     13  H   UNL     1       7.339  -0.884   2.720  1.00  0.00     0.160 HD
BRANCH  12  14
ATOM     14  C   UNL     1       6.716   1.004   3.364  1.00  0.00     0.149 C 
BRANCH  14  15
ATOM     15  C   UNL     1       5.262   0.813   2.987  1.00  0.00    -0.024 A 
ATOM     16  C   UNL     1       2.497   0.690   2.337  1.00  0.00     0.175 A 
ATOM     17  C   UNL     1       3.426   1.289   1.468  1.00  0.00     0.064 A 
ATOM     18  C   UNL     1       2.949   0.210   3.579  1.00  0.00     0.162 A 
ATOM     19  Br  UNL     1       2.888   2.310  -0.044  1.00  0.00    -0.047 Br
ATOM     20  C   UNL     1       4.796   1.294   1.761  1.00  0.00     0.025 A 
ATOM     21  C   UNL     1       4.327   0.271   3.882  1.00  0.00     0.056 A 
BRANCH  16  22
ATOM     22  O   UNL     1       1.166   0.726   2.006  1.00  0.00    -0.489 OA
BRANCH  22  23
ATOM     23  C   UNL     1       0.702  -0.473   1.367  1.00  0.00     0.226 C 
ATOM     24  C   UNL     1       0.648  -0.343  -0.145  1.00  0.00     0.049 C 
ENDBRANCH  22  23
ENDBRANCH  16  22
BRANCH  18  25
ATOM     25  O   UNL     1       2.221  -0.298   4.625  1.00  0.00    -0.493 OA
ATOM     26  C   UNL     1       0.808  -0.171   4.612  1.00  0.00     0.278 C 
ENDBRANCH  18  25
ENDBRANCH  14  15
ENDBRANCH  12  14
ENDBRANCH   6  12
ENDBRANCH   3   5
ENDBRANCH   2   3
ENDBRANCH   1   2
BRANCH   1  27
ATOM     27  C   UNL     1      11.446  -2.406  -3.772  1.00  0.00     0.275 C 
BRANCH  27  28
ATOM     28  O   UNL     1      10.376  -3.357  -3.554  1.00  0.00    -0.458 OA
BRANCH  28  29
ATOM     29  C   UNL     1       9.222  -3.100  -2.906  1.00  0.00     0.338 C 
ATOM     30  O   UNL     1       8.854  -3.728  -1.918  1.00  0.00    -0.246 OA
BRANCH  29  31
ATOM     31  C   UNL     1       8.514  -1.923  -3.414  1.00  0.00     0.060 A 
ATOM     32  C   UNL     1       7.817  -1.116  -2.500  1.00  0.00     0.016 A 
ATOM     33  C   UNL     1       8.750  -1.519  -4.724  1.00  0.00     0.016 A 
ATOM     34  C   UNL     1       7.424   0.154  -2.857  1.00  0.00     0.010 A 
ATOM     35  C   UNL     1       8.494  -0.218  -5.045  1.00  0.00     0.010 A 
ATOM     36  C   UNL     1       7.772   0.570  -4.136  1.00  0.00    -0.014 A 
BRANCH  36  37
ATOM     37  C   UNL     1       7.084   1.660  -4.780  1.00  0.00     0.031 A 
ATOM     38  C   UNL     1       7.521   3.028  -4.472  1.00  0.00     0.074 A 
ATOM     39  C   UNL     1       6.163   1.175  -5.649  1.00  0.00     0.049 A 
ATOM     40  N   UNL     1       6.744   4.042  -4.334  1.00  0.00    -0.248 NA
ATOM     41  C   UNL     1       8.921   3.364  -4.157  1.00  0.00     0.031 C 
ATOM     42  C   UNL     1       5.410   1.780  -6.727  1.00  0.00     0.029 A 
ATOM     43  N   UNL     1       5.660  -0.130  -5.675  1.00  0.00    -0.354 N 
ATOM     44  C   UNL     1       7.562   5.146  -4.473  1.00  0.00     0.074 A 
ATOM     45  C   UNL     1       8.877   4.703  -4.091  1.00  0.00     0.031 C 
ATOM     46  C   UNL     1       4.345   0.990  -7.000  1.00  0.00     0.029 A 
ATOM     47  C   UNL     1       4.325  -0.089  -6.016  1.00  0.00     0.049 A 
ATOM     48  H   UNL     1       6.176  -0.946  -5.480  1.00  0.00     0.167 HD
ATOM     49  C   UNL     1       7.129   6.185  -5.245  1.00  0.00     0.034 A 
ATOM     50  C   UNL     1       3.374  -0.288  -5.051  1.00  0.00     0.034 A 
ATOM     51  C   UNL     1       5.838   5.834  -5.835  1.00  0.00     0.049 A 
ATOM     52  C   UNL     1       2.670   1.027  -4.785  1.00  0.00     0.074 A 
ATOM     53  C   UNL     1       5.511   5.321  -7.080  1.00  0.00     0.029 A 
ATOM     54  N   UNL     1       4.752   5.591  -5.008  1.00  0.00    -0.354 N 
ATOM     55  N   UNL     1       3.252   2.198  -4.838  1.00  0.00    -0.248 NA
ATOM     56  C   UNL     1       1.230   1.110  -4.589  1.00  0.00     0.031 C 
ATOM     57  C   UNL     1       4.223   4.731  -6.979  1.00  0.00     0.029 A 
ATOM     58  C   UNL     1       3.793   4.852  -5.669  1.00  0.00     0.049 A 
ATOM     59  H   UNL     1       4.675   5.903  -4.078  1.00  0.00     0.167 HD
ATOM     60  C   UNL     1       2.289   3.176  -4.817  1.00  0.00     0.074 A 
ATOM     61  C   UNL     1       1.044   2.439  -4.643  1.00  0.00     0.031 C 
ATOM     62  C   UNL     1       2.554   4.508  -4.996  1.00  0.00     0.034 A 
BRANCH  49  63
ATOM     63  C   UNL     1       7.987   7.300  -5.792  1.00  0.00     0.023 A 
ATOM     64  C   UNL     1       7.625   7.890  -7.022  1.00  0.00     0.031 A 
ATOM     65  C   UNL     1       9.122   7.847  -5.168  1.00  0.00     0.131 A 
ATOM     66  C   UNL     1       8.384   8.912  -7.611  1.00  0.00     0.055 A 
ATOM     67  C   UNL     1       9.898   8.857  -5.764  1.00  0.00     0.041 A 
ATOM     68  F   UNL     1       9.504   7.458  -3.943  1.00  0.00    -0.206 F 
ATOM     69  C   UNL     1       9.533   9.393  -6.995  1.00  0.00     0.022 A 
BRANCH  66  70
ATOM     70  S   UNL     1       7.822   9.611  -9.188  1.00  0.00     0.124 S 
ATOM     71  O   UNL     1       7.909   8.460 -10.081  1.00  0.00    -0.237 OA
ATOM     72  O   UNL     1       6.477  10.073  -8.862  1.00  0.00    -0.237 OA
ATOM     73  O   UNL     1       8.791  10.673  -9.453  1.00  0.00    -0.744 OA
ENDBRANCH  66  70
ENDBRANCH  49  63
BRANCH  50  74
ATOM     74  C   UNL     1       3.716  -1.324  -4.015  1.00  0.00     0.023 A 
ATOM     75  C   UNL     1       4.131  -2.596  -4.468  1.00  0.00     0.031 A 
ATOM     76  C   UNL     1       3.937  -1.037  -2.663  1.00  0.00     0.131 A 
ATOM     77  C   UNL     1       4.886  -3.449  -3.645  1.00  0.00     0.055 A 
ATOM     78  C   UNL     1       4.617  -1.929  -1.813  1.00  0.00     0.041 A 
ATOM     79  F   UNL     1       3.594   0.153  -2.159  1.00  0.00    -0.206 F 
ATOM     80  C   UNL     1       5.135  -3.126  -2.313  1.00  0.00     0.022 A 
BRANCH  77  81
ATOM     81  S   UNL     1       5.751  -4.834  -4.449  1.00  0.00     0.124 S 
ATOM     82  O   UNL     1       4.652  -5.740  -4.763  1.00  0.00    -0.237 OA
ATOM     83  O   UNL     1       6.379  -4.168  -5.589  1.00  0.00    -0.237 OA
ATOM     84  O   UNL     1       6.680  -5.309  -3.432  1.00  0.00    -0.744 OA
ENDBRANCH  77  81
ENDBRANCH  50  74
BRANCH  62  85
ATOM     85  C   UNL     1       1.614   5.637  -4.648  1.00  0.00     0.023 A 
ATOM     86  C   UNL     1       0.451   5.430  -3.907  1.00  0.00     0.031 A 
ATOM     87  C   UNL     1       1.897   6.989  -4.974  1.00  0.00     0.131 A 
ATOM     88  C   UNL     1      -0.442   6.476  -3.652  1.00  0.00     0.055 A 
ATOM     89  C   UNL     1       1.075   8.051  -4.596  1.00  0.00     0.041 A 
ATOM     90  F   UNL     1       2.989   7.351  -5.662  1.00  0.00    -0.206 F 
ATOM     91  C   UNL     1      -0.126   7.794  -3.958  1.00  0.00     0.022 A 
BRANCH  88  92
ATOM     92  S   UNL     1      -2.077   6.025  -3.034  1.00  0.00     0.124 S 
ATOM     93  O   UNL     1      -2.594   5.212  -4.133  1.00  0.00    -0.237 OA
ATOM     94  O   UNL     1      -1.764   5.300  -1.808  1.00  0.00    -0.237 OA
ATOM     95  O   UNL     1      -2.739   7.314  -2.848  1.00  0.00    -0.744 OA
ENDBRANCH  88  92
ENDBRANCH  62  85
ENDBRANCH  36  37
ENDBRANCH  29  31
ENDBRANCH  28  29
ENDBRANCH  27  28
ENDBRANCH   1  27
TORSDOF 20
