REMARK SMILES C[C@@H](O)[C@@H](NC(=O)CSc1ccncc1)C(=O)OCCOC(=O)c1ccc(-c2c3nc(c(-c4cc(S(=O)(=O)[O-])ccc4F)c4ccc([nH]4)c(-c4cc(S(=O)(=O)[O-])ccc4F)c4nc(c(-c5cc(S(=O)(=O)[O-])ccc5F)c5ccc2[nH]5)C=C4)C=C3)cc1
REMARK SMILES IDX 19 1 18 2 16 3 17 4 4 5 2 6 1 7 3 8 5 10 6 11 7 13 8 14 9 15
REMARK SMILES IDX 10 16 11 17 15 18 12 19 14 20 13 21 20 22 21 23 22 24 23 25
REMARK SMILES IDX 24 26 25 27 86 28 26 29 85 30 27 31 28 32 29 33 79 34 30 35
REMARK SMILES IDX 84 36 78 37 80 38 31 39 83 40 77 41 76 42 32 44 64 45 44 46
REMARK SMILES IDX 63 47 45 48 48 49 62 50 81 51 46 52 47 53 61 55 82 56 49 57
REMARK SMILES IDX 33 58 34 59 42 60 35 61 41 62 43 63 40 64 36 65 37 66 38 67
REMARK SMILES IDX 39 68 65 69 66 70 74 71 67 72 73 73 75 74 72 75 68 76 69 77
REMARK SMILES IDX 70 78 71 79 50 80 51 81 59 82 52 83 58 84 60 85 57 86 53 87
REMARK SMILES IDX 54 88 55 89 56 90
REMARK H PARENT 3 9 5 12 80 43 48 54
REMARK Flexibility Score: inf
ROOT
ATOM      1  C   UNL     1      -1.415  -5.232  -1.073  1.00  0.00     0.274 C 
ENDROOT
BRANCH   1   2
ATOM      2  O   UNL     1      -0.798  -3.926  -1.091  1.00  0.00    -0.460 OA
BRANCH   2   3
ATOM      3  C   UNL     1      -1.578  -2.912  -0.629  1.00  0.00     0.331 C 
ATOM      4  O   UNL     1      -2.706  -3.071  -0.171  1.00  0.00    -0.250 OA
BRANCH   3   5
ATOM      5  C   UNL     1      -0.994  -1.515  -0.872  1.00  0.00     0.221 C 
BRANCH   5   6
ATOM      6  C   UNL     1       0.538  -1.471  -0.593  1.00  0.00     0.145 C 
ATOM      7  C   UNL     1       1.098  -0.046  -0.660  1.00  0.00     0.041 C 
BRANCH   6   8
ATOM      8  O   UNL     1       0.849  -1.895   0.730  1.00  0.00    -0.391 OA
ATOM      9  H   UNL     1       0.444  -1.288   1.368  1.00  0.00     0.211 HD
ENDBRANCH   6   8
ENDBRANCH   5   6
BRANCH   5  10
ATOM     10  N   UNL     1      -1.303  -0.885  -2.177  1.00  0.00    -0.340 N 
ATOM     11  C   UNL     1      -2.361  -0.932  -3.023  1.00  0.00     0.231 C 
ATOM     12  H   UNL     1      -0.578  -0.304  -2.502  1.00  0.00     0.164 HD
ATOM     13  O   UNL     1      -2.533   0.063  -3.738  1.00  0.00    -0.274 OA
BRANCH  11  14
ATOM     14  C   UNL     1      -3.233  -2.143  -3.195  1.00  0.00     0.174 C 
BRANCH  14  15
ATOM     15  S   UNL     1      -2.616  -3.490  -4.276  1.00  0.00    -0.116 SA
BRANCH  15  16
ATOM     16  C   UNL     1      -0.931  -3.165  -4.767  1.00  0.00     0.011 A 
ATOM     17  C   UNL     1      -0.086  -4.275  -4.876  1.00  0.00     0.035 A 
ATOM     18  C   UNL     1      -0.441  -1.938  -5.202  1.00  0.00     0.035 A 
ATOM     19  C   UNL     1       1.202  -4.103  -5.360  1.00  0.00     0.112 A 
ATOM     20  C   UNL     1       0.873  -1.855  -5.641  1.00  0.00     0.112 A 
ATOM     21  N   UNL     1       1.707  -2.911  -5.730  1.00  0.00    -0.265 NA
ENDBRANCH  15  16
ENDBRANCH  14  15
ENDBRANCH  11  14
ENDBRANCH   5  10
ENDBRANCH   3   5
ENDBRANCH   2   3
ENDBRANCH   1   2
BRANCH   1  22
ATOM     22  C   UNL     1      -1.034  -6.070   0.152  1.00  0.00     0.275 C 
BRANCH  22  23
ATOM     23  O   UNL     1      -1.516  -5.498   1.380  1.00  0.00    -0.458 OA
BRANCH  23  24
ATOM     24  C   UNL     1      -0.650  -4.649   1.978  1.00  0.00     0.338 C 
ATOM     25  O   UNL     1       0.482  -4.382   1.584  1.00  0.00    -0.246 OA
BRANCH  24  26
ATOM     26  C   UNL     1      -1.315  -3.933   3.079  1.00  0.00     0.060 A 
ATOM     27  C   UNL     1      -1.353  -2.538   3.013  1.00  0.00     0.016 A 
ATOM     28  C   UNL     1      -1.829  -4.599   4.194  1.00  0.00     0.016 A 
ATOM     29  C   UNL     1      -1.863  -1.795   4.068  1.00  0.00     0.010 A 
ATOM     30  C   UNL     1      -2.350  -3.850   5.257  1.00  0.00     0.010 A 
ATOM     31  C   UNL     1      -2.345  -2.444   5.207  1.00  0.00    -0.014 A 
BRANCH  31  32
ATOM     32  C   UNL     1      -2.728  -1.621   6.377  1.00  0.00     0.031 A 
ATOM     33  C   UNL     1      -1.767  -1.492   7.525  1.00  0.00     0.074 A 
ATOM     34  C   UNL     1      -3.881  -0.928   6.364  1.00  0.00     0.049 A 
ATOM     35  N   UNL     1      -1.896  -0.833   8.646  1.00  0.00    -0.248 NA
ATOM     36  C   UNL     1      -0.488  -2.205   7.385  1.00  0.00     0.031 C 
ATOM     37  C   UNL     1      -4.851  -0.929   5.268  1.00  0.00     0.029 A 
ATOM     38  N   UNL     1      -4.426  -0.082   7.294  1.00  0.00    -0.354 N 
ATOM     39  C   UNL     1      -0.720  -1.058   9.354  1.00  0.00     0.074 A 
ATOM     40  C   UNL     1       0.094  -1.942   8.545  1.00  0.00     0.031 C 
ATOM     41  C   UNL     1      -5.872  -0.117   5.589  1.00  0.00     0.029 A 
ATOM     42  C   UNL     1      -5.648   0.427   6.926  1.00  0.00     0.049 A 
ATOM     43  H   UNL     1      -3.983   0.141   8.145  1.00  0.00     0.167 HD
ATOM     44  C   UNL     1      -0.353  -0.567  10.564  1.00  0.00     0.034 A 
ATOM     45  C   UNL     1      -6.497   1.226   7.602  1.00  0.00     0.034 A 
ATOM     46  C   UNL     1      -1.188   0.304  11.357  1.00  0.00     0.049 A 
ATOM     47  C   UNL     1      -6.096   1.708   8.973  1.00  0.00     0.074 A 
ATOM     48  C   UNL     1      -0.939   0.839  12.609  1.00  0.00     0.029 A 
ATOM     49  N   UNL     1      -2.441   0.768  10.972  1.00  0.00    -0.354 N 
ATOM     50  N   UNL     1      -4.997   1.460   9.650  1.00  0.00    -0.248 NA
ATOM     51  C   UNL     1      -7.046   2.586   9.666  1.00  0.00     0.031 C 
ATOM     52  C   UNL     1      -2.063   1.577  13.004  1.00  0.00     0.029 A 
ATOM     53  C   UNL     1      -2.985   1.564  11.970  1.00  0.00     0.049 A 
ATOM     54  H   UNL     1      -2.880   0.561  10.115  1.00  0.00     0.167 HD
ATOM     55  C   UNL     1      -5.115   2.172  10.840  1.00  0.00     0.074 A 
ATOM     56  C   UNL     1      -6.382   2.875  10.775  1.00  0.00     0.031 C 
ATOM     57  C   UNL     1      -4.259   2.242  11.892  1.00  0.00     0.034 A 
BRANCH  44  58
ATOM     58  C   UNL     1       0.975  -1.027  11.117  1.00  0.00     0.023 A 
ATOM     59  C   UNL     1       2.192  -0.707  10.489  1.00  0.00     0.031 A 
ATOM     60  C   UNL     1       1.020  -1.852  12.254  1.00  0.00     0.131 A 
ATOM     61  C   UNL     1       3.390  -1.271  10.955  1.00  0.00     0.055 A 
ATOM     62  C   UNL     1       2.224  -2.346  12.760  1.00  0.00     0.041 A 
ATOM     63  F   UNL     1      -0.111  -2.213  12.881  1.00  0.00    -0.206 F 
ATOM     64  C   UNL     1       3.417  -2.070  12.100  1.00  0.00     0.022 A 
BRANCH  61  65
ATOM     65  S   UNL     1       4.893  -1.072   9.956  1.00  0.00     0.124 S 
ATOM     66  O   UNL     1       4.487  -1.679   8.690  1.00  0.00    -0.237 OA
ATOM     67  O   UNL     1       5.074   0.374   9.943  1.00  0.00    -0.237 OA
ATOM     68  O   UNL     1       5.902  -1.822  10.702  1.00  0.00    -0.744 OA
ENDBRANCH  61  65
ENDBRANCH  44  58
BRANCH  45  69
ATOM     69  C   UNL     1      -7.819   1.589   7.019  1.00  0.00     0.023 A 
ATOM     70  C   UNL     1      -8.138   2.919   6.704  1.00  0.00     0.031 A 
ATOM     71  C   UNL     1      -8.805   0.607   6.810  1.00  0.00     0.131 A 
ATOM     72  C   UNL     1      -9.423   3.238   6.237  1.00  0.00     0.055 A 
ATOM     73  C   UNL     1     -10.065   0.922   6.300  1.00  0.00     0.041 A 
ATOM     74  F   UNL     1      -8.551  -0.680   7.094  1.00  0.00    -0.206 F 
ATOM     75  C   UNL     1     -10.384   2.248   6.022  1.00  0.00     0.022 A 
BRANCH  72  76
ATOM     76  S   UNL     1      -9.849   4.984   5.984  1.00  0.00     0.124 S 
ATOM     77  O   UNL     1      -9.625   5.541   7.313  1.00  0.00    -0.237 OA
ATOM     78  O   UNL     1      -8.896   5.381   4.953  1.00  0.00    -0.237 OA
ATOM     79  O   UNL     1     -11.245   4.934   5.554  1.00  0.00    -0.744 OA
ENDBRANCH  72  76
ENDBRANCH  45  69
BRANCH  57  80
ATOM     80  C   UNL     1      -4.662   3.145  13.032  1.00  0.00     0.023 A 
ATOM     81  C   UNL     1      -5.782   2.865  13.836  1.00  0.00     0.031 A 
ATOM     82  C   UNL     1      -3.943   4.326  13.287  1.00  0.00     0.131 A 
ATOM     83  C   UNL     1      -6.192   3.789  14.808  1.00  0.00     0.055 A 
ATOM     84  C   UNL     1      -4.319   5.211  14.298  1.00  0.00     0.041 A 
ATOM     85  F   UNL     1      -2.866   4.643  12.550  1.00  0.00    -0.206 F 
ATOM     86  C   UNL     1      -5.460   4.953  15.053  1.00  0.00     0.022 A 
BRANCH  83  87
ATOM     87  S   UNL     1      -7.765   3.507  15.666  1.00  0.00     0.124 S 
ATOM     88  O   UNL     1      -8.700   3.377  14.553  1.00  0.00    -0.237 OA
ATOM     89  O   UNL     1      -7.495   2.287  16.418  1.00  0.00    -0.237 OA
ATOM     90  O   UNL     1      -7.933   4.711  16.478  1.00  0.00    -0.744 OA
ENDBRANCH  83  87
ENDBRANCH  57  80
ENDBRANCH  31  32
ENDBRANCH  24  26
ENDBRANCH  23  24
ENDBRANCH  22  23
ENDBRANCH   1  22
TORSDOF 20
