REMARK SMILES [NH3+][C@@H](CNc1ccc(C(=O)OCCOC(=O)c2ccc(-c3c4nc(c(-c5cc(S(=O)(=O)[O-])ccc5F)c5ccc([nH]5)c(-c5cc(S(=O)(=O)[O-])ccc5F)c5nc(c(-c6cc(S(=O)(=O)[O-])ccc6F)c6ccc3[nH]6)C=C5)C=C4)cc2)c(F)c1F)c1ccccc1
REMARK SMILES IDX 12 1 11 2 9 3 10 4 8 5 5 6 6 7 82 8 7 9 80 10 83 11 81 12
REMARK SMILES IDX 4 13 3 15 2 16 1 17 84 21 85 22 89 23 86 24 88 25 87 26
REMARK SMILES IDX 13 27 14 28 15 29 16 30 17 31 18 32 79 33 19 34 78 35 20 36
REMARK SMILES IDX 21 37 22 38 72 39 23 40 77 41 71 42 73 43 24 44 76 45 70 46
REMARK SMILES IDX 69 47 25 49 57 50 37 51 56 52 38 53 41 54 55 55 74 56 39 57
REMARK SMILES IDX 40 58 54 60 75 61 42 62 26 63 27 64 35 65 28 66 34 67 36 68
REMARK SMILES IDX 33 69 29 70 30 71 31 72 32 73 58 74 59 75 67 76 60 77 66 78
REMARK SMILES IDX 68 79 65 80 61 81 62 82 63 83 64 84 43 85 44 86 52 87 45 88
REMARK SMILES IDX 51 89 53 90 50 91 46 92 47 93 48 94 49 95
REMARK H PARENT 4 14 1 18 1 19 1 20 73 48 41 59
REMARK Flexibility Score: inf
ROOT
ATOM      1  C   UNL     1      -4.787  -2.078   8.068  1.00  0.00     0.275 C 
ENDROOT
BRANCH   1   2
ATOM      2  O   UNL     1      -3.933  -1.671   6.979  1.00  0.00    -0.458 OA
BRANCH   2   3
ATOM      3  C   UNL     1      -2.611  -1.593   7.261  1.00  0.00     0.341 C 
ATOM      4  O   UNL     1      -2.076  -1.865   8.325  1.00  0.00    -0.246 OA
BRANCH   3   5
ATOM      5  C   UNL     1      -1.829  -1.236   6.064  1.00  0.00     0.099 A 
ATOM      6  C   UNL     1      -0.236  -0.580   3.831  1.00  0.00     0.074 A 
ATOM      7  C   UNL     1       0.163  -1.584   4.712  1.00  0.00     0.030 A 
ATOM      8  C   UNL     1      -1.430   0.111   4.115  1.00  0.00     0.182 A 
ATOM      9  C   UNL     1      -0.608  -1.886   5.836  1.00  0.00     0.021 A 
ATOM     10  C   UNL     1      -2.232  -0.224   5.205  1.00  0.00     0.175 A 
ATOM     11  F   UNL     1      -1.803   1.127   3.318  1.00  0.00    -0.201 F 
ATOM     12  F   UNL     1      -3.353   0.477   5.436  1.00  0.00    -0.203 F 
BRANCH   6  13
ATOM     13  N   UNL     1       0.515  -0.252   2.701  1.00  0.00    -0.376 N 
ATOM     14  H   UNL     1       0.713   0.689   2.490  1.00  0.00     0.160 HD
BRANCH  13  15
ATOM     15  C   UNL     1       1.007  -1.331   1.827  1.00  0.00     0.183 C 
BRANCH  15  16
ATOM     16  C   UNL     1       0.498  -1.152   0.357  1.00  0.00     0.231 C 
BRANCH  16  17
ATOM     17  N   UNL     1       1.048   0.074  -0.263  1.00  0.00    -0.350 N 
ATOM     18  H   UNL     1       2.066   0.056  -0.206  1.00  0.00     0.345 HD
ATOM     19  H   UNL     1       0.694   0.893   0.232  1.00  0.00     0.345 HD
ATOM     20  H   UNL     1       0.762   0.118  -1.241  1.00  0.00     0.345 HD
ENDBRANCH  16  17
BRANCH  16  21
ATOM     21  C   UNL     1      -1.026  -1.213   0.319  1.00  0.00     0.011 A 
ATOM     22  C   UNL     1      -1.832  -0.063   0.318  1.00  0.00     0.010 A 
ATOM     23  C   UNL     1      -1.659  -2.466   0.400  1.00  0.00     0.010 A 
ATOM     24  C   UNL     1      -3.220  -0.160   0.434  1.00  0.00     0.001 A 
ATOM     25  C   UNL     1      -3.048  -2.562   0.509  1.00  0.00     0.001 A 
ATOM     26  C   UNL     1      -3.827  -1.409   0.535  1.00  0.00     0.000 A 
ENDBRANCH  16  21
ENDBRANCH  15  16
ENDBRANCH  13  15
ENDBRANCH   6  13
ENDBRANCH   3   5
ENDBRANCH   2   3
ENDBRANCH   1   2
BRANCH   1  27
ATOM     27  C   UNL     1      -5.268  -3.516   7.882  1.00  0.00     0.275 C 
BRANCH  27  28
ATOM     28  O   UNL     1      -4.147  -4.417   7.939  1.00  0.00    -0.458 OA
BRANCH  28  29
ATOM     29  C   UNL     1      -3.915  -5.132   6.815  1.00  0.00     0.338 C 
ATOM     30  O   UNL     1      -4.582  -5.148   5.795  1.00  0.00    -0.246 OA
BRANCH  29  31
ATOM     31  C   UNL     1      -2.668  -5.901   6.964  1.00  0.00     0.060 A 
ATOM     32  C   UNL     1      -1.466  -5.214   7.093  1.00  0.00     0.016 A 
ATOM     33  C   UNL     1      -2.667  -7.286   6.821  1.00  0.00     0.016 A 
ATOM     34  C   UNL     1      -0.253  -5.889   6.960  1.00  0.00     0.010 A 
ATOM     35  C   UNL     1      -1.447  -7.977   6.809  1.00  0.00     0.010 A 
ATOM     36  C   UNL     1      -0.220  -7.285   6.830  1.00  0.00    -0.014 A 
BRANCH  36  37
ATOM     37  C   UNL     1       1.080  -8.014   6.674  1.00  0.00     0.031 A 
ATOM     38  C   UNL     1       1.297  -8.933   5.493  1.00  0.00     0.074 A 
ATOM     39  C   UNL     1       2.074  -7.860   7.575  1.00  0.00     0.049 A 
ATOM     40  N   UNL     1       2.251  -9.805   5.284  1.00  0.00    -0.248 NA
ATOM     41  C   UNL     1       0.299  -8.874   4.413  1.00  0.00     0.031 C 
ATOM     42  C   UNL     1       2.034  -6.975   8.742  1.00  0.00     0.029 A 
ATOM     43  N   UNL     1       3.318  -8.444   7.655  1.00  0.00    -0.354 N 
ATOM     44  C   UNL     1       1.931 -10.447   4.090  1.00  0.00     0.074 A 
ATOM     45  C   UNL     1       0.693  -9.861   3.621  1.00  0.00     0.031 C 
ATOM     46  C   UNL     1       3.204  -7.047   9.394  1.00  0.00     0.029 A 
ATOM     47  C   UNL     1       4.040  -8.061   8.764  1.00  0.00     0.049 A 
ATOM     48  H   UNL     1       3.659  -9.076   6.982  1.00  0.00     0.167 HD
ATOM     49  C   UNL     1       2.604 -11.436   3.449  1.00  0.00     0.034 A 
ATOM     50  C   UNL     1       5.211  -8.511   9.261  1.00  0.00     0.034 A 
ATOM     51  C   UNL     1       3.872 -11.967   3.890  1.00  0.00     0.049 A 
ATOM     52  C   UNL     1       5.927  -9.627   8.543  1.00  0.00     0.074 A 
ATOM     53  C   UNL     1       4.652 -12.942   3.290  1.00  0.00     0.029 A 
ATOM     54  N   UNL     1       4.554 -11.562   5.029  1.00  0.00    -0.354 N 
ATOM     55  N   UNL     1       5.580 -10.258   7.445  1.00  0.00    -0.248 NA
ATOM     56  C   UNL     1       7.184 -10.099   9.137  1.00  0.00     0.031 C 
ATOM     57  C   UNL     1       5.773 -13.167   4.095  1.00  0.00     0.029 A 
ATOM     58  C   UNL     1       5.731 -12.283   5.160  1.00  0.00     0.049 A 
ATOM     59  H   UNL     1       4.247 -10.864   5.652  1.00  0.00     0.167 HD
ATOM     60  C   UNL     1       6.590 -11.188   7.211  1.00  0.00     0.074 A 
ATOM     61  C   UNL     1       7.568 -11.018   8.264  1.00  0.00     0.031 C 
ATOM     62  C   UNL     1       6.697 -12.105   6.216  1.00  0.00     0.034 A 
BRANCH  49  63
ATOM     63  C   UNL     1       1.960 -12.057   2.232  1.00  0.00     0.023 A 
ATOM     64  C   UNL     1       1.782 -11.351   1.032  1.00  0.00     0.031 A 
ATOM     65  C   UNL     1       1.531 -13.397   2.279  1.00  0.00     0.131 A 
ATOM     66  C   UNL     1       1.147 -11.972  -0.057  1.00  0.00     0.055 A 
ATOM     67  C   UNL     1       0.964 -14.030   1.172  1.00  0.00     0.041 A 
ATOM     68  F   UNL     1       1.659 -14.115   3.406  1.00  0.00    -0.206 F 
ATOM     69  C   UNL     1       0.760 -13.313  -0.003  1.00  0.00     0.022 A 
BRANCH  66  70
ATOM     70  S   UNL     1       0.741 -10.971  -1.513  1.00  0.00     0.124 S 
ATOM     71  O   UNL     1      -0.155  -9.968  -0.941  1.00  0.00    -0.237 OA
ATOM     72  O   UNL     1       2.049 -10.488  -1.940  1.00  0.00    -0.237 OA
ATOM     73  O   UNL     1       0.102 -11.924  -2.418  1.00  0.00    -0.744 OA
ENDBRANCH  66  70
ENDBRANCH  49  63
BRANCH  50  74
ATOM     74  C   UNL     1       5.746  -7.977  10.549  1.00  0.00     0.023 A 
ATOM     75  C   UNL     1       6.994  -7.338  10.610  1.00  0.00     0.031 A 
ATOM     76  C   UNL     1       5.042  -8.158  11.755  1.00  0.00     0.131 A 
ATOM     77  C   UNL     1       7.522  -6.950  11.852  1.00  0.00     0.055 A 
ATOM     78  C   UNL     1       5.540  -7.708  12.978  1.00  0.00     0.041 A 
ATOM     79  F   UNL     1       3.847  -8.770  11.759  1.00  0.00    -0.206 F 
ATOM     80  C   UNL     1       6.796  -7.115  13.034  1.00  0.00     0.022 A 
BRANCH  77  81
ATOM     81  S   UNL     1       9.227  -6.331  11.916  1.00  0.00     0.124 S 
ATOM     82  O   UNL     1       9.961  -7.418  11.278  1.00  0.00    -0.237 OA
ATOM     83  O   UNL     1       9.126  -5.090  11.155  1.00  0.00    -0.237 OA
ATOM     84  O   UNL     1       9.475  -6.166  13.347  1.00  0.00    -0.744 OA
ENDBRANCH  77  81
ENDBRANCH  50  74
BRANCH  62  85
ATOM     85  C   UNL     1       7.945 -12.951   6.200  1.00  0.00     0.023 A 
ATOM     86  C   UNL     1       8.200 -13.912   7.194  1.00  0.00     0.031 A 
ATOM     87  C   UNL     1       8.903 -12.776   5.186  1.00  0.00     0.131 A 
ATOM     88  C   UNL     1       9.411 -14.619   7.186  1.00  0.00     0.055 A 
ATOM     89  C   UNL     1      10.080 -13.524   5.151  1.00  0.00     0.041 A 
ATOM     90  F   UNL     1       8.710 -11.870   4.213  1.00  0.00    -0.206 F 
ATOM     91  C   UNL     1      10.346 -14.442   6.163  1.00  0.00     0.022 A 
BRANCH  88  92
ATOM     92  S   UNL     1       9.791 -15.712   8.584  1.00  0.00     0.124 S 
ATOM     93  O   UNL     1       9.747 -14.788   9.712  1.00  0.00    -0.237 OA
ATOM     94  O   UNL     1       8.710 -16.690   8.518  1.00  0.00    -0.237 OA
ATOM     95  O   UNL     1      11.118 -16.233   8.261  1.00  0.00    -0.744 OA
ENDBRANCH  88  92
ENDBRANCH  62  85
ENDBRANCH  36  37
ENDBRANCH  29  31
ENDBRANCH  28  29
ENDBRANCH  27  28
ENDBRANCH   1  27
TORSDOF 19
