REMARK SMILES C=CC[NH2+]CC(=O)N1CCC[C@@H]1C(=O)OCCOC(=O)c1ccc(-c2c3nc(c(-c4cc(S(=O)(=O)[O-])ccc4F)c4ccc([nH]4)c(-c4cc(S(=O)(=O)[O-])ccc4F)c4nc(c(-c5cc(S(=O)(=O)[O-])ccc5F)c5ccc2[nH]5)C=C4)C=C3)cc1
REMARK SMILES IDX 16 1 15 2 13 3 14 4 12 5 8 6 9 7 10 8 11 9 6 10 7 11 5 12
REMARK SMILES IDX 4 13 3 16 2 17 1 18 17 19 18 20 19 21 20 22 21 23 22 24
REMARK SMILES IDX 83 25 23 26 82 27 24 28 25 29 26 30 76 31 27 32 81 33 75 34
REMARK SMILES IDX 77 35 28 36 80 37 74 38 73 39 29 41 61 42 41 43 60 44 42 45
REMARK SMILES IDX 45 46 59 47 78 48 43 49 44 50 58 52 79 53 46 54 30 55 31 56
REMARK SMILES IDX 39 57 32 58 38 59 40 60 37 61 33 62 34 63 35 64 36 65 62 66
REMARK SMILES IDX 63 67 71 68 64 69 70 70 72 71 69 72 65 73 66 74 67 75 68 76
REMARK SMILES IDX 47 77 48 78 56 79 49 80 55 81 57 82 54 83 50 84 51 85 52 86
REMARK SMILES IDX 53 87
REMARK H PARENT 4 14 4 15 77 40 45 51
REMARK Flexibility Score: inf
ROOT
ATOM      1  C   UNL     1      -7.078  -2.328   0.244  1.00  0.00     0.274 C 
ENDROOT
BRANCH   1   2
ATOM      2  O   UNL     1      -5.834  -1.849   0.783  1.00  0.00    -0.461 OA
BRANCH   2   3
ATOM      3  C   UNL     1      -5.359  -0.690   0.259  1.00  0.00     0.328 C 
ATOM      4  O   UNL     1      -5.799  -0.160  -0.756  1.00  0.00    -0.250 OA
BRANCH   3   5
ATOM      5  C   UNL     1      -4.141  -0.152   1.018  1.00  0.00     0.195 C 
ATOM      6  N   UNL     1      -2.939  -0.343   0.215  1.00  0.00    -0.324 N 
ATOM      7  C   UNL     1      -1.841  -0.666   1.103  1.00  0.00     0.121 C 
ATOM      8  C   UNL     1      -2.479  -1.430   2.240  1.00  0.00     0.024 C 
ATOM      9  C   UNL     1      -3.831  -0.757   2.395  1.00  0.00     0.039 C 
BRANCH   6  10
ATOM     10  C   UNL     1      -2.725   0.535  -0.842  1.00  0.00     0.278 C 
ATOM     11  O   UNL     1      -2.718   1.755  -0.705  1.00  0.00    -0.268 OA
BRANCH  10  12
ATOM     12  C   UNL     1      -2.452  -0.157  -2.185  1.00  0.00     0.362 C 
BRANCH  12  13
ATOM     13  N   UNL     1      -1.072   0.083  -2.667  1.00  0.00    -0.335 N 
ATOM     14  H   UNL     1      -0.947  -0.372  -3.571  1.00  0.00     0.347 HD
ATOM     15  H   UNL     1      -0.921   1.087  -2.759  1.00  0.00     0.347 HD
BRANCH  13  16
ATOM     16  C   UNL     1      -0.107  -0.457  -1.720  1.00  0.00     0.289 C 
BRANCH  16  17
ATOM     17  C   UNL     1       1.295  -0.395  -2.222  1.00  0.00     0.025 C 
ATOM     18  C   UNL     1       2.310   0.056  -1.471  1.00  0.00     0.010 C 
ENDBRANCH  16  17
ENDBRANCH  13  16
ENDBRANCH  12  13
ENDBRANCH  10  12
ENDBRANCH   6  10
ENDBRANCH   3   5
ENDBRANCH   2   3
ENDBRANCH   1   2
BRANCH   1  19
ATOM     19  C   UNL     1      -8.146  -2.307   1.337  1.00  0.00     0.275 C 
BRANCH  19  20
ATOM     20  O   UNL     1      -8.338  -0.971   1.848  1.00  0.00    -0.458 OA
BRANCH  20  21
ATOM     21  C   UNL     1      -7.656  -0.693   2.984  1.00  0.00     0.338 C 
ATOM     22  O   UNL     1      -6.936  -1.454   3.615  1.00  0.00    -0.246 OA
BRANCH  21  23
ATOM     23  C   UNL     1      -7.800   0.727   3.332  1.00  0.00     0.060 A 
ATOM     24  C   UNL     1      -6.685   1.558   3.205  1.00  0.00     0.016 A 
ATOM     25  C   UNL     1      -8.977   1.209   3.902  1.00  0.00     0.016 A 
ATOM     26  C   UNL     1      -6.729   2.870   3.664  1.00  0.00     0.010 A 
ATOM     27  C   UNL     1      -9.024   2.532   4.358  1.00  0.00     0.010 A 
ATOM     28  C   UNL     1      -7.894   3.364   4.261  1.00  0.00    -0.014 A 
BRANCH  28  29
ATOM     29  C   UNL     1      -7.886   4.724   4.852  1.00  0.00     0.031 A 
ATOM     30  C   UNL     1      -7.842   4.886   6.346  1.00  0.00     0.074 A 
ATOM     31  C   UNL     1      -7.869   5.806   4.051  1.00  0.00     0.049 A 
ATOM     32  N   UNL     1      -7.883   5.978   7.065  1.00  0.00    -0.248 NA
ATOM     33  C   UNL     1      -7.742   3.649   7.135  1.00  0.00     0.031 C 
ATOM     34  C   UNL     1      -7.851   5.771   2.588  1.00  0.00     0.029 A 
ATOM     35  N   UNL     1      -7.858   7.144   4.354  1.00  0.00    -0.354 N 
ATOM     36  C   UNL     1      -7.837   5.563   8.391  1.00  0.00     0.074 A 
ATOM     37  C   UNL     1      -7.788   4.115   8.374  1.00  0.00     0.031 C 
ATOM     38  C   UNL     1      -7.823   7.029   2.121  1.00  0.00     0.029 A 
ATOM     39  C   UNL     1      -7.872   7.959   3.246  1.00  0.00     0.049 A 
ATOM     40  H   UNL     1      -7.841   7.488   5.276  1.00  0.00     0.167 HD
ATOM     41  C   UNL     1      -7.833   6.321   9.516  1.00  0.00     0.034 A 
ATOM     42  C   UNL     1      -7.944   9.301   3.150  1.00  0.00     0.034 A 
ATOM     43  C   UNL     1      -7.873   7.763   9.513  1.00  0.00     0.049 A 
ATOM     44  C   UNL     1      -7.998  10.120   4.415  1.00  0.00     0.074 A 
ATOM     45  C   UNL     1      -7.868   8.631  10.593  1.00  0.00     0.029 A 
ATOM     46  N   UNL     1      -7.930   8.555   8.372  1.00  0.00    -0.354 N 
ATOM     47  N   UNL     1      -7.981   9.714   5.663  1.00  0.00    -0.248 NA
ATOM     48  C   UNL     1      -8.080  11.577   4.256  1.00  0.00     0.031 C 
ATOM     49  C   UNL     1      -7.979   9.939  10.108  1.00  0.00     0.029 A 
ATOM     50  C   UNL     1      -7.987   9.896   8.723  1.00  0.00     0.049 A 
ATOM     51  H   UNL     1      -7.930   8.213   7.449  1.00  0.00     0.167 HD
ATOM     52  C   UNL     1      -8.024  10.869   6.438  1.00  0.00     0.074 A 
ATOM     53  C   UNL     1      -8.056  11.986   5.516  1.00  0.00     0.031 C 
ATOM     54  C   UNL     1      -8.031  10.997   7.790  1.00  0.00     0.034 A 
BRANCH  41  55
ATOM     55  C   UNL     1      -7.850   5.593  10.839  1.00  0.00     0.023 A 
ATOM     56  C   UNL     1      -6.774   4.794  11.263  1.00  0.00     0.031 A 
ATOM     57  C   UNL     1      -8.982   5.669  11.670  1.00  0.00     0.131 A 
ATOM     58  C   UNL     1      -6.880   4.050  12.449  1.00  0.00     0.055 A 
ATOM     59  C   UNL     1      -9.051   4.986  12.885  1.00  0.00     0.041 A 
ATOM     60  F   UNL     1     -10.049   6.398  11.306  1.00  0.00    -0.206 F 
ATOM     61  C   UNL     1      -8.003   4.158  13.274  1.00  0.00     0.022 A 
BRANCH  58  62
ATOM     62  S   UNL     1      -5.593   2.829  12.827  1.00  0.00     0.124 S 
ATOM     63  O   UNL     1      -5.646   1.967  11.649  1.00  0.00    -0.237 OA
ATOM     64  O   UNL     1      -4.401   3.658  12.959  1.00  0.00    -0.237 OA
ATOM     65  O   UNL     1      -6.061   2.208  14.065  1.00  0.00    -0.744 OA
ENDBRANCH  58  62
ENDBRANCH  41  55
BRANCH  42  66
ATOM     66  C   UNL     1      -8.014   9.956   1.814  1.00  0.00     0.023 A 
ATOM     67  C   UNL     1      -6.989  10.802   1.362  1.00  0.00     0.031 A 
ATOM     68  C   UNL     1      -9.135   9.774   0.983  1.00  0.00     0.131 A 
ATOM     69  C   UNL     1      -7.121  11.463   0.131  1.00  0.00     0.055 A 
ATOM     70  C   UNL     1      -9.239  10.395  -0.262  1.00  0.00     0.041 A 
ATOM     71  F   UNL     1     -10.144   8.977   1.369  1.00  0.00    -0.206 F 
ATOM     72  C   UNL     1      -8.232  11.255  -0.690  1.00  0.00     0.022 A 
BRANCH  69  73
ATOM     73  S   UNL     1      -5.850  12.663  -0.352  1.00  0.00     0.124 S 
ATOM     74  O   UNL     1      -5.898  13.610   0.756  1.00  0.00    -0.237 OA
ATOM     75  O   UNL     1      -4.657  11.827  -0.430  1.00  0.00    -0.237 OA
ATOM     76  O   UNL     1      -6.334  13.176  -1.632  1.00  0.00    -0.744 OA
ENDBRANCH  69  73
ENDBRANCH  42  66
BRANCH  54  77
ATOM     77  C   UNL     1      -8.030  12.401   8.340  1.00  0.00     0.023 A 
ATOM     78  C   UNL     1      -9.144  13.247   8.210  1.00  0.00     0.031 A 
ATOM     79  C   UNL     1      -6.886  12.903   8.985  1.00  0.00     0.131 A 
ATOM     80  C   UNL     1      -9.073  14.570   8.672  1.00  0.00     0.055 A 
ATOM     81  C   UNL     1      -6.838  14.204   9.488  1.00  0.00     0.041 A 
ATOM     82  F   UNL     1      -5.794  12.136   9.134  1.00  0.00    -0.206 F 
ATOM     83  C   UNL     1      -7.932  15.049   9.322  1.00  0.00     0.022 A 
BRANCH  80  84
ATOM     84  S   UNL     1     -10.463  15.687   8.339  1.00  0.00     0.124 S 
ATOM     85  O   UNL     1     -10.537  15.655   6.882  1.00  0.00    -0.237 OA
ATOM     86  O   UNL     1     -11.561  15.039   9.048  1.00  0.00    -0.237 OA
ATOM     87  O   UNL     1     -10.025  16.960   8.908  1.00  0.00    -0.744 OA
ENDBRANCH  80  84
ENDBRANCH  54  77
ENDBRANCH  28  29
ENDBRANCH  21  23
ENDBRANCH  20  21
ENDBRANCH  19  20
ENDBRANCH   1  19
TORSDOF 19
