REMARK SMILES NC(=O)[C@@H]1CCC[N@H+]1[C@H](C(=O)OCCOC(=O)c1ccc(-c2c3nc(c(-c4cc(S(=O)(=O)[O-])ccc4F)c4ccc([nH]4)c(-c4cc(S(=O)(=O)[O-])ccc4F)c4nc(c(-c5cc(S(=O)(=O)[O-])ccc5F)c5ccc2[nH]5)C=C4)C=C3)cc1)c1c[nH]c2cc(NC(=O)c3ccccc3)ccc12
REMARK SMILES IDX 13 1 12 2 10 3 11 4 9 5 8 6 4 7 5 8 6 9 7 10 2 12 1 13 3 16
REMARK SMILES IDX 81 17 82 18 98 19 83 20 84 21 97 22 85 24 96 25 86 26 87 27
REMARK SMILES IDX 88 28 89 30 90 31 91 32 95 33 92 34 94 35 93 36 14 37 15 38
REMARK SMILES IDX 16 39 17 40 18 41 19 42 80 43 20 44 79 45 21 46 22 47 23 48
REMARK SMILES IDX 73 49 24 50 78 51 72 52 74 53 25 54 77 55 71 56 70 57 26 59
REMARK SMILES IDX 58 60 38 61 57 62 39 63 42 64 56 65 75 66 40 67 41 68 55 70
REMARK SMILES IDX 76 71 43 72 27 73 28 74 36 75 29 76 35 77 37 78 34 79 30 80
REMARK SMILES IDX 31 81 32 82 33 83 59 84 60 85 68 86 61 87 67 88 69 89 66 90
REMARK SMILES IDX 62 91 63 92 64 93 65 94 44 95 45 96 53 97 46 98 52 99 54 100
REMARK SMILES IDX 51 101 47 102 48 103 49 104 50 105
REMARK H PARENT 8 11 1 14 1 15 83 23 87 29 74 58 42 69
REMARK Flexibility Score: inf
ROOT
ATOM      1  C   UNL     1       2.322   0.902  -3.471  1.00  0.00     0.274 C 
ENDROOT
BRANCH   1   2
ATOM      2  O   UNL     1       3.495   0.307  -2.856  1.00  0.00    -0.457 OA
BRANCH   2   3
ATOM      3  C   UNL     1       3.315  -0.276  -1.630  1.00  0.00     0.370 C 
ATOM      4  O   UNL     1       2.252  -0.142  -1.018  1.00  0.00    -0.245 OA
BRANCH   3   5
ATOM      5  C   UNL     1       4.557  -1.081  -1.031  1.00  0.00     0.329 C 
BRANCH   5   6
ATOM      6  N   UNL     1       3.965  -2.142  -0.184  1.00  0.00    -0.309 N 
ATOM      7  C   UNL     1       4.188  -3.591  -0.336  1.00  0.00     0.275 C 
ATOM      8  C   UNL     1       4.397  -4.172   1.077  1.00  0.00     0.081 C 
ATOM      9  C   UNL     1       4.811  -2.946   1.874  1.00  0.00     0.068 C 
ATOM     10  C   UNL     1       3.977  -1.842   1.252  1.00  0.00     0.264 C 
ATOM     11  H   UNL     1       3.073  -2.044  -0.670  1.00  0.00     0.349 HD
BRANCH   7  12
ATOM     12  C   UNL     1       3.518  -4.452  -1.698  1.00  0.00     0.275 C 
ATOM     13  N   UNL     1       1.707  -5.034  -2.108  1.00  0.00    -0.365 N 
ATOM     14  H   UNL     1       1.524  -5.518  -2.946  1.00  0.00     0.159 HD
ATOM     15  H   UNL     1       0.974  -4.845  -1.478  1.00  0.00     0.159 HD
ATOM     16  O   UNL     1       4.548  -4.744  -2.363  1.00  0.00    -0.268 OA
ENDBRANCH   7  12
ENDBRANCH   5   6
BRANCH   5  17
ATOM     17  C   UNL     1       5.745  -1.316  -1.991  1.00  0.00     0.046 A 
ATOM     18  C   UNL     1       6.277  -0.252  -2.740  1.00  0.00     0.094 A 
ATOM     19  C   UNL     1       6.396  -2.415  -2.679  1.00  0.00     0.009 A 
ATOM     20  N   UNL     1       5.908  -0.720  -4.012  1.00  0.00    -0.361 N 
ATOM     21  C   UNL     1       6.184  -2.075  -4.015  1.00  0.00     0.048 A 
ATOM     22  C   UNL     1       6.962  -3.691  -2.473  1.00  0.00     0.013 A 
ATOM     23  H   UNL     1       5.531  -0.190  -4.751  1.00  0.00     0.166 HD
ATOM     24  C   UNL     1       6.074  -3.018  -5.048  1.00  0.00     0.052 A 
ATOM     25  C   UNL     1       6.985  -4.625  -3.555  1.00  0.00     0.027 A 
ATOM     26  C   UNL     1       6.367  -4.344  -4.787  1.00  0.00     0.043 A 
BRANCH  26  27
ATOM     27  N   UNL     1       6.083  -5.428  -5.664  1.00  0.00    -0.322 N 
ATOM     28  C   UNL     1       5.153  -5.699  -6.668  1.00  0.00     0.255 C 
ATOM     29  H   UNL     1       6.703  -6.180  -5.528  1.00  0.00     0.170 HD
ATOM     30  O   UNL     1       5.186  -6.808  -7.212  1.00  0.00    -0.269 OA
BRANCH  28  31
ATOM     31  C   UNL     1       3.991  -4.841  -7.032  1.00  0.00     0.040 A 
ATOM     32  C   UNL     1       2.688  -5.351  -6.844  1.00  0.00     0.014 A 
ATOM     33  C   UNL     1       4.132  -3.556  -7.539  1.00  0.00     0.014 A 
ATOM     34  C   UNL     1       1.575  -4.502  -6.921  1.00  0.00     0.001 A 
ATOM     35  C   UNL     1       3.024  -2.703  -7.603  1.00  0.00     0.001 A 
ATOM     36  C   UNL     1       1.754  -3.163  -7.254  1.00  0.00     0.000 A 
ENDBRANCH  28  31
ENDBRANCH  26  27
ENDBRANCH   5  17
ENDBRANCH   3   5
ENDBRANCH   2   3
ENDBRANCH   1   2
BRANCH   1  37
ATOM     37  C   UNL     1       1.679  -0.052  -4.481  1.00  0.00     0.275 C 
BRANCH  37  38
ATOM     38  O   UNL     1       1.319  -1.273  -3.805  1.00  0.00    -0.458 OA
BRANCH  38  39
ATOM     39  C   UNL     1       2.335  -2.159  -3.858  1.00  0.00     0.338 C 
ATOM     40  O   UNL     1       3.324  -2.035  -4.562  1.00  0.00    -0.246 OA
BRANCH  39  41
ATOM     41  C   UNL     1       2.192  -3.315  -2.986  1.00  0.00     0.060 A 
ATOM     42  C   UNL     1       1.747  -3.278  -1.216  1.00  0.00     0.016 A 
ATOM     43  C   UNL     1       2.845  -4.830  -3.746  1.00  0.00     0.016 A 
ATOM     44  C   UNL     1       2.015  -4.796  -0.193  1.00  0.00     0.010 A 
ATOM     45  C   UNL     1       3.102  -6.346  -2.756  1.00  0.00     0.010 A 
ATOM     46  C   UNL     1       2.734  -6.307  -0.975  1.00  0.00    -0.014 A 
BRANCH  46  47
ATOM     47  C   UNL     1       2.909  -7.561  -0.243  1.00  0.00     0.031 A 
ATOM     48  C   UNL     1       4.219  -8.293  -0.178  1.00  0.00     0.074 A 
ATOM     49  C   UNL     1       1.772  -8.060   0.256  1.00  0.00     0.049 A 
ATOM     50  N   UNL     1       4.478  -9.444   0.388  1.00  0.00    -0.248 NA
ATOM     51  C   UNL     1       5.386  -7.684  -0.836  1.00  0.00     0.031 C 
ATOM     52  C   UNL     1       0.455  -7.439   0.102  1.00  0.00     0.029 A 
ATOM     53  N   UNL     1       1.524  -9.190   0.972  1.00  0.00    -0.354 N 
ATOM     54  C   UNL     1       5.827  -9.701   0.154  1.00  0.00     0.074 A 
ATOM     55  C   UNL     1       6.329  -8.599  -0.637  1.00  0.00     0.031 C 
ATOM     56  C   UNL     1      -0.451  -8.147   0.775  1.00  0.00     0.029 A 
ATOM     57  C   UNL     1       0.199  -9.335   1.294  1.00  0.00     0.049 A 
ATOM     58  H   UNL     1       2.221  -9.835   1.231  1.00  0.00     0.167 HD
ATOM     59  C   UNL     1       6.559 -10.765   0.573  1.00  0.00     0.034 A 
ATOM     60  C   UNL     1      -0.439 -10.345   1.902  1.00  0.00     0.034 A 
ATOM     61  C   UNL     1       5.982 -11.850   1.341  1.00  0.00     0.049 A 
ATOM     62  C   UNL     1       0.391 -11.501   2.352  1.00  0.00     0.074 A 
ATOM     63  C   UNL     1       6.609 -12.958   1.882  1.00  0.00     0.029 A 
ATOM     64  N   UNL     1       4.630 -11.968   1.659  1.00  0.00    -0.354 N 
ATOM     65  N   UNL     1       1.678 -11.701   2.180  1.00  0.00    -0.248 NA
ATOM     66  C   UNL     1      -0.306 -12.555   3.084  1.00  0.00     0.031 C 
ATOM     67  C   UNL     1       5.630 -13.783   2.448  1.00  0.00     0.029 A 
ATOM     68  C   UNL     1       4.402 -13.146   2.354  1.00  0.00     0.049 A 
ATOM     69  H   UNL     1       3.937 -11.309   1.425  1.00  0.00     0.167 HD
ATOM     70  C   UNL     1       1.953 -12.911   2.796  1.00  0.00     0.074 A 
ATOM     71  C   UNL     1       0.699 -13.368   3.372  1.00  0.00     0.031 C 
ATOM     72  C   UNL     1       3.128 -13.586   2.880  1.00  0.00     0.034 A 
BRANCH  59  73
ATOM     73  C   UNL     1       8.027 -10.839   0.198  1.00  0.00     0.023 A 
ATOM     74  C   UNL     1       8.958  -9.870   0.616  1.00  0.00     0.031 A 
ATOM     75  C   UNL     1       8.519 -11.922  -0.557  1.00  0.00     0.131 A 
ATOM     76  C   UNL     1      10.311  -9.980   0.246  1.00  0.00     0.055 A 
ATOM     77  C   UNL     1       9.876 -12.065  -0.861  1.00  0.00     0.041 A 
ATOM     78  F   UNL     1       7.686 -12.873  -1.009  1.00  0.00    -0.206 F 
ATOM     79  C   UNL     1      10.781 -11.085  -0.467  1.00  0.00     0.022 A 
BRANCH  76  80
ATOM     80  S   UNL     1      11.433  -8.600   0.610  1.00  0.00     0.124 S 
ATOM     81  O   UNL     1      10.766  -7.488  -0.062  1.00  0.00    -0.237 OA
ATOM     82  O   UNL     1      11.424  -8.562   2.068  1.00  0.00    -0.237 OA
ATOM     83  O   UNL     1      12.698  -9.015   0.006  1.00  0.00    -0.744 OA
ENDBRANCH  76  80
ENDBRANCH  59  73
BRANCH  60  84
ATOM     84  C   UNL     1      -1.909 -10.265   2.087  1.00  0.00     0.023 A 
ATOM     85  C   UNL     1      -2.464 -10.177   3.367  1.00  0.00     0.031 A 
ATOM     86  C   UNL     1      -2.776 -10.195   0.978  1.00  0.00     0.131 A 
ATOM     87  C   UNL     1      -3.852 -10.055   3.513  1.00  0.00     0.055 A 
ATOM     88  C   UNL     1      -4.147  -9.999   1.127  1.00  0.00     0.041 A 
ATOM     89  F   UNL     1      -2.288 -10.248  -0.272  1.00  0.00    -0.206 F 
ATOM     90  C   UNL     1      -4.695  -9.941   2.403  1.00  0.00     0.022 A 
BRANCH  87  91
ATOM     91  S   UNL     1      -4.549 -10.135   5.181  1.00  0.00     0.124 S 
ATOM     92  O   UNL     1      -3.988 -11.387   5.676  1.00  0.00    -0.237 OA
ATOM     93  O   UNL     1      -4.026  -8.914   5.786  1.00  0.00    -0.237 OA
ATOM     94  O   UNL     1      -5.990 -10.147   4.945  1.00  0.00    -0.744 OA
ENDBRANCH  87  91
ENDBRANCH  60  84
BRANCH  72  95
ATOM     95  C   UNL     1       3.083 -14.879   3.649  1.00  0.00     0.023 A 
ATOM     96  C   UNL     1       2.316 -15.968   3.202  1.00  0.00     0.031 A 
ATOM     97  C   UNL     1       3.760 -14.997   4.875  1.00  0.00     0.131 A 
ATOM     98  C   UNL     1       2.169 -17.094   4.022  1.00  0.00     0.055 A 
ATOM     99  C   UNL     1       3.681 -16.157   5.643  1.00  0.00     0.041 A 
ATOM    100  F   UNL     1       4.497 -13.980   5.351  1.00  0.00    -0.206 F 
ATOM    101  C   UNL     1       2.865 -17.206   5.228  1.00  0.00     0.022 A 
BRANCH  98 102
ATOM    102  S   UNL     1       0.935 -18.338   3.560  1.00  0.00     0.124 S 
ATOM    103  O   UNL     1      -0.289 -17.545   3.521  1.00  0.00    -0.237 OA
ATOM    104  O   UNL     1       1.431 -18.808   2.271  1.00  0.00    -0.237 OA
ATOM    105  O   UNL     1       1.010 -19.312   4.647  1.00  0.00    -0.744 OA
ENDBRANCH  98 102
ENDBRANCH  72  95
ENDBRANCH  46  47
ENDBRANCH  39  41
ENDBRANCH  38  39
ENDBRANCH  37  38
ENDBRANCH   1  37
TORSDOF 19
