REMARK SMILES C[C@H](CCc1ccco1)NC(=O)c1cccn1CC(=O)OCCOC(=O)c1ccc(-c2c3nc(c(-c4cc(S(=O)(=O)[O-])ccc4F)c4ccc([nH]4)c(-c4cc(S(=O)(=O)[O-])ccc4F)c4nc(c(-c5cc(S(=O)(=O)[O-])ccc5F)c5ccc2[nH]5)C=C4)C=C3)cc1
REMARK SMILES IDX 21 1 19 2 20 3 18 4 17 5 13 6 14 7 15 8 16 9 11 10 10 11
REMARK SMILES IDX 12 13 2 14 1 15 3 16 4 17 5 18 6 19 9 20 7 21 8 22 22 23
REMARK SMILES IDX 23 24 24 25 25 26 26 27 27 28 28 29 89 30 29 31 88 32 30 33
REMARK SMILES IDX 31 34 32 35 82 36 33 37 87 38 81 39 83 40 34 41 86 42 80 43
REMARK SMILES IDX 79 44 35 46 67 47 47 48 66 49 48 50 51 51 65 52 84 53 49 54
REMARK SMILES IDX 50 55 64 57 85 58 52 59 36 60 37 61 45 62 38 63 44 64 46 65
REMARK SMILES IDX 43 66 39 67 40 68 41 69 42 70 68 71 69 72 77 73 70 74 76 75
REMARK SMILES IDX 78 76 75 77 71 78 72 79 73 80 74 81 53 82 54 83 62 84 55 85
REMARK SMILES IDX 61 86 63 87 60 88 56 89 57 90 58 91 59 92
REMARK H PARENT 10 12 83 45 51 56
REMARK Flexibility Score: inf
ROOT
ATOM      1  O   UNL     1      -1.050  -2.738   3.400  1.00  0.00    -0.461 OA
ENDROOT
BRANCH   1   2
ATOM      2  C   UNL     1      -2.214  -2.452   4.042  1.00  0.00     0.326 C 
ATOM      3  O   UNL     1      -2.980  -3.319   4.463  1.00  0.00    -0.250 OA
BRANCH   2   4
ATOM      4  C   UNL     1      -2.588  -0.993   4.118  1.00  0.00     0.244 C 
BRANCH   4   5
ATOM      5  N   UNL     1      -1.529   0.011   4.222  1.00  0.00    -0.332 N 
ATOM      6  C   UNL     1      -1.210   0.976   3.285  1.00  0.00     0.107 A 
ATOM      7  C   UNL     1      -0.365   1.880   3.917  1.00  0.00     0.033 A 
ATOM      8  C   UNL     1      -0.087   1.420   5.211  1.00  0.00     0.020 A 
ATOM      9  C   UNL     1      -0.875   0.316   5.388  1.00  0.00     0.087 A 
BRANCH   6  10
ATOM     10  C   UNL     1      -1.742   1.052   1.949  1.00  0.00     0.268 C 
ATOM     11  N   UNL     1      -0.860   1.157   0.904  1.00  0.00    -0.348 N 
ATOM     12  H   UNL     1      -1.263   1.351   0.027  1.00  0.00     0.164 HD
ATOM     13  O   UNL     1      -2.942   1.010   1.693  1.00  0.00    -0.268 OA
BRANCH  11  14
ATOM     14  C   UNL     1       0.598   1.022   0.911  1.00  0.00     0.079 C 
ATOM     15  C   UNL     1       1.278   2.388   0.974  1.00  0.00     0.031 C 
BRANCH  14  16
ATOM     16  C   UNL     1       1.062   0.142  -0.270  1.00  0.00     0.032 C 
BRANCH  16  17
ATOM     17  C   UNL     1       0.851   0.697  -1.686  1.00  0.00     0.077 C 
BRANCH  17  18
ATOM     18  C   UNL     1       1.759   1.826  -2.011  1.00  0.00     0.103 A 
ATOM     19  C   UNL     1       1.566   3.182  -2.177  1.00  0.00     0.045 A 
ATOM     20  O   UNL     1       3.085   1.528  -2.106  1.00  0.00    -0.469 OA
ATOM     21  C   UNL     1       2.856   3.753  -2.301  1.00  0.00     0.042 A 
ATOM     22  C   UNL     1       3.744   2.704  -2.268  1.00  0.00     0.195 A 
ENDBRANCH  17  18
ENDBRANCH  16  17
ENDBRANCH  14  16
ENDBRANCH  11  14
ENDBRANCH   6  10
ENDBRANCH   4   5
ENDBRANCH   2   4
ENDBRANCH   1   2
BRANCH   1  23
ATOM     23  C   UNL     1      -0.708  -4.144   3.326  1.00  0.00     0.274 C 
BRANCH  23  24
ATOM     24  C   UNL     1       0.126  -4.686   4.500  1.00  0.00     0.275 C 
BRANCH  24  25
ATOM     25  O   UNL     1      -0.458  -4.488   5.793  1.00  0.00    -0.458 OA
BRANCH  25  26
ATOM     26  C   UNL     1      -0.168  -3.257   6.253  1.00  0.00     0.338 C 
ATOM     27  O   UNL     1       0.351  -2.350   5.612  1.00  0.00    -0.246 OA
BRANCH  26  28
ATOM     28  C   UNL     1      -0.339  -3.093   7.687  1.00  0.00     0.060 A 
ATOM     29  C   UNL     1      -1.010  -1.936   8.093  1.00  0.00     0.016 A 
ATOM     30  C   UNL     1       0.670  -3.671   8.459  1.00  0.00     0.016 A 
ATOM     31  C   UNL     1      -0.506  -1.210   9.154  1.00  0.00     0.010 A 
ATOM     32  C   UNL     1       1.133  -2.981   9.566  1.00  0.00     0.010 A 
ATOM     33  C   UNL     1       0.572  -1.731   9.882  1.00  0.00    -0.014 A 
BRANCH  33  34
ATOM     34  C   UNL     1       0.805  -1.154  11.217  1.00  0.00     0.031 A 
ATOM     35  C   UNL     1      -0.290  -1.728  12.180  1.00  0.00     0.074 A 
ATOM     36  C   UNL     1       1.861  -0.283  11.357  1.00  0.00     0.049 A 
ATOM     37  N   UNL     1      -0.672  -1.343  13.355  1.00  0.00    -0.248 NA
ATOM     38  C   UNL     1      -1.137  -2.890  11.735  1.00  0.00     0.031 C 
ATOM     39  C   UNL     1       2.803   0.132  10.280  1.00  0.00     0.029 A 
ATOM     40  N   UNL     1       2.375   0.433  12.422  1.00  0.00    -0.354 N 
ATOM     41  C   UNL     1      -1.516  -2.356  13.880  1.00  0.00     0.074 A 
ATOM     42  C   UNL     1      -1.893  -3.186  12.789  1.00  0.00     0.031 C 
ATOM     43  C   UNL     1       3.690   1.063  10.722  1.00  0.00     0.029 A 
ATOM     44  C   UNL     1       3.466   1.323  12.133  1.00  0.00     0.049 A 
ATOM     45  H   UNL     1       2.011   0.338  13.332  1.00  0.00     0.167 HD
ATOM     46  C   UNL     1      -1.699  -2.551  15.218  1.00  0.00     0.034 A 
ATOM     47  C   UNL     1       4.109   2.199  12.984  1.00  0.00     0.034 A 
ATOM     48  C   UNL     1      -1.041  -1.512  15.931  1.00  0.00     0.049 A 
ATOM     49  C   UNL     1       3.624   1.766  14.302  1.00  0.00     0.074 A 
ATOM     50  C   UNL     1      -1.301  -0.172  16.020  1.00  0.00     0.029 A 
ATOM     51  N   UNL     1       0.251  -1.760  16.334  1.00  0.00    -0.354 N 
ATOM     52  N   UNL     1       4.006   0.679  14.899  1.00  0.00    -0.248 NA
ATOM     53  C   UNL     1       2.593   2.563  14.977  1.00  0.00     0.031 C 
ATOM     54  C   UNL     1      -0.014   0.385  15.929  1.00  0.00     0.029 A 
ATOM     55  C   UNL     1       0.958  -0.611  16.100  1.00  0.00     0.049 A 
ATOM     56  H   UNL     1       0.599  -2.599  16.716  1.00  0.00     0.167 HD
ATOM     57  C   UNL     1       3.026   0.502  15.836  1.00  0.00     0.074 A 
ATOM     58  C   UNL     1       2.436   1.808  16.062  1.00  0.00     0.031 C 
ATOM     59  C   UNL     1       2.390  -0.695  15.918  1.00  0.00     0.034 A 
BRANCH  46  60
ATOM     60  C   UNL     1      -2.202  -3.713  16.029  1.00  0.00     0.023 A 
ATOM     61  C   UNL     1      -2.384  -3.452  17.410  1.00  0.00     0.031 A 
ATOM     62  C   UNL     1      -2.152  -5.060  15.650  1.00  0.00     0.131 A 
ATOM     63  C   UNL     1      -2.313  -4.473  18.361  1.00  0.00     0.055 A 
ATOM     64  C   UNL     1      -2.175  -6.092  16.602  1.00  0.00     0.041 A 
ATOM     65  F   UNL     1      -1.988  -5.428  14.372  1.00  0.00    -0.206 F 
ATOM     66  C   UNL     1      -2.206  -5.800  17.966  1.00  0.00     0.022 A 
BRANCH  63  67
ATOM     67  S   UNL     1      -2.140  -3.989  20.102  1.00  0.00     0.124 S 
ATOM     68  O   UNL     1      -0.956  -3.139  20.066  1.00  0.00    -0.237 OA
ATOM     69  O   UNL     1      -3.407  -3.308  20.355  1.00  0.00    -0.237 OA
ATOM     70  O   UNL     1      -1.972  -5.266  20.792  1.00  0.00    -0.744 OA
ENDBRANCH  63  67
ENDBRANCH  46  60
BRANCH  47  71
ATOM     71  C   UNL     1       5.094   3.383  13.053  1.00  0.00     0.023 A 
ATOM     72  C   UNL     1       5.819   3.982  12.004  1.00  0.00     0.031 A 
ATOM     73  C   UNL     1       5.249   4.062  14.315  1.00  0.00     0.131 A 
ATOM     74  C   UNL     1       6.538   5.205  12.229  1.00  0.00     0.055 A 
ATOM     75  C   UNL     1       5.858   5.302  14.500  1.00  0.00     0.041 A 
ATOM     76  F   UNL     1       4.810   3.546  15.470  1.00  0.00    -0.206 F 
ATOM     77  C   UNL     1       6.496   5.894  13.445  1.00  0.00     0.022 A 
BRANCH  74  78
ATOM     78  S   UNL     1       7.570   5.983  10.942  1.00  0.00     0.124 S 
ATOM     79  O   UNL     1       8.862   5.342  11.162  1.00  0.00    -0.237 OA
ATOM     80  O   UNL     1       6.877   5.631   9.708  1.00  0.00    -0.237 OA
ATOM     81  O   UNL     1       7.522   7.406  11.286  1.00  0.00    -0.744 OA
ENDBRANCH  74  78
ENDBRANCH  47  71
BRANCH  59  82
ATOM     82  C   UNL     1       3.192  -1.894  15.411  1.00  0.00     0.023 A 
ATOM     83  C   UNL     1       4.474  -2.155  15.934  1.00  0.00     0.031 A 
ATOM     84  C   UNL     1       2.786  -2.731  14.355  1.00  0.00     0.131 A 
ATOM     85  C   UNL     1       5.292  -3.172  15.397  1.00  0.00     0.055 A 
ATOM     86  C   UNL     1       3.597  -3.741  13.813  1.00  0.00     0.041 A 
ATOM     87  F   UNL     1       1.582  -2.603  13.800  1.00  0.00    -0.206 F 
ATOM     88  C   UNL     1       4.862  -3.964  14.333  1.00  0.00     0.022 A 
BRANCH  85  89
ATOM     89  S   UNL     1       6.925  -3.475  16.127  1.00  0.00     0.124 S 
ATOM     90  O   UNL     1       7.672  -2.280  15.756  1.00  0.00    -0.237 OA
ATOM     91  O   UNL     1       6.612  -3.621  17.546  1.00  0.00    -0.237 OA
ATOM     92  O   UNL     1       7.369  -4.707  15.473  1.00  0.00    -0.744 OA
ENDBRANCH  85  89
ENDBRANCH  59  82
ENDBRANCH  33  34
ENDBRANCH  26  28
ENDBRANCH  25  26
ENDBRANCH  24  25
ENDBRANCH  23  24
ENDBRANCH   1  23
TORSDOF 20
