REMARK SMILES Cc1nn2c(nnc3c(=O)n(CCCC(=O)OCCOC(=O)c4ccc(-c5c6nc(c(-c7cc(S(=O)(=O)[O-])ccc7F)c7ccc([nH]7)c(-c7cc(S(=O)(=O)[O-])ccc7F)c7nc(c(-c8cc(S(=O)(=O)[O-])ccc8F)c8ccc5[nH]8)C=C7)C=C6)cc4)ccc32)c1-c1ccc(F)cc1
REMARK SMILES IDX 18 1 17 2 15 3 16 4 14 5 13 6 12 7 11 8 1 9 2 10 3 11 89 12
REMARK SMILES IDX 4 13 5 14 88 15 6 16 8 17 87 18 7 19 9 20 86 21 10 22 90 23
REMARK SMILES IDX 91 24 96 25 92 26 95 27 93 28 94 29 19 30 20 31 21 32 22 33
REMARK SMILES IDX 23 34 24 35 85 36 25 37 84 38 26 39 27 40 28 41 78 42 29 43
REMARK SMILES IDX 83 44 77 45 79 46 30 47 82 48 76 49 75 50 31 52 63 53 43 54
REMARK SMILES IDX 62 55 44 56 47 57 61 58 80 59 45 60 46 61 60 63 81 64 48 65
REMARK SMILES IDX 32 66 33 67 41 68 34 69 40 70 42 71 39 72 35 73 36 74 37 75
REMARK SMILES IDX 38 76 64 77 65 78 73 79 66 80 72 81 74 82 71 83 67 84 68 85
REMARK SMILES IDX 69 86 70 87 49 88 50 89 58 90 51 91 57 92 59 93 56 94 52 95
REMARK SMILES IDX 53 96 54 97 55 98
REMARK H PARENT 79 51 47 62
REMARK Flexibility Score: inf
ROOT
ATOM      1  C   UNL     1       0.341  -3.503  10.171  1.00  0.00     0.274 C 
ENDROOT
BRANCH   1   2
ATOM      2  O   UNL     1      -0.826  -2.950   9.539  1.00  0.00    -0.462 OA
BRANCH   2   3
ATOM      3  C   UNL     1      -1.805  -3.780   9.114  1.00  0.00     0.305 C 
ATOM      4  O   UNL     1      -1.805  -4.997   9.263  1.00  0.00    -0.252 OA
BRANCH   3   5
ATOM      5  C   UNL     1      -2.915  -3.051   8.371  1.00  0.00     0.124 C 
BRANCH   5   6
ATOM      6  C   UNL     1      -3.128  -1.547   8.594  1.00  0.00     0.034 C 
BRANCH   6   7
ATOM      7  C   UNL     1      -1.958  -0.577   8.343  1.00  0.00     0.126 C 
BRANCH   7   8
ATOM      8  N   UNL     1      -1.460  -0.580   6.963  1.00  0.00    -0.313 N 
ATOM      9  C   UNL     1       0.817   0.300  -0.240  1.00  0.00     0.069 C 
ATOM     10  C   UNL     1       0.441  -0.451   0.980  1.00  0.00     0.070 A 
ATOM     11  N   UNL     1      -0.068   0.198   2.037  1.00  0.00    -0.170 NA
ATOM     12  C   UNL     1       0.554  -1.840   1.210  1.00  0.00     0.051 A 
ATOM     13  N   UNL     1      -0.194  -0.756   2.999  1.00  0.00    -0.210 N 
ATOM     14  C   UNL     1       0.211  -2.000   2.529  1.00  0.00     0.186 A 
ATOM     15  C   UNL     1      -0.602  -0.631   4.323  1.00  0.00     0.102 A 
ATOM     16  N   UNL     1       0.232  -3.088   3.346  1.00  0.00    -0.129 NA
ATOM     17  C   UNL     1      -0.457  -1.741   5.062  1.00  0.00     0.177 A 
ATOM     18  C   UNL     1      -1.159   0.573   4.907  1.00  0.00     0.049 A 
ATOM     19  N   UNL     1      -0.033  -2.954   4.562  1.00  0.00    -0.141 NA
ATOM     20  C   UNL     1      -0.700  -1.658   6.516  1.00  0.00     0.280 A 
ATOM     21  C   UNL     1      -1.628   0.543   6.164  1.00  0.00     0.091 A 
ATOM     22  O   UNL     1      -0.218  -2.543   7.216  1.00  0.00    -0.267 OA
BRANCH  12  23
ATOM     23  C   UNL     1       0.997  -2.951   0.399  1.00  0.00    -0.012 A 
ATOM     24  C   UNL     1       2.312  -3.011  -0.071  1.00  0.00     0.012 A 
ATOM     25  C   UNL     1       0.114  -4.014   0.145  1.00  0.00     0.012 A 
ATOM     26  C   UNL     1       2.738  -4.126  -0.797  1.00  0.00     0.040 A 
ATOM     27  C   UNL     1       0.542  -5.124  -0.582  1.00  0.00     0.040 A 
ATOM     28  C   UNL     1       1.849  -5.168  -1.048  1.00  0.00     0.123 A 
ATOM     29  F   UNL     1       2.265  -6.234  -1.744  1.00  0.00    -0.207 F 
ENDBRANCH  12  23
ENDBRANCH   7   8
ENDBRANCH   6   7
ENDBRANCH   5   6
ENDBRANCH   3   5
ENDBRANCH   2   3
ENDBRANCH   1   2
BRANCH   1  30
ATOM     30  C   UNL     1       0.278  -3.229  11.663  1.00  0.00     0.275 C 
BRANCH  30  31
ATOM     31  O   UNL     1      -0.883  -3.857  12.193  1.00  0.00    -0.458 OA
BRANCH  31  32
ATOM     32  C   UNL     1      -2.001  -3.110  12.059  1.00  0.00     0.338 C 
ATOM     33  O   UNL     1      -2.108  -1.991  11.583  1.00  0.00    -0.246 OA
BRANCH  32  34
ATOM     34  C   UNL     1      -3.119  -3.790  12.693  1.00  0.00     0.060 A 
ATOM     35  C   UNL     1      -4.398  -3.346  12.342  1.00  0.00     0.016 A 
ATOM     36  C   UNL     1      -2.832  -4.442  13.894  1.00  0.00     0.016 A 
ATOM     37  C   UNL     1      -5.353  -3.321  13.326  1.00  0.00     0.010 A 
ATOM     38  C   UNL     1      -3.768  -4.370  14.885  1.00  0.00     0.010 A 
ATOM     39  C   UNL     1      -4.977  -3.733  14.606  1.00  0.00    -0.014 A 
BRANCH  39  40
ATOM     40  C   UNL     1      -5.899  -3.501  15.687  1.00  0.00     0.031 A 
ATOM     41  C   UNL     1      -6.910  -4.565  15.821  1.00  0.00     0.074 A 
ATOM     42  C   UNL     1      -5.711  -2.503  16.565  1.00  0.00     0.049 A 
ATOM     43  N   UNL     1      -8.177  -4.506  15.578  1.00  0.00    -0.248 NA
ATOM     44  C   UNL     1      -6.396  -5.923  16.064  1.00  0.00     0.031 C 
ATOM     45  C   UNL     1      -4.532  -1.647  16.728  1.00  0.00     0.029 A 
ATOM     46  N   UNL     1      -6.507  -2.138  17.597  1.00  0.00    -0.354 N 
ATOM     47  C   UNL     1      -8.648  -5.786  15.852  1.00  0.00     0.074 A 
ATOM     48  C   UNL     1      -7.495  -6.647  15.884  1.00  0.00     0.031 C 
ATOM     49  C   UNL     1      -4.601  -1.034  17.932  1.00  0.00     0.029 A 
ATOM     50  C   UNL     1      -5.879  -1.354  18.547  1.00  0.00     0.049 A 
ATOM     51  H   UNL     1      -7.451  -2.408  17.665  1.00  0.00     0.167 HD
ATOM     52  C   UNL     1      -9.902  -6.005  16.334  1.00  0.00     0.034 A 
ATOM     53  C   UNL     1      -6.351  -1.101  19.791  1.00  0.00     0.034 A 
ATOM     54  C   UNL     1     -10.751  -4.863  16.140  1.00  0.00     0.049 A 
ATOM     55  C   UNL     1      -7.796  -1.454  19.811  1.00  0.00     0.074 A 
ATOM     56  C   UNL     1     -11.204  -4.169  15.037  1.00  0.00     0.029 A 
ATOM     57  N   UNL     1     -10.957  -4.043  17.222  1.00  0.00    -0.354 N 
ATOM     58  N   UNL     1      -8.724  -0.812  19.155  1.00  0.00    -0.248 NA
ATOM     59  C   UNL     1      -8.155  -2.802  20.232  1.00  0.00     0.031 C 
ATOM     60  C   UNL     1     -11.261  -2.808  15.451  1.00  0.00     0.029 A 
ATOM     61  C   UNL     1     -10.868  -2.745  16.791  1.00  0.00     0.049 A 
ATOM     62  H   UNL     1     -11.137  -4.335  18.145  1.00  0.00     0.167 HD
ATOM     63  C   UNL     1      -9.605  -1.797  18.725  1.00  0.00     0.074 A 
ATOM     64  C   UNL     1      -9.265  -2.979  19.513  1.00  0.00     0.031 C 
ATOM     65  C   UNL     1     -10.336  -1.650  17.581  1.00  0.00     0.034 A 
BRANCH  52  66
ATOM     66  C   UNL     1     -10.209  -7.105  17.320  1.00  0.00     0.023 A 
ATOM     67  C   UNL     1      -9.206  -7.779  18.045  1.00  0.00     0.031 A 
ATOM     68  C   UNL     1     -11.530  -7.355  17.729  1.00  0.00     0.131 A 
ATOM     69  C   UNL     1      -9.505  -8.677  19.072  1.00  0.00     0.055 A 
ATOM     70  C   UNL     1     -11.831  -8.195  18.810  1.00  0.00     0.041 A 
ATOM     71  F   UNL     1     -12.563  -6.744  17.130  1.00  0.00    -0.206 F 
ATOM     72  C   UNL     1     -10.816  -8.868  19.484  1.00  0.00     0.022 A 
BRANCH  69  73
ATOM     73  S   UNL     1      -8.170  -9.597  19.887  1.00  0.00     0.124 S 
ATOM     74  O   UNL     1      -8.269  -9.111  21.258  1.00  0.00    -0.237 OA
ATOM     75  O   UNL     1      -8.588 -10.980  19.669  1.00  0.00    -0.237 OA
ATOM     76  O   UNL     1      -6.976  -9.191  19.150  1.00  0.00    -0.744 OA
ENDBRANCH  69  73
ENDBRANCH  52  66
BRANCH  53  77
ATOM     77  C   UNL     1      -5.544  -1.006  21.029  1.00  0.00     0.023 A 
ATOM     78  C   UNL     1      -4.318  -1.691  21.136  1.00  0.00     0.031 A 
ATOM     79  C   UNL     1      -6.091  -0.476  22.209  1.00  0.00     0.131 A 
ATOM     80  C   UNL     1      -3.700  -1.862  22.381  1.00  0.00     0.055 A 
ATOM     81  C   UNL     1      -5.470  -0.643  23.452  1.00  0.00     0.041 A 
ATOM     82  F   UNL     1      -7.270   0.163  22.184  1.00  0.00    -0.206 F 
ATOM     83  C   UNL     1      -4.272  -1.348  23.544  1.00  0.00     0.022 A 
BRANCH  80  84
ATOM     84  S   UNL     1      -2.150  -2.798  22.512  1.00  0.00     0.124 S 
ATOM     85  O   UNL     1      -1.373  -1.988  23.448  1.00  0.00    -0.237 OA
ATOM     86  O   UNL     1      -2.617  -4.079  23.028  1.00  0.00    -0.237 OA
ATOM     87  O   UNL     1      -1.643  -2.808  21.143  1.00  0.00    -0.744 OA
ENDBRANCH  80  84
ENDBRANCH  53  77
BRANCH  65  88
ATOM     88  C   UNL     1     -10.383  -0.291  16.920  1.00  0.00     0.023 A 
ATOM     89  C   UNL     1     -11.649   0.240  16.622  1.00  0.00     0.031 A 
ATOM     90  C   UNL     1      -9.259   0.347  16.363  1.00  0.00     0.131 A 
ATOM     91  C   UNL     1     -11.768   1.338  15.762  1.00  0.00     0.055 A 
ATOM     92  C   UNL     1      -9.378   1.485  15.558  1.00  0.00     0.041 A 
ATOM     93  F   UNL     1      -8.029  -0.161  16.502  1.00  0.00    -0.206 F 
ATOM     94  C   UNL     1     -10.639   1.976  15.241  1.00  0.00     0.022 A 
BRANCH  91  95
ATOM     95  S   UNL     1     -13.398   1.878  15.187  1.00  0.00     0.124 S 
ATOM     96  O   UNL     1     -13.415   3.286  15.576  1.00  0.00    -0.237 OA
ATOM     97  O   UNL     1     -13.313   1.628  13.750  1.00  0.00    -0.237 OA
ATOM     98  O   UNL     1     -14.332   1.022  15.912  1.00  0.00    -0.744 OA
ENDBRANCH  91  95
ENDBRANCH  65  88
ENDBRANCH  39  40
ENDBRANCH  32  34
ENDBRANCH  31  32
ENDBRANCH  30  31
ENDBRANCH   1  30
TORSDOF 18
