REMARK SMILES CC(C)c1cc(C(=O)N[C@@H](Cc2c[nH]c3ccccc23)C(=O)OCCOC(=O)c2ccc(-c3c4nc(c(-c5cc(S(=O)(=O)[O-])ccc5F)c5ccc([nH]5)c(-c5cc(S(=O)(=O)[O-])ccc5F)c5nc(c(-c6cc(S(=O)(=O)[O-])ccc6F)c6ccc3[nH]6)C=C5)C=C4)cc2)n(C)n1
REMARK SMILES IDX 24 1 23 2 21 3 22 4 10 5 9 6 7 7 8 8 6 10 4 11 5 12 94 13
REMARK SMILES IDX 92 14 93 15 2 16 1 17 3 18 11 19 12 20 13 21 20 22 14 23
REMARK SMILES IDX 15 24 19 25 16 27 18 28 17 29 25 30 26 31 27 32 28 33 29 34
REMARK SMILES IDX 30 35 91 36 31 37 90 38 32 39 33 40 34 41 84 42 35 43 89 44
REMARK SMILES IDX 83 45 85 46 36 47 88 48 82 49 81 50 37 52 69 53 49 54 68 55
REMARK SMILES IDX 50 56 53 57 67 58 86 59 51 60 52 61 66 63 87 64 54 65 38 66
REMARK SMILES IDX 39 67 47 68 40 69 46 70 48 71 45 72 41 73 42 74 43 75 44 76
REMARK SMILES IDX 70 77 71 78 79 79 72 80 78 81 80 82 77 83 73 84 74 85 75 86
REMARK SMILES IDX 76 87 55 88 56 89 64 90 57 91 63 92 65 93 62 94 58 95 59 96
REMARK SMILES IDX 60 97 61 98
REMARK H PARENT 9 9 14 26 85 51 53 62
REMARK Flexibility Score: inf
ROOT
ATOM      1  C   UNL     1      -8.411   0.533   1.516  1.00  0.00     0.274 C 
ENDROOT
BRANCH   1   2
ATOM      2  O   UNL     1      -7.592   0.130   0.402  1.00  0.00    -0.461 OA
BRANCH   2   3
ATOM      3  C   UNL     1      -7.143   1.135  -0.398  1.00  0.00     0.329 C 
ATOM      4  O   UNL     1      -7.435   2.320  -0.271  1.00  0.00    -0.250 OA
BRANCH   3   5
ATOM      5  C   UNL     1      -6.265   0.632  -1.553  1.00  0.00     0.197 C 
BRANCH   5   6
ATOM      6  N   UNL     1      -5.754  -0.728  -1.430  1.00  0.00    -0.337 N 
ATOM      7  C   UNL     1      -4.547  -1.330  -1.659  1.00  0.00     0.270 C 
ATOM      8  O   UNL     1      -4.593  -2.563  -1.595  1.00  0.00    -0.268 OA
ATOM      9  H   UNL     1      -6.436  -1.360  -1.106  1.00  0.00     0.164 HD
BRANCH   7  10
ATOM     10  C   UNL     1      -3.282  -0.647  -1.879  1.00  0.00     0.126 A 
ATOM     11  C   UNL     1      -1.044  -0.322  -1.915  1.00  0.00     0.066 A 
ATOM     12  C   UNL     1      -2.055  -1.224  -1.537  1.00  0.00     0.059 A 
ATOM     13  N   UNL     1      -1.586   0.786  -2.418  1.00  0.00    -0.177 NA
ATOM     14  N   UNL     1      -2.906   0.533  -2.481  1.00  0.00    -0.263 N 
ATOM     15  C   UNL     1      -3.649   1.484  -3.268  1.00  0.00     0.174 C 
BRANCH  11  16
ATOM     16  C   UNL     1       0.452  -0.452  -1.827  1.00  0.00     0.034 C 
ATOM     17  C   UNL     1       0.950  -0.228  -0.405  1.00  0.00     0.014 C 
ATOM     18  C   UNL     1       0.955  -1.790  -2.368  1.00  0.00     0.014 C 
ENDBRANCH  11  16
ENDBRANCH   7  10
ENDBRANCH   5   6
BRANCH   5  19
ATOM     19  C   UNL     1      -7.035   0.781  -2.878  1.00  0.00     0.074 C 
BRANCH  19  20
ATOM     20  C   UNL     1      -8.416   0.196  -2.870  1.00  0.00    -0.020 A 
ATOM     21  C   UNL     1      -8.757  -1.139  -2.973  1.00  0.00     0.087 A 
ATOM     22  C   UNL     1      -9.638   0.930  -2.761  1.00  0.00     0.003 A 
ATOM     23  N   UNL     1     -10.122  -1.237  -2.919  1.00  0.00    -0.361 N 
ATOM     24  C   UNL     1     -10.685   0.011  -2.793  1.00  0.00     0.046 A 
ATOM     25  C   UNL     1      -9.945   2.300  -2.631  1.00  0.00     0.010 A 
ATOM     26  H   UNL     1     -10.627  -2.081  -2.965  1.00  0.00     0.166 HD
ATOM     27  C   UNL     1     -12.029   0.396  -2.707  1.00  0.00     0.026 A 
ATOM     28  C   UNL     1     -11.280   2.702  -2.546  1.00  0.00     0.001 A 
ATOM     29  C   UNL     1     -12.306   1.762  -2.584  1.00  0.00     0.002 A 
ENDBRANCH  19  20
ENDBRANCH   5  19
ENDBRANCH   3   5
ENDBRANCH   2   3
ENDBRANCH   1   2
BRANCH   1  30
ATOM     30  C   UNL     1      -7.690   0.294   2.845  1.00  0.00     0.275 C 
BRANCH  30  31
ATOM     31  O   UNL     1      -6.433   0.994   2.900  1.00  0.00    -0.458 OA
BRANCH  31  32
ATOM     32  C   UNL     1      -5.371   0.262   2.491  1.00  0.00     0.338 C 
ATOM     33  O   UNL     1      -5.381  -0.904   2.115  1.00  0.00    -0.246 OA
BRANCH  32  34
ATOM     34  C   UNL     1      -4.171   1.104   2.438  1.00  0.00     0.060 A 
ATOM     35  C   UNL     1      -3.681   1.466   1.184  1.00  0.00     0.016 A 
ATOM     36  C   UNL     1      -3.463   1.430   3.595  1.00  0.00     0.016 A 
ATOM     37  C   UNL     1      -2.463   2.129   1.071  1.00  0.00     0.010 A 
ATOM     38  C   UNL     1      -2.251   2.123   3.482  1.00  0.00     0.010 A 
ATOM     39  C   UNL     1      -1.729   2.457   2.218  1.00  0.00    -0.014 A 
BRANCH  39  40
ATOM     40  C   UNL     1      -0.384   3.074   2.071  1.00  0.00     0.031 A 
ATOM     41  C   UNL     1       0.848   2.273   2.396  1.00  0.00     0.074 A 
ATOM     42  C   UNL     1      -0.261   4.318   1.569  1.00  0.00     0.049 A 
ATOM     43  N   UNL     1       2.107   2.622   2.314  1.00  0.00    -0.248 NA
ATOM     44  C   UNL     1       0.636   0.889   2.848  1.00  0.00     0.031 C 
ATOM     45  C   UNL     1      -1.374   5.173   1.150  1.00  0.00     0.029 A 
ATOM     46  N   UNL     1       0.854   5.078   1.317  1.00  0.00    -0.354 N 
ATOM     47  C   UNL     1       2.837   1.490   2.659  1.00  0.00     0.074 A 
ATOM     48  C   UNL     1       1.879   0.465   3.018  1.00  0.00     0.031 C 
ATOM     49  C   UNL     1      -0.884   6.333   0.685  1.00  0.00     0.029 A 
ATOM     50  C   UNL     1       0.569   6.332   0.828  1.00  0.00     0.049 A 
ATOM     51  H   UNL     1       1.771   4.756   1.471  1.00  0.00     0.167 HD
ATOM     52  C   UNL     1       4.181   1.309   2.646  1.00  0.00     0.034 A 
ATOM     53  C   UNL     1       1.381   7.375   0.562  1.00  0.00     0.034 A 
ATOM     54  C   UNL     1       5.134   2.346   2.340  1.00  0.00     0.049 A 
ATOM     55  C   UNL     1       2.864   7.221   0.785  1.00  0.00     0.074 A 
ATOM     56  C   UNL     1       6.517   2.279   2.342  1.00  0.00     0.029 A 
ATOM     57  N   UNL     1       4.803   3.651   1.997  1.00  0.00    -0.354 N 
ATOM     58  N   UNL     1       3.540   6.153   1.140  1.00  0.00    -0.248 NA
ATOM     59  C   UNL     1       3.690   8.418   0.586  1.00  0.00     0.031 C 
ATOM     60  C   UNL     1       7.019   3.559   2.076  1.00  0.00     0.029 A 
ATOM     61  C   UNL     1       5.952   4.410   1.837  1.00  0.00     0.049 A 
ATOM     62  H   UNL     1       3.885   3.988   1.884  1.00  0.00     0.167 HD
ATOM     63  C   UNL     1       4.875   6.546   1.182  1.00  0.00     0.074 A 
ATOM     64  C   UNL     1       4.908   7.945   0.808  1.00  0.00     0.031 C 
ATOM     65  C   UNL     1       5.974   5.813   1.494  1.00  0.00     0.034 A 
BRANCH  52  66
ATOM     66  C   UNL     1       4.686  -0.060   3.026  1.00  0.00     0.023 A 
ATOM     67  C   UNL     1       4.454  -1.178   2.205  1.00  0.00     0.031 A 
ATOM     68  C   UNL     1       5.367  -0.258   4.238  1.00  0.00     0.131 A 
ATOM     69  C   UNL     1       4.846  -2.454   2.635  1.00  0.00     0.055 A 
ATOM     70  C   UNL     1       5.810  -1.522   4.632  1.00  0.00     0.041 A 
ATOM     71  F   UNL     1       5.596   0.771   5.069  1.00  0.00    -0.206 F 
ATOM     72  C   UNL     1       5.539  -2.631   3.835  1.00  0.00     0.022 A 
BRANCH  69  73
ATOM     73  S   UNL     1       4.320  -3.897   1.669  1.00  0.00     0.124 S 
ATOM     74  O   UNL     1       2.874  -3.702   1.603  1.00  0.00    -0.237 OA
ATOM     75  O   UNL     1       5.047  -3.719   0.417  1.00  0.00    -0.237 OA
ATOM     76  O   UNL     1       4.751  -5.030   2.486  1.00  0.00    -0.744 OA
ENDBRANCH  69  73
ENDBRANCH  52  66
BRANCH  53  77
ATOM     77  C   UNL     1       0.810   8.687   0.137  1.00  0.00     0.023 A 
ATOM     78  C   UNL     1       1.124   9.255  -1.107  1.00  0.00     0.031 A 
ATOM     79  C   UNL     1      -0.019   9.420   1.007  1.00  0.00     0.131 A 
ATOM     80  C   UNL     1       0.638  10.532  -1.434  1.00  0.00     0.055 A 
ATOM     81  C   UNL     1      -0.541  10.665   0.657  1.00  0.00     0.041 A 
ATOM     82  F   UNL     1      -0.342   8.929   2.214  1.00  0.00    -0.206 F 
ATOM     83  C   UNL     1      -0.204  11.233  -0.567  1.00  0.00     0.022 A 
BRANCH  80  84
ATOM     84  S   UNL     1       1.185  11.305  -2.981  1.00  0.00     0.124 S 
ATOM     85  O   UNL     1       2.632  11.338  -2.803  1.00  0.00    -0.237 OA
ATOM     86  O   UNL     1       0.682  10.371  -3.982  1.00  0.00    -0.237 OA
ATOM     87  O   UNL     1       0.525  12.609  -2.962  1.00  0.00    -0.744 OA
ENDBRANCH  80  84
ENDBRANCH  53  77
BRANCH  65  88
ATOM     88  C   UNL     1       7.306   6.516   1.415  1.00  0.00     0.023 A 
ATOM     89  C   UNL     1       7.657   7.533   2.321  1.00  0.00     0.031 A 
ATOM     90  C   UNL     1       8.226   6.182   0.406  1.00  0.00     0.131 A 
ATOM     91  C   UNL     1       8.873   8.216   2.168  1.00  0.00     0.055 A 
ATOM     92  C   UNL     1       9.458   6.827   0.292  1.00  0.00     0.041 A 
ATOM     93  F   UNL     1       7.941   5.221  -0.488  1.00  0.00    -0.206 F 
ATOM     94  C   UNL     1       9.782   7.859   1.168  1.00  0.00     0.022 A 
BRANCH  91  95
ATOM     95  S   UNL     1       9.218   9.636   3.242  1.00  0.00     0.124 S 
ATOM     96  O   UNL     1       8.102  10.526   2.938  1.00  0.00    -0.237 OA
ATOM     97  O   UNL     1       9.208   9.034   4.571  1.00  0.00    -0.237 OA
ATOM     98  O   UNL     1      10.525  10.104   2.786  1.00  0.00    -0.744 OA
ENDBRANCH  91  95
ENDBRANCH  65  88
ENDBRANCH  39  40
ENDBRANCH  32  34
ENDBRANCH  31  32
ENDBRANCH  30  31
ENDBRANCH   1  30
TORSDOF 19
