REMARK SMILES CC(C)C[NH+]1CC[NH+]([C@@H]2CC[C@]([NH3+])(C(=O)OCCOC(=O)c3ccc(-c4c5nc(c(-c6cc(S(=O)(=O)[O-])ccc6F)c6ccc([nH]6)c(-c6cc(S(=O)(=O)[O-])ccc6F)c6nc(c(-c7cc(S(=O)(=O)[O-])ccc7F)c7ccc4[nH]7)C=C6)C=C5)cc3)C2)CC1
REMARK SMILES IDX 17 1 16 2 14 3 15 4 12 5 9 6 10 7 85 8 11 9 8 10 5 11 6 12
REMARK SMILES IDX 87 13 7 15 86 16 4 18 2 19 1 20 3 21 13 22 18 26 19 27 20 28
REMARK SMILES IDX 21 29 22 30 23 31 84 32 24 33 83 34 25 35 26 36 27 37 77 38
REMARK SMILES IDX 28 39 82 40 76 41 78 42 29 43 81 44 75 45 74 46 30 48 62 49
REMARK SMILES IDX 42 50 61 51 43 52 46 53 60 54 79 55 44 56 45 57 59 59 80 60
REMARK SMILES IDX 47 61 31 62 32 63 40 64 33 65 39 66 41 67 38 68 34 69 35 70
REMARK SMILES IDX 36 71 37 72 63 73 64 74 72 75 65 76 71 77 73 78 70 79 66 80
REMARK SMILES IDX 67 81 68 82 69 83 48 84 49 85 57 86 50 87 56 88 58 89 55 90
REMARK SMILES IDX 51 91 52 92 53 93 54 94
REMARK H PARENT 5 14 8 17 13 23 13 24 13 25 78 47 46 58
REMARK Flexibility Score: inf
ROOT
ATOM      1  C   UNL     1       1.451   3.523   8.311  1.00  0.00     0.274 C 
ENDROOT
BRANCH   1   2
ATOM      2  O   UNL     1       1.261   2.331   7.528  1.00  0.00    -0.457 OA
BRANCH   2   3
ATOM      3  C   UNL     1      -0.030   1.931   7.343  1.00  0.00     0.368 C 
ATOM      4  O   UNL     1      -1.005   2.464   7.862  1.00  0.00    -0.245 OA
BRANCH   3   5
ATOM      5  C   UNL     1      -0.112   0.666   6.457  1.00  0.00     0.198 C 
ATOM      6  C   UNL     1       0.117  -0.145   4.178  1.00  0.00     0.191 C 
ATOM      7  C   UNL     1      -1.379   0.068   4.404  1.00  0.00     0.072 C 
ATOM      8  C   UNL     1       0.776   0.785   5.207  1.00  0.00     0.145 C 
ATOM      9  C   UNL     1      -1.532   0.494   5.868  1.00  0.00     0.087 C 
BRANCH   6  10
ATOM     10  N   UNL     1       0.634  -0.090   2.812  1.00  0.00    -0.323 N 
ATOM     11  N   UNL     1      -1.008   0.881   0.487  1.00  0.00    -0.325 N 
ATOM     12  C   UNL     1      -1.171  -0.472   0.999  1.00  0.00     0.324 C 
ATOM     13  C   UNL     1      -0.392   1.796   1.432  1.00  0.00     0.324 C 
ATOM     14  H   UNL     1      -1.976   1.197   0.421  1.00  0.00     0.348 HD
ATOM     15  C   UNL     1      -0.024  -1.027   1.879  1.00  0.00     0.324 C 
ATOM     16  C   UNL     1       0.823   1.228   2.186  1.00  0.00     0.324 C 
ATOM     17  H   UNL     1       1.588  -0.407   2.986  1.00  0.00     0.348 HD
BRANCH  11  18
ATOM     18  C   UNL     1      -0.670   1.060  -0.921  1.00  0.00     0.265 C 
BRANCH  18  19
ATOM     19  C   UNL     1       0.811   1.190  -1.341  1.00  0.00     0.038 C 
ATOM     20  C   UNL     1       1.608  -0.104  -1.207  1.00  0.00     0.013 C 
ATOM     21  C   UNL     1       0.880   1.654  -2.797  1.00  0.00     0.013 C 
ENDBRANCH  18  19
ENDBRANCH  11  18
ENDBRANCH   6  10
BRANCH   5  22
ATOM     22  N   UNL     1       0.252  -0.518   7.272  1.00  0.00    -0.343 N 
ATOM     23  H   UNL     1       0.201  -1.357   6.694  1.00  0.00     0.345 HD
ATOM     24  H   UNL     1      -0.396  -0.605   8.055  1.00  0.00     0.345 HD
ATOM     25  H   UNL     1       1.202  -0.408   7.627  1.00  0.00     0.345 HD
ENDBRANCH   5  22
ENDBRANCH   3   5
ENDBRANCH   2   3
ENDBRANCH   1   2
BRANCH   1  26
ATOM     26  C   UNL     1       1.907   4.657   7.402  1.00  0.00     0.275 C 
BRANCH  26  27
ATOM     27  O   UNL     1       0.893   4.900   6.411  1.00  0.00    -0.458 OA
BRANCH  27  28
ATOM     28  C   UNL     1       1.330   4.970   5.134  1.00  0.00     0.338 C 
ATOM     29  O   UNL     1       2.486   4.906   4.742  1.00  0.00    -0.246 OA
BRANCH  28  30
ATOM     30  C   UNL     1       0.187   5.176   4.231  1.00  0.00     0.060 A 
ATOM     31  C   UNL     1      -0.877   4.275   4.215  1.00  0.00     0.016 A 
ATOM     32  C   UNL     1       0.229   6.230   3.318  1.00  0.00     0.016 A 
ATOM     33  C   UNL     1      -1.860   4.387   3.228  1.00  0.00     0.010 A 
ATOM     34  C   UNL     1      -0.799   6.380   2.382  1.00  0.00     0.010 A 
ATOM     35  C   UNL     1      -1.835   5.434   2.291  1.00  0.00    -0.014 A 
BRANCH  35  36
ATOM     36  C   UNL     1      -2.850   5.521   1.197  1.00  0.00     0.031 A 
ATOM     37  C   UNL     1      -2.412   5.558  -0.252  1.00  0.00     0.074 A 
ATOM     38  C   UNL     1      -4.167   5.577   1.488  1.00  0.00     0.049 A 
ATOM     39  N   UNL     1      -3.116   5.812  -1.327  1.00  0.00    -0.248 NA
ATOM     40  C   UNL     1      -0.991   5.292  -0.523  1.00  0.00     0.031 C 
ATOM     41  C   UNL     1      -4.743   5.509   2.833  1.00  0.00     0.029 A 
ATOM     42  N   UNL     1      -5.264   5.708   0.670  1.00  0.00    -0.354 N 
ATOM     43  C   UNL     1      -2.217   5.789  -2.392  1.00  0.00     0.074 A 
ATOM     44  C   UNL     1      -0.916   5.497  -1.831  1.00  0.00     0.031 C 
ATOM     45  C   UNL     1      -6.080   5.568   2.746  1.00  0.00     0.029 A 
ATOM     46  C   UNL     1      -6.457   5.777   1.353  1.00  0.00     0.049 A 
ATOM     47  H   UNL     1      -5.202   5.748  -0.312  1.00  0.00     0.167 HD
ATOM     48  C   UNL     1      -2.453   6.004  -3.711  1.00  0.00     0.034 A 
ATOM     49  C   UNL     1      -7.710   6.036   0.925  1.00  0.00     0.034 A 
ATOM     50  C   UNL     1      -3.761   6.258  -4.265  1.00  0.00     0.049 A 
ATOM     51  C   UNL     1      -7.940   6.314  -0.537  1.00  0.00     0.074 A 
ATOM     52  C   UNL     1      -4.111   6.454  -5.591  1.00  0.00     0.029 A 
ATOM     53  N   UNL     1      -4.934   6.355  -3.529  1.00  0.00    -0.354 N 
ATOM     54  N   UNL     1      -7.071   6.331  -1.521  1.00  0.00    -0.248 NA
ATOM     55  C   UNL     1      -9.317   6.625  -0.943  1.00  0.00     0.031 C 
ATOM     56  C   UNL     1      -5.481   6.734  -5.649  1.00  0.00     0.029 A 
ATOM     57  C   UNL     1      -6.001   6.642  -4.368  1.00  0.00     0.049 A 
ATOM     58  H   UNL     1      -5.000   6.237  -2.554  1.00  0.00     0.167 HD
ATOM     59  C   UNL     1      -7.802   6.642  -2.664  1.00  0.00     0.074 A 
ATOM     60  C   UNL     1      -9.183   6.783  -2.251  1.00  0.00     0.031 C 
ATOM     61  C   UNL     1      -7.370   6.800  -3.941  1.00  0.00     0.034 A 
BRANCH  48  62
ATOM     62  C   UNL     1      -1.263   6.055  -4.640  1.00  0.00     0.023 A 
ATOM     63  C   UNL     1      -0.490   4.921  -4.943  1.00  0.00     0.031 A 
ATOM     64  C   UNL     1      -0.900   7.278  -5.235  1.00  0.00     0.131 A 
ATOM     65  C   UNL     1       0.645   5.049  -5.760  1.00  0.00     0.055 A 
ATOM     66  C   UNL     1       0.182   7.382  -6.110  1.00  0.00     0.041 A 
ATOM     67  F   UNL     1      -1.594   8.397  -4.972  1.00  0.00    -0.206 F 
ATOM     68  C   UNL     1       0.969   6.265  -6.368  1.00  0.00     0.022 A 
BRANCH  65  69
ATOM     69  S   UNL     1       1.761   3.637  -5.985  1.00  0.00     0.124 S 
ATOM     70  O   UNL     1       2.599   3.744  -4.794  1.00  0.00    -0.237 OA
ATOM     71  O   UNL     1       0.851   2.498  -6.024  1.00  0.00    -0.237 OA
ATOM     72  O   UNL     1       2.434   3.935  -7.247  1.00  0.00    -0.744 OA
ENDBRANCH  65  69
ENDBRANCH  48  62
BRANCH  49  73
ATOM     73  C   UNL     1      -8.834   6.132   1.901  1.00  0.00     0.023 A 
ATOM     74  C   UNL     1      -9.916   5.238   1.855  1.00  0.00     0.031 A 
ATOM     75  C   UNL     1      -8.861   7.152   2.870  1.00  0.00     0.131 A 
ATOM     76  C   UNL     1     -10.995   5.403   2.738  1.00  0.00     0.055 A 
ATOM     77  C   UNL     1      -9.910   7.277   3.782  1.00  0.00     0.041 A 
ATOM     78  F   UNL     1      -7.855   8.036   2.954  1.00  0.00    -0.206 F 
ATOM     79  C   UNL     1     -10.992   6.406   3.711  1.00  0.00     0.022 A 
BRANCH  76  80
ATOM     80  S   UNL     1     -12.449   4.337   2.543  1.00  0.00     0.124 S 
ATOM     81  O   UNL     1     -12.841   4.616   1.166  1.00  0.00    -0.237 OA
ATOM     82  O   UNL     1     -11.890   3.013   2.795  1.00  0.00    -0.237 OA
ATOM     83  O   UNL     1     -13.371   4.827   3.566  1.00  0.00    -0.744 OA
ENDBRANCH  76  80
ENDBRANCH  49  73
BRANCH  61  84
ATOM     84  C   UNL     1      -8.417   7.106  -4.981  1.00  0.00     0.023 A 
ATOM     85  C   UNL     1      -9.092   8.340  -5.006  1.00  0.00     0.031 A 
ATOM     86  C   UNL     1      -8.760   6.142  -5.945  1.00  0.00     0.131 A 
ATOM     87  C   UNL     1     -10.113   8.557  -5.944  1.00  0.00     0.055 A 
ATOM     88  C   UNL     1      -9.739   6.384  -6.909  1.00  0.00     0.041 A 
ATOM     89  F   UNL     1      -8.147   4.947  -5.963  1.00  0.00    -0.206 F 
ATOM     90  C   UNL     1     -10.431   7.592  -6.904  1.00  0.00     0.022 A 
BRANCH  87  91
ATOM     91  S   UNL     1     -11.081  10.087  -5.841  1.00  0.00     0.124 S 
ATOM     92  O   UNL     1     -11.641  10.002  -4.496  1.00  0.00    -0.237 OA
ATOM     93  O   UNL     1     -10.065  11.115  -6.045  1.00  0.00    -0.237 OA
ATOM     94  O   UNL     1     -12.052   9.953  -6.926  1.00  0.00    -0.744 OA
ENDBRANCH  87  91
ENDBRANCH  61  84
ENDBRANCH  35  36
ENDBRANCH  28  30
ENDBRANCH  27  28
ENDBRANCH  26  27
ENDBRANCH   1  26
TORSDOF 18
