REMARK SMILES Cc1cc([C@@H]2[C@H](C(=O)OCCOC(=O)c3ccc(-c4c5nc(c(-c6cc(S(=O)(=O)[O-])ccc6F)c6ccc([nH]6)c(-c6cc(S(=O)(=O)[O-])ccc6F)c6nc(c(-c7cc(S(=O)(=O)[O-])ccc7F)c7ccc4[nH]7)C=C6)C=C5)cc3)CCCC(=O)N2C)ccc1Br
REMARK SMILES IDX 10 1 9 2 7 3 8 4 6 5 5 6 4 7 1 8 2 9 3 10 87 11 86 12 88 13
REMARK SMILES IDX 85 14 83 15 84 16 81 17 82 18 78 20 79 21 80 22 11 24 12 25
REMARK SMILES IDX 13 26 14 27 15 28 16 29 77 30 17 31 76 32 18 33 19 34 20 35
REMARK SMILES IDX 70 36 21 37 75 38 69 39 71 40 22 41 74 42 68 43 67 44 23 46
REMARK SMILES IDX 55 47 35 48 54 49 36 50 39 51 53 52 72 53 37 54 38 55 52 57
REMARK SMILES IDX 73 58 40 59 24 60 25 61 33 62 26 63 32 64 34 65 31 66 27 67
REMARK SMILES IDX 28 68 29 69 30 70 56 71 57 72 65 73 58 74 64 75 66 76 63 77
REMARK SMILES IDX 59 78 60 79 61 80 62 81 41 82 42 83 50 84 43 85 49 86 51 87
REMARK SMILES IDX 48 88 44 89 45 90 46 91 47 92
REMARK H PARENT 71 45 39 56
REMARK Flexibility Score: 90.00
ROOT
ATOM      1  C   UNL     1       5.828  -3.983  -0.151  1.00  0.00     0.274 C 
ENDROOT
BRANCH   1   2
ATOM      2  O   UNL     1       5.438  -2.603   0.006  1.00  0.00    -0.462 OA
BRANCH   2   3
ATOM      3  C   UNL     1       5.653  -1.825  -1.083  1.00  0.00     0.311 C 
ATOM      4  O   UNL     1       6.039  -2.255  -2.167  1.00  0.00    -0.252 OA
BRANCH   3   5
ATOM      5  C   UNL     1       5.478  -0.339  -0.853  1.00  0.00     0.126 C 
BRANCH   5   6
ATOM      6  C   UNL     1       4.852   0.180   0.457  1.00  0.00     0.129 C 
BRANCH   6   7
ATOM      7  C   UNL     1       3.322   0.268   0.339  1.00  0.00    -0.024 A 
ATOM      8  C   UNL     1       0.129  -1.769   0.863  1.00  0.00     0.045 C 
ATOM      9  C   UNL     1       1.043  -0.633   0.491  1.00  0.00    -0.037 A 
ATOM     10  C   UNL     1       2.443  -0.788   0.618  1.00  0.00     0.010 A 
ATOM     11  C   UNL     1       0.532   0.581   0.009  1.00  0.00     0.020 A 
ATOM     12  C   UNL     1       1.391   1.629  -0.305  1.00  0.00     0.016 A 
ATOM     13  Br  UNL     1      -1.327   0.868  -0.248  1.00  0.00    -0.051 Br
ATOM     14  C   UNL     1       2.767   1.476  -0.135  1.00  0.00     0.007 A 
ENDBRANCH   6   7
BRANCH   6  15
ATOM     15  N   UNL     1       5.445  -0.269   1.731  1.00  0.00    -0.338 N 
ATOM     16  C   UNL     1       4.598  -0.357   2.913  1.00  0.00     0.147 C 
BRANCH  15  17
ATOM     17  C   UNL     1       6.796  -0.018   1.979  1.00  0.00     0.222 CG0
ATOM     18  O   UNL     1       7.194   0.551   2.996  1.00  0.00    -0.275 OA
ATOM     19  G   UNL     1       7.790  -0.665   1.037  1.00  0.00     0.000 G0
ENDBRANCH  15  17
ENDBRANCH   6  15
ENDBRANCH   5   6
BRANCH   5  20
ATOM     20  C   UNL     1       6.801   0.381  -1.146  1.00  0.00     0.018 C 
BRANCH  20  21
ATOM     21  C   UNL     1       8.012  -0.060  -0.336  1.00  0.00     0.011 C 
BRANCH  21  22
ATOM     22  C   UNL     1       7.790  -0.665   1.037  1.00  0.00     0.100 CG0
ATOM     23  G   UNL     1       6.796  -0.018   1.979  1.00  0.00     0.000 G0
ENDBRANCH  21  22
ENDBRANCH  20  21
ENDBRANCH   5  20
ENDBRANCH   3   5
ENDBRANCH   2   3
ENDBRANCH   1   2
BRANCH   1  24
ATOM     24  C   UNL     1       4.630  -4.870  -0.460  1.00  0.00     0.275 C 
BRANCH  24  25
ATOM     25  O   UNL     1       3.889  -4.319  -1.558  1.00  0.00    -0.458 OA
BRANCH  25  26
ATOM     26  C   UNL     1       2.633  -3.926  -1.257  1.00  0.00     0.338 C 
ATOM     27  O   UNL     1       2.046  -4.095  -0.196  1.00  0.00    -0.246 OA
BRANCH  26  28
ATOM     28  C   UNL     1       2.011  -3.288  -2.423  1.00  0.00     0.060 A 
ATOM     29  C   UNL     1       2.547  -2.126  -2.986  1.00  0.00     0.016 A 
ATOM     30  C   UNL     1       0.823  -3.830  -2.911  1.00  0.00     0.016 A 
ATOM     31  C   UNL     1       1.886  -1.494  -4.038  1.00  0.00     0.010 A 
ATOM     32  C   UNL     1       0.188  -3.225  -3.993  1.00  0.00     0.010 A 
ATOM     33  C   UNL     1       0.713  -2.053  -4.560  1.00  0.00    -0.014 A 
BRANCH  33  34
ATOM     34  C   UNL     1       0.036  -1.458  -5.734  1.00  0.00     0.031 A 
ATOM     35  C   UNL     1      -1.302  -0.801  -5.576  1.00  0.00     0.074 A 
ATOM     36  C   UNL     1       0.601  -1.591  -6.948  1.00  0.00     0.049 A 
ATOM     37  N   UNL     1      -2.155  -0.428  -6.493  1.00  0.00    -0.248 NA
ATOM     38  C   UNL     1      -1.739  -0.537  -4.197  1.00  0.00     0.031 C 
ATOM     39  C   UNL     1       1.919  -2.176  -7.203  1.00  0.00     0.029 A 
ATOM     40  N   UNL     1       0.129  -1.274  -8.194  1.00  0.00    -0.354 N 
ATOM     41  C   UNL     1      -3.242   0.100  -5.807  1.00  0.00     0.074 A 
ATOM     42  C   UNL     1      -2.942  -0.016  -4.394  1.00  0.00     0.031 C 
ATOM     43  C   UNL     1       2.142  -2.194  -8.526  1.00  0.00     0.029 A 
ATOM     44  C   UNL     1       0.957  -1.689  -9.210  1.00  0.00     0.049 A 
ATOM     45  H   UNL     1      -0.719  -0.798  -8.347  1.00  0.00     0.167 HD
ATOM     46  C   UNL     1      -4.384   0.625  -6.319  1.00  0.00     0.034 A 
ATOM     47  C   UNL     1       0.759  -1.715 -10.542  1.00  0.00     0.034 A 
ATOM     48  C   UNL     1      -4.660   0.705  -7.735  1.00  0.00     0.049 A 
ATOM     49  C   UNL     1      -0.552  -1.217 -11.084  1.00  0.00     0.074 A 
ATOM     50  C   UNL     1      -5.777   1.214  -8.373  1.00  0.00     0.029 A 
ATOM     51  N   UNL     1      -3.809   0.248  -8.736  1.00  0.00    -0.354 N 
ATOM     52  N   UNL     1      -1.590  -0.750 -10.430  1.00  0.00    -0.248 NA
ATOM     53  C   UNL     1      -0.720  -1.256 -12.541  1.00  0.00     0.031 C 
ATOM     54  C   UNL     1      -5.628   1.012  -9.752  1.00  0.00     0.029 A 
ATOM     55  C   UNL     1      -4.389   0.436  -9.982  1.00  0.00     0.049 A 
ATOM     56  H   UNL     1      -2.922  -0.151  -8.582  1.00  0.00     0.167 HD
ATOM     57  C   UNL     1      -2.533  -0.426 -11.399  1.00  0.00     0.074 A 
ATOM     58  C   UNL     1      -1.931  -0.738 -12.681  1.00  0.00     0.031 C 
ATOM     59  C   UNL     1      -3.780   0.089 -11.245  1.00  0.00     0.034 A 
BRANCH  46  60
ATOM     60  C   UNL     1      -5.435   1.084  -5.337  1.00  0.00     0.023 A 
ATOM     61  C   UNL     1      -5.217   2.166  -4.465  1.00  0.00     0.031 A 
ATOM     62  C   UNL     1      -6.663   0.404  -5.246  1.00  0.00     0.131 A 
ATOM     63  C   UNL     1      -6.185   2.498  -3.503  1.00  0.00     0.055 A 
ATOM     64  C   UNL     1      -7.649   0.780  -4.331  1.00  0.00     0.041 A 
ATOM     65  F   UNL     1      -6.920  -0.650  -6.037  1.00  0.00    -0.206 F 
ATOM     66  C   UNL     1      -7.407   1.824  -3.443  1.00  0.00     0.022 A 
BRANCH  63  67
ATOM     67  S   UNL     1      -5.774   3.740  -2.245  1.00  0.00     0.124 S 
ATOM     68  O   UNL     1      -4.572   3.170  -1.644  1.00  0.00    -0.237 OA
ATOM     69  O   UNL     1      -5.580   4.944  -3.045  1.00  0.00    -0.237 OA
ATOM     70  O   UNL     1      -6.951   3.751  -1.378  1.00  0.00    -0.744 OA
ENDBRANCH  63  67
ENDBRANCH  46  60
BRANCH  47  71
ATOM     71  C   UNL     1       1.800  -2.290 -11.437  1.00  0.00     0.023 A 
ATOM     72  C   UNL     1       2.508  -1.480 -12.336  1.00  0.00     0.031 A 
ATOM     73  C   UNL     1       2.103  -3.663 -11.401  1.00  0.00     0.131 A 
ATOM     74  C   UNL     1       3.473  -2.053 -13.179  1.00  0.00     0.055 A 
ATOM     75  C   UNL     1       3.092  -4.221 -12.211  1.00  0.00     0.041 A 
ATOM     76  F   UNL     1       1.456  -4.479 -10.554  1.00  0.00    -0.206 F 
ATOM     77  C   UNL     1       3.779  -3.414 -13.113  1.00  0.00     0.022 A 
BRANCH  74  78
ATOM     78  S   UNL     1       4.295  -0.995 -14.401  1.00  0.00     0.124 S 
ATOM     79  O   UNL     1       3.165  -0.510 -15.185  1.00  0.00    -0.237 OA
ATOM     80  O   UNL     1       4.958  -0.011 -13.553  1.00  0.00    -0.237 OA
ATOM     81  O   UNL     1       5.191  -1.915 -15.099  1.00  0.00    -0.744 OA
ENDBRANCH  74  78
ENDBRANCH  47  71
BRANCH  59  82
ATOM     82  C   UNL     1      -4.546   0.370 -12.511  1.00  0.00     0.023 A 
ATOM     83  C   UNL     1      -5.036  -0.670 -13.320  1.00  0.00     0.031 A 
ATOM     84  C   UNL     1      -4.755   1.695 -12.931  1.00  0.00     0.131 A 
ATOM     85  C   UNL     1      -5.663  -0.368 -14.538  1.00  0.00     0.055 A 
ATOM     86  C   UNL     1      -5.425   1.990 -14.118  1.00  0.00     0.041 A 
ATOM     87  F   UNL     1      -4.302   2.723 -12.196  1.00  0.00    -0.206 F 
ATOM     88  C   UNL     1      -5.872   0.956 -14.935  1.00  0.00     0.022 A 
BRANCH  85  89
ATOM     89  S   UNL     1      -6.127  -1.731 -15.641  1.00  0.00     0.124 S 
ATOM     90  O   UNL     1      -4.837  -2.359 -15.905  1.00  0.00    -0.237 OA
ATOM     91  O   UNL     1      -7.053  -2.500 -14.816  1.00  0.00    -0.237 OA
ATOM     92  O   UNL     1      -6.734  -1.055 -16.786  1.00  0.00    -0.744 OA
ENDBRANCH  85  89
ENDBRANCH  59  82
ENDBRANCH  33  34
ENDBRANCH  26  28
ENDBRANCH  25  26
ENDBRANCH  24  25
ENDBRANCH   1  24
TORSDOF 15
