REMARK SMILES CC[C@@H](C)SCc1cc(F)cc(/C=C/C(=O)OCCOC(=O)c2ccc(-c3c4nc(c(-c5cc(S(=O)(=O)[O-])ccc5F)c5ccc([nH]5)c(-c5cc(S(=O)(=O)[O-])ccc5F)c5nc(c(-c6cc(S(=O)(=O)[O-])ccc6F)c6ccc3[nH]6)C=C5)C=C4)cc2)c1
REMARK SMILES IDX 18 1 17 2 15 3 16 4 14 5 13 6 12 7 7 8 8 9 86 10 9 11 10 12
REMARK SMILES IDX 11 13 6 14 5 15 3 16 4 17 2 18 1 19 19 20 20 21 21 22 22 23
REMARK SMILES IDX 23 24 24 25 85 26 25 27 84 28 26 29 27 30 28 31 78 32 29 33
REMARK SMILES IDX 83 34 77 35 79 36 30 37 82 38 76 39 75 40 31 42 63 43 43 44
REMARK SMILES IDX 62 45 44 46 47 47 61 48 80 49 45 50 46 51 60 53 81 54 48 55
REMARK SMILES IDX 32 56 33 57 41 58 34 59 40 60 42 61 39 62 35 63 36 64 37 65
REMARK SMILES IDX 38 66 64 67 65 68 73 69 66 70 72 71 74 72 71 73 67 74 68 75
REMARK SMILES IDX 69 76 70 77 49 78 50 79 58 80 51 81 57 82 59 83 56 84 52 85
REMARK SMILES IDX 53 86 54 87 55 88
REMARK H PARENT 79 41 47 52
REMARK Flexibility Score: inf
ROOT
ATOM      1  C   UNL     1       0.865   6.276   1.796  1.00  0.00     0.275 C 
ENDROOT
BRANCH   1   2
ATOM      2  O   UNL     1       0.252   5.085   2.321  1.00  0.00    -0.459 OA
BRANCH   2   3
ATOM      3  C   UNL     1       0.071   5.062   3.663  1.00  0.00     0.330 C 
ATOM      4  O   UNL     1       0.476   5.892   4.462  1.00  0.00    -0.247 OA
BRANCH   3   5
ATOM      5  C   UNL     1      -0.665   3.863   4.104  1.00  0.00     0.094 C 
ATOM      6  C   UNL     1      -1.460   3.113   3.324  1.00  0.00     0.016 C 
BRANCH   6   7
ATOM      7  C   UNL     1      -2.086   1.903   3.865  1.00  0.00    -0.022 A 
ATOM      8  C   UNL     1      -2.082  -0.539   3.872  1.00  0.00    -0.035 A 
ATOM      9  C   UNL     1      -2.853  -0.515   5.040  1.00  0.00     0.043 A 
ATOM     10  C   UNL     1      -1.782   0.681   3.256  1.00  0.00     0.013 A 
ATOM     11  C   UNL     1      -3.267   0.701   5.578  1.00  0.00     0.124 A 
ATOM     12  F   UNL     1      -4.019   0.705   6.686  1.00  0.00    -0.207 F 
ATOM     13  C   UNL     1      -2.874   1.910   5.015  1.00  0.00     0.047 A 
BRANCH   8  14
ATOM     14  C   UNL     1      -1.554  -1.833   3.312  1.00  0.00     0.105 C 
BRANCH  14  15
ATOM     15  S   UNL     1       0.222  -2.124   3.655  1.00  0.00    -0.154 SA
BRANCH  15  16
ATOM     16  C   UNL     1       1.141  -1.149   2.373  1.00  0.00     0.043 C 
ATOM     17  C   UNL     1       1.495   0.263   2.849  1.00  0.00     0.019 C 
BRANCH  16  18
ATOM     18  C   UNL     1       0.536  -1.237   0.962  1.00  0.00     0.011 C 
ATOM     19  C   UNL     1       1.236  -0.365  -0.073  1.00  0.00     0.005 C 
ENDBRANCH  16  18
ENDBRANCH  15  16
ENDBRANCH  14  15
ENDBRANCH   8  14
ENDBRANCH   6   7
ENDBRANCH   3   5
ENDBRANCH   2   3
ENDBRANCH   1   2
BRANCH   1  20
ATOM     20  C   UNL     1      -0.164   7.138   1.063  1.00  0.00     0.275 C 
BRANCH  20  21
ATOM     21  O   UNL     1      -1.198   7.601   1.950  1.00  0.00    -0.458 OA
BRANCH  21  22
ATOM     22  C   UNL     1      -2.278   6.784   2.040  1.00  0.00     0.338 C 
ATOM     23  O   UNL     1      -2.469   5.753   1.418  1.00  0.00    -0.246 OA
BRANCH  22  24
ATOM     24  C   UNL     1      -3.170   7.254   3.114  1.00  0.00     0.060 A 
ATOM     25  C   UNL     1      -3.515   6.352   4.123  1.00  0.00     0.016 A 
ATOM     26  C   UNL     1      -3.719   8.538   3.093  1.00  0.00     0.016 A 
ATOM     27  C   UNL     1      -4.416   6.726   5.116  1.00  0.00     0.010 A 
ATOM     28  C   UNL     1      -4.630   8.912   4.088  1.00  0.00     0.010 A 
ATOM     29  C   UNL     1      -4.992   8.004   5.097  1.00  0.00    -0.014 A 
BRANCH  29  30
ATOM     30  C   UNL     1      -6.017   8.352   6.110  1.00  0.00     0.031 A 
ATOM     31  C   UNL     1      -7.472   8.326   5.738  1.00  0.00     0.074 A 
ATOM     32  C   UNL     1      -5.642   8.633   7.372  1.00  0.00     0.049 A 
ATOM     33  N   UNL     1      -8.517   8.612   6.470  1.00  0.00    -0.248 NA
ATOM     34  C   UNL     1      -7.793   7.920   4.361  1.00  0.00     0.031 C 
ATOM     35  C   UNL     1      -4.263   8.632   7.860  1.00  0.00     0.029 A 
ATOM     36  N   UNL     1      -6.388   8.956   8.476  1.00  0.00    -0.354 N 
ATOM     37  C   UNL     1      -9.620   8.423   5.647  1.00  0.00     0.074 A 
ATOM     38  C   UNL     1      -9.115   8.023   4.351  1.00  0.00     0.031 C 
ATOM     39  C   UNL     1      -4.264   8.922   9.171  1.00  0.00     0.029 A 
ATOM     40  C   UNL     1      -5.636   9.171   9.606  1.00  0.00     0.049 A 
ATOM     41  H   UNL     1      -7.370   9.027   8.461  1.00  0.00     0.167 HD
ATOM     42  C   UNL     1     -10.933   8.565   5.950  1.00  0.00     0.034 A 
ATOM     43  C   UNL     1      -6.008   9.545  10.847  1.00  0.00     0.034 A 
ATOM     44  C   UNL     1     -11.424   8.963   7.245  1.00  0.00     0.049 A 
ATOM     45  C   UNL     1      -7.466   9.779  11.136  1.00  0.00     0.074 A 
ATOM     46  C   UNL     1     -12.736   9.137   7.652  1.00  0.00     0.029 A 
ATOM     47  N   UNL     1     -10.625   9.254   8.342  1.00  0.00    -0.354 N 
ATOM     48  N   UNL     1      -8.496   9.645  10.333  1.00  0.00    -0.248 NA
ATOM     49  C   UNL     1      -7.814  10.225  12.492  1.00  0.00     0.031 C 
ATOM     50  C   UNL     1     -12.727   9.586   8.977  1.00  0.00     0.029 A 
ATOM     51  C   UNL     1     -11.414   9.632   9.417  1.00  0.00     0.049 A 
ATOM     52  H   UNL     1      -9.642   9.199   8.356  1.00  0.00     0.167 HD
ATOM     53  C   UNL     1      -9.614   9.976  11.091  1.00  0.00     0.074 A 
ATOM     54  C   UNL     1      -9.136  10.314  12.416  1.00  0.00     0.031 C 
ATOM     55  C   UNL     1     -10.920   9.989  10.725  1.00  0.00     0.034 A 
BRANCH  42  56
ATOM     56  C   UNL     1     -11.930   8.333   4.846  1.00  0.00     0.023 A 
ATOM     57  C   UNL     1     -12.177   7.050   4.330  1.00  0.00     0.031 A 
ATOM     58  C   UNL     1     -12.652   9.415   4.311  1.00  0.00     0.131 A 
ATOM     59  C   UNL     1     -13.095   6.886   3.281  1.00  0.00     0.055 A 
ATOM     60  C   UNL     1     -13.607   9.237   3.309  1.00  0.00     0.041 A 
ATOM     61  F   UNL     1     -12.440  10.664   4.756  1.00  0.00    -0.206 F 
ATOM     62  C   UNL     1     -13.827   7.968   2.783  1.00  0.00     0.022 A 
BRANCH  59  63
ATOM     63  S   UNL     1     -13.268   5.250   2.519  1.00  0.00     0.124 S 
ATOM     64  O   UNL     1     -11.949   5.064   1.919  1.00  0.00    -0.237 OA
ATOM     65  O   UNL     1     -13.576   4.397   3.661  1.00  0.00    -0.237 OA
ATOM     66  O   UNL     1     -14.360   5.429   1.565  1.00  0.00    -0.744 OA
ENDBRANCH  59  63
ENDBRANCH  42  56
BRANCH  43  67
ATOM     67  C   UNL     1      -4.975   9.761  11.896  1.00  0.00     0.023 A 
ATOM     68  C   UNL     1      -4.856   8.890  12.989  1.00  0.00     0.031 A 
ATOM     69  C   UNL     1      -4.085  10.846  11.809  1.00  0.00     0.131 A 
ATOM     70  C   UNL     1      -3.874   9.129  13.965  1.00  0.00     0.055 A 
ATOM     71  C   UNL     1      -3.088  11.059  12.762  1.00  0.00     0.041 A 
ATOM     72  F   UNL     1      -4.159  11.703  10.778  1.00  0.00    -0.206 F 
ATOM     73  C   UNL     1      -2.982  10.199  13.851  1.00  0.00     0.022 A 
BRANCH  70  74
ATOM     74  S   UNL     1      -3.786   8.029  15.404  1.00  0.00     0.124 S 
ATOM     75  O   UNL     1      -5.049   8.316  16.075  1.00  0.00    -0.237 OA
ATOM     76  O   UNL     1      -3.673   6.715  14.780  1.00  0.00    -0.237 OA
ATOM     77  O   UNL     1      -2.588   8.485  16.107  1.00  0.00    -0.744 OA
ENDBRANCH  70  74
ENDBRANCH  43  67
BRANCH  55  78
ATOM     78  C   UNL     1     -11.931  10.360  11.776  1.00  0.00     0.023 A 
ATOM     79  C   UNL     1     -12.096  11.690  12.197  1.00  0.00     0.031 A 
ATOM     80  C   UNL     1     -12.770   9.375  12.324  1.00  0.00     0.131 A 
ATOM     81  C   UNL     1     -13.069  11.997  13.160  1.00  0.00     0.055 A 
ATOM     82  C   UNL     1     -13.763   9.693  13.251  1.00  0.00     0.041 A 
ATOM     83  F   UNL     1     -12.652   8.092  11.948  1.00  0.00    -0.206 F 
ATOM     84  C   UNL     1     -13.914  11.010  13.677  1.00  0.00     0.022 A 
BRANCH  81  85
ATOM     85  S   UNL     1     -13.214  13.708  13.744  1.00  0.00     0.124 S 
ATOM     86  O   UNL     1     -11.957  13.888  14.464  1.00  0.00    -0.237 OA
ATOM     87  O   UNL     1     -13.350  14.459  12.501  1.00  0.00    -0.237 OA
ATOM     88  O   UNL     1     -14.411  13.684  14.583  1.00  0.00    -0.744 OA
ENDBRANCH  81  85
ENDBRANCH  55  78
ENDBRANCH  29  30
ENDBRANCH  22  24
ENDBRANCH  21  22
ENDBRANCH  20  21
ENDBRANCH   1  20
TORSDOF 19
