REMARK SMILES O=C(CSc1nnc(Cc2ccncc2)n1-c1ccccc1Cl)OCCOC(=O)c1ccc(-c2c3nc(c(-c4cc(S(=O)(=O)[O-])ccc4F)c4ccc([nH]4)c(-c4cc(S(=O)(=O)[O-])ccc4F)c4nc(c(-c5cc(S(=O)(=O)[O-])ccc5F)c5ccc2[nH]5)C=C4)C=C3)cc1
REMARK SMILES IDX 25 1 24 2 2 3 1 4 3 5 4 6 5 7 6 8 16 9 7 10 8 11 17 12 18 13
REMARK SMILES IDX 22 14 19 15 21 16 23 17 20 18 9 19 10 20 11 21 15 22 12 23
REMARK SMILES IDX 14 24 13 25 26 26 27 27 28 28 29 29 30 30 31 31 92 32 32 33
REMARK SMILES IDX 91 34 33 35 34 36 35 37 85 38 36 39 90 40 84 41 86 42 37 43
REMARK SMILES IDX 89 44 83 45 82 46 38 48 70 49 50 50 69 51 51 52 54 53 68 54
REMARK SMILES IDX 87 55 52 56 53 57 67 59 88 60 55 61 39 62 40 63 48 64 41 65
REMARK SMILES IDX 47 66 49 67 46 68 42 69 43 70 44 71 45 72 71 73 72 74 80 75
REMARK SMILES IDX 73 76 79 77 81 78 78 79 74 80 75 81 76 82 77 83 56 84 57 85
REMARK SMILES IDX 65 86 58 87 64 88 66 89 63 90 59 91 60 92 61 93 62 94
REMARK H PARENT 86 47 54 58
REMARK Flexibility Score: inf
ROOT
ATOM      1  C   UNL     1       4.462  -1.477  -0.408  1.00  0.00     0.274 C 
ENDROOT
BRANCH   1   2
ATOM      2  O   UNL     1       3.117  -1.475   0.115  1.00  0.00    -0.461 OA
BRANCH   2   3
ATOM      3  C   UNL     1       2.546  -0.480   0.835  1.00  0.00     0.316 C 
ATOM      4  O   UNL     1       1.404  -0.618   1.271  1.00  0.00    -0.251 OA
BRANCH   3   5
ATOM      5  C   UNL     1       3.330   0.780   1.114  1.00  0.00     0.200 C 
BRANCH   5   6
ATOM      6  S   UNL     1       4.206   0.744   2.688  1.00  0.00    -0.074 SA
BRANCH   6   7
ATOM      7  C   UNL     1       2.931   0.428   3.813  1.00  0.00     0.196 A 
ATOM      8  N   UNL     1       2.797  -0.707   4.458  1.00  0.00    -0.123 NA
ATOM      9  N   UNL     1       2.055   1.369   4.313  1.00  0.00    -0.272 N 
ATOM     10  N   UNL     1       1.855  -0.523   5.434  1.00  0.00    -0.134 NA
ATOM     11  C   UNL     1       1.432   0.727   5.369  1.00  0.00     0.142 A 
BRANCH   9  12
ATOM     12  C   UNL     1       2.049   2.755   4.059  1.00  0.00     0.068 A 
ATOM     13  C   UNL     1       2.879   3.573   4.838  1.00  0.00     0.028 A 
ATOM     14  C   UNL     1       1.246   3.302   3.054  1.00  0.00     0.065 A 
ATOM     15  C   UNL     1       2.926   4.943   4.583  1.00  0.00     0.002 A 
ATOM     16  C   UNL     1       1.327   4.670   2.785  1.00  0.00     0.023 A 
ATOM     17  Cl  UNL     1       0.103   2.371   2.163  1.00  0.00    -0.082 Cl
ATOM     18  C   UNL     1       2.166   5.488   3.547  1.00  0.00     0.002 A 
ENDBRANCH   9  12
BRANCH  11  19
ATOM     19  C   UNL     1       0.473   1.363   6.314  1.00  0.00     0.113 C 
BRANCH  19  20
ATOM     20  C   UNL     1      -0.946   0.890   6.122  1.00  0.00    -0.037 A 
ATOM     21  C   UNL     1      -1.297  -0.437   6.391  1.00  0.00     0.024 A 
ATOM     22  C   UNL     1      -1.939   1.761   5.669  1.00  0.00     0.024 A 
ATOM     23  C   UNL     1      -2.613  -0.828   6.210  1.00  0.00     0.111 A 
ATOM     24  C   UNL     1      -3.230   1.275   5.525  1.00  0.00     0.111 A 
ATOM     25  N   UNL     1      -3.593   0.004   5.800  1.00  0.00    -0.265 NA
ENDBRANCH  19  20
ENDBRANCH  11  19
ENDBRANCH   6   7
ENDBRANCH   5   6
ENDBRANCH   3   5
ENDBRANCH   2   3
ENDBRANCH   1   2
BRANCH   1  26
ATOM     26  C   UNL     1       4.497  -1.044  -1.869  1.00  0.00     0.275 C 
BRANCH  26  27
ATOM     27  O   UNL     1       4.383   0.374  -1.967  1.00  0.00    -0.458 OA
BRANCH  27  28
ATOM     28  C   UNL     1       3.144   0.898  -2.116  1.00  0.00     0.338 C 
ATOM     29  O   UNL     1       2.086   0.300  -2.096  1.00  0.00    -0.246 OA
BRANCH  28  30
ATOM     30  C   UNL     1       3.313   2.345  -2.322  1.00  0.00     0.060 A 
ATOM     31  C   UNL     1       2.285   3.043  -2.959  1.00  0.00     0.016 A 
ATOM     32  C   UNL     1       4.546   2.954  -2.034  1.00  0.00     0.016 A 
ATOM     33  C   UNL     1       2.568   4.288  -3.489  1.00  0.00     0.010 A 
ATOM     34  C   UNL     1       4.830   4.187  -2.572  1.00  0.00     0.010 A 
ATOM     35  C   UNL     1       3.865   4.800  -3.363  1.00  0.00    -0.014 A 
BRANCH  35  36
ATOM     36  C   UNL     1       4.216   5.995  -4.103  1.00  0.00     0.031 A 
ATOM     37  C   UNL     1       3.768   7.264  -3.493  1.00  0.00     0.074 A 
ATOM     38  C   UNL     1       5.006   5.944  -5.192  1.00  0.00     0.049 A 
ATOM     39  N   UNL     1       2.899   8.099  -3.951  1.00  0.00    -0.248 NA
ATOM     40  C   UNL     1       4.252   7.585  -2.143  1.00  0.00     0.031 C 
ATOM     41  C   UNL     1       5.760   4.800  -5.713  1.00  0.00     0.029 A 
ATOM     42  N   UNL     1       5.385   6.961  -6.010  1.00  0.00    -0.354 N 
ATOM     43  C   UNL     1       2.871   9.158  -3.051  1.00  0.00     0.074 A 
ATOM     44  C   UNL     1       3.580   8.707  -1.884  1.00  0.00     0.031 C 
ATOM     45  C   UNL     1       6.666   5.240  -6.617  1.00  0.00     0.029 A 
ATOM     46  C   UNL     1       6.461   6.663  -6.836  1.00  0.00     0.049 A 
ATOM     47  H   UNL     1       4.934   7.836  -6.016  1.00  0.00     0.167 HD
ATOM     48  C   UNL     1       2.443  10.395  -3.425  1.00  0.00     0.034 A 
ATOM     49  C   UNL     1       7.175   7.543  -7.586  1.00  0.00     0.034 A 
ATOM     50  C   UNL     1       1.688  10.334  -4.655  1.00  0.00     0.049 A 
ATOM     51  C   UNL     1       6.309   8.734  -7.791  1.00  0.00     0.074 A 
ATOM     52  C   UNL     1       0.525   9.693  -5.040  1.00  0.00     0.029 A 
ATOM     53  N   UNL     1       2.316  10.691  -5.827  1.00  0.00    -0.354 N 
ATOM     54  N   UNL     1       5.192   8.700  -8.467  1.00  0.00    -0.248 NA
ATOM     55  C   UNL     1       6.421   9.836  -6.846  1.00  0.00     0.031 C 
ATOM     56  C   UNL     1       0.773   9.254  -6.373  1.00  0.00     0.029 A 
ATOM     57  C   UNL     1       2.039   9.711  -6.749  1.00  0.00     0.049 A 
ATOM     58  H   UNL     1       2.861  11.497  -5.976  1.00  0.00     0.167 HD
ATOM     59  C   UNL     1       4.308   9.493  -7.750  1.00  0.00     0.074 A 
ATOM     60  C   UNL     1       5.147  10.242  -6.817  1.00  0.00     0.031 C 
ATOM     61  C   UNL     1       2.961   9.269  -7.780  1.00  0.00     0.034 A 
BRANCH  48  62
ATOM     62  C   UNL     1       2.966  11.697  -2.865  1.00  0.00     0.023 A 
ATOM     63  C   UNL     1       2.390  12.887  -3.349  1.00  0.00     0.031 A 
ATOM     64  C   UNL     1       4.153  11.851  -2.113  1.00  0.00     0.131 A 
ATOM     65  C   UNL     1       3.028  14.126  -3.165  1.00  0.00     0.055 A 
ATOM     66  C   UNL     1       4.745  13.094  -1.871  1.00  0.00     0.041 A 
ATOM     67  F   UNL     1       4.861  10.813  -1.652  1.00  0.00    -0.206 F 
ATOM     68  C   UNL     1       4.201  14.238  -2.426  1.00  0.00     0.022 A 
BRANCH  65  69
ATOM     69  S   UNL     1       2.394  15.561  -4.071  1.00  0.00     0.124 S 
ATOM     70  O   UNL     1       2.335  15.048  -5.435  1.00  0.00    -0.237 OA
ATOM     71  O   UNL     1       1.114  15.789  -3.410  1.00  0.00    -0.237 OA
ATOM     72  O   UNL     1       3.411  16.584  -3.834  1.00  0.00    -0.744 OA
ENDBRANCH  65  69
ENDBRANCH  48  62
BRANCH  49  73
ATOM     73  C   UNL     1       8.653   7.542  -7.773  1.00  0.00     0.023 A 
ATOM     74  C   UNL     1       9.297   8.214  -8.832  1.00  0.00     0.031 A 
ATOM     75  C   UNL     1       9.485   7.044  -6.742  1.00  0.00     0.131 A 
ATOM     76  C   UNL     1      10.707   8.353  -8.834  1.00  0.00     0.055 A 
ATOM     77  C   UNL     1      10.874   7.179  -6.752  1.00  0.00     0.041 A 
ATOM     78  F   UNL     1       8.964   6.478  -5.641  1.00  0.00    -0.206 F 
ATOM     79  C   UNL     1      11.492   7.842  -7.798  1.00  0.00     0.022 A 
BRANCH  76  80
ATOM     80  S   UNL     1      11.542   9.288 -10.158  1.00  0.00     0.124 S 
ATOM     81  O   UNL     1      11.325   8.437 -11.322  1.00  0.00    -0.237 OA
ATOM     82  O   UNL     1      10.828  10.559 -10.140  1.00  0.00    -0.237 OA
ATOM     83  O   UNL     1      12.931   9.361  -9.701  1.00  0.00    -0.744 OA
ENDBRANCH  76  80
ENDBRANCH  49  73
BRANCH  61  84
ATOM     84  C   UNL     1       2.405   8.314  -8.819  1.00  0.00     0.023 A 
ATOM     85  C   UNL     1       2.747   6.947  -8.921  1.00  0.00     0.031 A 
ATOM     86  C   UNL     1       1.365   8.789  -9.638  1.00  0.00     0.131 A 
ATOM     87  C   UNL     1       2.054   6.112  -9.822  1.00  0.00     0.055 A 
ATOM     88  C   UNL     1       0.668   7.956 -10.513  1.00  0.00     0.041 A 
ATOM     89  F   UNL     1       0.973  10.072  -9.565  1.00  0.00    -0.206 F 
ATOM     90  C   UNL     1       1.012   6.613 -10.610  1.00  0.00     0.022 A 
BRANCH  87  91
ATOM     91  S   UNL     1       2.491   4.349  -9.979  1.00  0.00     0.124 S 
ATOM     92  O   UNL     1       3.935   4.375 -10.183  1.00  0.00    -0.237 OA
ATOM     93  O   UNL     1       2.033   3.794  -8.708  1.00  0.00    -0.237 OA
ATOM     94  O   UNL     1       1.721   3.910 -11.145  1.00  0.00    -0.744 OA
ENDBRANCH  87  91
ENDBRANCH  61  84
ENDBRANCH  35  36
ENDBRANCH  28  30
ENDBRANCH  27  28
ENDBRANCH  26  27
ENDBRANCH   1  26
TORSDOF 19
