REMARK SMILES COc1ccc2c(c1)c(CC(=O)OCCOC(=O)c1ccc(-c3c4nc(c(-c5cc(S(=O)(=O)[O-])ccc5F)c5ccc([nH]5)c(-c5cc(S(=O)(=O)[O-])ccc5F)c5nc(c(-c6cc(S(=O)(=O)[O-])ccc6F)c6ccc3[nH]6)C=C5)C=C4)cc1)c(C)n2C(=O)c1ccc(Cl)cc1
REMARK SMILES IDX 14 1 13 2 11 3 12 4 10 5 9 6 3 7 4 8 8 9 5 10 7 11 6 12
REMARK SMILES IDX 84 13 82 14 83 15 2 16 1 17 85 18 86 19 87 20 88 21 93 22
REMARK SMILES IDX 89 23 92 24 90 25 91 26 15 27 16 28 17 29 18 30 19 31 20 32
REMARK SMILES IDX 81 33 21 34 80 35 22 36 23 37 24 38 74 39 25 40 79 41 73 42
REMARK SMILES IDX 75 43 26 44 78 45 72 46 71 47 27 49 59 50 39 51 58 52 40 53
REMARK SMILES IDX 43 54 57 55 76 56 41 57 42 58 56 60 77 61 44 62 28 63 29 64
REMARK SMILES IDX 37 65 30 66 36 67 38 68 35 69 31 70 32 71 33 72 34 73 60 74
REMARK SMILES IDX 61 75 69 76 62 77 68 78 70 79 67 80 63 81 64 82 65 83 66 84
REMARK SMILES IDX 45 85 46 86 54 87 47 88 53 89 55 90 52 91 48 92 49 93 50 94
REMARK SMILES IDX 51 95
REMARK H PARENT 75 48 43 59
REMARK Flexibility Score: inf
ROOT
ATOM      1  C   UNL     1      -1.510  -5.812  -4.236  1.00  0.00     0.274 C 
ENDROOT
BRANCH   1   2
ATOM      2  O   UNL     1      -0.910  -4.612  -4.770  1.00  0.00    -0.462 OA
BRANCH   2   3
ATOM      3  C   UNL     1      -1.785  -3.797  -5.404  1.00  0.00     0.310 C 
ATOM      4  O   UNL     1      -2.983  -4.049  -5.507  1.00  0.00    -0.252 OA
BRANCH   3   5
ATOM      5  C   UNL     1      -1.183  -2.618  -6.104  1.00  0.00     0.160 C 
BRANCH   5   6
ATOM      6  C   UNL     1       0.220  -2.151  -5.845  1.00  0.00    -0.008 A 
ATOM      7  C   UNL     1       1.376  -1.060  -2.315  1.00  0.00     0.119 A 
ATOM      8  C   UNL     1       2.544  -0.453  -2.728  1.00  0.00     0.048 A 
ATOM      9  C   UNL     1       0.591  -1.751  -3.255  1.00  0.00     0.057 A 
ATOM     10  C   UNL     1       2.922  -0.501  -4.072  1.00  0.00     0.031 A 
ATOM     11  C   UNL     1       0.893  -1.747  -4.641  1.00  0.00     0.008 A 
ATOM     12  C   UNL     1       2.107  -1.160  -5.024  1.00  0.00     0.057 A 
ATOM     13  N   UNL     1       2.285  -1.425  -6.391  1.00  0.00    -0.280 N 
ATOM     14  C   UNL     1       1.050  -1.788  -6.901  1.00  0.00     0.028 A 
ATOM     15  C   UNL     1       0.705  -1.786  -8.363  1.00  0.00     0.065 C 
BRANCH   7  16
ATOM     16  O   UNL     1       0.920  -1.066  -1.023  1.00  0.00    -0.497 OA
ATOM     17  C   UNL     1       1.322   0.030  -0.201  1.00  0.00     0.278 C 
ENDBRANCH   7  16
BRANCH  13  18
ATOM     18  C   UNL     1       3.503  -1.377  -7.113  1.00  0.00     0.262 C 
ATOM     19  O   UNL     1       3.535  -1.711  -8.295  1.00  0.00    -0.268 OA
BRANCH  18  20
ATOM     20  C   UNL     1       4.788  -1.036  -6.505  1.00  0.00     0.040 A 
ATOM     21  C   UNL     1       5.385  -1.941  -5.621  1.00  0.00     0.015 A 
ATOM     22  C   UNL     1       5.330   0.229  -6.740  1.00  0.00     0.015 A 
ATOM     23  C   UNL     1       6.514  -1.544  -4.910  1.00  0.00     0.021 A 
ATOM     24  C   UNL     1       6.462   0.617  -6.027  1.00  0.00     0.021 A 
ATOM     25  C   UNL     1       7.039  -0.263  -5.107  1.00  0.00     0.041 A 
ATOM     26  Cl  UNL     1       8.393   0.246  -4.177  1.00  0.00    -0.084 Cl
ENDBRANCH  18  20
ENDBRANCH  13  18
ENDBRANCH   5   6
ENDBRANCH   3   5
ENDBRANCH   2   3
ENDBRANCH   1   2
BRANCH   1  27
ATOM     27  C   UNL     1      -1.834  -5.644  -2.749  1.00  0.00     0.275 C 
BRANCH  27  28
ATOM     28  O   UNL     1      -2.957  -4.760  -2.598  1.00  0.00    -0.458 OA
BRANCH  28  29
ATOM     29  C   UNL     1      -2.727  -3.575  -1.958  1.00  0.00     0.338 C 
ATOM     30  O   UNL     1      -1.829  -3.317  -1.207  1.00  0.00    -0.246 OA
BRANCH  29  31
ATOM     31  C   UNL     1      -3.584  -2.579  -2.653  1.00  0.00     0.060 A 
ATOM     32  C   UNL     1      -4.913  -2.860  -2.964  1.00  0.00     0.016 A 
ATOM     33  C   UNL     1      -2.930  -1.494  -3.240  1.00  0.00     0.016 A 
ATOM     34  C   UNL     1      -5.505  -2.184  -4.025  1.00  0.00     0.010 A 
ATOM     35  C   UNL     1      -3.502  -0.856  -4.325  1.00  0.00     0.010 A 
ATOM     36  C   UNL     1      -4.747  -1.272  -4.773  1.00  0.00    -0.014 A 
BRANCH  36  37
ATOM     37  C   UNL     1      -5.311  -0.638  -5.949  1.00  0.00     0.031 A 
ATOM     38  C   UNL     1      -6.085   0.579  -5.649  1.00  0.00     0.074 A 
ATOM     39  C   UNL     1      -5.143  -0.988  -7.237  1.00  0.00     0.049 A 
ATOM     40  N   UNL     1      -7.362   0.634  -5.506  1.00  0.00    -0.248 NA
ATOM     41  C   UNL     1      -5.378   1.820  -5.334  1.00  0.00     0.031 C 
ATOM     42  C   UNL     1      -4.230  -1.937  -7.862  1.00  0.00     0.029 A 
ATOM     43  N   UNL     1      -5.824  -0.478  -8.299  1.00  0.00    -0.354 N 
ATOM     44  C   UNL     1      -7.664   1.947  -5.186  1.00  0.00     0.074 A 
ATOM     45  C   UNL     1      -6.395   2.603  -4.964  1.00  0.00     0.031 C 
ATOM     46  C   UNL     1      -4.288  -1.810  -9.211  1.00  0.00     0.029 A 
ATOM     47  C   UNL     1      -5.384  -0.912  -9.533  1.00  0.00     0.049 A 
ATOM     48  H   UNL     1      -6.572   0.153  -8.194  1.00  0.00     0.167 HD
ATOM     49  C   UNL     1      -8.945   2.406  -5.246  1.00  0.00     0.034 A 
ATOM     50  C   UNL     1      -5.915  -0.593 -10.738  1.00  0.00     0.034 A 
ATOM     51  C   UNL     1      -9.871   1.326  -5.490  1.00  0.00     0.049 A 
ATOM     52  C   UNL     1      -7.327  -0.185 -10.508  1.00  0.00     0.074 A 
ATOM     53  C   UNL     1     -10.274   0.227  -4.758  1.00  0.00     0.029 A 
ATOM     54  N   UNL     1     -10.206   1.051  -6.797  1.00  0.00    -0.354 N 
ATOM     55  N   UNL     1      -8.270  -1.015 -10.155  1.00  0.00    -0.248 NA
ATOM     56  C   UNL     1      -7.600   1.217 -10.231  1.00  0.00     0.031 C 
ATOM     57  C   UNL     1     -10.397  -0.828  -5.708  1.00  0.00     0.029 A 
ATOM     58  C   UNL     1     -10.113  -0.310  -6.975  1.00  0.00     0.049 A 
ATOM     59  H   UNL     1     -10.465   1.710  -7.481  1.00  0.00     0.167 HD
ATOM     60  C   UNL     1      -9.021  -0.319  -9.217  1.00  0.00     0.074 A 
ATOM     61  C   UNL     1      -8.630   1.080  -9.390  1.00  0.00     0.031 C 
ATOM     62  C   UNL     1      -9.684  -0.958  -8.206  1.00  0.00     0.034 A 
BRANCH  49  63
ATOM     63  C   UNL     1      -9.347   3.849  -5.295  1.00  0.00     0.023 A 
ATOM     64  C   UNL     1      -8.451   4.883  -5.622  1.00  0.00     0.031 A 
ATOM     65  C   UNL     1     -10.701   4.217  -5.171  1.00  0.00     0.131 A 
ATOM     66  C   UNL     1      -8.886   6.204  -5.778  1.00  0.00     0.055 A 
ATOM     67  C   UNL     1     -11.147   5.524  -5.391  1.00  0.00     0.041 A 
ATOM     68  F   UNL     1     -11.641   3.307  -4.867  1.00  0.00    -0.206 F 
ATOM     69  C   UNL     1     -10.236   6.529  -5.692  1.00  0.00     0.022 A 
BRANCH  66  70
ATOM     70  S   UNL     1      -7.692   7.532  -6.091  1.00  0.00     0.124 S 
ATOM     71  O   UNL     1      -8.092   7.987  -7.418  1.00  0.00    -0.237 OA
ATOM     72  O   UNL     1      -7.975   8.455  -4.994  1.00  0.00    -0.237 OA
ATOM     73  O   UNL     1      -6.401   6.856  -6.011  1.00  0.00    -0.744 OA
ENDBRANCH  66  70
ENDBRANCH  49  63
BRANCH  50  74
ATOM     74  C   UNL     1      -5.132  -0.116 -11.899  1.00  0.00     0.023 A 
ATOM     75  C   UNL     1      -3.876   0.485 -11.695  1.00  0.00     0.031 A 
ATOM     76  C   UNL     1      -5.729   0.040 -13.161  1.00  0.00     0.131 A 
ATOM     77  C   UNL     1      -3.292   1.269 -12.698  1.00  0.00     0.055 A 
ATOM     78  C   UNL     1      -5.132   0.802 -14.172  1.00  0.00     0.041 A 
ATOM     79  F   UNL     1      -6.938  -0.486 -13.411  1.00  0.00    -0.206 F 
ATOM     80  C   UNL     1      -3.915   1.436 -13.936  1.00  0.00     0.022 A 
BRANCH  77  81
ATOM     81  S   UNL     1      -1.749   2.163 -12.369  1.00  0.00     0.124 S 
ATOM     82  O   UNL     1      -0.985   1.929 -13.592  1.00  0.00    -0.237 OA
ATOM     83  O   UNL     1      -2.233   3.526 -12.181  1.00  0.00    -0.237 OA
ATOM     84  O   UNL     1      -1.221   1.505 -11.177  1.00  0.00    -0.744 OA
ENDBRANCH  77  81
ENDBRANCH  50  74
BRANCH  62  85
ATOM     85  C   UNL     1      -9.760  -2.477  -8.223  1.00  0.00     0.023 A 
ATOM     86  C   UNL     1     -11.005  -3.077  -7.955  1.00  0.00     0.031 A 
ATOM     87  C   UNL     1      -8.636  -3.327  -8.263  1.00  0.00     0.131 A 
ATOM     88  C   UNL     1     -11.093  -4.453  -7.700  1.00  0.00     0.055 A 
ATOM     89  C   UNL     1      -8.738  -4.710  -8.076  1.00  0.00     0.041 A 
ATOM     90  F   UNL     1      -7.397  -2.845  -8.401  1.00  0.00    -0.206 F 
ATOM     91  C   UNL     1      -9.969  -5.278  -7.775  1.00  0.00     0.022 A 
BRANCH  88  92
ATOM     92  S   UNL     1     -12.643  -5.181  -7.106  1.00  0.00     0.124 S 
ATOM     93  O   UNL     1     -12.991  -6.094  -8.192  1.00  0.00    -0.237 OA
ATOM     94  O   UNL     1     -12.228  -5.822  -5.860  1.00  0.00    -0.237 OA
ATOM     95  O   UNL     1     -13.533  -4.036  -6.944  1.00  0.00    -0.744 OA
ENDBRANCH  88  92
ENDBRANCH  62  85
ENDBRANCH  36  37
ENDBRANCH  29  31
ENDBRANCH  28  29
ENDBRANCH  27  28
ENDBRANCH   1  27
TORSDOF 18
