REMARK SMILES C[C@H]1[NH2+]CC[C@@H]1C(=O)N[C@@H](CC(=O)OCCOC(=O)c1ccc(-c2c3nc(c(-c4cc(S(=O)(=O)[O-])ccc4F)c4ccc([nH]4)c(-c4cc(S(=O)(=O)[O-])ccc4F)c4nc(c(-c5cc(S(=O)(=O)[O-])ccc5F)c5ccc2[nH]5)C=C4)C=C3)cc1)c1cccs1
REMARK SMILES IDX 15 1 14 2 12 3 13 4 11 5 10 6 9 7 7 8 8 9 6 11 1 12 2 13
REMARK SMILES IDX 3 14 4 15 5 18 83 19 84 20 87 21 85 22 86 23 16 24 17 25
REMARK SMILES IDX 18 26 19 27 20 28 21 29 82 30 22 31 81 32 23 33 24 34 25 35
REMARK SMILES IDX 75 36 26 37 80 38 74 39 76 40 27 41 79 42 73 43 72 44 28 46
REMARK SMILES IDX 60 47 40 48 59 49 41 50 44 51 58 52 77 53 42 54 43 55 57 57
REMARK SMILES IDX 78 58 45 59 29 60 30 61 38 62 31 63 37 64 39 65 36 66 32 67
REMARK SMILES IDX 33 68 34 69 35 70 61 71 62 72 70 73 63 74 69 75 71 76 68 77
REMARK SMILES IDX 64 78 65 79 66 80 67 81 46 82 47 83 55 84 48 85 54 86 56 87
REMARK SMILES IDX 53 88 49 89 50 90 51 91 52 92
REMARK H PARENT 9 10 3 16 3 17 76 45 44 56
REMARK Flexibility Score: inf
ROOT
ATOM      1  C   UNL     1      -3.864   4.274  -4.695  1.00  0.00     0.274 C 
ENDROOT
BRANCH   1   2
ATOM      2  O   UNL     1      -3.176   3.752  -3.538  1.00  0.00    -0.462 OA
BRANCH   2   3
ATOM      3  C   UNL     1      -3.082   4.622  -2.502  1.00  0.00     0.308 C 
ATOM      4  O   UNL     1      -3.442   5.795  -2.545  1.00  0.00    -0.252 OA
BRANCH   3   5
ATOM      5  C   UNL     1      -2.408   4.071  -1.277  1.00  0.00     0.153 C 
BRANCH   5   6
ATOM      6  C   UNL     1      -2.323   2.566  -1.057  1.00  0.00     0.133 C 
BRANCH   6   7
ATOM      7  N   UNL     1      -1.429   1.905  -1.991  1.00  0.00    -0.347 N 
ATOM      8  C   UNL     1      -0.429   1.004  -1.778  1.00  0.00     0.229 C 
ATOM      9  O   UNL     1       0.132   0.565  -2.785  1.00  0.00    -0.275 OA
ATOM     10  H   UNL     1      -1.569   2.147  -2.934  1.00  0.00     0.164 HD
BRANCH   8  11
ATOM     11  C   UNL     1       0.045   0.674  -0.354  1.00  0.00     0.142 C 
ATOM     12  C   UNL     1       2.280  -0.043   0.620  1.00  0.00     0.076 C 
ATOM     13  C   UNL     1       1.155  -0.400  -0.356  1.00  0.00     0.192 C 
ATOM     14  N   UNL     1       0.537  -1.678   0.070  1.00  0.00    -0.343 N 
ATOM     15  C   UNL     1      -0.894  -1.432   0.243  1.00  0.00     0.261 C 
ATOM     16  H   UNL     1       0.947  -1.988   0.951  1.00  0.00     0.346 HD
ATOM     17  H   UNL     1       0.697  -2.406  -0.627  1.00  0.00     0.346 HD
ATOM     18  C   UNL     1      -0.992   0.040   0.562  1.00  0.00     0.081 C 
ENDBRANCH   8  11
ENDBRANCH   6   7
BRANCH   6  19
ATOM     19  C   UNL     1      -3.651   1.838  -0.971  1.00  0.00     0.027 A 
ATOM     20  C   UNL     1      -4.536   1.841   0.096  1.00  0.00     0.017 A 
ATOM     21  S   UNL     1      -4.193   0.753  -2.195  1.00  0.00    -0.147 S 
ATOM     22  C   UNL     1      -5.609   0.917  -0.069  1.00  0.00     0.012 A 
ATOM     23  C   UNL     1      -5.527   0.241  -1.263  1.00  0.00     0.065 A 
ENDBRANCH   6  19
ENDBRANCH   5   6
ENDBRANCH   3   5
ENDBRANCH   2   3
ENDBRANCH   1   2
BRANCH   1  24
ATOM     24  C   UNL     1      -5.360   3.966  -4.636  1.00  0.00     0.275 C 
BRANCH  24  25
ATOM     25  O   UNL     1      -5.898   4.396  -3.376  1.00  0.00    -0.458 OA
BRANCH  25  26
ATOM     26  C   UNL     1      -6.860   3.598  -2.856  1.00  0.00     0.338 C 
ATOM     27  O   UNL     1      -7.360   2.623  -3.390  1.00  0.00    -0.246 OA
BRANCH  26  28
ATOM     28  C   UNL     1      -7.287   4.113  -1.537  1.00  0.00     0.060 A 
ATOM     29  C   UNL     1      -6.375   4.625  -0.608  1.00  0.00     0.016 A 
ATOM     30  C   UNL     1      -8.639   4.022  -1.205  1.00  0.00     0.016 A 
ATOM     31  C   UNL     1      -6.806   4.994   0.669  1.00  0.00     0.010 A 
ATOM     32  C   UNL     1      -9.079   4.459   0.045  1.00  0.00     0.010 A 
ATOM     33  C   UNL     1      -8.166   4.929   1.003  1.00  0.00    -0.014 A 
BRANCH  33  34
ATOM     34  C   UNL     1      -8.659   5.350   2.342  1.00  0.00     0.031 A 
ATOM     35  C   UNL     1      -9.325   4.351   3.249  1.00  0.00     0.074 A 
ATOM     36  C   UNL     1      -8.560   6.639   2.718  1.00  0.00     0.049 A 
ATOM     37  N   UNL     1      -9.994   4.550   4.355  1.00  0.00    -0.248 NA
ATOM     38  C   UNL     1      -9.237   2.939   2.845  1.00  0.00     0.031 C 
ATOM     39  C   UNL     1      -7.915   7.700   1.942  1.00  0.00     0.029 A 
ATOM     40  N   UNL     1      -9.021   7.283   3.839  1.00  0.00    -0.354 N 
ATOM     41  C   UNL     1     -10.437   3.297   4.766  1.00  0.00     0.074 A 
ATOM     42  C   UNL     1      -9.972   2.346   3.775  1.00  0.00     0.031 C 
ATOM     43  C   UNL     1      -8.019   8.859   2.609  1.00  0.00     0.029 A 
ATOM     44  C   UNL     1      -8.800   8.640   3.822  1.00  0.00     0.049 A 
ATOM     45  H   UNL     1      -9.467   6.818   4.584  1.00  0.00     0.167 HD
ATOM     46  C   UNL     1     -11.164   2.972   5.864  1.00  0.00     0.034 A 
ATOM     47  C   UNL     1      -9.221   9.609   4.658  1.00  0.00     0.034 A 
ATOM     48  C   UNL     1     -11.615   3.932   6.844  1.00  0.00     0.049 A 
ATOM     49  C   UNL     1     -10.077   9.235   5.837  1.00  0.00     0.074 A 
ATOM     50  C   UNL     1     -12.338   3.710   8.004  1.00  0.00     0.029 A 
ATOM     51  N   UNL     1     -11.390   5.302   6.777  1.00  0.00    -0.354 N 
ATOM     52  N   UNL     1     -10.513   8.050   6.197  1.00  0.00    -0.248 NA
ATOM     53  C   UNL     1     -10.504  10.331   6.716  1.00  0.00     0.031 C 
ATOM     54  C   UNL     1     -12.599   4.948   8.606  1.00  0.00     0.029 A 
ATOM     55  C   UNL     1     -11.983   5.938   7.858  1.00  0.00     0.049 A 
ATOM     56  H   UNL     1     -10.883   5.755   6.066  1.00  0.00     0.167 HD
ATOM     57  C   UNL     1     -11.258   8.258   7.354  1.00  0.00     0.074 A 
ATOM     58  C   UNL     1     -11.193   9.678   7.640  1.00  0.00     0.031 C 
ATOM     59  C   UNL     1     -11.933   7.358   8.113  1.00  0.00     0.034 A 
BRANCH  46  60
ATOM     60  C   UNL     1     -11.561   1.525   6.030  1.00  0.00     0.023 A 
ATOM     61  C   UNL     1     -10.609   0.514   6.248  1.00  0.00     0.031 A 
ATOM     62  C   UNL     1     -12.913   1.147   5.941  1.00  0.00     0.131 A 
ATOM     63  C   UNL     1     -11.013  -0.829   6.302  1.00  0.00     0.055 A 
ATOM     64  C   UNL     1     -13.317  -0.184   6.069  1.00  0.00     0.041 A 
ATOM     65  F   UNL     1     -13.865   2.065   5.713  1.00  0.00    -0.206 F 
ATOM     66  C   UNL     1     -12.363  -1.183   6.236  1.00  0.00     0.022 A 
BRANCH  63  67
ATOM     67  S   UNL     1      -9.737  -2.118   6.324  1.00  0.00     0.124 S 
ATOM     68  O   UNL     1      -8.996  -1.822   5.099  1.00  0.00    -0.237 OA
ATOM     69  O   UNL     1      -9.037  -1.848   7.574  1.00  0.00    -0.237 OA
ATOM     70  O   UNL     1     -10.504  -3.362   6.293  1.00  0.00    -0.744 OA
ENDBRANCH  63  67
ENDBRANCH  46  60
BRANCH  47  71
ATOM     71  C   UNL     1      -8.890  11.034   4.376  1.00  0.00     0.023 A 
ATOM     72  C   UNL     1      -8.043  11.761   5.225  1.00  0.00     0.031 A 
ATOM     73  C   UNL     1      -9.434  11.693   3.258  1.00  0.00     0.131 A 
ATOM     74  C   UNL     1      -7.785  13.114   4.959  1.00  0.00     0.055 A 
ATOM     75  C   UNL     1      -9.138  13.025   2.973  1.00  0.00     0.041 A 
ATOM     76  F   UNL     1     -10.248  11.038   2.414  1.00  0.00    -0.206 F 
ATOM     77  C   UNL     1      -8.316  13.748   3.832  1.00  0.00     0.022 A 
BRANCH  74  78
ATOM     78  S   UNL     1      -6.788  14.056   6.145  1.00  0.00     0.124 S 
ATOM     79  O   UNL     1      -7.568  13.914   7.369  1.00  0.00    -0.237 OA
ATOM     80  O   UNL     1      -5.517  13.339   6.108  1.00  0.00    -0.237 OA
ATOM     81  O   UNL     1      -6.759  15.400   5.574  1.00  0.00    -0.744 OA
ENDBRANCH  74  78
ENDBRANCH  47  71
BRANCH  59  82
ATOM     82  C   UNL     1     -12.627   7.897   9.338  1.00  0.00     0.023 A 
ATOM     83  C   UNL     1     -13.752   8.734   9.237  1.00  0.00     0.031 A 
ATOM     84  C   UNL     1     -12.131   7.601  10.619  1.00  0.00     0.131 A 
ATOM     85  C   UNL     1     -14.310   9.294  10.395  1.00  0.00     0.055 A 
ATOM     86  C   UNL     1     -12.723   8.120  11.772  1.00  0.00     0.041 A 
ATOM     87  F   UNL     1     -11.057   6.810  10.770  1.00  0.00    -0.206 F 
ATOM     88  C   UNL     1     -13.810   8.982  11.663  1.00  0.00     0.022 A 
BRANCH  85  89
ATOM     89  S   UNL     1     -15.642  10.513  10.219  1.00  0.00     0.124 S 
ATOM     90  O   UNL     1     -15.003  11.545   9.408  1.00  0.00    -0.237 OA
ATOM     91  O   UNL     1     -16.688   9.739   9.558  1.00  0.00    -0.237 OA
ATOM     92  O   UNL     1     -15.936  10.902  11.597  1.00  0.00    -0.744 OA
ENDBRANCH  85  89
ENDBRANCH  59  82
ENDBRANCH  33  34
ENDBRANCH  26  28
ENDBRANCH  25  26
ENDBRANCH  24  25
ENDBRANCH   1  24
TORSDOF 18
