REMARK SMILES O=C(OCCOC(=O)c1noc(-c2ccccc2Cl)n1)c1ccc(-c2c3nc(c(-c4cc(S(=O)(=O)[O-])ccc4F)c4ccc([nH]4)c(-c4cc(S(=O)(=O)[O-])ccc4F)c4nc(c(-c5cc(S(=O)(=O)[O-])ccc5F)c5ccc2[nH]5)C=C4)C=C3)cc1
REMARK SMILES IDX 4 1 3 2 2 3 1 4 21 5 22 6 83 7 23 8 82 9 24 10 25 11 26 12
REMARK SMILES IDX 76 13 27 14 81 15 75 16 77 17 28 18 80 19 74 20 73 21 29 23
REMARK SMILES IDX 61 24 41 25 60 26 42 27 45 28 59 29 78 30 43 31 44 32 58 34
REMARK SMILES IDX 79 35 46 36 30 37 31 38 39 39 32 40 38 41 40 42 37 43 33 44
REMARK SMILES IDX 34 45 35 46 36 47 62 48 63 49 71 50 64 51 70 52 72 53 69 54
REMARK SMILES IDX 65 55 66 56 67 57 68 58 47 59 48 60 56 61 49 62 55 63 57 64
REMARK SMILES IDX 54 65 50 66 51 67 52 68 53 69 5 70 6 71 7 72 8 73 9 74 10 75
REMARK SMILES IDX 20 76 11 77 12 78 13 79 14 80 18 81 15 82 17 83 19 84 16 85
REMARK H PARENT 77 22 45 33
REMARK Flexibility Score: inf
ROOT
ATOM      1  C   UNL     1       4.005  -1.121  -1.147  1.00  0.00     0.275 C 
ENDROOT
BRANCH   1   2
ATOM      2  O   UNL     1       2.861  -1.104  -0.275  1.00  0.00    -0.458 OA
BRANCH   2   3
ATOM      3  C   UNL     1       2.709  -0.472   0.915  1.00  0.00     0.338 C 
ATOM      4  O   UNL     1       1.837  -0.860   1.690  1.00  0.00    -0.246 OA
BRANCH   3   5
ATOM      5  C   UNL     1       3.422   0.799   1.244  1.00  0.00     0.060 A 
ATOM      6  C   UNL     1       4.773   1.052   1.000  1.00  0.00     0.016 A 
ATOM      7  C   UNL     1       2.673   1.783   1.919  1.00  0.00     0.016 A 
ATOM      8  C   UNL     1       5.353   2.268   1.369  1.00  0.00     0.010 A 
ATOM      9  C   UNL     1       3.256   2.992   2.313  1.00  0.00     0.010 A 
ATOM     10  C   UNL     1       4.607   3.237   2.044  1.00  0.00    -0.014 A 
BRANCH  10  11
ATOM     11  C   UNL     1       5.316   4.404   2.618  1.00  0.00     0.031 A 
ATOM     12  C   UNL     1       5.772   4.326   4.048  1.00  0.00     0.074 A 
ATOM     13  C   UNL     1       5.630   5.465   1.853  1.00  0.00     0.049 A 
ATOM     14  N   UNL     1       6.513   5.159   4.729  1.00  0.00    -0.248 NA
ATOM     15  C   UNL     1       5.348   3.136   4.801  1.00  0.00     0.031 C 
ATOM     16  C   UNL     1       5.295   5.617   0.438  1.00  0.00     0.029 A 
ATOM     17  N   UNL     1       6.309   6.616   2.160  1.00  0.00    -0.354 N 
ATOM     18  C   UNL     1       6.689   4.569   5.976  1.00  0.00     0.074 A 
ATOM     19  C   UNL     1       5.909   3.350   5.980  1.00  0.00     0.031 C 
ATOM     20  C   UNL     1       5.742   6.809   0.005  1.00  0.00     0.029 A 
ATOM     21  C   UNL     1       6.408   7.497   1.108  1.00  0.00     0.049 A 
ATOM     22  H   UNL     1       6.690   6.795   3.050  1.00  0.00     0.167 HD
ATOM     23  C   UNL     1       7.456   4.990   7.012  1.00  0.00     0.034 A 
ATOM     24  C   UNL     1       6.976   8.717   1.048  1.00  0.00     0.034 A 
ATOM     25  C   UNL     1       8.177   6.238   7.011  1.00  0.00     0.049 A 
ATOM     26  C   UNL     1       7.692   9.241   2.265  1.00  0.00     0.074 A 
ATOM     27  C   UNL     1       8.960   6.790   8.009  1.00  0.00     0.029 A 
ATOM     28  N   UNL     1       8.179   7.146   5.958  1.00  0.00    -0.354 N 
ATOM     29  N   UNL     1       7.868   8.665   3.432  1.00  0.00    -0.248 NA
ATOM     30  C   UNL     1       8.306  10.568   2.145  1.00  0.00     0.031 C 
ATOM     31  C   UNL     1       9.381   8.058   7.584  1.00  0.00     0.029 A 
ATOM     32  C   UNL     1       8.918   8.268   6.294  1.00  0.00     0.049 A 
ATOM     33  H   UNL     1       7.721   7.011   5.097  1.00  0.00     0.167 HD
ATOM     34  C   UNL     1       8.655   9.542   4.172  1.00  0.00     0.074 A 
ATOM     35  C   UNL     1       8.909  10.688   3.320  1.00  0.00     0.031 C 
ATOM     36  C   UNL     1       9.144   9.405   5.431  1.00  0.00     0.034 A 
BRANCH  23  37
ATOM     37  C   UNL     1       7.489   4.099   8.230  1.00  0.00     0.023 A 
ATOM     38  C   UNL     1       8.014   2.794   8.168  1.00  0.00     0.031 A 
ATOM     39  C   UNL     1       6.905   4.516   9.438  1.00  0.00     0.131 A 
ATOM     40  C   UNL     1       7.858   1.923   9.256  1.00  0.00     0.055 A 
ATOM     41  C   UNL     1       6.825   3.669  10.546  1.00  0.00     0.041 A 
ATOM     42  F   UNL     1       6.367   5.740   9.550  1.00  0.00    -0.206 F 
ATOM     43  C   UNL     1       7.285   2.358  10.453  1.00  0.00     0.022 A 
BRANCH  40  44
ATOM     44  S   UNL     1       8.252   0.166   9.023  1.00  0.00     0.124 S 
ATOM     45  O   UNL     1       7.396  -0.182   7.891  1.00  0.00    -0.237 OA
ATOM     46  O   UNL     1       9.685   0.198   8.753  1.00  0.00    -0.237 OA
ATOM     47  O   UNL     1       7.869  -0.443  10.295  1.00  0.00    -0.744 OA
ENDBRANCH  40  44
ENDBRANCH  23  37
BRANCH  24  48
ATOM     48  C   UNL     1       6.870   9.544  -0.186  1.00  0.00     0.023 A 
ATOM     49  C   UNL     1       7.983   9.833  -0.987  1.00  0.00     0.031 A 
ATOM     50  C   UNL     1       5.634  10.109  -0.544  1.00  0.00     0.131 A 
ATOM     51  C   UNL     1       7.840  10.684  -2.096  1.00  0.00     0.055 A 
ATOM     52  C   UNL     1       5.485  10.912  -1.675  1.00  0.00     0.041 A 
ATOM     53  F   UNL     1       4.555   9.902   0.223  1.00  0.00    -0.206 F 
ATOM     54  C   UNL     1       6.596  11.210  -2.455  1.00  0.00     0.022 A 
BRANCH  51  55
ATOM     55  S   UNL     1       9.322  11.160  -3.030  1.00  0.00     0.124 S 
ATOM     56  O   UNL     1      10.117  11.825  -2.005  1.00  0.00    -0.237 OA
ATOM     57  O   UNL     1       9.817   9.868  -3.491  1.00  0.00    -0.237 OA
ATOM     58  O   UNL     1       8.797  12.034  -4.078  1.00  0.00    -0.744 OA
ENDBRANCH  51  55
ENDBRANCH  24  48
BRANCH  36  59
ATOM     59  C   UNL     1      10.049  10.504   5.926  1.00  0.00     0.023 A 
ATOM     60  C   UNL     1       9.566  11.795   6.197  1.00  0.00     0.031 A 
ATOM     61  C   UNL     1      11.423  10.257   6.097  1.00  0.00     0.131 A 
ATOM     62  C   UNL     1      10.462  12.809   6.567  1.00  0.00     0.055 A 
ATOM     63  C   UNL     1      12.300  11.255   6.521  1.00  0.00     0.041 A 
ATOM     64  F   UNL     1      11.934   9.041   5.848  1.00  0.00    -0.206 F 
ATOM     65  C   UNL     1      11.823  12.544   6.745  1.00  0.00     0.022 A 
BRANCH  62  66
ATOM     66  S   UNL     1       9.839  14.506   6.717  1.00  0.00     0.124 S 
ATOM     67  O   UNL     1       9.286  14.744   5.387  1.00  0.00    -0.237 OA
ATOM     68  O   UNL     1       8.867  14.387   7.799  1.00  0.00    -0.237 OA
ATOM     69  O   UNL     1      11.034  15.283   7.040  1.00  0.00    -0.744 OA
ENDBRANCH  62  66
ENDBRANCH  36  59
ENDBRANCH  10  11
ENDBRANCH   3   5
ENDBRANCH   2   3
ENDBRANCH   1   2
BRANCH   1  70
ATOM     70  C   UNL     1       3.943  -0.103  -2.288  1.00  0.00     0.275 C 
BRANCH  70  71
ATOM     71  O   UNL     1       3.492   1.190  -1.866  1.00  0.00    -0.456 OA
BRANCH  71  72
ATOM     72  C   UNL     1       2.134   1.381  -1.934  1.00  0.00     0.380 C 
ATOM     73  O   UNL     1       1.357   0.553  -2.406  1.00  0.00    -0.242 OA
BRANCH  72  74
ATOM     74  C   UNL     1       1.705   2.644  -1.328  1.00  0.00     0.281 A 
ATOM     75  N   UNL     1       0.487   2.775  -0.770  1.00  0.00    -0.049 NA
ATOM     76  N   UNL     1       2.481   3.789  -1.253  1.00  0.00    -0.181 NA
ATOM     77  O   UNL     1       0.477   4.085  -0.303  1.00  0.00    -0.333 OA
ATOM     78  C   UNL     1       1.675   4.635  -0.649  1.00  0.00     0.259 A 
BRANCH  78  79
ATOM     79  C   UNL     1       1.798   6.053  -0.378  1.00  0.00     0.058 A 
ATOM     80  C   UNL     1       1.882   6.502   0.951  1.00  0.00     0.015 A 
ATOM     81  C   UNL     1       1.786   7.000  -1.413  1.00  0.00     0.053 A 
ATOM     82  C   UNL     1       1.945   7.866   1.238  1.00  0.00     0.001 A 
ATOM     83  C   UNL     1       1.834   8.366  -1.121  1.00  0.00     0.021 A 
ATOM     84  Cl  UNL     1       1.662   6.543  -3.078  1.00  0.00    -0.083 Cl
ATOM     85  C   UNL     1       1.905   8.796   0.203  1.00  0.00     0.002 A 
ENDBRANCH  78  79
ENDBRANCH  72  74
ENDBRANCH  71  72
ENDBRANCH  70  71
ENDBRANCH   1  70
TORSDOF 15
