REMARK SMILES Cc1cc(=O)c(Oc2ccc(C(=O)OCCOC(=O)c3ccc(-c4c5nc(c(-c6cc(S(=O)(=O)[O-])ccc6F)c6ccc([nH]6)c(-c6cc(S(=O)(=O)[O-])ccc6F)c6nc(c(-c7cc(S(=O)(=O)[O-])ccc7F)c7ccc4[nH]7)C=C6)C=C5)cc3)cc2)c(-c2ccc(S(C)(=O)=O)cc2)o1
REMARK SMILES IDX 15 1 14 2 12 3 13 4 11 5 8 6 9 7 84 8 10 9 83 10 7 11 6 12
REMARK SMILES IDX 1 13 2 14 3 15 96 16 4 17 85 18 5 19 86 20 87 21 95 22 88 23
REMARK SMILES IDX 94 24 89 25 90 26 91 27 92 28 93 29 16 30 17 31 18 32 19 33
REMARK SMILES IDX 20 34 21 35 82 36 22 37 81 38 23 39 24 40 25 41 75 42 26 43
REMARK SMILES IDX 80 44 74 45 76 46 27 47 79 48 73 49 72 50 28 52 60 53 40 54
REMARK SMILES IDX 59 55 41 56 44 57 58 58 77 59 42 60 43 61 57 63 78 64 45 65
REMARK SMILES IDX 29 66 30 67 38 68 31 69 37 70 39 71 36 72 32 73 33 74 34 75
REMARK SMILES IDX 35 76 61 77 62 78 70 79 63 80 69 81 71 82 68 83 64 84 65 85
REMARK SMILES IDX 66 86 67 87 46 88 47 89 55 90 48 91 54 92 56 93 53 94 49 95
REMARK SMILES IDX 50 96 51 97 52 98
REMARK H PARENT 76 51 44 62
REMARK Flexibility Score: inf
ROOT
ATOM      1  C   UNL     1      -2.433   7.356  -8.678  1.00  0.00     0.275 C 
ENDROOT
BRANCH   1   2
ATOM      2  O   UNL     1      -2.545   5.963  -8.321  1.00  0.00    -0.458 OA
BRANCH   2   3
ATOM      3  C   UNL     1      -1.513   5.156  -8.683  1.00  0.00     0.338 C 
ATOM      4  O   UNL     1      -0.592   5.457  -9.427  1.00  0.00    -0.246 OA
BRANCH   3   5
ATOM      5  C   UNL     1      -1.560   3.881  -7.912  1.00  0.00     0.060 A 
ATOM      6  C   UNL     1      -1.479   1.725  -6.132  1.00  0.00     0.127 A 
ATOM      7  C   UNL     1      -0.303   2.148  -6.743  1.00  0.00     0.048 A 
ATOM      8  C   UNL     1      -2.704   2.293  -6.498  1.00  0.00     0.048 A 
ATOM      9  C   UNL     1      -0.352   3.211  -7.654  1.00  0.00     0.019 A 
ATOM     10  C   UNL     1      -2.746   3.389  -7.361  1.00  0.00     0.019 A 
BRANCH   6  11
ATOM     11  O   UNL     1      -1.540   0.691  -5.239  1.00  0.00    -0.449 OA
BRANCH  11  12
ATOM     12  C   UNL     1      -0.744   0.630  -4.106  1.00  0.00     0.217 A 
ATOM     13  C   UNL     1       1.056   0.027  -0.228  1.00  0.00     0.088 C 
ATOM     14  C   UNL     1       0.504   0.097  -1.617  1.00  0.00     0.105 A 
ATOM     15  C   UNL     1       0.137  -0.974  -2.324  1.00  0.00     0.098 A 
ATOM     16  O   UNL     1       0.376   1.377  -2.104  1.00  0.00    -0.457 OA
ATOM     17  C   UNL     1      -0.449  -0.772  -3.659  1.00  0.00     0.228 A 
ATOM     18  C   UNL     1      -0.337   1.624  -3.276  1.00  0.00     0.180 A 
ATOM     19  O   UNL     1      -0.733  -1.751  -4.344  1.00  0.00    -0.285 OA
BRANCH  18  20
ATOM     20  C   UNL     1      -0.621   3.073  -3.364  1.00  0.00     0.021 A 
ATOM     21  C   UNL     1       0.427   3.990  -3.162  1.00  0.00     0.013 A 
ATOM     22  C   UNL     1      -1.931   3.562  -3.432  1.00  0.00     0.013 A 
ATOM     23  C   UNL     1       0.173   5.357  -3.004  1.00  0.00     0.021 A 
ATOM     24  C   UNL     1      -2.191   4.931  -3.297  1.00  0.00     0.021 A 
ATOM     25  C   UNL     1      -1.140   5.824  -3.062  1.00  0.00     0.067 A 
BRANCH  25  26
ATOM     26  S   UNL     1      -1.518   7.536  -2.751  1.00  0.00     0.175 S 
ATOM     27  C   UNL     1      -0.438   8.034  -1.440  1.00  0.00     0.163 C 
ATOM     28  O   UNL     1      -1.161   8.317  -3.920  1.00  0.00    -0.224 OA
ATOM     29  O   UNL     1      -2.871   7.591  -2.223  1.00  0.00    -0.224 OA
ENDBRANCH  25  26
ENDBRANCH  18  20
ENDBRANCH  11  12
ENDBRANCH   6  11
ENDBRANCH   3   5
ENDBRANCH   2   3
ENDBRANCH   1   2
BRANCH   1  30
ATOM     30  C   UNL     1      -1.991   8.231  -7.492  1.00  0.00     0.275 C 
BRANCH  30  31
ATOM     31  O   UNL     1      -0.587   8.121  -7.183  1.00  0.00    -0.458 OA
BRANCH  31  32
ATOM     32  C   UNL     1      -0.294   7.079  -6.374  1.00  0.00     0.338 C 
ATOM     33  O   UNL     1      -1.069   6.205  -6.016  1.00  0.00    -0.246 OA
BRANCH  32  34
ATOM     34  C   UNL     1       1.124   7.041  -5.974  1.00  0.00     0.060 A 
ATOM     35  C   UNL     1       1.765   8.117  -5.356  1.00  0.00     0.016 A 
ATOM     36  C   UNL     1       1.768   5.807  -6.076  1.00  0.00     0.016 A 
ATOM     37  C   UNL     1       3.069   7.954  -4.866  1.00  0.00     0.010 A 
ATOM     38  C   UNL     1       3.051   5.636  -5.575  1.00  0.00     0.010 A 
ATOM     39  C   UNL     1       3.723   6.717  -4.993  1.00  0.00    -0.014 A 
BRANCH  39  40
ATOM     40  C   UNL     1       5.157   6.547  -4.664  1.00  0.00     0.031 A 
ATOM     41  C   UNL     1       6.135   6.449  -5.803  1.00  0.00     0.074 A 
ATOM     42  C   UNL     1       5.568   6.395  -3.392  1.00  0.00     0.049 A 
ATOM     43  N   UNL     1       7.425   6.250  -5.772  1.00  0.00    -0.248 NA
ATOM     44  C   UNL     1       5.575   6.557  -7.162  1.00  0.00     0.031 C 
ATOM     45  C   UNL     1       4.695   6.406  -2.220  1.00  0.00     0.029 A 
ATOM     46  N   UNL     1       6.822   6.188  -2.874  1.00  0.00    -0.354 N 
ATOM     47  C   UNL     1       7.827   6.209  -7.102  1.00  0.00     0.074 A 
ATOM     48  C   UNL     1       6.638   6.320  -7.912  1.00  0.00     0.031 C 
ATOM     49  C   UNL     1       5.443   6.232  -1.117  1.00  0.00     0.029 A 
ATOM     50  C   UNL     1       6.847   6.080  -1.502  1.00  0.00     0.049 A 
ATOM     51  H   UNL     1       7.630   6.123  -3.432  1.00  0.00     0.167 HD
ATOM     52  C   UNL     1       9.082   6.130  -7.603  1.00  0.00     0.034 A 
ATOM     53  C   UNL     1       7.886   5.894  -0.660  1.00  0.00     0.034 A 
ATOM     54  C   UNL     1      10.255   6.036  -6.779  1.00  0.00     0.049 A 
ATOM     55  C   UNL     1       9.283   5.824  -1.235  1.00  0.00     0.074 A 
ATOM     56  C   UNL     1      11.578   5.990  -7.176  1.00  0.00     0.029 A 
ATOM     57  N   UNL     1      10.246   5.984  -5.392  1.00  0.00    -0.354 N 
ATOM     58  N   UNL     1       9.662   5.894  -2.491  1.00  0.00    -0.248 NA
ATOM     59  C   UNL     1      10.397   5.673  -0.288  1.00  0.00     0.031 C 
ATOM     60  C   UNL     1      12.366   5.863  -6.032  1.00  0.00     0.029 A 
ATOM     61  C   UNL     1      11.541   5.897  -4.917  1.00  0.00     0.049 A 
ATOM     62  H   UNL     1       9.438   6.005  -4.830  1.00  0.00     0.167 HD
ATOM     63  C   UNL     1      11.054   5.830  -2.481  1.00  0.00     0.074 A 
ATOM     64  C   UNL     1      11.452   5.736  -1.092  1.00  0.00     0.031 C 
ATOM     65  C   UNL     1      11.922   5.844  -3.524  1.00  0.00     0.034 A 
BRANCH  52  66
ATOM     66  C   UNL     1       9.255   6.184  -9.100  1.00  0.00     0.023 A 
ATOM     67  C   UNL     1       9.827   5.101  -9.790  1.00  0.00     0.031 A 
ATOM     68  C   UNL     1       8.930   7.343  -9.830  1.00  0.00     0.131 A 
ATOM     69  C   UNL     1      10.072   5.207 -11.165  1.00  0.00     0.055 A 
ATOM     70  C   UNL     1       9.131   7.424 -11.207  1.00  0.00     0.041 A 
ATOM     71  F   UNL     1       8.383   8.405  -9.215  1.00  0.00    -0.206 F 
ATOM     72  C   UNL     1       9.714   6.356 -11.879  1.00  0.00     0.022 A 
BRANCH  69  73
ATOM     73  S   UNL     1      10.905   3.879 -12.076  1.00  0.00     0.124 S 
ATOM     74  O   UNL     1       9.925   3.563 -13.112  1.00  0.00    -0.237 OA
ATOM     75  O   UNL     1      12.116   4.547 -12.545  1.00  0.00    -0.237 OA
ATOM     76  O   UNL     1      11.106   2.838 -11.073  1.00  0.00    -0.744 OA
ENDBRANCH  69  73
ENDBRANCH  52  66
BRANCH  53  77
ATOM     77  C   UNL     1       7.641   5.866   0.814  1.00  0.00     0.023 A 
ATOM     78  C   UNL     1       6.848   4.867   1.407  1.00  0.00     0.031 A 
ATOM     79  C   UNL     1       8.123   6.899   1.638  1.00  0.00     0.131 A 
ATOM     80  C   UNL     1       6.517   4.954   2.768  1.00  0.00     0.055 A 
ATOM     81  C   UNL     1       7.848   6.944   3.007  1.00  0.00     0.041 A 
ATOM     82  F   UNL     1       8.869   7.886   1.118  1.00  0.00    -0.206 F 
ATOM     83  C   UNL     1       7.028   5.975   3.575  1.00  0.00     0.022 A 
BRANCH  80  84
ATOM     84  S   UNL     1       5.313   3.816   3.509  1.00  0.00     0.124 S 
ATOM     85  O   UNL     1       6.096   3.185   4.566  1.00  0.00    -0.237 OA
ATOM     86  O   UNL     1       4.271   4.737   3.958  1.00  0.00    -0.237 OA
ATOM     87  O   UNL     1       4.931   2.947   2.400  1.00  0.00    -0.744 OA
ENDBRANCH  80  84
ENDBRANCH  53  77
BRANCH  65  88
ATOM     88  C   UNL     1      13.405   5.777  -3.246  1.00  0.00     0.023 A 
ATOM     89  C   UNL     1      14.236   6.841  -3.649  1.00  0.00     0.031 A 
ATOM     90  C   UNL     1      14.009   4.597  -2.784  1.00  0.00     0.131 A 
ATOM     91  C   UNL     1      15.627   6.680  -3.639  1.00  0.00     0.055 A 
ATOM     92  C   UNL     1      15.396   4.460  -2.727  1.00  0.00     0.041 A 
ATOM     93  F   UNL     1      13.258   3.551  -2.403  1.00  0.00    -0.206 F 
ATOM     94  C   UNL     1      16.211   5.497  -3.174  1.00  0.00     0.022 A 
BRANCH  91  95
ATOM     95  S   UNL     1      16.720   7.948  -4.337  1.00  0.00     0.124 S 
ATOM     96  O   UNL     1      17.535   8.313  -3.180  1.00  0.00    -0.237 OA
ATOM     97  O   UNL     1      17.420   7.208  -5.384  1.00  0.00    -0.237 OA
ATOM     98  O   UNL     1      15.806   8.984  -4.805  1.00  0.00    -0.744 OA
ENDBRANCH  91  95
ENDBRANCH  65  88
ENDBRANCH  39  40
ENDBRANCH  32  34
ENDBRANCH  31  32
ENDBRANCH  30  31
ENDBRANCH   1  30
TORSDOF 18
