REMARK SMILES Cc1ccc(NC(=O)c2ccccc2NC(=O)[C@H]2CCCC[C@H]2C(=O)OCCOC(=O)c2ccc(-c3c4nc(c(-c5cc(S(=O)(=O)[O-])ccc5F)c5ccc([nH]5)c(-c5cc(S(=O)(=O)[O-])ccc5F)c5nc(c(-c6cc(S(=O)(=O)[O-])ccc6F)c6ccc3[nH]6)C=C5)C=C4)cc2)cc1
REMARK SMILES IDX 27 1 26 2 24 3 25 4 23 5 18 6 19 7 20 8 22 9 21 10 16 11
REMARK SMILES IDX 15 12 17 14 14 15 9 16 10 17 11 18 13 19 12 20 7 21 6 22
REMARK SMILES IDX 8 24 5 25 1 26 2 27 3 28 96 29 4 30 95 31 28 32 29 33 30 34
REMARK SMILES IDX 31 35 32 36 33 37 94 38 34 39 93 40 35 41 36 42 37 43 87 44
REMARK SMILES IDX 38 45 92 46 86 47 88 48 39 49 91 50 85 51 84 52 40 54 72 55
REMARK SMILES IDX 52 56 71 57 53 58 56 59 70 60 89 61 54 62 55 63 69 65 90 66
REMARK SMILES IDX 57 67 41 68 42 69 50 70 43 71 49 72 51 73 48 74 44 75 45 76
REMARK SMILES IDX 46 77 47 78 73 79 74 80 82 81 75 82 81 83 83 84 80 85 76 86
REMARK SMILES IDX 77 87 78 88 79 89 58 90 59 91 67 92 60 93 66 94 68 95 65 96
REMARK SMILES IDX 61 97 62 98 63 99 64 100
REMARK H PARENT 15 13 6 23 88 53 56 64
REMARK Flexibility Score: inf
ROOT
ATOM      1  C   UNL     1      -0.926   2.356   7.011  1.00  0.00     0.274 C 
ENDROOT
BRANCH   1   2
ATOM      2  O   UNL     1      -0.738   0.932   6.949  1.00  0.00    -0.462 OA
BRANCH   2   3
ATOM      3  C   UNL     1      -1.762   0.175   6.238  1.00  0.00     0.309 C 
ATOM      4  O   UNL     1      -2.822   0.816   6.469  1.00  0.00    -0.252 OA
BRANCH   3   5
ATOM      5  C   UNL     1      -1.380  -1.657   5.075  1.00  0.00     0.111 C 
ATOM      6  C   UNL     1      -0.280  -1.992   3.715  1.00  0.00     0.093 C 
ATOM      7  C   UNL     1      -0.364  -3.353   2.991  1.00  0.00     0.014 C 
ATOM      8  C   UNL     1      -0.237  -4.550   3.901  1.00  0.00     0.001 C 
ATOM      9  C   UNL     1      -1.597  -3.385   5.642  1.00  0.00     0.016 C 
ATOM     10  C   UNL     1      -1.487  -4.592   4.722  1.00  0.00     0.001 C 
BRANCH   6  11
ATOM     11  C   UNL     1       1.207  -1.785   3.926  1.00  0.00     0.228 C 
ATOM     12  N   UNL     1       1.877  -0.781   3.291  1.00  0.00    -0.325 N 
ATOM     13  H   UNL     1       2.779  -0.670   3.671  1.00  0.00     0.169 HD
ATOM     14  O   UNL     1       1.820  -2.432   4.782  1.00  0.00    -0.274 OA
BRANCH  12  15
ATOM     15  C   UNL     1       1.658   0.147   2.249  1.00  0.00     0.054 A 
ATOM     16  C   UNL     1       2.537   1.253   2.115  1.00  0.00     0.063 A 
ATOM     17  C   UNL     1       2.182   2.303   1.236  1.00  0.00     0.016 A 
ATOM     18  C   UNL     1       1.024   2.250   0.467  1.00  0.00     0.001 A 
ATOM     19  C   UNL     1       0.578   0.057   1.361  1.00  0.00     0.027 A 
ATOM     20  C   UNL     1       0.238   1.113   0.509  1.00  0.00     0.002 A 
BRANCH  16  21
ATOM     21  C   UNL     1       3.759   1.533   2.942  1.00  0.00     0.257 C 
ATOM     22  N   UNL     1       4.594   0.587   3.502  1.00  0.00    -0.322 N 
ATOM     23  H   UNL     1       5.186   0.961   4.194  1.00  0.00     0.170 HD
ATOM     24  O   UNL     1       4.005   2.712   3.222  1.00  0.00    -0.269 OA
BRANCH  22  25
ATOM     25  C   UNL     1       4.787  -0.790   3.303  1.00  0.00     0.041 A 
ATOM     26  C   UNL     1       4.009  -5.003   3.401  1.00  0.00     0.044 C 
ATOM     27  C   UNL     1       4.452  -3.571   3.321  1.00  0.00    -0.051 A 
ATOM     28  C   UNL     1       4.262  -2.840   2.140  1.00  0.00     0.005 A 
ATOM     29  C   UNL     1       4.930  -2.913   4.459  1.00  0.00     0.005 A 
ATOM     30  C   UNL     1       4.448  -1.452   2.124  1.00  0.00     0.026 A 
ATOM     31  C   UNL     1       5.120  -1.530   4.444  1.00  0.00     0.026 A 
ENDBRANCH  22  25
ENDBRANCH  16  21
ENDBRANCH  12  15
ENDBRANCH   6  11
ENDBRANCH   3   5
ENDBRANCH   2   3
ENDBRANCH   1   2
BRANCH   1  32
ATOM     32  C   UNL     1      -0.449   2.979   5.695  1.00  0.00     0.275 C 
BRANCH  32  33
ATOM     33  O   UNL     1      -1.244   2.823   4.467  1.00  0.00    -0.458 OA
BRANCH  33  34
ATOM     34  C   UNL     1      -1.594   1.772   3.683  1.00  0.00     0.338 C 
ATOM     35  O   UNL     1      -2.011   1.891   2.537  1.00  0.00    -0.246 OA
BRANCH  34  36
ATOM     36  C   UNL     1      -1.519   0.405   4.229  1.00  0.00     0.060 A 
ATOM     37  C   UNL     1      -3.082  -0.343   4.692  1.00  0.00     0.016 A 
ATOM     38  C   UNL     1      -0.026   0.014   5.120  1.00  0.00     0.016 A 
ATOM     39  C   UNL     1      -3.150  -1.354   6.205  1.00  0.00     0.010 A 
ATOM     40  C   UNL     1      -0.060  -1.053   6.563  1.00  0.00     0.010 A 
ATOM     41  C   UNL     1      -1.645  -1.604   7.189  1.00  0.00    -0.014 A 
BRANCH  41  42
ATOM     42  C   UNL     1      -1.607  -1.768   8.630  1.00  0.00     0.031 A 
ATOM     43  C   UNL     1      -0.840  -2.898   9.180  1.00  0.00     0.074 A 
ATOM     44  C   UNL     1      -2.121  -0.766   9.376  1.00  0.00     0.049 A 
ATOM     45  N   UNL     1      -1.219  -3.581  10.201  1.00  0.00    -0.248 NA
ATOM     46  C   UNL     1       0.355  -3.466   8.544  1.00  0.00     0.031 C 
ATOM     47  C   UNL     1      -2.011  -0.548  10.810  1.00  0.00     0.029 A 
ATOM     48  N   UNL     1      -2.992   0.246   8.986  1.00  0.00    -0.354 N 
ATOM     49  C   UNL     1      -0.153  -4.387  10.548  1.00  0.00     0.074 A 
ATOM     50  C   UNL     1       0.644  -4.476   9.363  1.00  0.00     0.031 C 
ATOM     51  C   UNL     1      -3.020   0.262  11.195  1.00  0.00     0.029 A 
ATOM     52  C   UNL     1      -3.861   0.512  10.030  1.00  0.00     0.049 A 
ATOM     53  H   UNL     1      -2.992   0.698   8.111  1.00  0.00     0.167 HD
ATOM     54  C   UNL     1       0.071  -4.662  11.862  1.00  0.00     0.034 A 
ATOM     55  C   UNL     1      -5.194   0.246   9.902  1.00  0.00     0.034 A 
ATOM     56  C   UNL     1      -0.977  -4.033  12.672  1.00  0.00     0.049 A 
ATOM     57  C   UNL     1      -5.557  -0.928  10.791  1.00  0.00     0.074 A 
ATOM     58  C   UNL     1      -1.010  -2.864  13.416  1.00  0.00     0.029 A 
ATOM     59  N   UNL     1      -2.301  -4.395  12.457  1.00  0.00    -0.354 N 
ATOM     60  N   UNL     1      -4.681  -1.768  11.281  1.00  0.00    -0.248 NA
ATOM     61  C   UNL     1      -6.911  -1.215  11.241  1.00  0.00     0.031 C 
ATOM     62  C   UNL     1      -2.376  -2.482  13.560  1.00  0.00     0.029 A 
ATOM     63  C   UNL     1      -3.168  -3.433  12.937  1.00  0.00     0.049 A 
ATOM     64  H   UNL     1      -2.584  -5.230  12.020  1.00  0.00     0.167 HD
ATOM     65  C   UNL     1      -5.297  -2.650  12.126  1.00  0.00     0.074 A 
ATOM     66  C   UNL     1      -6.697  -2.256  12.066  1.00  0.00     0.031 C 
ATOM     67  C   UNL     1      -4.608  -3.622  12.806  1.00  0.00     0.034 A 
BRANCH  54  68
ATOM     68  C   UNL     1       1.375  -5.182  12.442  1.00  0.00     0.023 A 
ATOM     69  C   UNL     1       1.605  -5.009  13.823  1.00  0.00     0.031 A 
ATOM     70  C   UNL     1       2.428  -5.815  11.745  1.00  0.00     0.131 A 
ATOM     71  C   UNL     1       2.822  -5.381  14.426  1.00  0.00     0.055 A 
ATOM     72  C   UNL     1       3.653  -6.156  12.336  1.00  0.00     0.041 A 
ATOM     73  F   UNL     1       2.324  -6.192  10.467  1.00  0.00    -0.206 F 
ATOM     74  C   UNL     1       3.859  -5.937  13.685  1.00  0.00     0.022 A 
BRANCH  71  75
ATOM     75  S   UNL     1       3.026  -5.137  16.209  1.00  0.00     0.124 S 
ATOM     76  O   UNL     1       2.967  -3.684  16.326  1.00  0.00    -0.237 OA
ATOM     77  O   UNL     1       1.895  -5.878  16.754  1.00  0.00    -0.237 OA
ATOM     78  O   UNL     1       4.337  -5.725  16.483  1.00  0.00    -0.744 OA
ENDBRANCH  71  75
ENDBRANCH  54  68
BRANCH  55  79
ATOM     79  C   UNL     1      -5.793   0.588   8.565  1.00  0.00     0.023 A 
ATOM     80  C   UNL     1      -5.617   1.914   8.098  1.00  0.00     0.031 A 
ATOM     81  C   UNL     1      -6.229  -0.359   7.627  1.00  0.00     0.131 A 
ATOM     82  C   UNL     1      -5.723   2.226   6.732  1.00  0.00     0.055 A 
ATOM     83  C   UNL     1      -6.379  -0.035   6.264  1.00  0.00     0.041 A 
ATOM     84  F   UNL     1      -6.376  -1.647   7.972  1.00  0.00    -0.206 F 
ATOM     85  C   UNL     1      -6.089   1.251   5.806  1.00  0.00     0.022 A 
BRANCH  82  86
ATOM     86  S   UNL     1      -5.142   3.849   6.139  1.00  0.00     0.124 S 
ATOM     87  O   UNL     1      -6.358   4.651   6.233  1.00  0.00    -0.237 OA
ATOM     88  O   UNL     1      -4.084   4.202   7.082  1.00  0.00    -0.237 OA
ATOM     89  O   UNL     1      -4.688   3.566   4.780  1.00  0.00    -0.744 OA
ENDBRANCH  82  86
ENDBRANCH  55  79
BRANCH  67  90
ATOM     90  C   UNL     1      -5.240  -4.822  13.479  1.00  0.00     0.023 A 
ATOM     91  C   UNL     1      -6.577  -5.177  13.280  1.00  0.00     0.031 A 
ATOM     92  C   UNL     1      -4.492  -5.713  14.291  1.00  0.00     0.131 A 
ATOM     93  C   UNL     1      -7.152  -6.262  13.957  1.00  0.00     0.055 A 
ATOM     94  C   UNL     1      -5.034  -6.869  14.857  1.00  0.00     0.041 A 
ATOM     95  F   UNL     1      -3.197  -5.513  14.571  1.00  0.00    -0.206 F 
ATOM     96  C   UNL     1      -6.384  -7.135  14.718  1.00  0.00     0.022 A 
BRANCH  93  97
ATOM     97  S   UNL     1      -8.952  -6.407  13.911  1.00  0.00     0.124 S 
ATOM     98  O   UNL     1      -9.366  -5.146  14.521  1.00  0.00    -0.237 OA
ATOM     99  O   UNL     1      -9.221  -6.536  12.483  1.00  0.00    -0.237 OA
ATOM    100  O   UNL     1      -9.220  -7.601  14.709  1.00  0.00    -0.744 OA
ENDBRANCH  93  97
ENDBRANCH  67  90
ENDBRANCH  41  42
ENDBRANCH  34  36
ENDBRANCH  33  34
ENDBRANCH  32  33
ENDBRANCH   1  32
TORSDOF 18
