REMARK SMILES CC[NH2+][C@]1(C(=O)OCCOC(=O)c2ccc(-c3c4nc(c(-c5cc(S(=O)(=O)[O-])ccc5F)c5ccc([nH]5)c(-c5cc(S(=O)(=O)[O-])ccc5F)c5nc(c(-c6cc(S(=O)(=O)[O-])ccc6F)c6ccc3[nH]6)C=C5)C=C4)cc2)CC[C@@H]([N@H+]2C[C@@H](C)O[C@@H](C)C2)C1
REMARK SMILES IDX 9 1 8 2 7 3 5 4 6 5 4 6 76 7 87 8 77 9 78 10 3 11 2 14 1 15
REMARK SMILES IDX 79 16 80 17 86 18 81 20 84 21 82 22 83 23 85 24 10 25 11 26
REMARK SMILES IDX 12 27 13 28 14 29 75 30 15 31 74 32 16 33 17 34 18 35 68 36
REMARK SMILES IDX 19 37 73 38 67 39 69 40 20 41 72 42 66 43 65 44 21 46 53 47
REMARK SMILES IDX 33 48 52 49 34 50 37 51 51 52 70 53 35 54 36 55 50 57 71 58
REMARK SMILES IDX 38 59 22 60 23 61 31 62 24 63 30 64 32 65 29 66 25 67 26 68
REMARK SMILES IDX 27 69 28 70 54 71 55 72 63 73 56 74 62 75 64 76 61 77 57 78
REMARK SMILES IDX 58 79 59 80 60 81 39 82 40 83 48 84 41 85 47 86 49 87 46 88
REMARK SMILES IDX 42 89 43 90 44 91 45 92
REMARK H PARENT 3 12 3 13 79 19 69 45 37 56
REMARK Flexibility Score: inf
ROOT
ATOM      1  C   UNL     1       3.349  -0.157   0.570  1.00  0.00     0.275 C 
ENDROOT
BRANCH   1   2
ATOM      2  C   UNL     1       3.195  -0.590   2.032  1.00  0.00     0.274 C 
BRANCH   2   3
ATOM      3  O   UNL     1       2.443  -1.812   2.178  1.00  0.00    -0.457 OA
BRANCH   3   4
ATOM      4  C   UNL     1       1.132  -1.690   2.519  1.00  0.00     0.368 C 
ATOM      5  O   UNL     1       0.564  -0.611   2.681  1.00  0.00    -0.245 OA
BRANCH   4   6
ATOM      6  C   UNL     1       0.401  -3.050   2.782  1.00  0.00     0.200 C 
ATOM      7  C   UNL     1      -0.691  -3.228   1.712  1.00  0.00     0.087 C 
ATOM      8  C   UNL     1       1.285  -4.285   2.542  1.00  0.00     0.146 C 
ATOM      9  C   UNL     1      -0.926  -4.724   1.562  1.00  0.00     0.072 C 
ATOM     10  C   UNL     1       0.401  -5.395   1.950  1.00  0.00     0.191 C 
BRANCH   6  11
ATOM     11  N   UNL     1      -0.066  -2.959   4.195  1.00  0.00    -0.332 N 
ATOM     12  H   UNL     1       0.731  -3.180   4.792  1.00  0.00     0.347 HD
ATOM     13  H   UNL     1      -0.437  -2.013   4.278  1.00  0.00     0.347 HD
BRANCH  11  14
ATOM     14  C   UNL     1      -1.167  -3.816   4.612  1.00  0.00     0.257 C 
ATOM     15  C   UNL     1      -1.446  -3.570   6.089  1.00  0.00     0.071 C 
ENDBRANCH  11  14
ENDBRANCH   6  11
BRANCH  10  16
ATOM     16  N   UNL     1       1.055  -6.220   0.944  1.00  0.00    -0.328 N 
ATOM     17  C   UNL     1       1.012  -5.946  -0.485  1.00  0.00     0.294 C 
ATOM     18  C   UNL     1       2.202  -7.021   1.339  1.00  0.00     0.294 C 
ATOM     19  H   UNL     1       0.203  -6.778   0.999  1.00  0.00     0.348 HD
ATOM     20  C   UNL     1       2.364  -5.617  -1.164  1.00  0.00     0.170 C 
ATOM     21  C   UNL     1       3.554  -6.620   0.711  1.00  0.00     0.170 C 
ATOM     22  C   UNL     1       2.671  -4.130  -1.176  1.00  0.00     0.045 C 
ATOM     23  O   UNL     1       3.481  -6.392  -0.701  1.00  0.00    -0.364 OA
ATOM     24  C   UNL     1       4.308  -5.508   1.435  1.00  0.00     0.045 C 
ENDBRANCH  10  16
ENDBRANCH   4   6
ENDBRANCH   3   4
ENDBRANCH   2   3
ENDBRANCH   1   2
BRANCH   1  25
ATOM     25  O   UNL     1       2.161   0.472   0.053  1.00  0.00    -0.458 OA
BRANCH  25  26
ATOM     26  C   UNL     1       1.254  -0.393  -0.440  1.00  0.00     0.338 C 
ATOM     27  O   UNL     1       1.356  -1.613  -0.482  1.00  0.00    -0.246 OA
BRANCH  26  28
ATOM     28  C   UNL     1       0.034   0.271  -0.887  1.00  0.00     0.060 A 
ATOM     29  C   UNL     1      -1.160  -0.059  -0.240  1.00  0.00     0.016 A 
ATOM     30  C   UNL     1       0.035   1.052  -2.042  1.00  0.00     0.016 A 
ATOM     31  C   UNL     1      -2.373   0.361  -0.767  1.00  0.00     0.010 A 
ATOM     32  C   UNL     1      -1.183   1.498  -2.555  1.00  0.00     0.010 A 
ATOM     33  C   UNL     1      -2.390   1.143  -1.927  1.00  0.00    -0.014 A 
BRANCH  33  34
ATOM     34  C   UNL     1      -3.676   1.625  -2.472  1.00  0.00     0.031 A 
ATOM     35  C   UNL     1      -4.229   1.037  -3.734  1.00  0.00     0.074 A 
ATOM     36  C   UNL     1      -4.313   2.616  -1.824  1.00  0.00     0.049 A 
ATOM     37  N   UNL     1      -5.240   1.439  -4.457  1.00  0.00    -0.248 NA
ATOM     38  C   UNL     1      -3.549  -0.158  -4.254  1.00  0.00     0.031 C 
ATOM     39  C   UNL     1      -3.873   3.212  -0.560  1.00  0.00     0.029 A 
ATOM     40  N   UNL     1      -5.447   3.311  -2.147  1.00  0.00    -0.354 N 
ATOM     41  C   UNL     1      -5.311   0.561  -5.533  1.00  0.00     0.074 A 
ATOM     42  C   UNL     1      -4.227  -0.388  -5.369  1.00  0.00     0.031 C 
ATOM     43  C   UNL     1      -4.717   4.198  -0.225  1.00  0.00     0.029 A 
ATOM     44  C   UNL     1      -5.714   4.343  -1.280  1.00  0.00     0.049 A 
ATOM     45  H   UNL     1      -6.015   3.093  -2.921  1.00  0.00     0.167 HD
ATOM     46  C   UNL     1      -6.197   0.562  -6.560  1.00  0.00     0.034 A 
ATOM     47  C   UNL     1      -6.626   5.329  -1.358  1.00  0.00     0.034 A 
ATOM     48  C   UNL     1      -7.255   1.536  -6.694  1.00  0.00     0.049 A 
ATOM     49  C   UNL     1      -7.554   5.353  -2.541  1.00  0.00     0.074 A 
ATOM     50  C   UNL     1      -8.209   1.649  -7.691  1.00  0.00     0.029 A 
ATOM     51  N   UNL     1      -7.494   2.576  -5.801  1.00  0.00    -0.354 N 
ATOM     52  N   UNL     1      -7.593   4.540  -3.572  1.00  0.00    -0.248 NA
ATOM     53  C   UNL     1      -8.559   6.420  -2.570  1.00  0.00     0.031 C 
ATOM     54  C   UNL     1      -8.986   2.785  -7.431  1.00  0.00     0.029 A 
ATOM     55  C   UNL     1      -8.562   3.346  -6.235  1.00  0.00     0.049 A 
ATOM     56  H   UNL     1      -6.979   2.741  -4.979  1.00  0.00     0.167 HD
ATOM     57  C   UNL     1      -8.645   4.986  -4.364  1.00  0.00     0.074 A 
ATOM     58  C   UNL     1      -9.217   6.133  -3.684  1.00  0.00     0.031 C 
ATOM     59  C   UNL     1      -9.103   4.492  -5.542  1.00  0.00     0.034 A 
BRANCH  46  60
ATOM     60  C   UNL     1      -6.009  -0.475  -7.641  1.00  0.00     0.023 A 
ATOM     61  C   UNL     1      -6.159  -1.851  -7.388  1.00  0.00     0.031 A 
ATOM     62  C   UNL     1      -5.639  -0.083  -8.940  1.00  0.00     0.131 A 
ATOM     63  C   UNL     1      -5.879  -2.784  -8.400  1.00  0.00     0.055 A 
ATOM     64  C   UNL     1      -5.431  -1.012  -9.961  1.00  0.00     0.041 A 
ATOM     65  F   UNL     1      -5.458   1.214  -9.236  1.00  0.00    -0.206 F 
ATOM     66  C   UNL     1      -5.537  -2.373  -9.690  1.00  0.00     0.022 A 
BRANCH  63  67
ATOM     67  S   UNL     1      -5.837  -4.546  -7.971  1.00  0.00     0.124 S 
ATOM     68  O   UNL     1      -4.807  -4.575  -6.935  1.00  0.00    -0.237 OA
ATOM     69  O   UNL     1      -7.202  -4.794  -7.522  1.00  0.00    -0.237 OA
ATOM     70  O   UNL     1      -5.465  -5.196  -9.226  1.00  0.00    -0.744 OA
ENDBRANCH  63  67
ENDBRANCH  46  60
BRANCH  47  71
ATOM     71  C   UNL     1      -6.660   6.394  -0.320  1.00  0.00     0.023 A 
ATOM     72  C   UNL     1      -7.749   6.522   0.552  1.00  0.00     0.031 A 
ATOM     73  C   UNL     1      -5.592   7.301  -0.186  1.00  0.00     0.131 A 
ATOM     74  C   UNL     1      -7.762   7.553   1.504  1.00  0.00     0.055 A 
ATOM     75  C   UNL     1      -5.589   8.296   0.792  1.00  0.00     0.041 A 
ATOM     76  F   UNL     1      -4.521   7.215  -0.992  1.00  0.00    -0.206 F 
ATOM     77  C   UNL     1      -6.684   8.432   1.639  1.00  0.00     0.022 A 
BRANCH  74  78
ATOM     78  S   UNL     1      -9.241   7.766   2.531  1.00  0.00     0.124 S 
ATOM     79  O   UNL     1     -10.279   7.953   1.524  1.00  0.00    -0.237 OA
ATOM     80  O   UNL     1      -9.280   6.507   3.268  1.00  0.00    -0.237 OA
ATOM     81  O   UNL     1      -8.930   8.946   3.335  1.00  0.00    -0.744 OA
ENDBRANCH  74  78
ENDBRANCH  47  71
BRANCH  59  82
ATOM     82  C   UNL     1     -10.312   5.170  -6.128  1.00  0.00     0.023 A 
ATOM     83  C   UNL     1     -10.243   6.466  -6.667  1.00  0.00     0.031 A 
ATOM     84  C   UNL     1     -11.557   4.516  -6.120  1.00  0.00     0.131 A 
ATOM     85  C   UNL     1     -11.411   7.090  -7.128  1.00  0.00     0.055 A 
ATOM     86  C   UNL     1     -12.705   5.123  -6.628  1.00  0.00     0.041 A 
ATOM     87  F   UNL     1     -11.674   3.279  -5.614  1.00  0.00    -0.206 F 
ATOM     88  C   UNL     1     -12.639   6.422  -7.125  1.00  0.00     0.022 A 
BRANCH  85  89
ATOM     89  S   UNL     1     -11.321   8.822  -7.661  1.00  0.00     0.124 S 
ATOM     90  O   UNL     1     -10.861   9.489  -6.447  1.00  0.00    -0.237 OA
ATOM     91  O   UNL     1     -10.361   8.762  -8.759  1.00  0.00    -0.237 OA
ATOM     92  O   UNL     1     -12.694   9.130  -8.057  1.00  0.00    -0.744 OA
ENDBRANCH  85  89
ENDBRANCH  59  82
ENDBRANCH  33  34
ENDBRANCH  26  28
ENDBRANCH  25  26
ENDBRANCH   1  25
TORSDOF 17
