REMARK SMILES Cc1cc2c(c(C)c1Cl)C=C(C(=O)OCCOC(=O)c1ccc(-c3c4nc(c(-c5cc(S(=O)(=O)[O-])ccc5F)c5ccc([nH]5)c(-c5cc(S(=O)(=O)[O-])ccc5F)c5nc(c(-c6cc(S(=O)(=O)[O-])ccc6F)c6ccc3[nH]6)C=C5)C=C4)cc1)[C@@H](C(F)(F)F)O2
REMARK SMILES IDX 16 1 15 2 14 3 12 4 13 5 11 6 1 7 2 8 3 9 8 10 4 11 6 12
REMARK SMILES IDX 9 13 5 14 88 15 7 16 10 17 83 18 84 19 85 20 86 21 87 22
REMARK SMILES IDX 17 23 18 24 19 25 20 26 21 27 82 28 22 29 81 30 23 31 24 32
REMARK SMILES IDX 25 33 75 34 26 35 80 36 74 37 76 38 27 39 79 40 73 41 72 42
REMARK SMILES IDX 28 44 60 45 40 46 59 47 41 48 44 49 58 50 77 51 42 52 43 53
REMARK SMILES IDX 57 55 78 56 45 57 29 58 30 59 38 60 31 61 37 62 39 63 36 64
REMARK SMILES IDX 32 65 33 66 34 67 35 68 61 69 62 70 70 71 63 72 69 73 71 74
REMARK SMILES IDX 68 75 64 76 65 77 66 78 67 79 46 80 47 81 55 82 48 83 54 84
REMARK SMILES IDX 56 85 53 86 49 87 50 88 51 89 52 90
REMARK H PARENT 76 43 44 54
REMARK Flexibility Score: inf
ROOT
ATOM      1  C   UNL     1      -0.810   4.005   9.690  1.00  0.00     0.275 C 
ENDROOT
BRANCH   1   2
ATOM      2  C   UNL     1      -1.915   3.173   9.041  1.00  0.00     0.275 C 
BRANCH   2   3
ATOM      3  O   UNL     1      -1.424   2.445   7.894  1.00  0.00    -0.459 OA
BRANCH   3   4
ATOM      4  C   UNL     1      -1.781   2.946   6.688  1.00  0.00     0.338 C 
ATOM      5  O   UNL     1      -2.477   3.930   6.487  1.00  0.00    -0.246 OA
BRANCH   4   6
ATOM      6  C   UNL     1      -1.220   2.124   5.598  1.00  0.00     0.087 C 
ATOM      7  C   UNL     1       0.963  -0.521   0.080  1.00  0.00     0.046 C 
ATOM      8  C   UNL     1       0.590   0.369   1.234  1.00  0.00    -0.028 A 
ATOM      9  C   UNL     1       0.015  -0.202   2.376  1.00  0.00     0.052 A 
ATOM     10  C   UNL     1       0.819   1.758   1.205  1.00  0.00     0.047 A 
ATOM     11  C   UNL     1      -0.358   0.589   3.462  1.00  0.00     0.128 A 
ATOM     12  C   UNL     1       0.451   2.577   2.296  1.00  0.00    -0.021 A 
ATOM     13  Cl  UNL     1       1.562   2.442  -0.210  1.00  0.00    -0.084 Cl
ATOM     14  C   UNL     1      -0.156   1.973   3.430  1.00  0.00     0.022 A 
ATOM     15  O   UNL     1      -0.899  -0.093   4.517  1.00  0.00    -0.475 OA
ATOM     16  C   UNL     1       0.713   4.065   2.279  1.00  0.00     0.047 C 
ATOM     17  C   UNL     1      -0.609   2.747   4.584  1.00  0.00     0.027 C 
ATOM     18  C   UNL     1      -1.482   0.650   5.618  1.00  0.00     0.316 C 
BRANCH  18  19
ATOM     19  C   UNL     1      -2.989   0.350   5.676  1.00  0.00     0.430 C 
ATOM     20  F   UNL     1      -3.229  -0.984   5.662  1.00  0.00    -0.167 F 
ATOM     21  F   UNL     1      -3.549   0.824   6.817  1.00  0.00    -0.167 F 
ATOM     22  F   UNL     1      -3.665   0.894   4.639  1.00  0.00    -0.167 F 
ENDBRANCH  18  19
ENDBRANCH   4   6
ENDBRANCH   3   4
ENDBRANCH   2   3
ENDBRANCH   1   2
BRANCH   1  23
ATOM     23  O   UNL     1      -0.373   5.035   8.786  1.00  0.00    -0.458 OA
BRANCH  23  24
ATOM     24  C   UNL     1       0.849   4.835   8.241  1.00  0.00     0.338 C 
ATOM     25  O   UNL     1       1.625   3.927   8.490  1.00  0.00    -0.246 OA
BRANCH  24  26
ATOM     26  C   UNL     1       1.123   5.839   7.200  1.00  0.00     0.060 A 
ATOM     27  C   UNL     1       0.286   5.902   6.094  1.00  0.00     0.016 A 
ATOM     28  C   UNL     1       2.326   6.540   7.199  1.00  0.00     0.016 A 
ATOM     29  C   UNL     1       0.740   6.496   4.919  1.00  0.00     0.010 A 
ATOM     30  C   UNL     1       2.709   7.258   6.058  1.00  0.00     0.010 A 
ATOM     31  C   UNL     1       1.964   7.177   4.867  1.00  0.00    -0.014 A 
BRANCH  31  32
ATOM     32  C   UNL     1       2.513   7.710   3.575  1.00  0.00     0.031 A 
ATOM     33  C   UNL     1       3.945   7.406   3.181  1.00  0.00     0.074 A 
ATOM     34  C   UNL     1       1.755   8.420   2.710  1.00  0.00     0.049 A 
ATOM     35  N   UNL     1       4.711   8.004   2.303  1.00  0.00    -0.248 NA
ATOM     36  C   UNL     1       4.607   6.292   3.881  1.00  0.00     0.031 C 
ATOM     37  C   UNL     1       0.328   8.714   2.856  1.00  0.00     0.029 A 
ATOM     38  N   UNL     1       2.084   9.019   1.514  1.00  0.00    -0.354 N 
ATOM     39  C   UNL     1       5.961   7.396   2.404  1.00  0.00     0.074 A 
ATOM     40  C   UNL     1       5.850   6.380   3.427  1.00  0.00     0.031 C 
ATOM     41  C   UNL     1      -0.107   9.365   1.769  1.00  0.00     0.029 A 
ATOM     42  C   UNL     1       1.034   9.685   0.923  1.00  0.00     0.049 A 
ATOM     43  H   UNL     1       2.985   8.974   1.119  1.00  0.00     0.167 HD
ATOM     44  C   UNL     1       7.095   7.668   1.710  1.00  0.00     0.034 A 
ATOM     45  C   UNL     1       0.991  10.530  -0.127  1.00  0.00     0.034 A 
ATOM     46  C   UNL     1       7.170   8.627   0.634  1.00  0.00     0.049 A 
ATOM     47  C   UNL     1       2.273  10.897  -0.820  1.00  0.00     0.074 A 
ATOM     48  C   UNL     1       8.271   8.987  -0.125  1.00  0.00     0.029 A 
ATOM     49  N   UNL     1       6.096   9.354   0.140  1.00  0.00    -0.354 N 
ATOM     50  N   UNL     1       3.487  10.451  -0.600  1.00  0.00    -0.248 NA
ATOM     51  C   UNL     1       2.183  11.912  -1.878  1.00  0.00     0.031 C 
ATOM     52  C   UNL     1       7.875   9.972  -1.036  1.00  0.00     0.029 A 
ATOM     53  C   UNL     1       6.513  10.177  -0.895  1.00  0.00     0.049 A 
ATOM     54  H   UNL     1       5.172   9.294   0.476  1.00  0.00     0.167 HD
ATOM     55  C   UNL     1       4.306  11.132  -1.495  1.00  0.00     0.074 A 
ATOM     56  C   UNL     1       3.444  11.996  -2.275  1.00  0.00     0.031 C 
ATOM     57  C   UNL     1       5.652  11.053  -1.650  1.00  0.00     0.034 A 
BRANCH  44  58
ATOM     58  C   UNL     1       8.368   6.971   2.126  1.00  0.00     0.023 A 
ATOM     59  C   UNL     1       8.579   5.597   1.924  1.00  0.00     0.031 A 
ATOM     60  C   UNL     1       9.411   7.720   2.706  1.00  0.00     0.131 A 
ATOM     61  C   UNL     1       9.789   5.010   2.330  1.00  0.00     0.055 A 
ATOM     62  C   UNL     1      10.634   7.143   3.048  1.00  0.00     0.041 A 
ATOM     63  F   UNL     1       9.259   9.034   2.939  1.00  0.00    -0.206 F 
ATOM     64  C   UNL     1      10.827   5.778   2.866  1.00  0.00     0.022 A 
BRANCH  61  65
ATOM     65  S   UNL     1       9.968   3.208   2.220  1.00  0.00     0.124 S 
ATOM     66  O   UNL     1       8.936   2.753   3.148  1.00  0.00    -0.237 OA
ATOM     67  O   UNL     1       9.716   2.950   0.807  1.00  0.00    -0.237 OA
ATOM     68  O   UNL     1      11.341   2.971   2.660  1.00  0.00    -0.744 OA
ENDBRANCH  61  65
ENDBRANCH  44  58
BRANCH  45  69
ATOM     69  C   UNL     1      -0.297  11.177  -0.512  1.00  0.00     0.023 A 
ATOM     70  C   UNL     1      -0.891  10.919  -1.756  1.00  0.00     0.031 A 
ATOM     71  C   UNL     1      -0.951  12.066   0.362  1.00  0.00     0.131 A 
ATOM     72  C   UNL     1      -2.098  11.551  -2.096  1.00  0.00     0.055 A 
ATOM     73  C   UNL     1      -2.177  12.648   0.041  1.00  0.00     0.041 A 
ATOM     74  F   UNL     1      -0.422  12.352   1.562  1.00  0.00    -0.206 F 
ATOM     75  C   UNL     1      -2.755  12.396  -1.198  1.00  0.00     0.022 A 
BRANCH  72  76
ATOM     76  S   UNL     1      -2.786  11.281  -3.752  1.00  0.00     0.124 S 
ATOM     77  O   UNL     1      -1.760  11.876  -4.600  1.00  0.00    -0.237 OA
ATOM     78  O   UNL     1      -2.898   9.827  -3.803  1.00  0.00    -0.237 OA
ATOM     79  O   UNL     1      -4.059  11.999  -3.712  1.00  0.00    -0.744 OA
ENDBRANCH  72  76
ENDBRANCH  45  69
BRANCH  57  80
ATOM     80  C   UNL     1       6.267  11.917  -2.720  1.00  0.00     0.023 A 
ATOM     81  C   UNL     1       6.296  13.317  -2.601  1.00  0.00     0.031 A 
ATOM     82  C   UNL     1       6.816  11.338  -3.878  1.00  0.00     0.131 A 
ATOM     83  C   UNL     1       6.812  14.096  -3.646  1.00  0.00     0.055 A 
ATOM     84  C   UNL     1       7.382  12.116  -4.888  1.00  0.00     0.041 A 
ATOM     85  F   UNL     1       6.812  10.006  -4.043  1.00  0.00    -0.206 F 
ATOM     86  C   UNL     1       7.371  13.504  -4.782  1.00  0.00     0.022 A 
BRANCH  83  87
ATOM     87  S   UNL     1       6.665  15.900  -3.538  1.00  0.00     0.124 S 
ATOM     88  O   UNL     1       5.218  16.082  -3.483  1.00  0.00    -0.237 OA
ATOM     89  O   UNL     1       7.393  16.202  -2.311  1.00  0.00    -0.237 OA
ATOM     90  O   UNL     1       7.303  16.370  -4.767  1.00  0.00    -0.744 OA
ENDBRANCH  83  87
ENDBRANCH  57  80
ENDBRANCH  31  32
ENDBRANCH  24  26
ENDBRANCH  23  24
ENDBRANCH   1  23
TORSDOF 15
