REMARK SMILES CS(=O)(=O)N(Cc1ccc(Cl)cc1)c1ccc(C(=O)Nc2ccccc2C(=O)OCCOC(=O)c2ccc(-c3c4nc(c(-c5cc(S(=O)(=O)[O-])ccc5F)c5ccc([nH]5)c(-c5cc(S(=O)(=O)[O-])ccc5F)c5nc(c(-c6cc(S(=O)(=O)[O-])ccc6F)c6ccc3[nH]6)C=C5)C=C4)cc2)cc1
REMARK SMILES IDX 30 1 29 2 27 3 28 4 26 5 21 6 22 7 23 8 25 9 24 10 20 11
REMARK SMILES IDX 18 12 19 13 17 15 14 16 15 17 99 18 16 19 98 20 5 21 2 22
REMARK SMILES IDX 1 23 3 24 4 25 6 26 7 27 8 28 13 29 9 30 12 31 10 32 11 33
REMARK SMILES IDX 31 34 32 35 33 36 34 37 35 38 36 39 97 40 37 41 96 42 38 43
REMARK SMILES IDX 39 44 40 45 90 46 41 47 95 48 89 49 91 50 42 51 94 52 88 53
REMARK SMILES IDX 87 54 43 56 75 57 55 58 74 59 56 60 59 61 73 62 92 63 57 64
REMARK SMILES IDX 58 65 72 67 93 68 60 69 44 70 45 71 53 72 46 73 52 74 54 75
REMARK SMILES IDX 51 76 47 77 48 78 49 79 50 80 76 81 77 82 85 83 78 84 84 85
REMARK SMILES IDX 86 86 83 87 79 88 80 89 81 90 82 91 61 92 62 93 70 94 63 95
REMARK SMILES IDX 69 96 71 97 68 98 64 99 65 100 66 101 67 102
REMARK H PARENT 20 14 91 55 59 66
REMARK Flexibility Score: inf
ROOT
ATOM      1  C   UNL     1      -0.528  -5.676  -5.788  1.00  0.00     0.275 C 
ENDROOT
BRANCH   1   2
ATOM      2  O   UNL     1      -1.626  -6.284  -5.075  1.00  0.00    -0.458 OA
BRANCH   2   3
ATOM      3  C   UNL     1      -2.084  -5.547  -4.037  1.00  0.00     0.340 C 
ATOM      4  O   UNL     1      -1.700  -4.420  -3.755  1.00  0.00    -0.246 OA
BRANCH   3   5
ATOM      5  C   UNL     1      -3.094  -6.255  -3.216  1.00  0.00     0.083 A 
ATOM      6  C   UNL     1      -2.877  -7.518  -2.649  1.00  0.00     0.056 A 
ATOM      7  C   UNL     1      -3.908  -8.114  -1.898  1.00  0.00     0.027 A 
ATOM      8  C   UNL     1      -5.074  -7.412  -1.588  1.00  0.00     0.002 A 
ATOM      9  C   UNL     1      -4.282  -5.568  -2.906  1.00  0.00     0.018 A 
ATOM     10  C   UNL     1      -5.254  -6.128  -2.079  1.00  0.00     0.001 A 
BRANCH   6  11
ATOM     11  N   UNL     1      -1.678  -8.250  -2.690  1.00  0.00    -0.321 N 
ATOM     12  C   UNL     1      -0.354  -7.879  -2.579  1.00  0.00     0.255 C 
ATOM     13  O   UNL     1       0.500  -8.710  -2.899  1.00  0.00    -0.269 OA
ATOM     14  H   UNL     1      -1.808  -9.216  -2.825  1.00  0.00     0.170 HD
BRANCH  12  15
ATOM     15  C   UNL     1       0.103  -6.568  -2.018  1.00  0.00     0.040 A 
ATOM     16  C   UNL     1       1.030  -3.959  -1.339  1.00  0.00     0.052 A 
ATOM     17  C   UNL     1       1.899  -4.931  -1.837  1.00  0.00     0.028 A 
ATOM     18  C   UNL     1      -0.268  -4.380  -1.031  1.00  0.00     0.028 A 
ATOM     19  C   UNL     1       1.435  -6.196  -2.231  1.00  0.00     0.016 A 
ATOM     20  C   UNL     1      -0.694  -5.695  -1.282  1.00  0.00     0.016 A 
BRANCH  16  21
ATOM     21  N   UNL     1       1.467  -2.551  -1.304  1.00  0.00    -0.266 N 
BRANCH  21  22
ATOM     22  S   UNL     1       0.556  -1.559  -0.235  1.00  0.00     0.232 S 
ATOM     23  C   UNL     1       1.521  -0.070  -0.086  1.00  0.00     0.183 C 
ATOM     24  O   UNL     1       0.559  -2.196   1.066  1.00  0.00    -0.207 OA
ATOM     25  O   UNL     1      -0.685  -1.210  -0.896  1.00  0.00    -0.207 OA
ENDBRANCH  21  22
BRANCH  21  26
ATOM     26  C   UNL     1       1.714  -1.936  -2.665  1.00  0.00     0.170 C 
BRANCH  26  27
ATOM     27  C   UNL     1       3.140  -2.169  -3.162  1.00  0.00    -0.027 A 
ATOM     28  C   UNL     1       3.432  -3.273  -3.980  1.00  0.00     0.007 A 
ATOM     29  C   UNL     1       4.205  -1.365  -2.724  1.00  0.00     0.007 A 
ATOM     30  C   UNL     1       4.754  -3.661  -4.215  1.00  0.00     0.021 A 
ATOM     31  C   UNL     1       5.529  -1.720  -3.009  1.00  0.00     0.021 A 
ATOM     32  C   UNL     1       5.798  -2.892  -3.713  1.00  0.00     0.041 A 
ATOM     33  Cl  UNL     1       7.424  -3.409  -3.935  1.00  0.00    -0.084 Cl
ENDBRANCH  26  27
ENDBRANCH  21  26
ENDBRANCH  16  21
ENDBRANCH  12  15
ENDBRANCH   6  11
ENDBRANCH   3   5
ENDBRANCH   2   3
ENDBRANCH   1   2
BRANCH   1  34
ATOM     34  C   UNL     1      -0.972  -4.869  -7.011  1.00  0.00     0.275 C 
BRANCH  34  35
ATOM     35  O   UNL     1      -1.734  -3.705  -6.641  1.00  0.00    -0.458 OA
BRANCH  35  36
ATOM     36  C   UNL     1      -3.075  -3.867  -6.733  1.00  0.00     0.338 C 
ATOM     37  O   UNL     1      -3.668  -4.859  -7.124  1.00  0.00    -0.246 OA
BRANCH  36  38
ATOM     38  C   UNL     1      -3.790  -2.688  -6.224  1.00  0.00     0.060 A 
ATOM     39  C   UNL     1      -3.941  -2.553  -4.851  1.00  0.00     0.016 A 
ATOM     40  C   UNL     1      -4.522  -1.873  -7.083  1.00  0.00     0.016 A 
ATOM     41  C   UNL     1      -4.935  -1.745  -4.325  1.00  0.00     0.010 A 
ATOM     42  C   UNL     1      -5.413  -0.937  -6.543  1.00  0.00     0.010 A 
ATOM     43  C   UNL     1      -5.666  -0.899  -5.158  1.00  0.00    -0.014 A 
BRANCH  43  44
ATOM     44  C   UNL     1      -6.709  -0.014  -4.574  1.00  0.00     0.031 A 
ATOM     45  C   UNL     1      -8.120  -0.082  -5.093  1.00  0.00     0.074 A 
ATOM     46  C   UNL     1      -6.396   0.827  -3.565  1.00  0.00     0.049 A 
ATOM     47  N   UNL     1      -9.113   0.746  -4.902  1.00  0.00    -0.248 NA
ATOM     48  C   UNL     1      -8.451  -1.224  -5.961  1.00  0.00     0.031 C 
ATOM     49  C   UNL     1      -5.086   0.924  -2.912  1.00  0.00     0.029 A 
ATOM     50  N   UNL     1      -7.155   1.763  -2.906  1.00  0.00    -0.354 N 
ATOM     51  C   UNL     1     -10.164   0.265  -5.678  1.00  0.00     0.074 A 
ATOM     52  C   UNL     1      -9.683  -0.926  -6.345  1.00  0.00     0.031 C 
ATOM     53  C   UNL     1      -5.143   1.835  -1.932  1.00  0.00     0.029 A 
ATOM     54  C   UNL     1      -6.444   2.484  -1.973  1.00  0.00     0.049 A 
ATOM     55  H   UNL     1      -8.113   1.904  -3.084  1.00  0.00     0.167 HD
ATOM     56  C   UNL     1     -11.408   0.785  -5.819  1.00  0.00     0.034 A 
ATOM     57  C   UNL     1      -6.770   3.593  -1.283  1.00  0.00     0.034 A 
ATOM     58  C   UNL     1     -11.864   1.952  -5.100  1.00  0.00     0.049 A 
ATOM     59  C   UNL     1      -8.131   4.194  -1.512  1.00  0.00     0.074 A 
ATOM     60  C   UNL     1     -13.103   2.564  -5.148  1.00  0.00     0.029 A 
ATOM     61  N   UNL     1     -11.097   2.679  -4.197  1.00  0.00    -0.354 N 
ATOM     62  N   UNL     1      -9.095   3.775  -2.301  1.00  0.00    -0.248 NA
ATOM     63  C   UNL     1      -8.446   5.417  -0.769  1.00  0.00     0.031 C 
ATOM     64  C   UNL     1     -13.061   3.702  -4.337  1.00  0.00     0.029 A 
ATOM     65  C   UNL     1     -11.826   3.752  -3.709  1.00  0.00     0.049 A 
ATOM     66  H   UNL     1     -10.171   2.464  -3.941  1.00  0.00     0.167 HD
ATOM     67  C   UNL     1     -10.141   4.675  -2.129  1.00  0.00     0.074 A 
ATOM     68  C   UNL     1      -9.696   5.640  -1.143  1.00  0.00     0.031 C 
ATOM     69  C   UNL     1     -11.357   4.707  -2.731  1.00  0.00     0.034 A 
BRANCH  56  70
ATOM     70  C   UNL     1     -12.328   0.150  -6.835  1.00  0.00     0.023 A 
ATOM     71  C   UNL     1     -12.799  -1.168  -6.710  1.00  0.00     0.031 A 
ATOM     72  C   UNL     1     -12.732   0.885  -7.965  1.00  0.00     0.131 A 
ATOM     73  C   UNL     1     -13.593  -1.728  -7.724  1.00  0.00     0.055 A 
ATOM     74  C   UNL     1     -13.587   0.350  -8.931  1.00  0.00     0.041 A 
ATOM     75  F   UNL     1     -12.294   2.140  -8.156  1.00  0.00    -0.206 F 
ATOM     76  C   UNL     1     -14.013  -0.969  -8.819  1.00  0.00     0.022 A 
BRANCH  73  77
ATOM     77  S   UNL     1     -13.964  -3.502  -7.660  1.00  0.00     0.124 S 
ATOM     78  O   UNL     1     -12.625  -4.085  -7.679  1.00  0.00    -0.237 OA
ATOM     79  O   UNL     1     -14.697  -3.627  -6.406  1.00  0.00    -0.237 OA
ATOM     80  O   UNL     1     -14.753  -3.732  -8.869  1.00  0.00    -0.744 OA
ENDBRANCH  73  77
ENDBRANCH  56  70
BRANCH  57  81
ATOM     81  C   UNL     1      -5.771   4.259  -0.395  1.00  0.00     0.023 A 
ATOM     82  C   UNL     1      -6.019   4.436   0.974  1.00  0.00     0.031 A 
ATOM     83  C   UNL     1      -4.567   4.775  -0.915  1.00  0.00     0.131 A 
ATOM     84  C   UNL     1      -5.107   5.153   1.764  1.00  0.00     0.055 A 
ATOM     85  C   UNL     1      -3.629   5.423  -0.110  1.00  0.00     0.041 A 
ATOM     86  F   UNL     1      -4.276   4.645  -2.219  1.00  0.00    -0.206 F 
ATOM     87  C   UNL     1      -3.905   5.630   1.236  1.00  0.00     0.022 A 
BRANCH  84  88
ATOM     88  S   UNL     1      -5.571   5.558   3.470  1.00  0.00     0.124 S 
ATOM     89  O   UNL     1      -6.833   6.261   3.274  1.00  0.00    -0.237 OA
ATOM     90  O   UNL     1      -5.659   4.237   4.081  1.00  0.00    -0.237 OA
ATOM     91  O   UNL     1      -4.460   6.386   3.935  1.00  0.00    -0.744 OA
ENDBRANCH  84  88
ENDBRANCH  57  81
BRANCH  69  92
ATOM     92  C   UNL     1     -12.302   5.795  -2.288  1.00  0.00     0.023 A 
ATOM     93  C   UNL     1     -12.031   7.153  -2.530  1.00  0.00     0.031 A 
ATOM     94  C   UNL     1     -13.477   5.467  -1.589  1.00  0.00     0.131 A 
ATOM     95  C   UNL     1     -12.887   8.136  -2.015  1.00  0.00     0.055 A 
ATOM     96  C   UNL     1     -14.364   6.447  -1.145  1.00  0.00     0.041 A 
ATOM     97  F   UNL     1     -13.782   4.186  -1.327  1.00  0.00    -0.206 F 
ATOM     98  C   UNL     1     -14.063   7.792  -1.343  1.00  0.00     0.022 A 
BRANCH  95  99
ATOM     99  S   UNL     1     -12.383   9.873  -2.134  1.00  0.00     0.124 S 
ATOM    100  O   UNL     1     -11.102   9.865  -1.434  1.00  0.00    -0.237 OA
ATOM    101  O   UNL     1     -12.319  10.083  -3.576  1.00  0.00    -0.237 OA
ATOM    102  O   UNL     1     -13.459  10.590  -1.450  1.00  0.00    -0.744 OA
ENDBRANCH  95  99
ENDBRANCH  69  92
ENDBRANCH  43  44
ENDBRANCH  36  38
ENDBRANCH  35  36
ENDBRANCH  34  35
ENDBRANCH   1  34
TORSDOF 20
