REMARK SMILES O=C(C[C@@H](NS(=O)(=O)c1ccc(Cl)cc1)c1ccc(F)cc1)OCCOC(=O)c1ccc(-c2c3nc(c(-c4cc(S(=O)(=O)[O-])ccc4F)c4ccc([nH]4)c(-c4cc(S(=O)(=O)[O-])ccc4F)c4nc(c(-c5cc(S(=O)(=O)[O-])ccc5F)c5ccc2[nH]5)C=C4)C=C3)cc1
REMARK SMILES IDX 24 1 23 2 2 3 1 4 3 5 4 6 5 7 6 9 7 10 8 11 9 12 10 13 15 14
REMARK SMILES IDX 11 15 14 16 12 17 13 18 16 19 17 20 22 21 18 22 21 23 19 24
REMARK SMILES IDX 20 25 25 26 26 27 27 28 28 29 29 30 30 31 91 32 31 33 90 34
REMARK SMILES IDX 32 35 33 36 34 37 84 38 35 39 89 40 83 41 85 42 36 43 88 44
REMARK SMILES IDX 82 45 81 46 37 48 69 49 49 50 68 51 50 52 53 53 67 54 86 55
REMARK SMILES IDX 51 56 52 57 66 59 87 60 54 61 38 62 39 63 47 64 40 65 46 66
REMARK SMILES IDX 48 67 45 68 41 69 42 70 43 71 44 72 70 73 71 74 79 75 72 76
REMARK SMILES IDX 78 77 80 78 77 79 73 80 74 81 75 82 76 83 55 84 56 85 64 86
REMARK SMILES IDX 57 87 63 88 65 89 62 90 58 91 59 92 60 93 61 94
REMARK H PARENT 5 8 85 47 53 58
REMARK Flexibility Score: inf
ROOT
ATOM      1  C   UNL     1       4.319   0.573  -1.113  1.00  0.00     0.274 C 
ENDROOT
BRANCH   1   2
ATOM      2  O   UNL     1       3.045  -0.115  -1.057  1.00  0.00    -0.462 OA
BRANCH   2   3
ATOM      3  C   UNL     1       2.659  -0.924  -0.037  1.00  0.00     0.307 C 
ATOM      4  O   UNL     1       1.943  -1.899  -0.245  1.00  0.00    -0.252 OA
BRANCH   3   5
ATOM      5  C   UNL     1       3.112  -0.565   1.348  1.00  0.00     0.147 C 
BRANCH   5   6
ATOM      6  C   UNL     1       4.074  -1.586   1.978  1.00  0.00     0.111 C 
BRANCH   6   7
ATOM      7  N   UNL     1       5.244  -1.795   1.082  1.00  0.00    -0.203 NA
ATOM      8  H   UNL     1       5.789  -0.933   1.101  1.00  0.00     0.142 HD
BRANCH   7   9
ATOM      9  S   UNL     1       6.316  -3.062   1.393  1.00  0.00     0.241 S 
ATOM     10  O   UNL     1       5.548  -4.167   1.925  1.00  0.00    -0.207 OA
ATOM     11  O   UNL     1       7.097  -3.196   0.185  1.00  0.00    -0.207 OA
BRANCH   9  12
ATOM     12  C   UNL     1       7.413  -2.460   2.641  1.00  0.00     0.082 A 
ATOM     13  C   UNL     1       7.784  -3.317   3.682  1.00  0.00     0.023 A 
ATOM     14  C   UNL     1       7.848  -1.131   2.617  1.00  0.00     0.023 A 
ATOM     15  C   UNL     1       8.573  -2.832   4.724  1.00  0.00     0.022 A 
ATOM     16  C   UNL     1       8.625  -0.647   3.671  1.00  0.00     0.022 A 
ATOM     17  C   UNL     1       8.979  -1.497   4.721  1.00  0.00     0.041 A 
ATOM     18  Cl  UNL     1       9.918  -0.891   6.028  1.00  0.00    -0.084 Cl
ENDBRANCH   9  12
ENDBRANCH   7   9
ENDBRANCH   6   7
BRANCH   6  19
ATOM     19  C   UNL     1       4.496  -1.083   3.361  1.00  0.00    -0.029 A 
ATOM     20  C   UNL     1       4.929   0.244   3.571  1.00  0.00     0.008 A 
ATOM     21  C   UNL     1       4.503  -1.961   4.457  1.00  0.00     0.008 A 
ATOM     22  C   UNL     1       5.336   0.681   4.833  1.00  0.00     0.039 A 
ATOM     23  C   UNL     1       4.934  -1.528   5.716  1.00  0.00     0.039 A 
ATOM     24  C   UNL     1       5.344  -0.213   5.892  1.00  0.00     0.123 A 
ATOM     25  F   UNL     1       5.779   0.194   7.091  1.00  0.00    -0.207 F 
ENDBRANCH   6  19
ENDBRANCH   5   6
ENDBRANCH   3   5
ENDBRANCH   2   3
ENDBRANCH   1   2
BRANCH   1  26
ATOM     26  C   UNL     1       4.176   2.094  -1.118  1.00  0.00     0.275 C 
BRANCH  26  27
ATOM     27  O   UNL     1       3.775   2.556   0.183  1.00  0.00    -0.458 OA
BRANCH  27  28
ATOM     28  C   UNL     1       2.441   2.758   0.330  1.00  0.00     0.338 C 
ATOM     29  O   UNL     1       1.605   2.701  -0.555  1.00  0.00    -0.246 OA
BRANCH  28  30
ATOM     30  C   UNL     1       2.107   2.862   1.770  1.00  0.00     0.060 A 
ATOM     31  C   UNL     1       0.857   2.379   2.174  1.00  0.00     0.016 A 
ATOM     32  C   UNL     1       2.995   3.387   2.718  1.00  0.00     0.016 A 
ATOM     33  C   UNL     1       0.476   2.454   3.512  1.00  0.00     0.010 A 
ATOM     34  C   UNL     1       2.615   3.454   4.063  1.00  0.00     0.010 A 
ATOM     35  C   UNL     1       1.341   3.017   4.461  1.00  0.00    -0.014 A 
BRANCH  35  36
ATOM     36  C   UNL     1       0.833   3.284   5.828  1.00  0.00     0.031 A 
ATOM     37  C   UNL     1       0.343   4.667   6.160  1.00  0.00     0.074 A 
ATOM     38  C   UNL     1       0.750   2.300   6.741  1.00  0.00     0.049 A 
ATOM     39  N   UNL     1      -0.210   5.109   7.259  1.00  0.00    -0.248 NA
ATOM     40  C   UNL     1       0.502   5.688   5.112  1.00  0.00     0.031 C 
ATOM     41  C   UNL     1       1.179   0.917   6.537  1.00  0.00     0.029 A 
ATOM     42  N   UNL     1       0.260   2.316   8.023  1.00  0.00    -0.354 N 
ATOM     43  C   UNL     1      -0.474   6.455   7.033  1.00  0.00     0.074 A 
ATOM     44  C   UNL     1       0.023   6.767   5.711  1.00  0.00     0.031 C 
ATOM     45  C   UNL     1       0.920   0.213   7.653  1.00  0.00     0.029 A 
ATOM     46  C   UNL     1       0.323   1.097   8.654  1.00  0.00     0.049 A 
ATOM     47  H   UNL     1      -0.103   3.125   8.450  1.00  0.00     0.167 HD
ATOM     48  C   UNL     1      -1.091   7.346   7.845  1.00  0.00     0.034 A 
ATOM     49  C   UNL     1      -0.055   0.736   9.897  1.00  0.00     0.034 A 
ATOM     50  C   UNL     1      -1.585   7.032   9.160  1.00  0.00     0.049 A 
ATOM     51  C   UNL     1      -0.680   1.759  10.811  1.00  0.00     0.074 A 
ATOM     52  C   UNL     1      -2.264   7.852  10.043  1.00  0.00     0.029 A 
ATOM     53  N   UNL     1      -1.438   5.803   9.789  1.00  0.00    -0.354 N 
ATOM     54  N   UNL     1      -0.944   3.023  10.576  1.00  0.00    -0.248 NA
ATOM     55  C   UNL     1      -1.058   1.307  12.158  1.00  0.00     0.031 C 
ATOM     56  C   UNL     1      -2.473   7.140  11.229  1.00  0.00     0.029 A 
ATOM     57  C   UNL     1      -1.980   5.856  11.062  1.00  0.00     0.049 A 
ATOM     58  H   UNL     1      -1.012   5.011   9.389  1.00  0.00     0.167 HD
ATOM     59  C   UNL     1      -1.535   3.511  11.738  1.00  0.00     0.074 A 
ATOM     60  C   UNL     1      -1.587   2.409  12.676  1.00  0.00     0.031 C 
ATOM     61  C   UNL     1      -2.005   4.757  11.997  1.00  0.00     0.034 A 
BRANCH  48  62
ATOM     62  C   UNL     1      -1.233   8.755   7.338  1.00  0.00     0.023 A 
ATOM     63  C   UNL     1      -2.076   9.065   6.258  1.00  0.00     0.031 A 
ATOM     64  C   UNL     1      -0.497   9.797   7.928  1.00  0.00     0.131 A 
ATOM     65  C   UNL     1      -2.119  10.376   5.762  1.00  0.00     0.055 A 
ATOM     66  C   UNL     1      -0.595  11.112   7.472  1.00  0.00     0.041 A 
ATOM     67  F   UNL     1       0.339   9.549   8.948  1.00  0.00    -0.206 F 
ATOM     68  C   UNL     1      -1.402  11.406   6.376  1.00  0.00     0.022 A 
BRANCH  65  69
ATOM     69  S   UNL     1      -3.043  10.697   4.235  1.00  0.00     0.124 S 
ATOM     70  O   UNL     1      -2.296   9.896   3.267  1.00  0.00    -0.237 OA
ATOM     71  O   UNL     1      -4.379  10.216   4.566  1.00  0.00    -0.237 OA
ATOM     72  O   UNL     1      -2.925  12.143   4.061  1.00  0.00    -0.744 OA
ENDBRANCH  65  69
ENDBRANCH  48  62
BRANCH  49  73
ATOM     73  C   UNL     1       0.170  -0.659  10.359  1.00  0.00     0.023 A 
ATOM     74  C   UNL     1      -0.897  -1.558  10.507  1.00  0.00     0.031 A 
ATOM     75  C   UNL     1       1.468  -1.109  10.656  1.00  0.00     0.131 A 
ATOM     76  C   UNL     1      -0.647  -2.864  10.957  1.00  0.00     0.055 A 
ATOM     77  C   UNL     1       1.714  -2.416  11.076  1.00  0.00     0.041 A 
ATOM     78  F   UNL     1       2.518  -0.284  10.521  1.00  0.00    -0.206 F 
ATOM     79  C   UNL     1       0.652  -3.302  11.232  1.00  0.00     0.022 A 
BRANCH  76  80
ATOM     80  S   UNL     1      -2.046  -3.997  11.181  1.00  0.00     0.124 S 
ATOM     81  O   UNL     1      -2.718  -3.413  12.336  1.00  0.00    -0.237 OA
ATOM     82  O   UNL     1      -2.744  -3.881   9.904  1.00  0.00    -0.237 OA
ATOM     83  O   UNL     1      -1.402  -5.288  11.417  1.00  0.00    -0.744 OA
ENDBRANCH  76  80
ENDBRANCH  49  73
BRANCH  61  84
ATOM     84  C   UNL     1      -2.640   5.003  13.339  1.00  0.00     0.023 A 
ATOM     85  C   UNL     1      -1.867   5.146  14.502  1.00  0.00     0.031 A 
ATOM     86  C   UNL     1      -4.032   5.171  13.436  1.00  0.00     0.131 A 
ATOM     87  C   UNL     1      -2.496   5.437  15.723  1.00  0.00     0.055 A 
ATOM     88  C   UNL     1      -4.648   5.497  14.645  1.00  0.00     0.041 A 
ATOM     89  F   UNL     1      -4.811   5.050  12.349  1.00  0.00    -0.206 F 
ATOM     90  C   UNL     1      -3.879   5.630  15.797  1.00  0.00     0.022 A 
BRANCH  87  91
ATOM     91  S   UNL     1      -1.485   5.565  17.224  1.00  0.00     0.124 S 
ATOM     92  O   UNL     1      -1.056   4.183  17.416  1.00  0.00    -0.237 OA
ATOM     93  O   UNL     1      -0.443   6.506  16.828  1.00  0.00    -0.237 OA
ATOM     94  O   UNL     1      -2.422   6.069  18.226  1.00  0.00    -0.744 OA
ENDBRANCH  87  91
ENDBRANCH  61  84
ENDBRANCH  35  36
ENDBRANCH  28  30
ENDBRANCH  27  28
ENDBRANCH  26  27
ENDBRANCH   1  26
TORSDOF 19
