REMARK SMILES CC[NH2+][C@]1(C(=O)OCCOC(=O)c2ccc(-c3c4nc(c(-c5cc(S(=O)(=O)[O-])ccc5F)c5ccc([nH]5)c(-c5cc(S(=O)(=O)[O-])ccc5F)c5nc(c(-c6cc(S(=O)(=O)[O-])ccc6F)c6ccc3[nH]6)C=C5)C=C4)cc2)CCC[C@@H](Oc2cc(C)cc(C)c2)C1
REMARK SMILES IDX 9 1 8 2 7 3 5 4 6 5 4 6 76 7 89 8 77 9 79 10 78 11 3 12 2 15
REMARK SMILES IDX 1 16 80 17 81 18 82 19 88 20 83 21 86 22 84 23 85 24 87 25
REMARK SMILES IDX 10 26 11 27 12 28 13 29 14 30 75 31 15 32 74 33 16 34 17 35
REMARK SMILES IDX 18 36 68 37 19 38 73 39 67 40 69 41 20 42 72 43 66 44 65 45
REMARK SMILES IDX 21 47 53 48 33 49 52 50 34 51 37 52 51 53 70 54 35 55 36 56
REMARK SMILES IDX 50 58 71 59 38 60 22 61 23 62 31 63 24 64 30 65 32 66 29 67
REMARK SMILES IDX 25 68 26 69 27 70 28 71 54 72 55 73 63 74 56 75 62 76 64 77
REMARK SMILES IDX 61 78 57 79 58 80 59 81 60 82 39 83 40 84 48 85 41 86 47 87
REMARK SMILES IDX 49 88 46 89 42 90 43 91 44 92 45 93
REMARK H PARENT 3 13 3 14 69 46 37 57
REMARK Flexibility Score: inf
ROOT
ATOM      1  C   UNL     1       1.149   0.231  -2.600  1.00  0.00     0.275 C 
ENDROOT
BRANCH   1   2
ATOM      2  C   UNL     1       0.501   0.274  -1.215  1.00  0.00     0.274 C 
BRANCH   2   3
ATOM      3  O   UNL     1      -0.140   1.547  -0.987  1.00  0.00    -0.457 OA
BRANCH   3   4
ATOM      4  C   UNL     1       0.591   2.482  -0.305  1.00  0.00     0.368 C 
ATOM      5  O   UNL     1       1.716   2.277   0.137  1.00  0.00    -0.245 OA
BRANCH   4   6
ATOM      6  C   UNL     1      -0.185   3.843  -0.135  1.00  0.00     0.197 C 
ATOM      7  C   UNL     1       0.077   4.281   1.330  1.00  0.00     0.081 C 
ATOM      8  C   UNL     1       0.443   4.826  -1.144  1.00  0.00     0.126 C 
ATOM      9  C   UNL     1      -0.239   5.732   1.669  1.00  0.00     0.011 C 
ATOM     10  C   UNL     1       0.343   6.318  -0.783  1.00  0.00     0.180 C 
ATOM     11  C   UNL     1       0.412   6.707   0.710  1.00  0.00     0.046 C 
BRANCH   6  12
ATOM     12  N   UNL     1      -1.608   3.634  -0.523  1.00  0.00    -0.332 N 
ATOM     13  H   UNL     1      -1.688   3.878  -1.511  1.00  0.00     0.347 HD
ATOM     14  H   UNL     1      -1.790   2.660  -0.281  1.00  0.00     0.347 HD
BRANCH  12  15
ATOM     15  C   UNL     1      -2.639   4.369   0.182  1.00  0.00     0.257 C 
ATOM     16  C   UNL     1      -3.999   4.064  -0.424  1.00  0.00     0.071 C 
ENDBRANCH  12  15
ENDBRANCH   6  12
BRANCH  10  17
ATOM     17  O   UNL     1       1.224   7.101  -1.631  1.00  0.00    -0.490 OA
BRANCH  17  18
ATOM     18  C   UNL     1       2.501   7.333  -1.186  1.00  0.00     0.120 A 
ATOM     19  C   UNL     1       3.058   8.581  -1.466  1.00  0.00     0.049 A 
ATOM     20  C   UNL     1       3.221   6.433  -0.404  1.00  0.00     0.049 A 
ATOM     21  C   UNL     1       4.293   8.945  -0.904  1.00  0.00    -0.047 A 
ATOM     22  C   UNL     1       4.388   6.816   0.256  1.00  0.00    -0.047 A 
ATOM     23  C   UNL     1       4.881  10.306  -1.141  1.00  0.00     0.044 C 
ATOM     24  C   UNL     1       4.942   8.062  -0.028  1.00  0.00     0.007 A 
ATOM     25  C   UNL     1       4.973   5.888   1.277  1.00  0.00     0.044 C 
ENDBRANCH  17  18
ENDBRANCH  10  17
ENDBRANCH   4   6
ENDBRANCH   3   4
ENDBRANCH   2   3
ENDBRANCH   1   2
BRANCH   1  26
ATOM     26  O   UNL     1       2.284   1.107  -2.603  1.00  0.00    -0.458 OA
BRANCH  26  27
ATOM     27  C   UNL     1       2.759   1.486  -3.817  1.00  0.00     0.338 C 
ATOM     28  O   UNL     1       2.359   1.087  -4.896  1.00  0.00    -0.246 OA
BRANCH  27  29
ATOM     29  C   UNL     1       3.860   2.474  -3.628  1.00  0.00     0.060 A 
ATOM     30  C   UNL     1       4.017   3.140  -2.416  1.00  0.00     0.016 A 
ATOM     31  C   UNL     1       4.730   2.783  -4.679  1.00  0.00     0.016 A 
ATOM     32  C   UNL     1       4.987   4.133  -2.278  1.00  0.00     0.010 A 
ATOM     33  C   UNL     1       5.750   3.743  -4.505  1.00  0.00     0.010 A 
ATOM     34  C   UNL     1       5.880   4.460  -3.303  1.00  0.00    -0.014 A 
BRANCH  34  35
ATOM     35  C   UNL     1       6.844   5.604  -3.122  1.00  0.00     0.031 A 
ATOM     36  C   UNL     1       6.868   6.741  -4.117  1.00  0.00     0.074 A 
ATOM     37  C   UNL     1       7.637   5.721  -2.031  1.00  0.00     0.049 A 
ATOM     38  N   UNL     1       7.746   7.704  -4.257  1.00  0.00    -0.248 NA
ATOM     39  C   UNL     1       5.769   6.789  -5.090  1.00  0.00     0.031 C 
ATOM     40  C   UNL     1       7.679   4.788  -0.908  1.00  0.00     0.029 A 
ATOM     41  N   UNL     1       8.526   6.708  -1.659  1.00  0.00    -0.354 N 
ATOM     42  C   UNL     1       7.358   8.412  -5.390  1.00  0.00     0.074 A 
ATOM     43  C   UNL     1       6.152   7.779  -5.883  1.00  0.00     0.031 C 
ATOM     44  C   UNL     1       8.437   5.306   0.071  1.00  0.00     0.029 A 
ATOM     45  C   UNL     1       9.076   6.527  -0.408  1.00  0.00     0.049 A 
ATOM     46  H   UNL     1       8.748   7.475  -2.236  1.00  0.00     0.167 HD
ATOM     47  C   UNL     1       7.961   9.478  -5.975  1.00  0.00     0.034 A 
ATOM     48  C   UNL     1      10.022   7.219   0.267  1.00  0.00     0.034 A 
ATOM     49  C   UNL     1       9.106  10.170  -5.433  1.00  0.00     0.049 A 
ATOM     50  C   UNL     1      10.707   8.378  -0.417  1.00  0.00     0.074 A 
ATOM     51  C   UNL     1       9.809  11.234  -5.978  1.00  0.00     0.029 A 
ATOM     52  N   UNL     1       9.698   9.897  -4.209  1.00  0.00    -0.354 N 
ATOM     53  N   UNL     1      10.441   8.932  -1.577  1.00  0.00    -0.248 NA
ATOM     54  C   UNL     1      11.853   8.977   0.283  1.00  0.00     0.031 C 
ATOM     55  C   UNL     1      10.852  11.570  -5.107  1.00  0.00     0.029 A 
ATOM     56  C   UNL     1      10.765  10.759  -3.989  1.00  0.00     0.049 A 
ATOM     57  H   UNL     1       9.405   9.194  -3.585  1.00  0.00     0.167 HD
ATOM     58  C   UNL     1      11.390   9.939  -1.742  1.00  0.00     0.074 A 
ATOM     59  C   UNL     1      12.202   9.950  -0.545  1.00  0.00     0.031 C 
ATOM     60  C   UNL     1      11.584  10.765  -2.801  1.00  0.00     0.034 A 
BRANCH  47  61
ATOM     61  C   UNL     1       7.452   9.893  -7.332  1.00  0.00     0.023 A 
ATOM     62  C   UNL     1       6.194  10.485  -7.525  1.00  0.00     0.031 A 
ATOM     63  C   UNL     1       8.253   9.654  -8.465  1.00  0.00     0.131 A 
ATOM     64  C   UNL     1       5.749  10.762  -8.829  1.00  0.00     0.055 A 
ATOM     65  C   UNL     1       7.835   9.999  -9.750  1.00  0.00     0.041 A 
ATOM     66  F   UNL     1       9.456   9.071  -8.340  1.00  0.00    -0.206 F 
ATOM     67  C   UNL     1       6.571  10.544  -9.939  1.00  0.00     0.022 A 
BRANCH  64  68
ATOM     68  S   UNL     1       4.032  11.295  -9.070  1.00  0.00     0.124 S 
ATOM     69  O   UNL     1       3.291  10.160  -8.526  1.00  0.00    -0.237 OA
ATOM     70  O   UNL     1       3.973  12.529  -8.294  1.00  0.00    -0.237 OA
ATOM     71  O   UNL     1       3.926  11.464 -10.518  1.00  0.00    -0.744 OA
ENDBRANCH  64  68
ENDBRANCH  47  61
BRANCH  48  72
ATOM     72  C   UNL     1      10.466   6.790   1.632  1.00  0.00     0.023 A 
ATOM     73  C   UNL     1      10.407   7.671   2.727  1.00  0.00     0.031 A 
ATOM     74  C   UNL     1      11.027   5.518   1.852  1.00  0.00     0.131 A 
ATOM     75  C   UNL     1      10.924   7.279   3.974  1.00  0.00     0.055 A 
ATOM     76  C   UNL     1      11.468   5.106   3.110  1.00  0.00     0.041 A 
ATOM     77  F   UNL     1      11.147   4.642   0.841  1.00  0.00    -0.206 F 
ATOM     78  C   UNL     1      11.430   5.994   4.178  1.00  0.00     0.022 A 
BRANCH  75  79
ATOM     79  S   UNL     1      11.035   8.510   5.303  1.00  0.00     0.124 S 
ATOM     80  O   UNL     1      11.806   9.570   4.664  1.00  0.00    -0.237 OA
ATOM     81  O   UNL     1       9.630   8.803   5.562  1.00  0.00    -0.237 OA
ATOM     82  O   UNL     1      11.728   7.793   6.373  1.00  0.00    -0.744 OA
ENDBRANCH  75  79
ENDBRANCH  48  72
BRANCH  60  83
ATOM     83  C   UNL     1      12.709  11.768  -2.694  1.00  0.00     0.023 A 
ATOM     84  C   UNL     1      14.055  11.362  -2.661  1.00  0.00     0.031 A 
ATOM     85  C   UNL     1      12.432  13.143  -2.595  1.00  0.00     0.131 A 
ATOM     86  C   UNL     1      15.070  12.313  -2.470  1.00  0.00     0.055 A 
ATOM     87  C   UNL     1      13.450  14.090  -2.461  1.00  0.00     0.041 A 
ATOM     88  F   UNL     1      11.166  13.589  -2.621  1.00  0.00    -0.206 F 
ATOM     89  C   UNL     1      14.777  13.676  -2.384  1.00  0.00     0.022 A 
BRANCH  86  90
ATOM     90  S   UNL     1      16.777  11.737  -2.248  1.00  0.00     0.124 S 
ATOM     91  O   UNL     1      16.662  10.898  -1.060  1.00  0.00    -0.237 OA
ATOM     92  O   UNL     1      17.037  11.036  -3.501  1.00  0.00    -0.237 OA
ATOM     93  O   UNL     1      17.536  12.973  -2.063  1.00  0.00    -0.744 OA
ENDBRANCH  86  90
ENDBRANCH  60  83
ENDBRANCH  34  35
ENDBRANCH  27  29
ENDBRANCH  26  27
ENDBRANCH   1  26
TORSDOF 18
