REMARK SMILES CCCc1n[nH]c(C(=O)N[C@H](C)CC(=O)OCCOC(=O)c2ccc(-c3c4nc(c(-c5cc(S(=O)(=O)[O-])ccc5F)c5ccc([nH]5)c(-c5cc(S(=O)(=O)[O-])ccc5F)c5nc(c(-c6cc(S(=O)(=O)[O-])ccc6F)c6ccc3[nH]6)C=C5)C=C4)cc2)n1
REMARK SMILES IDX 17 1 16 2 14 3 15 4 13 5 11 6 12 7 10 8 8 9 9 10 7 12 4 13
REMARK SMILES IDX 5 14 85 15 6 16 3 18 2 19 1 20 18 21 19 22 20 23 21 24 22 25
REMARK SMILES IDX 23 26 84 27 24 28 83 29 25 30 26 31 27 32 77 33 28 34 82 35
REMARK SMILES IDX 76 36 78 37 29 38 81 39 75 40 74 41 30 43 62 44 42 45 61 46
REMARK SMILES IDX 43 47 46 48 60 49 79 50 44 51 45 52 59 54 80 55 47 56 31 57
REMARK SMILES IDX 32 58 40 59 33 60 39 61 41 62 38 63 34 64 35 65 36 66 37 67
REMARK SMILES IDX 63 68 64 69 72 70 65 71 71 72 73 73 70 74 66 75 67 76 68 77
REMARK SMILES IDX 69 78 48 79 49 80 57 81 50 82 56 83 58 84 55 85 51 86 52 87
REMARK SMILES IDX 53 88 54 89
REMARK H PARENT 10 11 6 17 78 42 46 53
REMARK Flexibility Score: inf
ROOT
ATOM      1  C   UNL     1      -4.342  -3.149   3.590  1.00  0.00     0.274 C 
ENDROOT
BRANCH   1   2
ATOM      2  O   UNL     1      -3.299  -4.027   4.056  1.00  0.00    -0.462 OA
BRANCH   2   3
ATOM      3  C   UNL     1      -3.461  -5.335   3.764  1.00  0.00     0.307 C 
ATOM      4  O   UNL     1      -4.472  -5.798   3.243  1.00  0.00    -0.252 OA
BRANCH   3   5
ATOM      5  C   UNL     1      -2.311  -6.225   4.172  1.00  0.00     0.147 C 
BRANCH   5   6
ATOM      6  C   UNL     1      -0.878  -5.692   4.257  1.00  0.00     0.090 C 
ATOM      7  C   UNL     1      -0.738  -4.650   5.378  1.00  0.00     0.031 C 
BRANCH   6   8
ATOM      8  N   UNL     1       0.168  -6.724   4.521  1.00  0.00    -0.346 N 
ATOM      9  C   UNL     1       0.634  -7.821   3.826  1.00  0.00     0.288 C 
ATOM     10  O   UNL     1       1.803  -8.144   4.054  1.00  0.00    -0.266 OA
ATOM     11  H   UNL     1       0.628  -6.592   5.381  1.00  0.00     0.164 HD
BRANCH   9  12
ATOM     12  C   UNL     1      -0.177  -8.562   2.898  1.00  0.00     0.214 A 
ATOM     13  C   UNL     1      -1.757  -9.513   1.847  1.00  0.00     0.151 A 
ATOM     14  N   UNL     1      -0.671  -9.903   1.173  1.00  0.00    -0.158 NA
ATOM     15  N   UNL     1      -1.480  -8.744   2.945  1.00  0.00    -0.207 NA
ATOM     16  N   UNL     1       0.317  -9.329   1.882  1.00  0.00    -0.255 N 
ATOM     17  H   UNL     1       1.276  -9.448   1.693  1.00  0.00     0.192 HD
BRANCH  13  18
ATOM     18  C   UNL     1      -3.165  -9.838   1.485  1.00  0.00     0.079 C 
BRANCH  18  19
ATOM     19  C   UNL     1      -3.463  -9.959  -0.006  1.00  0.00     0.005 C 
ATOM     20  C   UNL     1      -3.008 -11.271  -0.624  1.00  0.00     0.004 C 
ENDBRANCH  18  19
ENDBRANCH  13  18
ENDBRANCH   9  12
ENDBRANCH   6   8
ENDBRANCH   5   6
ENDBRANCH   3   5
ENDBRANCH   2   3
ENDBRANCH   1   2
BRANCH   1  21
ATOM     21  C   UNL     1      -3.883  -2.347   2.371  1.00  0.00     0.275 C 
BRANCH  21  22
ATOM     22  O   UNL     1      -3.651  -3.181   1.220  1.00  0.00    -0.458 OA
BRANCH  22  23
ATOM     23  C   UNL     1      -2.387  -3.649   1.086  1.00  0.00     0.338 C 
ATOM     24  O   UNL     1      -1.448  -3.436   1.844  1.00  0.00    -0.246 OA
BRANCH  23  25
ATOM     25  C   UNL     1      -2.299  -4.559  -0.069  1.00  0.00     0.060 A 
ATOM     26  C   UNL     1      -1.711  -5.814   0.115  1.00  0.00     0.016 A 
ATOM     27  C   UNL     1      -2.745  -4.170  -1.336  1.00  0.00     0.016 A 
ATOM     28  C   UNL     1      -1.593  -6.693  -0.962  1.00  0.00     0.010 A 
ATOM     29  C   UNL     1      -2.619  -5.050  -2.417  1.00  0.00     0.010 A 
ATOM     30  C   UNL     1      -2.053  -6.322  -2.233  1.00  0.00    -0.014 A 
BRANCH  30  31
ATOM     31  C   UNL     1      -1.948  -7.282  -3.360  1.00  0.00     0.031 A 
ATOM     32  C   UNL     1      -0.687  -7.361  -4.166  1.00  0.00     0.074 A 
ATOM     33  C   UNL     1      -2.975  -8.113  -3.621  1.00  0.00     0.049 A 
ATOM     34  N   UNL     1      -0.408  -8.121  -5.193  1.00  0.00    -0.248 NA
ATOM     35  C   UNL     1       0.399  -6.455  -3.768  1.00  0.00     0.031 C 
ATOM     36  C   UNL     1      -4.226  -8.153  -2.865  1.00  0.00     0.029 A 
ATOM     37  N   UNL     1      -3.121  -9.102  -4.560  1.00  0.00    -0.354 N 
ATOM     38  C   UNL     1       0.878  -7.770  -5.586  1.00  0.00     0.074 A 
ATOM     39  C   UNL     1       1.325  -6.736  -4.674  1.00  0.00     0.031 C 
ATOM     40  C   UNL     1      -4.984  -9.161  -3.328  1.00  0.00     0.029 A 
ATOM     41  C   UNL     1      -4.307  -9.794  -4.456  1.00  0.00     0.049 A 
ATOM     42  H   UNL     1      -2.441  -9.300  -5.244  1.00  0.00     0.167 HD
ATOM     43  C   UNL     1       1.602  -8.248  -6.629  1.00  0.00     0.034 A 
ATOM     44  C   UNL     1      -4.792 -10.814  -5.195  1.00  0.00     0.034 A 
ATOM     45  C   UNL     1       1.123  -9.255  -7.547  1.00  0.00     0.049 A 
ATOM     46  C   UNL     1      -3.980 -11.298  -6.374  1.00  0.00     0.074 A 
ATOM     47  C   UNL     1       1.750  -9.772  -8.668  1.00  0.00     0.029 A 
ATOM     48  N   UNL     1      -0.110  -9.891  -7.458  1.00  0.00    -0.354 N 
ATOM     49  N   UNL     1      -2.783 -10.923  -6.764  1.00  0.00    -0.248 NA
ATOM     50  C   UNL     1      -4.598 -12.321  -7.229  1.00  0.00     0.031 C 
ATOM     51  C   UNL     1       0.871 -10.664  -9.293  1.00  0.00     0.029 A 
ATOM     52  C   UNL     1      -0.277 -10.764  -8.524  1.00  0.00     0.049 A 
ATOM     53  H   UNL     1      -0.770  -9.743  -6.743  1.00  0.00     0.167 HD
ATOM     54  C   UNL     1      -2.513 -11.657  -7.917  1.00  0.00     0.074 A 
ATOM     55  C   UNL     1      -3.648 -12.531  -8.129  1.00  0.00     0.031 C 
ATOM     56  C   UNL     1      -1.434 -11.601  -8.739  1.00  0.00     0.034 A 
BRANCH  43  57
ATOM     57  C   UNL     1       2.939  -7.599  -6.887  1.00  0.00     0.023 A 
ATOM     58  C   UNL     1       4.015  -7.723  -5.992  1.00  0.00     0.031 A 
ATOM     59  C   UNL     1       3.117  -6.794  -8.027  1.00  0.00     0.131 A 
ATOM     60  C   UNL     1       5.195  -6.995  -6.216  1.00  0.00     0.055 A 
ATOM     61  C   UNL     1       4.319  -6.133  -8.282  1.00  0.00     0.041 A 
ATOM     62  F   UNL     1       2.114  -6.618  -8.902  1.00  0.00    -0.206 F 
ATOM     63  C   UNL     1       5.362  -6.219  -7.366  1.00  0.00     0.022 A 
BRANCH  60  64
ATOM     64  S   UNL     1       6.453  -6.956  -4.909  1.00  0.00     0.124 S 
ATOM     65  O   UNL     1       5.694  -6.418  -3.783  1.00  0.00    -0.237 OA
ATOM     66  O   UNL     1       6.845  -8.357  -4.806  1.00  0.00    -0.237 OA
ATOM     67  O   UNL     1       7.476  -6.060  -5.444  1.00  0.00    -0.744 OA
ENDBRANCH  60  64
ENDBRANCH  43  57
BRANCH  44  68
ATOM     68  C   UNL     1      -6.128 -11.415  -4.898  1.00  0.00     0.023 A 
ATOM     69  C   UNL     1      -6.256 -12.782  -4.599  1.00  0.00     0.031 A 
ATOM     70  C   UNL     1      -7.306 -10.649  -4.977  1.00  0.00     0.131 A 
ATOM     71  C   UNL     1      -7.531 -13.349  -4.437  1.00  0.00     0.055 A 
ATOM     72  C   UNL     1      -8.566 -11.204  -4.748  1.00  0.00     0.041 A 
ATOM     73  F   UNL     1      -7.250  -9.342  -5.276  1.00  0.00    -0.206 F 
ATOM     74  C   UNL     1      -8.685 -12.565  -4.490  1.00  0.00     0.022 A 
BRANCH  71  75
ATOM     75  S   UNL     1      -7.669 -15.150  -4.263  1.00  0.00     0.124 S 
ATOM     76  O   UNL     1      -7.030 -15.617  -5.488  1.00  0.00    -0.237 OA
ATOM     77  O   UNL     1      -6.939 -15.394  -3.024  1.00  0.00    -0.237 OA
ATOM     78  O   UNL     1      -9.112 -15.375  -4.188  1.00  0.00    -0.744 OA
ENDBRANCH  71  75
ENDBRANCH  44  68
BRANCH  56  79
ATOM     79  C   UNL     1      -1.449 -12.506  -9.947  1.00  0.00     0.023 A 
ATOM     80  C   UNL     1      -2.358 -12.303 -11.002  1.00  0.00     0.031 A 
ATOM     81  C   UNL     1      -0.549 -13.581 -10.047  1.00  0.00     0.131 A 
ATOM     82  C   UNL     1      -2.378 -13.190 -12.090  1.00  0.00     0.055 A 
ATOM     83  C   UNL     1      -0.539 -14.429 -11.155  1.00  0.00     0.041 A 
ATOM     84  F   UNL     1       0.339 -13.821  -9.069  1.00  0.00    -0.206 F 
ATOM     85  C   UNL     1      -1.464 -14.242 -12.180  1.00  0.00     0.022 A 
BRANCH  82  86
ATOM     86  S   UNL     1      -3.663 -12.992 -13.355  1.00  0.00     0.124 S 
ATOM     87  O   UNL     1      -4.886 -13.152 -12.576  1.00  0.00    -0.237 OA
ATOM     88  O   UNL     1      -3.400 -11.649 -13.861  1.00  0.00    -0.237 OA
ATOM     89  O   UNL     1      -3.384 -14.073 -14.300  1.00  0.00    -0.744 OA
ENDBRANCH  82  86
ENDBRANCH  56  79
ENDBRANCH  30  31
ENDBRANCH  23  25
ENDBRANCH  22  23
ENDBRANCH  21  22
ENDBRANCH   1  21
TORSDOF 19
