REMARK SMILES O=C(C[C@H](NC(=O)[C@]12C[C@H]3C[C@H](C[C@H](C3)C1)C2)c1ccc(Cl)cc1Cl)OCCOC(=O)c1ccc(-c2c3nc(c(-c4cc(S(=O)(=O)[O-])ccc4F)c4ccc([nH]4)c(-c4cc(S(=O)(=O)[O-])ccc4F)c4nc(c(-c5cc(S(=O)(=O)[O-])ccc5F)c5ccc2[nH]5)C=C4)C=C3)cc1
REMARK SMILES IDX 27 1 26 2 2 3 1 4 3 5 4 6 18 7 19 8 24 9 20 10 23 11 25 12
REMARK SMILES IDX 21 13 22 14 5 15 6 16 7 18 8 19 9 20 16 21 17 22 10 23 14 24
REMARK SMILES IDX 12 25 11 26 15 27 13 28 28 29 29 30 30 31 31 32 32 33 33 34
REMARK SMILES IDX 94 35 34 36 93 37 35 38 36 39 37 40 87 41 38 42 92 43 86 44
REMARK SMILES IDX 88 45 39 46 91 47 85 48 84 49 40 51 72 52 52 53 71 54 53 55
REMARK SMILES IDX 56 56 70 57 89 58 54 59 55 60 69 62 90 63 57 64 41 65 42 66
REMARK SMILES IDX 50 67 43 68 49 69 51 70 48 71 44 72 45 73 46 74 47 75 73 76
REMARK SMILES IDX 74 77 82 78 75 79 81 80 83 81 80 82 76 83 77 84 78 85 79 86
REMARK SMILES IDX 58 87 59 88 67 89 60 90 66 91 68 92 65 93 61 94 62 95 63 96
REMARK SMILES IDX 64 97
REMARK H PARENT 5 17 88 50 56 61
REMARK Flexibility Score: inf
ROOT
ATOM      1  C   UNL     1       3.729  -0.144   1.662  1.00  0.00     0.274 C 
ENDROOT
BRANCH   1   2
ATOM      2  O   UNL     1       4.958  -0.787   1.256  1.00  0.00    -0.462 OA
BRANCH   2   3
ATOM      3  C   UNL     1       5.307  -1.043  -0.027  1.00  0.00     0.308 C 
ATOM      4  O   UNL     1       6.127  -1.920  -0.285  1.00  0.00    -0.252 OA
BRANCH   3   5
ATOM      5  C   UNL     1       4.740  -0.167  -1.108  1.00  0.00     0.152 C 
BRANCH   5   6
ATOM      6  C   UNL     1       3.829  -0.859  -2.116  1.00  0.00     0.125 C 
BRANCH   6   7
ATOM      7  C   UNL     1       4.556  -1.789  -3.073  1.00  0.00    -0.006 A 
ATOM      8  C   UNL     1       5.282  -1.167  -4.118  1.00  0.00     0.009 A 
ATOM      9  C   UNL     1       4.593  -3.192  -3.001  1.00  0.00     0.047 A 
ATOM     10  C   UNL     1       5.993  -1.911  -5.059  1.00  0.00     0.021 A 
ATOM     11  C   UNL     1       5.297  -3.937  -3.955  1.00  0.00     0.041 A 
ATOM     12  Cl  UNL     1       3.810  -4.099  -1.754  1.00  0.00    -0.084 Cl
ATOM     13  C   UNL     1       5.992  -3.296  -4.976  1.00  0.00     0.042 A 
ATOM     14  Cl  UNL     1       6.859  -4.225  -6.135  1.00  0.00    -0.084 Cl
ENDBRANCH   6   7
BRANCH   6  15
ATOM     15  N   UNL     1       2.632  -1.405  -1.492  1.00  0.00    -0.348 N 
ATOM     16  C   UNL     1       1.328  -1.023  -1.484  1.00  0.00     0.226 C 
ATOM     17  H   UNL     1       2.804  -2.220  -0.966  1.00  0.00     0.164 HD
ATOM     18  O   UNL     1       0.597  -1.624  -0.690  1.00  0.00    -0.274 OA
BRANCH  16  19
ATOM     19  C   UNL     1       0.780   0.102  -2.380  1.00  0.00     0.050 C 
ATOM     20  C   UNL     1      -0.775   0.163  -2.233  1.00  0.00     0.020 C 
ATOM     21  C   UNL     1       1.061  -0.175  -3.878  1.00  0.00     0.020 C 
ATOM     22  C   UNL     1       1.315   1.488  -1.947  1.00  0.00     0.020 C 
ATOM     23  C   UNL     1      -1.376   1.267  -3.124  1.00  0.00    -0.010 C 
ATOM     24  C   UNL     1       0.507   0.955  -4.756  1.00  0.00    -0.010 C 
ATOM     25  C   UNL     1       0.741   2.595  -2.848  1.00  0.00    -0.010 C 
ATOM     26  C   UNL     1      -0.789   2.624  -2.710  1.00  0.00     0.007 C 
ATOM     27  C   UNL     1      -1.018   0.997  -4.593  1.00  0.00     0.007 C 
ATOM     28  C   UNL     1       1.118   2.296  -4.309  1.00  0.00     0.007 C 
ENDBRANCH  16  19
ENDBRANCH   6  15
ENDBRANCH   5   6
ENDBRANCH   3   5
ENDBRANCH   2   3
ENDBRANCH   1   2
BRANCH   1  29
ATOM     29  C   UNL     1       3.955   1.278   2.187  1.00  0.00     0.275 C 
BRANCH  29  30
ATOM     30  O   UNL     1       4.216   2.201   1.112  1.00  0.00    -0.458 OA
BRANCH  30  31
ATOM     31  C   UNL     1       5.525   2.421   0.824  1.00  0.00     0.338 C 
ATOM     32  O   UNL     1       6.479   1.963   1.429  1.00  0.00    -0.246 OA
BRANCH  31  33
ATOM     33  C   UNL     1       5.636   3.136  -0.473  1.00  0.00     0.060 A 
ATOM     34  C   UNL     1       6.745   2.857  -1.286  1.00  0.00     0.016 A 
ATOM     35  C   UNL     1       4.662   4.040  -0.910  1.00  0.00     0.016 A 
ATOM     36  C   UNL     1       6.894   3.492  -2.522  1.00  0.00     0.010 A 
ATOM     37  C   UNL     1       4.819   4.686  -2.141  1.00  0.00     0.010 A 
ATOM     38  C   UNL     1       5.947   4.433  -2.942  1.00  0.00    -0.014 A 
BRANCH  38  39
ATOM     39  C   UNL     1       6.216   5.305  -4.112  1.00  0.00     0.031 A 
ATOM     40  C   UNL     1       6.841   6.650  -3.867  1.00  0.00     0.074 A 
ATOM     41  C   UNL     1       5.870   4.940  -5.359  1.00  0.00     0.049 A 
ATOM     42  N   UNL     1       7.056   7.634  -4.699  1.00  0.00    -0.248 NA
ATOM     43  C   UNL     1       7.262   6.918  -2.485  1.00  0.00     0.031 C 
ATOM     44  C   UNL     1       5.284   3.654  -5.731  1.00  0.00     0.029 A 
ATOM     45  N   UNL     1       5.937   5.637  -6.540  1.00  0.00    -0.354 N 
ATOM     46  C   UNL     1       7.633   8.647  -3.941  1.00  0.00     0.074 A 
ATOM     47  C   UNL     1       7.695   8.165  -2.576  1.00  0.00     0.031 C 
ATOM     48  C   UNL     1       5.011   3.668  -7.048  1.00  0.00     0.029 A 
ATOM     49  C   UNL     1       5.367   4.976  -7.601  1.00  0.00     0.049 A 
ATOM     50  H   UNL     1       6.354   6.525  -6.618  1.00  0.00     0.167 HD
ATOM     51  C   UNL     1       8.072   9.866  -4.343  1.00  0.00     0.034 A 
ATOM     52  C   UNL     1       5.122   5.393  -8.861  1.00  0.00     0.034 A 
ATOM     53  C   UNL     1       7.970  10.348  -5.698  1.00  0.00     0.049 A 
ATOM     54  C   UNL     1       5.535   6.785  -9.277  1.00  0.00     0.074 A 
ATOM     55  C   UNL     1       8.398  11.556  -6.220  1.00  0.00     0.029 A 
ATOM     56  N   UNL     1       7.374   9.654  -6.745  1.00  0.00    -0.354 N 
ATOM     57  N   UNL     1       6.103   7.728  -8.560  1.00  0.00    -0.248 NA
ATOM     58  C   UNL     1       5.276   7.168 -10.673  1.00  0.00     0.031 C 
ATOM     59  C   UNL     1       7.992  11.625  -7.557  1.00  0.00     0.029 A 
ATOM     60  C   UNL     1       7.386  10.425  -7.897  1.00  0.00     0.049 A 
ATOM     61  H   UNL     1       6.998   8.747  -6.678  1.00  0.00     0.167 HD
ATOM     62  C   UNL     1       6.297   8.803  -9.427  1.00  0.00     0.074 A 
ATOM     63  C   UNL     1       5.784   8.393 -10.718  1.00  0.00     0.031 C 
ATOM     64  C   UNL     1       6.862  10.012  -9.179  1.00  0.00     0.034 A 
BRANCH  51  65
ATOM     65  C   UNL     1       8.632  10.773  -3.275  1.00  0.00     0.023 A 
ATOM     66  C   UNL     1       9.772  10.420  -2.531  1.00  0.00     0.031 A 
ATOM     67  C   UNL     1       7.969  11.965  -2.935  1.00  0.00     0.131 A 
ATOM     68  C   UNL     1      10.150  11.190  -1.421  1.00  0.00     0.055 A 
ATOM     69  C   UNL     1       8.408  12.779  -1.889  1.00  0.00     0.041 A 
ATOM     70  F   UNL     1       6.862  12.344  -3.593  1.00  0.00    -0.206 F 
ATOM     71  C   UNL     1       9.490  12.381  -1.109  1.00  0.00     0.022 A 
BRANCH  68  72
ATOM     72  S   UNL     1      11.380  10.505  -0.277  1.00  0.00     0.124 S 
ATOM     73  O   UNL     1      10.784   9.214   0.059  1.00  0.00    -0.237 OA
ATOM     74  O   UNL     1      12.583  10.460  -1.100  1.00  0.00    -0.237 OA
ATOM     75  O   UNL     1      11.405  11.473   0.818  1.00  0.00    -0.744 OA
ENDBRANCH  68  72
ENDBRANCH  51  65
BRANCH  52  76
ATOM     76  C   UNL     1       4.395   4.502  -9.808  1.00  0.00     0.023 A 
ATOM     77  C   UNL     1       5.025   3.968 -10.943  1.00  0.00     0.031 A 
ATOM     78  C   UNL     1       3.039   4.189  -9.595  1.00  0.00     0.131 A 
ATOM     79  C   UNL     1       4.291   3.174 -11.838  1.00  0.00     0.055 A 
ATOM     80  C   UNL     1       2.326   3.365 -10.466  1.00  0.00     0.041 A 
ATOM     81  F   UNL     1       2.393   4.671  -8.521  1.00  0.00    -0.206 F 
ATOM     82  C   UNL     1       2.951   2.858 -11.601  1.00  0.00     0.022 A 
BRANCH  79  83
ATOM     83  S   UNL     1       5.105   2.588 -13.350  1.00  0.00     0.124 S 
ATOM     84  O   UNL     1       5.403   3.843 -14.030  1.00  0.00    -0.237 OA
ATOM     85  O   UNL     1       6.250   1.859 -12.815  1.00  0.00    -0.237 OA
ATOM     86  O   UNL     1       4.083   1.758 -13.986  1.00  0.00    -0.744 OA
ENDBRANCH  79  83
ENDBRANCH  52  76
BRANCH  64  87
ATOM     87  C   UNL     1       7.013  10.967 -10.341  1.00  0.00     0.023 A 
ATOM     88  C   UNL     1       5.909  11.595 -10.943  1.00  0.00     0.031 A 
ATOM     89  C   UNL     1       8.297  11.277 -10.827  1.00  0.00     0.131 A 
ATOM     90  C   UNL     1       6.108  12.477 -12.018  1.00  0.00     0.055 A 
ATOM     91  C   UNL     1       8.492  12.193 -11.862  1.00  0.00     0.041 A 
ATOM     92  F   UNL     1       9.386  10.706 -10.290  1.00  0.00    -0.206 F 
ATOM     93  C   UNL     1       7.393  12.793 -12.468  1.00  0.00     0.022 A 
BRANCH  90  94
ATOM     94  S   UNL     1       4.660  13.171 -12.863  1.00  0.00     0.124 S 
ATOM     95  O   UNL     1       3.985  11.970 -13.344  1.00  0.00    -0.237 OA
ATOM     96  O   UNL     1       3.987  13.895 -11.789  1.00  0.00    -0.237 OA
ATOM     97  O   UNL     1       5.242  14.015 -13.906  1.00  0.00    -0.744 OA
ENDBRANCH  90  94
ENDBRANCH  64  87
ENDBRANCH  38  39
ENDBRANCH  31  33
ENDBRANCH  30  31
ENDBRANCH  29  30
ENDBRANCH   1  29
TORSDOF 18
