REMARK SMILES COc1ccccc1CCNC(=O)[C@@H]1[C@@H](C(=O)OCCOC(=O)c2ccc(-c3c4nc(c(-c5cc(S(=O)(=O)[O-])ccc5F)c5ccc([nH]5)c(-c5cc(S(=O)(=O)[O-])ccc5F)c5nc(c(-c6cc(S(=O)(=O)[O-])ccc6F)c6ccc3[nH]6)C=C5)C=C4)cc2)[C@H]2C=C[C@@H]1CC2
REMARK SMILES IDX 19 1 18 2 16 3 17 4 15 5 14 6 90 7 87 8 89 9 91 10 88 11
REMARK SMILES IDX 92 12 12 13 11 14 13 16 10 17 9 18 8 19 3 20 4 21 5 22 7 23
REMARK SMILES IDX 6 24 2 25 1 26 20 27 21 28 22 29 23 30 24 31 25 32 86 33
REMARK SMILES IDX 26 34 85 35 27 36 28 37 29 38 79 39 30 40 84 41 78 42 80 43
REMARK SMILES IDX 31 44 83 45 77 46 76 47 32 49 64 50 44 51 63 52 45 53 48 54
REMARK SMILES IDX 62 55 81 56 46 57 47 58 61 60 82 61 49 62 33 63 34 64 42 65
REMARK SMILES IDX 35 66 41 67 43 68 40 69 36 70 37 71 38 72 39 73 65 74 66 75
REMARK SMILES IDX 74 76 67 77 73 78 75 79 72 80 68 81 69 82 70 83 71 84 50 85
REMARK SMILES IDX 51 86 59 87 52 88 58 89 60 90 57 91 53 92 54 93 55 94 56 95
REMARK H PARENT 11 15 80 48 48 59
REMARK Flexibility Score: inf
ROOT
ATOM      1  C   UNL     1       9.745  -1.414  -2.271  1.00  0.00     0.274 C 
ENDROOT
BRANCH   1   2
ATOM      2  O   UNL     1       9.020  -1.144  -1.055  1.00  0.00    -0.462 OA
BRANCH   2   3
ATOM      3  C   UNL     1       8.543   0.122  -0.911  1.00  0.00     0.310 C 
ATOM      4  O   UNL     1       8.713   1.012  -1.736  1.00  0.00    -0.252 OA
BRANCH   3   5
ATOM      5  C   UNL     1       7.646   0.276   0.317  1.00  0.00     0.119 C 
ATOM      6  C   UNL     1       7.671   1.755   0.807  1.00  0.00     0.100 C 
ATOM      7  C   UNL     1       7.975   1.815   2.327  1.00  0.00     0.025 C 
ATOM      8  C   UNL     1       8.070  -0.648   1.498  1.00  0.00     0.026 C 
ATOM      9  C   UNL     1       9.328   1.139   2.509  1.00  0.00    -0.027 C 
ATOM     10  C   UNL     1       6.959   0.962   3.111  1.00  0.00     0.009 C 
ATOM     11  C   UNL     1       9.378  -0.130   2.071  1.00  0.00    -0.027 C 
ATOM     12  C   UNL     1       7.025  -0.507   2.632  1.00  0.00     0.009 C 
BRANCH   6  13
ATOM     13  C   UNL     1       6.552   2.718   0.417  1.00  0.00     0.224 C 
ATOM     14  N   UNL     1       5.233   2.445   0.362  1.00  0.00    -0.355 N 
ATOM     15  H   UNL     1       4.704   3.229   0.090  1.00  0.00     0.163 HD
ATOM     16  O   UNL     1       6.857   3.898   0.191  1.00  0.00    -0.275 OA
BRANCH  14  17
ATOM     17  C   UNL     1       4.397   1.279   0.607  1.00  0.00     0.120 C 
BRANCH  17  18
ATOM     18  C   UNL     1       3.276   1.565   1.606  1.00  0.00     0.060 C 
BRANCH  18  19
ATOM     19  C   UNL     1       2.281   2.597   1.132  1.00  0.00    -0.004 A 
ATOM     20  C   UNL     1       1.306   2.330   0.157  1.00  0.00     0.122 A 
ATOM     21  C   UNL     1       0.425   3.333  -0.258  1.00  0.00     0.047 A 
ATOM     22  C   UNL     1       0.508   4.613   0.291  1.00  0.00     0.004 A 
ATOM     23  C   UNL     1       2.362   3.899   1.659  1.00  0.00     0.007 A 
ATOM     24  C   UNL     1       1.486   4.900   1.238  1.00  0.00     0.001 A 
BRANCH  20  25
ATOM     25  O   UNL     1       1.276   1.153  -0.542  1.00  0.00    -0.496 OA
ATOM     26  C   UNL     1       0.748   0.058   0.203  1.00  0.00     0.278 C 
ENDBRANCH  20  25
ENDBRANCH  18  19
ENDBRANCH  17  18
ENDBRANCH  14  17
ENDBRANCH   6  13
ENDBRANCH   3   5
ENDBRANCH   2   3
ENDBRANCH   1   2
BRANCH   1  27
ATOM     27  C   UNL     1       8.888  -2.193  -3.272  1.00  0.00     0.275 C 
BRANCH  27  28
ATOM     28  O   UNL     1       7.794  -1.401  -3.772  1.00  0.00    -0.458 OA
BRANCH  28  29
ATOM     29  C   UNL     1       6.635  -1.536  -3.090  1.00  0.00     0.338 C 
ATOM     30  O   UNL     1       6.422  -2.267  -2.131  1.00  0.00    -0.246 OA
BRANCH  29  31
ATOM     31  C   UNL     1       5.650  -0.561  -3.571  1.00  0.00     0.060 A 
ATOM     32  C   UNL     1       5.453   0.585  -2.808  1.00  0.00     0.016 A 
ATOM     33  C   UNL     1       4.825  -0.828  -4.663  1.00  0.00     0.016 A 
ATOM     34  C   UNL     1       4.387   1.433  -3.078  1.00  0.00     0.010 A 
ATOM     35  C   UNL     1       3.786   0.063  -4.971  1.00  0.00     0.010 A 
ATOM     36  C   UNL     1       3.536   1.186  -4.160  1.00  0.00    -0.014 A 
BRANCH  36  37
ATOM     37  C   UNL     1       2.363   2.077  -4.378  1.00  0.00     0.031 A 
ATOM     38  C   UNL     1       0.968   1.521  -4.290  1.00  0.00     0.074 A 
ATOM     39  C   UNL     1       2.541   3.397  -4.587  1.00  0.00     0.049 A 
ATOM     40  N   UNL     1      -0.173   2.084  -4.598  1.00  0.00    -0.248 NA
ATOM     41  C   UNL     1       0.841   0.138  -3.805  1.00  0.00     0.031 C 
ATOM     42  C   UNL     1       3.835   4.084  -4.606  1.00  0.00     0.029 A 
ATOM     43  N   UNL     1       1.632   4.403  -4.804  1.00  0.00    -0.354 N 
ATOM     44  C   UNL     1      -1.146   1.111  -4.397  1.00  0.00     0.074 A 
ATOM     45  C   UNL     1      -0.458  -0.080  -3.943  1.00  0.00     0.031 C 
ATOM     46  C   UNL     1       3.633   5.399  -4.777  1.00  0.00     0.029 A 
ATOM     47  C   UNL     1       2.210   5.639  -4.982  1.00  0.00     0.049 A 
ATOM     48  H   UNL     1       0.659   4.254  -4.829  1.00  0.00     0.167 HD
ATOM     49  C   UNL     1      -2.486   1.206  -4.581  1.00  0.00     0.034 A 
ATOM     50  C   UNL     1       1.665   6.824  -5.323  1.00  0.00     0.034 A 
ATOM     51  C   UNL     1      -3.157   2.416  -4.990  1.00  0.00     0.049 A 
ATOM     52  C   UNL     1       0.184   6.889  -5.585  1.00  0.00     0.074 A 
ATOM     53  C   UNL     1      -4.509   2.625  -5.205  1.00  0.00     0.029 A 
ATOM     54  N   UNL     1      -2.527   3.629  -5.238  1.00  0.00    -0.354 N 
ATOM     55  N   UNL     1      -0.716   5.938  -5.484  1.00  0.00    -0.248 NA
ATOM     56  C   UNL     1      -0.351   8.181  -6.032  1.00  0.00     0.031 C 
ATOM     57  C   UNL     1      -4.689   3.945  -5.634  1.00  0.00     0.029 A 
ATOM     58  C   UNL     1      -3.458   4.581  -5.627  1.00  0.00     0.049 A 
ATOM     59  H   UNL     1      -1.559   3.789  -5.152  1.00  0.00     0.167 HD
ATOM     60  C   UNL     1      -1.923   6.519  -5.856  1.00  0.00     0.074 A 
ATOM     61  C   UNL     1      -1.642   7.909  -6.155  1.00  0.00     0.031 C 
ATOM     62  C   UNL     1      -3.154   5.955  -5.946  1.00  0.00     0.034 A 
BRANCH  49  63
ATOM     63  C   UNL     1      -3.299  -0.054  -4.414  1.00  0.00     0.023 A 
ATOM     64  C   UNL     1      -3.448  -0.692  -3.171  1.00  0.00     0.031 A 
ATOM     65  C   UNL     1      -3.910  -0.646  -5.535  1.00  0.00     0.131 A 
ATOM     66  C   UNL     1      -4.131  -1.915  -3.090  1.00  0.00     0.055 A 
ATOM     67  C   UNL     1      -4.650  -1.825  -5.435  1.00  0.00     0.041 A 
ATOM     68  F   UNL     1      -3.783  -0.094  -6.752  1.00  0.00    -0.206 F 
ATOM     69  C   UNL     1      -4.752  -2.475  -4.209  1.00  0.00     0.022 A 
BRANCH  66  70
ATOM     70  S   UNL     1      -4.075  -2.838  -1.528  1.00  0.00     0.124 S 
ATOM     71  O   UNL     1      -2.636  -2.965  -1.307  1.00  0.00    -0.237 OA
ATOM     72  O   UNL     1      -4.785  -1.952  -0.613  1.00  0.00    -0.237 OA
ATOM     73  O   UNL     1      -4.761  -4.089  -1.845  1.00  0.00    -0.744 OA
ENDBRANCH  66  70
ENDBRANCH  49  63
BRANCH  50  74
ATOM     74  C   UNL     1       2.531   8.020  -5.528  1.00  0.00     0.023 A 
ATOM     75  C   UNL     1       2.399   9.161  -4.722  1.00  0.00     0.031 A 
ATOM     76  C   UNL     1       3.483   8.050  -6.564  1.00  0.00     0.131 A 
ATOM     77  C   UNL     1       3.186  10.294  -4.983  1.00  0.00     0.055 A 
ATOM     78  C   UNL     1       4.302   9.158  -6.784  1.00  0.00     0.041 A 
ATOM     79  F   UNL     1       3.643   6.989  -7.372  1.00  0.00    -0.206 F 
ATOM     80  C   UNL     1       4.148  10.294  -5.996  1.00  0.00     0.022 A 
BRANCH  77  81
ATOM     81  S   UNL     1       2.880  11.806  -4.027  1.00  0.00     0.124 S 
ATOM     82  O   UNL     1       1.480  12.075  -4.337  1.00  0.00    -0.237 OA
ATOM     83  O   UNL     1       3.163  11.369  -2.664  1.00  0.00    -0.237 OA
ATOM     84  O   UNL     1       3.836  12.761  -4.584  1.00  0.00    -0.744 OA
ENDBRANCH  77  81
ENDBRANCH  50  74
BRANCH  62  85
ATOM     85  C   UNL     1      -4.283   6.861  -6.364  1.00  0.00     0.023 A 
ATOM     86  C   UNL     1      -4.380   7.354  -7.677  1.00  0.00     0.031 A 
ATOM     87  C   UNL     1      -5.259   7.251  -5.432  1.00  0.00     0.131 A 
ATOM     88  C   UNL     1      -5.406   8.251  -8.010  1.00  0.00     0.055 A 
ATOM     89  C   UNL     1      -6.306   8.105  -5.782  1.00  0.00     0.041 A 
ATOM     90  F   UNL     1      -5.210   6.809  -4.165  1.00  0.00    -0.206 F 
ATOM     91  C   UNL     1      -6.377   8.619  -7.074  1.00  0.00     0.022 A 
BRANCH  88  92
ATOM     92  S   UNL     1      -5.415   8.991  -9.666  1.00  0.00     0.124 S 
ATOM     93  O   UNL     1      -4.137   9.695  -9.691  1.00  0.00    -0.237 OA
ATOM     94  O   UNL     1      -5.516   7.820 -10.532  1.00  0.00    -0.237 OA
ATOM     95  O   UNL     1      -6.596   9.851  -9.651  1.00  0.00    -0.744 OA
ENDBRANCH  88  92
ENDBRANCH  62  85
ENDBRANCH  36  37
ENDBRANCH  29  31
ENDBRANCH  28  29
ENDBRANCH  27  28
ENDBRANCH   1  27
TORSDOF 19
