REMARK SMILES O=C(OCCOC(=O)C1CCN(S(=O)(=O)c2ccc3nc(O)sc3c2)CC1)c1ccc(-c2c3nc(c(-c4cc(S(=O)(=O)[O-])ccc4F)c4ccc([nH]4)c(-c4cc(S(=O)(=O)[O-])ccc4F)c4nc(c(-c5cc(S(=O)(=O)[O-])ccc5F)c5ccc2[nH]5)C=C4)C=C3)cc1
REMARK SMILES IDX 4 1 3 2 2 3 1 4 28 5 29 6 90 7 30 8 89 9 31 10 32 11 33 12
REMARK SMILES IDX 83 13 34 14 88 15 82 16 84 17 35 18 87 19 81 20 80 21 36 23
REMARK SMILES IDX 68 24 48 25 67 26 49 27 52 28 66 29 85 30 50 31 51 32 65 34
REMARK SMILES IDX 86 35 53 36 37 37 38 38 46 39 39 40 45 41 47 42 44 43 40 44
REMARK SMILES IDX 41 45 42 46 43 47 69 48 70 49 78 50 71 51 77 52 79 53 76 54
REMARK SMILES IDX 72 55 73 56 74 57 75 58 54 59 55 60 63 61 56 62 62 63 64 64
REMARK SMILES IDX 61 65 57 66 58 67 59 68 60 69 5 70 6 71 7 72 8 73 9 74 10 75
REMARK SMILES IDX 27 76 11 77 26 78 12 79 13 80 14 81 15 82 16 83 17 84 25 85
REMARK SMILES IDX 18 86 24 87 19 88 23 89 20 90 21 91 22 92
REMARK H PARENT 84 22 52 33 22 93
REMARK Flexibility Score: inf
ROOT
ATOM      1  C   UNL     1       4.776   0.294  -0.851  1.00  0.00     0.275 C 
ENDROOT
BRANCH   1   2
ATOM      2  O   UNL     1       5.459  -0.321   0.262  1.00  0.00    -0.458 OA
BRANCH   2   3
ATOM      3  C   UNL     1       4.717  -1.197   0.986  1.00  0.00     0.338 C 
ATOM      4  O   UNL     1       3.899  -1.986   0.536  1.00  0.00    -0.246 OA
BRANCH   3   5
ATOM      5  C   UNL     1       4.800  -0.859   2.438  1.00  0.00     0.060 A 
ATOM      6  C   UNL     1       4.133  -1.678   3.368  1.00  0.00     0.016 A 
ATOM      7  C   UNL     1       5.136   0.453   2.793  1.00  0.00     0.016 A 
ATOM      8  C   UNL     1       3.697  -1.136   4.590  1.00  0.00     0.010 A 
ATOM      9  C   UNL     1       4.619   1.009   3.958  1.00  0.00     0.010 A 
ATOM     10  C   UNL     1       3.882   0.230   4.866  1.00  0.00    -0.014 A 
BRANCH  10  11
ATOM     11  C   UNL     1       3.556   0.733   6.234  1.00  0.00     0.031 A 
ATOM     12  C   UNL     1       4.888   1.171   6.804  1.00  0.00     0.074 A 
ATOM     13  C   UNL     1       2.497   1.504   6.588  1.00  0.00     0.049 A 
ATOM     14  N   UNL     1       5.447   2.314   6.527  1.00  0.00    -0.248 NA
ATOM     15  C   UNL     1       5.825   0.136   7.247  1.00  0.00     0.031 C 
ATOM     16  C   UNL     1       1.977   2.661   5.851  1.00  0.00     0.029 A 
ATOM     17  N   UNL     1       1.868   1.585   7.828  1.00  0.00    -0.354 N 
ATOM     18  C   UNL     1       6.815   2.118   6.627  1.00  0.00     0.074 A 
ATOM     19  C   UNL     1       7.000   0.757   7.082  1.00  0.00     0.031 C 
ATOM     20  C   UNL     1       1.256   3.427   6.699  1.00  0.00     0.029 A 
ATOM     21  C   UNL     1       1.213   2.802   8.025  1.00  0.00     0.049 A 
ATOM     22  H   UNL     1       1.884   0.861   8.495  1.00  0.00     0.167 HD
ATOM     23  C   UNL     1       7.740   3.053   6.285  1.00  0.00     0.034 A 
ATOM     24  C   UNL     1       1.176   3.481   9.214  1.00  0.00     0.034 A 
ATOM     25  C   UNL     1       7.229   4.331   5.884  1.00  0.00     0.049 A 
ATOM     26  C   UNL     1       2.427   4.322   9.111  1.00  0.00     0.074 A 
ATOM     27  C   UNL     1       7.151   5.107   4.749  1.00  0.00     0.029 A 
ATOM     28  N   UNL     1       6.640   5.098   6.862  1.00  0.00    -0.354 N 
ATOM     29  N   UNL     1       2.583   5.440   8.451  1.00  0.00    -0.248 NA
ATOM     30  C   UNL     1       3.676   3.652   9.475  1.00  0.00     0.031 C 
ATOM     31  C   UNL     1       6.144   6.090   5.019  1.00  0.00     0.029 A 
ATOM     32  C   UNL     1       5.638   5.840   6.295  1.00  0.00     0.049 A 
ATOM     33  H   UNL     1       6.896   5.110   7.813  1.00  0.00     0.167 HD
ATOM     34  C   UNL     1       3.924   5.437   8.043  1.00  0.00     0.074 A 
ATOM     35  C   UNL     1       4.545   4.341   8.753  1.00  0.00     0.031 C 
ATOM     36  C   UNL     1       4.412   6.175   7.000  1.00  0.00     0.034 A 
BRANCH  23  37
ATOM     37  C   UNL     1       9.174   2.873   6.599  1.00  0.00     0.023 A 
ATOM     38  C   UNL     1      10.095   2.196   5.785  1.00  0.00     0.031 A 
ATOM     39  C   UNL     1       9.630   3.485   7.780  1.00  0.00     0.131 A 
ATOM     40  C   UNL     1      11.445   2.167   6.174  1.00  0.00     0.055 A 
ATOM     41  C   UNL     1      10.968   3.466   8.150  1.00  0.00     0.041 A 
ATOM     42  F   UNL     1       8.763   4.120   8.588  1.00  0.00    -0.206 F 
ATOM     43  C   UNL     1      11.884   2.808   7.343  1.00  0.00     0.022 A 
BRANCH  40  44
ATOM     44  S   UNL     1      12.708   1.307   5.193  1.00  0.00     0.124 S 
ATOM     45  O   UNL     1      13.664   2.376   4.915  1.00  0.00    -0.237 OA
ATOM     46  O   UNL     1      13.170   0.285   6.129  1.00  0.00    -0.237 OA
ATOM     47  O   UNL     1      11.971   0.808   4.037  1.00  0.00    -0.744 OA
ENDBRANCH  40  44
ENDBRANCH  23  37
BRANCH  24  48
ATOM     48  C   UNL     1       0.801   2.707  10.444  1.00  0.00     0.023 A 
ATOM     49  C   UNL     1       1.661   2.406  11.511  1.00  0.00     0.031 A 
ATOM     50  C   UNL     1      -0.498   2.163  10.513  1.00  0.00     0.131 A 
ATOM     51  C   UNL     1       1.306   1.434  12.460  1.00  0.00     0.055 A 
ATOM     52  C   UNL     1      -0.885   1.262  11.512  1.00  0.00     0.041 A 
ATOM     53  F   UNL     1      -1.418   2.492   9.591  1.00  0.00    -0.206 F 
ATOM     54  C   UNL     1       0.037   0.857  12.469  1.00  0.00     0.022 A 
BRANCH  51  55
ATOM     55  S   UNL     1       2.547   0.797  13.624  1.00  0.00     0.124 S 
ATOM     56  O   UNL     1       1.826   0.814  14.893  1.00  0.00    -0.237 OA
ATOM     57  O   UNL     1       2.810  -0.524  13.061  1.00  0.00    -0.237 OA
ATOM     58  O   UNL     1       3.641   1.756  13.510  1.00  0.00    -0.744 OA
ENDBRANCH  51  55
ENDBRANCH  24  48
BRANCH  36  59
ATOM     59  C   UNL     1       3.523   7.253   6.463  1.00  0.00     0.023 A 
ATOM     60  C   UNL     1       3.122   7.269   5.114  1.00  0.00     0.031 A 
ATOM     61  C   UNL     1       3.189   8.352   7.269  1.00  0.00     0.131 A 
ATOM     62  C   UNL     1       2.490   8.402   4.589  1.00  0.00     0.055 A 
ATOM     63  C   UNL     1       2.500   9.452   6.756  1.00  0.00     0.041 A 
ATOM     64  F   UNL     1       3.582   8.405   8.553  1.00  0.00    -0.206 F 
ATOM     65  C   UNL     1       2.165   9.490   5.406  1.00  0.00     0.022 A 
BRANCH  62  66
ATOM     66  S   UNL     1       2.158   8.543   2.812  1.00  0.00     0.124 S 
ATOM     67  O   UNL     1       0.763   8.977   2.783  1.00  0.00    -0.237 OA
ATOM     68  O   UNL     1       3.133   9.552   2.404  1.00  0.00    -0.237 OA
ATOM     69  O   UNL     1       2.398   7.197   2.300  1.00  0.00    -0.744 OA
ENDBRANCH  62  66
ENDBRANCH  36  59
ENDBRANCH  10  11
ENDBRANCH   3   5
ENDBRANCH   2   3
ENDBRANCH   1   2
BRANCH   1  70
ATOM     70  C   UNL     1       4.186   1.642  -0.408  1.00  0.00     0.274 C 
BRANCH  70  71
ATOM     71  O   UNL     1       3.327   1.477   0.738  1.00  0.00    -0.462 OA
BRANCH  71  72
ATOM     72  C   UNL     1       1.987   1.673   0.630  1.00  0.00     0.309 C 
ATOM     73  O   UNL     1       1.396   1.909  -0.412  1.00  0.00    -0.252 OA
BRANCH  72  74
ATOM     74  C   UNL     1       1.354   1.591   2.020  1.00  0.00     0.102 C 
ATOM     75  C   UNL     1       1.506   0.230   2.656  1.00  0.00     0.032 C 
ATOM     76  C   UNL     1      -0.117   1.908   2.083  1.00  0.00     0.032 C 
ATOM     77  C   UNL     1       0.721  -0.901   2.047  1.00  0.00     0.103 C 
ATOM     78  C   UNL     1      -0.943   0.855   1.367  1.00  0.00     0.103 C 
ATOM     79  N   UNL     1      -0.692  -0.557   1.798  1.00  0.00    -0.198 NA
BRANCH  79  80
ATOM     80  S   UNL     1      -1.407  -1.767   0.783  1.00  0.00     0.243 S 
ATOM     81  O   UNL     1      -1.118  -1.453  -0.604  1.00  0.00    -0.207 OA
ATOM     82  O   UNL     1      -1.088  -3.065   1.332  1.00  0.00    -0.207 OA
BRANCH  80  83
ATOM     83  C   UNL     1      -3.138  -1.493   1.042  1.00  0.00     0.084 A 
ATOM     84  C   UNL     1      -3.712  -0.325   0.546  1.00  0.00     0.024 A 
ATOM     85  C   UNL     1      -3.870  -2.418   1.793  1.00  0.00     0.043 A 
ATOM     86  C   UNL     1      -4.994   0.041   0.941  1.00  0.00     0.031 A 
ATOM     87  C   UNL     1      -5.187  -2.068   2.117  1.00  0.00     0.059 A 
ATOM     88  C   UNL     1      -5.748  -0.843   1.735  1.00  0.00     0.085 A 
ATOM     89  S   UNL     1      -6.362  -2.959   3.011  1.00  0.00    -0.077 S 
ATOM     90  N   UNL     1      -7.036  -0.613   2.179  1.00  0.00    -0.203 NA
ATOM     91  C   UNL     1      -7.437  -1.659   2.845  1.00  0.00     0.271 A 
BRANCH  91  92
ATOM     92  O   UNL     1      -8.657  -1.655   3.343  1.00  0.00    -0.486 OA
ATOM     93  H   UNL     1      -9.210  -0.909   3.222  1.00  0.00     0.296 HD
ENDBRANCH  91  92
ENDBRANCH  80  83
ENDBRANCH  79  80
ENDBRANCH  72  74
ENDBRANCH  71  72
ENDBRANCH  70  71
ENDBRANCH   1  70
TORSDOF 17
