REMARK SMILES CO[C@H]1C[C@@H](C(=O)OCCOC(=O)c2ccc(-c3c4nc(c(-c5cc(S(=O)(=O)[O-])ccc5F)c5ccc([nH]5)c(-c5cc(S(=O)(=O)[O-])ccc5F)c5nc(c(-c6cc(S(=O)(=O)[O-])ccc6F)c6ccc3[nH]6)C=C5)C=C4)cc2)N(C(=O)Nc2cc(C)cc(F)c2)C1
REMARK SMILES IDX 10 1 9 2 8 3 6 4 7 5 5 6 3 7 4 8 89 9 77 10 2 11 1 12 78 13
REMARK SMILES IDX 79 14 80 15 81 17 82 18 88 19 83 20 86 21 84 22 85 23 87 24
REMARK SMILES IDX 11 25 12 26 13 27 14 28 15 29 76 30 16 31 75 32 17 33 18 34
REMARK SMILES IDX 19 35 69 36 20 37 74 38 68 39 70 40 21 41 73 42 67 43 66 44
REMARK SMILES IDX 22 46 54 47 34 48 53 49 35 50 38 51 52 52 71 53 36 54 37 55
REMARK SMILES IDX 51 57 72 58 39 59 23 60 24 61 32 62 25 63 31 64 33 65 30 66
REMARK SMILES IDX 26 67 27 68 28 69 29 70 55 71 56 72 64 73 57 74 63 75 65 76
REMARK SMILES IDX 62 77 58 78 59 79 60 80 61 81 40 82 41 83 49 84 42 85 48 86
REMARK SMILES IDX 50 87 47 88 43 89 44 90 45 91 46 92
REMARK H PARENT 80 16 70 45 38 56
REMARK Flexibility Score: inf
ROOT
ATOM      1  C   UNL     1       6.390  -3.216   1.363  1.00  0.00     0.275 C 
ENDROOT
BRANCH   1   2
ATOM      2  C   UNL     1       5.982  -1.729   1.500  1.00  0.00     0.274 C 
BRANCH   2   3
ATOM      3  O   UNL     1       4.565  -1.560   1.701  1.00  0.00    -0.461 OA
BRANCH   3   4
ATOM      4  C   UNL     1       4.049  -0.334   1.415  1.00  0.00     0.329 C 
ATOM      5  O   UNL     1       4.705   0.706   1.438  1.00  0.00    -0.250 OA
BRANCH   4   6
ATOM      6  C   UNL     1       2.527  -0.344   1.090  1.00  0.00     0.199 C 
ATOM      7  C   UNL     1       0.455  -1.080   2.074  1.00  0.00     0.140 C 
ATOM      8  C   UNL     1       1.828  -0.545   2.428  1.00  0.00     0.071 C 
ATOM      9  C   UNL     1       0.754  -1.951   0.850  1.00  0.00     0.154 C 
ATOM     10  N   UNL     1       1.889  -1.320   0.168  1.00  0.00    -0.308 N 
BRANCH   7  11
ATOM     11  O   UNL     1      -0.003  -1.767   3.231  1.00  0.00    -0.380 OA
ATOM     12  C   UNL     1      -1.347  -2.205   3.164  1.00  0.00     0.195 C 
ENDBRANCH   7  11
BRANCH  10  13
ATOM     13  C   UNL     1       2.736  -2.131  -0.539  1.00  0.00     0.322 C 
ATOM     14  O   UNL     1       3.412  -2.946   0.060  1.00  0.00    -0.248 OA
ATOM     15  N   UNL     1       2.845  -1.947  -1.891  1.00  0.00    -0.308 N 
ATOM     16  H   UNL     1       2.057  -2.093  -2.463  1.00  0.00     0.171 HD
BRANCH  15  17
ATOM     17  C   UNL     1       4.074  -1.549  -2.486  1.00  0.00     0.046 A 
ATOM     18  C   UNL     1       4.432  -1.881  -3.797  1.00  0.00     0.029 A 
ATOM     19  C   UNL     1       4.933  -0.723  -1.770  1.00  0.00     0.065 A 
ATOM     20  C   UNL     1       5.619  -1.351  -4.366  1.00  0.00    -0.046 A 
ATOM     21  C   UNL     1       6.084  -0.194  -2.320  1.00  0.00     0.125 A 
ATOM     22  C   UNL     1       6.064  -1.723  -5.749  1.00  0.00     0.044 C 
ATOM     23  C   UNL     1       6.427  -0.484  -3.620  1.00  0.00     0.042 A 
ATOM     24  F   UNL     1       6.853   0.619  -1.584  1.00  0.00    -0.207 F 
ENDBRANCH  15  17
ENDBRANCH  10  13
ENDBRANCH   4   6
ENDBRANCH   3   4
ENDBRANCH   2   3
ENDBRANCH   1   2
BRANCH   1  25
ATOM     25  O   UNL     1       5.710  -3.954   0.318  1.00  0.00    -0.458 OA
BRANCH  25  26
ATOM     26  C   UNL     1       5.131  -5.128   0.703  1.00  0.00     0.338 C 
ATOM     27  O   UNL     1       5.256  -5.667   1.800  1.00  0.00    -0.246 OA
BRANCH  26  28
ATOM     28  C   UNL     1       4.313  -5.760  -0.367  1.00  0.00     0.060 A 
ATOM     29  C   UNL     1       2.929  -5.537  -0.407  1.00  0.00     0.016 A 
ATOM     30  C   UNL     1       4.862  -6.727  -1.212  1.00  0.00     0.016 A 
ATOM     31  C   UNL     1       2.120  -6.155  -1.357  1.00  0.00     0.010 A 
ATOM     32  C   UNL     1       4.033  -7.428  -2.109  1.00  0.00     0.010 A 
ATOM     33  C   UNL     1       2.658  -7.139  -2.187  1.00  0.00    -0.014 A 
BRANCH  33  34
ATOM     34  C   UNL     1       1.704  -7.997  -2.934  1.00  0.00     0.031 A 
ATOM     35  C   UNL     1       1.096  -9.168  -2.212  1.00  0.00     0.074 A 
ATOM     36  C   UNL     1       1.278  -7.658  -4.163  1.00  0.00     0.049 A 
ATOM     37  N   UNL     1       0.247 -10.065  -2.638  1.00  0.00    -0.248 NA
ATOM     38  C   UNL     1       1.484  -9.323  -0.803  1.00  0.00     0.031 C 
ATOM     39  C   UNL     1       1.686  -6.455  -4.887  1.00  0.00     0.029 A 
ATOM     40  N   UNL     1       0.395  -8.278  -5.012  1.00  0.00    -0.354 N 
ATOM     41  C   UNL     1       0.005 -10.899  -1.550  1.00  0.00     0.074 A 
ATOM     42  C   UNL     1       0.796 -10.395  -0.449  1.00  0.00     0.031 C 
ATOM     43  C   UNL     1       1.064  -6.433  -6.078  1.00  0.00     0.029 A 
ATOM     44  C   UNL     1       0.265  -7.648  -6.228  1.00  0.00     0.049 A 
ATOM     45  H   UNL     1      -0.098  -9.096  -4.773  1.00  0.00     0.167 HD
ATOM     46  C   UNL     1      -0.790 -11.997  -1.488  1.00  0.00     0.034 A 
ATOM     47  C   UNL     1      -0.381  -8.039  -7.347  1.00  0.00     0.034 A 
ATOM     48  C   UNL     1      -1.518 -12.504  -2.626  1.00  0.00     0.049 A 
ATOM     49  C   UNL     1      -1.138  -9.345  -7.312  1.00  0.00     0.074 A 
ATOM     50  C   UNL     1      -2.288 -13.649  -2.726  1.00  0.00     0.029 A 
ATOM     51  N   UNL     1      -1.541 -11.901  -3.881  1.00  0.00    -0.354 N 
ATOM     52  N   UNL     1      -1.304 -10.176  -6.306  1.00  0.00    -0.248 NA
ATOM     53  C   UNL     1      -1.786  -9.773  -8.557  1.00  0.00     0.031 C 
ATOM     54  C   UNL     1      -2.701 -13.781  -4.058  1.00  0.00     0.029 A 
ATOM     55  C   UNL     1      -2.273 -12.671  -4.772  1.00  0.00     0.049 A 
ATOM     56  H   UNL     1      -1.100 -11.050  -4.104  1.00  0.00     0.167 HD
ATOM     57  C   UNL     1      -2.085 -11.221  -6.794  1.00  0.00     0.074 A 
ATOM     58  C   UNL     1      -2.373 -10.901  -8.180  1.00  0.00     0.031 C 
ATOM     59  C   UNL     1      -2.525 -12.340  -6.159  1.00  0.00     0.034 A 
BRANCH  46  60
ATOM     60  C   UNL     1      -0.775 -12.771  -0.187  1.00  0.00     0.023 A 
ATOM     61  C   UNL     1      -1.201 -12.201   1.028  1.00  0.00     0.031 A 
ATOM     62  C   UNL     1      -0.198 -14.053  -0.141  1.00  0.00     0.131 A 
ATOM     63  C   UNL     1      -0.937 -12.860   2.240  1.00  0.00     0.055 A 
ATOM     64  C   UNL     1      -0.026 -14.743   1.060  1.00  0.00     0.041 A 
ATOM     65  F   UNL     1       0.254 -14.640  -1.260  1.00  0.00    -0.206 F 
ATOM     66  C   UNL     1      -0.372 -14.137   2.263  1.00  0.00     0.022 A 
BRANCH  63  67
ATOM     67  S   UNL     1      -1.141 -11.937   3.792  1.00  0.00     0.124 S 
ATOM     68  O   UNL     1      -0.285 -10.776   3.558  1.00  0.00    -0.237 OA
ATOM     69  O   UNL     1      -2.576 -11.677   3.817  1.00  0.00    -0.237 OA
ATOM     70  O   UNL     1      -0.655 -12.865   4.810  1.00  0.00    -0.744 OA
ENDBRANCH  63  67
ENDBRANCH  46  60
BRANCH  47  71
ATOM     71  C   UNL     1      -0.244  -7.245  -8.607  1.00  0.00     0.023 A 
ATOM     72  C   UNL     1      -1.343  -6.645  -9.243  1.00  0.00     0.031 A 
ATOM     73  C   UNL     1       1.023  -7.085  -9.204  1.00  0.00     0.131 A 
ATOM     74  C   UNL     1      -1.153  -5.921 -10.436  1.00  0.00     0.055 A 
ATOM     75  C   UNL     1       1.213  -6.326 -10.359  1.00  0.00     0.041 A 
ATOM     76  F   UNL     1       2.109  -7.648  -8.651  1.00  0.00    -0.206 F 
ATOM     77  C   UNL     1       0.119  -5.742 -10.985  1.00  0.00     0.022 A 
BRANCH  74  78
ATOM     78  S   UNL     1      -2.601  -5.243 -11.298  1.00  0.00     0.124 S 
ATOM     79  O   UNL     1      -3.368  -6.449 -11.586  1.00  0.00    -0.237 OA
ATOM     80  O   UNL     1      -3.162  -4.349 -10.290  1.00  0.00    -0.237 OA
ATOM     81  O   UNL     1      -2.023  -4.577 -12.463  1.00  0.00    -0.744 OA
ENDBRANCH  74  78
ENDBRANCH  47  71
BRANCH  59  82
ATOM     82  C   UNL     1      -3.390 -13.284  -6.959  1.00  0.00     0.023 A 
ATOM     83  C   UNL     1      -2.884 -14.003  -8.056  1.00  0.00     0.031 A 
ATOM     84  C   UNL     1      -4.741 -13.469  -6.613  1.00  0.00     0.131 A 
ATOM     85  C   UNL     1      -3.738 -14.829  -8.803  1.00  0.00     0.055 A 
ATOM     86  C   UNL     1      -5.567 -14.345  -7.317  1.00  0.00     0.041 A 
ATOM     87  F   UNL     1      -5.278 -12.804  -5.577  1.00  0.00    -0.206 F 
ATOM     88  C   UNL     1      -5.070 -15.021  -8.428  1.00  0.00     0.022 A 
BRANCH  85  89
ATOM     89  S   UNL     1      -3.112 -15.568 -10.336  1.00  0.00     0.124 S 
ATOM     90  O   UNL     1      -2.715 -14.389 -11.098  1.00  0.00    -0.237 OA
ATOM     91  O   UNL     1      -2.024 -16.413  -9.855  1.00  0.00    -0.237 OA
ATOM     92  O   UNL     1      -4.268 -16.288 -10.866  1.00  0.00    -0.744 OA
ENDBRANCH  85  89
ENDBRANCH  59  82
ENDBRANCH  33  34
ENDBRANCH  26  28
ENDBRANCH  25  26
ENDBRANCH   1  25
TORSDOF 17
