REMARK SMILES COC(=O)c1ccc([C@H]2CC(=O)Nc3c(C(=O)OCCOC(=O)c4ccc(-c5c6nc(c(-c7cc(S(=O)(=O)[O-])ccc7F)c7ccc([nH]7)c(-c7cc(S(=O)(=O)[O-])ccc7F)c7nc(c(-c8cc(S(=O)(=O)[O-])ccc8F)c8ccc5[nH]8)C=C7)C=C6)cc4)cn(-c4cc(OC)ccc4OC)c32)cc1
REMARK SMILES IDX 19 1 18 2 16 3 17 4 15 5 9 6 10 7 99 8 11 9 14 10 88 11
REMARK SMILES IDX 12 12 13 13 87 14 8 16 5 17 6 18 101 19 7 20 100 21 3 22
REMARK SMILES IDX 4 23 2 24 1 25 89 26 90 27 96 28 91 29 95 30 94 31 97 32
REMARK SMILES IDX 98 33 92 34 93 35 20 36 21 37 22 38 23 39 24 40 25 41 86 42
REMARK SMILES IDX 26 43 85 44 27 45 28 46 29 47 79 48 30 49 84 50 78 51 80 52
REMARK SMILES IDX 31 53 83 54 77 55 76 56 32 58 64 59 44 60 63 61 45 62 48 63
REMARK SMILES IDX 62 64 81 65 46 66 47 67 61 69 82 70 49 71 33 72 34 73 42 74
REMARK SMILES IDX 35 75 41 76 43 77 40 78 36 79 37 80 38 81 39 82 65 83 66 84
REMARK SMILES IDX 74 85 67 86 73 87 75 88 72 89 68 90 69 91 70 92 71 93 50 94
REMARK SMILES IDX 51 95 59 96 52 97 58 98 60 99 57 100 53 101 54 102 55 103
REMARK SMILES IDX 56 104
REMARK H PARENT 13 15 80 57 48 68
REMARK Flexibility Score: inf
ROOT
ATOM      1  C   UNL     1      -6.510  -4.437  -6.855  1.00  0.00     0.275 C 
ENDROOT
BRANCH   1   2
ATOM      2  O   UNL     1      -5.286  -3.676  -6.829  1.00  0.00    -0.458 OA
BRANCH   2   3
ATOM      3  C   UNL     1      -4.140  -4.340  -6.476  1.00  0.00     0.341 C 
ATOM      4  O   UNL     1      -4.116  -5.466  -5.985  1.00  0.00    -0.246 OA
BRANCH   3   5
ATOM      5  C   UNL     1      -2.940  -3.576  -6.806  1.00  0.00     0.102 A 
ATOM      6  C   UNL     1      -1.039  -0.503  -7.751  1.00  0.00     0.078 C 
ATOM      7  C   UNL     1      -2.245   0.383  -8.121  1.00  0.00     0.115 C 
ATOM      8  C   UNL     1      -1.514  -1.906  -7.439  1.00  0.00     0.055 A 
ATOM      9  C   UNL     1      -3.540   0.073  -7.394  1.00  0.00     0.225 C 
ATOM     10  C   UNL     1      -2.822  -2.205  -7.123  1.00  0.00     0.078 A 
ATOM     11  N   UNL     1      -0.791  -3.090  -7.352  1.00  0.00    -0.314 N 
ATOM     12  O   UNL     1      -4.385   0.942  -7.177  1.00  0.00    -0.275 OA
ATOM     13  N   UNL     1      -3.789  -1.232  -7.082  1.00  0.00    -0.324 N 
ATOM     14  C   UNL     1      -1.649  -4.077  -6.893  1.00  0.00     0.109 A 
ATOM     15  H   UNL     1      -4.702  -1.487  -6.815  1.00  0.00     0.170 HD
BRANCH   6  16
ATOM     16  C   UNL     1       0.016  -0.316  -8.839  1.00  0.00    -0.038 A 
ATOM     17  C   UNL     1       2.017   0.030 -10.812  1.00  0.00     0.060 A 
ATOM     18  C   UNL     1       1.863   0.969  -9.785  1.00  0.00     0.016 A 
ATOM     19  C   UNL     1       1.134  -1.046 -10.882  1.00  0.00     0.016 A 
ATOM     20  C   UNL     1       0.880   0.790  -8.802  1.00  0.00     0.005 A 
ATOM     21  C   UNL     1       0.116  -1.173  -9.937  1.00  0.00     0.005 A 
BRANCH  17  22
ATOM     22  C   UNL     1       3.108   0.208 -11.807  1.00  0.00     0.337 C 
ATOM     23  O   UNL     1       4.007   1.027 -11.691  1.00  0.00    -0.246 OA
BRANCH  22  24
ATOM     24  O   UNL     1       2.939  -0.655 -12.837  1.00  0.00    -0.465 OA
ATOM     25  C   UNL     1       3.914  -0.573 -13.874  1.00  0.00     0.282 C 
ENDBRANCH  22  24
ENDBRANCH  17  22
ENDBRANCH   6  16
BRANCH  11  26
ATOM     26  C   UNL     1       0.602  -3.261  -7.528  1.00  0.00     0.091 A 
ATOM     27  C   UNL     1       1.427  -2.538  -6.646  1.00  0.00     0.077 A 
ATOM     28  C   UNL     1       1.179  -4.041  -8.542  1.00  0.00     0.143 A 
ATOM     29  C   UNL     1       2.817  -2.560  -6.780  1.00  0.00     0.121 A 
ATOM     30  C   UNL     1       2.580  -4.079  -8.630  1.00  0.00     0.052 A 
ATOM     31  C   UNL     1       3.394  -3.345  -7.770  1.00  0.00     0.050 A 
BRANCH  28  32
ATOM     32  O   UNL     1       0.647  -4.741  -9.578  1.00  0.00    -0.495 OA
ATOM     33  C   UNL     1      -0.737  -4.781  -9.821  1.00  0.00     0.278 C 
ENDBRANCH  28  32
BRANCH  29  34
ATOM     34  O   UNL     1       3.503  -1.780  -5.889  1.00  0.00    -0.497 OA
ATOM     35  C   UNL     1       4.850  -1.486  -6.245  1.00  0.00     0.278 C 
ENDBRANCH  29  34
ENDBRANCH  11  26
ENDBRANCH   3   5
ENDBRANCH   2   3
ENDBRANCH   1   2
BRANCH   1  36
ATOM     36  C   UNL     1      -6.732  -5.106  -8.206  1.00  0.00     0.275 C 
BRANCH  36  37
ATOM     37  O   UNL     1      -5.931  -6.279  -8.327  1.00  0.00    -0.458 OA
BRANCH  37  38
ATOM     38  C   UNL     1      -4.751  -6.086  -8.953  1.00  0.00     0.338 C 
ATOM     39  O   UNL     1      -4.184  -5.023  -9.148  1.00  0.00    -0.246 OA
BRANCH  38  40
ATOM     40  C   UNL     1      -4.340  -7.335  -9.593  1.00  0.00     0.060 A 
ATOM     41  C   UNL     1      -3.073  -7.344 -10.165  1.00  0.00     0.016 A 
ATOM     42  C   UNL     1      -5.298  -8.292  -9.925  1.00  0.00     0.016 A 
ATOM     43  C   UNL     1      -2.838  -8.118 -11.267  1.00  0.00     0.010 A 
ATOM     44  C   UNL     1      -5.049  -9.118 -10.993  1.00  0.00     0.010 A 
ATOM     45  C   UNL     1      -3.870  -8.935 -11.716  1.00  0.00    -0.014 A 
BRANCH  45  46
ATOM     46  C   UNL     1      -3.634  -9.690 -12.925  1.00  0.00     0.031 A 
ATOM     47  C   UNL     1      -2.511 -10.649 -12.778  1.00  0.00     0.074 A 
ATOM     48  C   UNL     1      -4.458  -9.576 -13.982  1.00  0.00     0.049 A 
ATOM     49  N   UNL     1      -1.403 -10.693 -13.436  1.00  0.00    -0.248 NA
ATOM     50  C   UNL     1      -2.537 -11.535 -11.596  1.00  0.00     0.031 C 
ATOM     51  C   UNL     1      -5.714  -8.825 -14.082  1.00  0.00     0.029 A 
ATOM     52  N   UNL     1      -4.420 -10.238 -15.162  1.00  0.00    -0.354 N 
ATOM     53  C   UNL     1      -0.695 -11.765 -12.902  1.00  0.00     0.074 A 
ATOM     54  C   UNL     1      -1.327 -12.088 -11.655  1.00  0.00     0.031 C 
ATOM     55  C   UNL     1      -6.441  -9.315 -15.112  1.00  0.00     0.029 A 
ATOM     56  C   UNL     1      -5.644 -10.307 -15.815  1.00  0.00     0.049 A 
ATOM     57  H   UNL     1      -3.596 -10.636 -15.525  1.00  0.00     0.167 HD
ATOM     58  C   UNL     1       0.194 -12.469 -13.652  1.00  0.00     0.034 A 
ATOM     59  C   UNL     1      -5.990 -11.210 -16.772  1.00  0.00     0.034 A 
ATOM     60  C   UNL     1       0.611 -11.710 -14.807  1.00  0.00     0.049 A 
ATOM     61  C   UNL     1      -4.712 -11.761 -17.308  1.00  0.00     0.074 A 
ATOM     62  C   UNL     1       1.261 -10.503 -14.977  1.00  0.00     0.029 A 
ATOM     63  N   UNL     1       0.002 -11.979 -16.013  1.00  0.00    -0.354 N 
ATOM     64  N   UNL     1      -3.832 -11.030 -17.944  1.00  0.00    -0.248 NA
ATOM     65  C   UNL     1      -4.171 -12.962 -16.680  1.00  0.00     0.031 C 
ATOM     66  C   UNL     1       0.592  -9.880 -16.070  1.00  0.00     0.029 A 
ATOM     67  C   UNL     1      -0.364 -10.773 -16.562  1.00  0.00     0.049 A 
ATOM     68  H   UNL     1      -0.143 -12.869 -16.409  1.00  0.00     0.167 HD
ATOM     69  C   UNL     1      -2.597 -11.433 -17.452  1.00  0.00     0.074 A 
ATOM     70  C   UNL     1      -2.864 -12.680 -16.733  1.00  0.00     0.031 C 
ATOM     71  C   UNL     1      -1.530 -10.579 -17.407  1.00  0.00     0.034 A 
BRANCH  58  72
ATOM     72  C   UNL     1       0.389 -13.962 -13.546  1.00  0.00     0.023 A 
ATOM     73  C   UNL     1       1.359 -14.544 -14.382  1.00  0.00     0.031 A 
ATOM     74  C   UNL     1      -0.499 -14.864 -12.911  1.00  0.00     0.131 A 
ATOM     75  C   UNL     1       1.354 -15.926 -14.635  1.00  0.00     0.055 A 
ATOM     76  C   UNL     1      -0.454 -16.244 -13.112  1.00  0.00     0.041 A 
ATOM     77  F   UNL     1      -1.520 -14.465 -12.144  1.00  0.00    -0.206 F 
ATOM     78  C   UNL     1       0.454 -16.781 -14.005  1.00  0.00     0.022 A 
BRANCH  75  79
ATOM     79  S   UNL     1       2.424 -16.558 -15.951  1.00  0.00     0.124 S 
ATOM     80  O   UNL     1       2.051 -15.703 -17.072  1.00  0.00    -0.237 OA
ATOM     81  O   UNL     1       3.751 -16.341 -15.386  1.00  0.00    -0.237 OA
ATOM     82  O   UNL     1       2.018 -17.956 -16.072  1.00  0.00    -0.744 OA
ENDBRANCH  75  79
ENDBRANCH  58  72
BRANCH  59  83
ATOM     83  C   UNL     1      -7.312 -11.901 -16.872  1.00  0.00     0.023 A 
ATOM     84  C   UNL     1      -7.783 -12.502 -18.058  1.00  0.00     0.031 A 
ATOM     85  C   UNL     1      -8.060 -12.158 -15.697  1.00  0.00     0.131 A 
ATOM     86  C   UNL     1      -8.955 -13.301 -18.037  1.00  0.00     0.055 A 
ATOM     87  C   UNL     1      -9.217 -12.941 -15.684  1.00  0.00     0.041 A 
ATOM     88  F   UNL     1      -7.648 -11.717 -14.498  1.00  0.00    -0.206 F 
ATOM     89  C   UNL     1      -9.667 -13.522 -16.856  1.00  0.00     0.022 A 
BRANCH  86  90
ATOM     90  S   UNL     1      -9.542 -14.128 -19.553  1.00  0.00     0.124 S 
ATOM     91  O   UNL     1      -9.923 -13.000 -20.394  1.00  0.00    -0.237 OA
ATOM     92  O   UNL     1      -8.366 -14.883 -19.972  1.00  0.00    -0.237 OA
ATOM     93  O   UNL     1     -10.660 -14.949 -19.084  1.00  0.00    -0.744 OA
ENDBRANCH  86  90
ENDBRANCH  59  83
BRANCH  71  94
ATOM     94  C   UNL     1      -1.629  -9.242 -18.116  1.00  0.00     0.023 A 
ATOM     95  C   UNL     1      -2.558  -8.220 -17.803  1.00  0.00     0.031 A 
ATOM     96  C   UNL     1      -0.613  -8.939 -19.039  1.00  0.00     0.131 A 
ATOM     97  C   UNL     1      -2.440  -6.952 -18.412  1.00  0.00     0.055 A 
ATOM     98  C   UNL     1      -0.488  -7.679 -19.621  1.00  0.00     0.041 A 
ATOM     99  F   UNL     1       0.316  -9.858 -19.352  1.00  0.00    -0.206 F 
ATOM    100  C   UNL     1      -1.403  -6.681 -19.311  1.00  0.00     0.022 A 
BRANCH  97 101
ATOM    101  S   UNL     1      -3.634  -5.622 -18.049  1.00  0.00     0.124 S 
ATOM    102  O   UNL     1      -4.928  -6.270 -18.226  1.00  0.00    -0.237 OA
ATOM    103  O   UNL     1      -3.287  -5.246 -16.681  1.00  0.00    -0.237 OA
ATOM    104  O   UNL     1      -3.324  -4.602 -19.053  1.00  0.00    -0.744 OA
ENDBRANCH  97 101
ENDBRANCH  71  94
ENDBRANCH  45  46
ENDBRANCH  38  40
ENDBRANCH  37  38
ENDBRANCH  36  37
ENDBRANCH   1  36
TORSDOF 20
