REMARK SMILES Cc1ccc(N)cc1S(=O)(=O)Nc1cccc(C(=O)OCCOC(=O)c2ccc(-c3c4nc(c(-c5cc(S(=O)(=O)[O-])ccc5F)c5ccc([nH]5)c(-c5cc(S(=O)(=O)[O-])ccc5F)c5nc(c(-c6cc(S(=O)(=O)[O-])ccc6F)c6ccc3[nH]6)C=C5)C=C4)cc2)c1
REMARK SMILES IDX 21 1 20 2 18 3 19 4 17 5 13 6 14 7 89 8 15 9 16 10 12 11
REMARK SMILES IDX 9 13 10 14 11 15 8 16 1 17 2 18 3 19 4 20 7 21 5 22 6 23
REMARK SMILES IDX 22 26 23 27 24 28 25 29 26 30 27 31 88 32 28 33 87 34 29 35
REMARK SMILES IDX 30 36 31 37 81 38 32 39 86 40 80 41 82 42 33 43 85 44 79 45
REMARK SMILES IDX 78 46 34 48 66 49 46 50 65 51 47 52 50 53 64 54 83 55 48 56
REMARK SMILES IDX 49 57 63 59 84 60 51 61 35 62 36 63 44 64 37 65 43 66 45 67
REMARK SMILES IDX 42 68 38 69 39 70 40 71 41 72 67 73 68 74 76 75 69 76 75 77
REMARK SMILES IDX 77 78 74 79 70 80 71 81 72 82 73 83 52 84 53 85 61 86 54 87
REMARK SMILES IDX 60 88 62 89 59 90 55 91 56 92 57 93 58 94
REMARK H PARENT 12 12 6 24 6 25 82 47 50 58
REMARK Flexibility Score: inf
ROOT
ATOM      1  C   UNL     1      -1.954  -2.397   3.691  1.00  0.00     0.275 C 
ENDROOT
BRANCH   1   2
ATOM      2  O   UNL     1      -2.669  -1.317   3.063  1.00  0.00    -0.458 OA
BRANCH   2   3
ATOM      3  C   UNL     1      -3.145  -1.588   1.829  1.00  0.00     0.338 C 
ATOM      4  O   UNL     1      -2.945  -2.602   1.174  1.00  0.00    -0.246 OA
BRANCH   3   5
ATOM      5  C   UNL     1      -3.945  -0.463   1.307  1.00  0.00     0.062 A 
ATOM      6  C   UNL     1      -3.824   1.710   0.340  1.00  0.00     0.050 A 
ATOM      7  C   UNL     1      -5.044   1.500  -0.319  1.00  0.00     0.027 A 
ATOM      8  C   UNL     1      -3.354   0.798   1.278  1.00  0.00     0.042 A 
ATOM      9  C   UNL     1      -5.692   0.280  -0.205  1.00  0.00     0.003 A 
ATOM     10  C   UNL     1      -5.102  -0.721   0.556  1.00  0.00     0.016 A 
BRANCH   6  11
ATOM     11  N   UNL     1      -3.007   2.731  -0.203  1.00  0.00    -0.280 N 
ATOM     12  H   UNL     1      -3.462   3.441  -0.713  1.00  0.00     0.180 HD
BRANCH  11  13
ATOM     13  S   UNL     1      -1.353   2.846  -0.064  1.00  0.00     0.262 S 
ATOM     14  O   UNL     1      -1.077   3.205   1.314  1.00  0.00    -0.201 OA
ATOM     15  O   UNL     1      -0.943   3.725  -1.141  1.00  0.00    -0.201 OA
BRANCH  13  16
ATOM     16  C   UNL     1      -0.510   1.288  -0.352  1.00  0.00     0.092 A 
ATOM     17  C   UNL     1      -2.238  -0.052  -1.757  1.00  0.00     0.046 C 
ATOM     18  C   UNL     1      -1.017   0.102  -0.902  1.00  0.00    -0.030 A 
ATOM     19  C   UNL     1      -0.267  -1.080  -0.721  1.00  0.00     0.007 A 
ATOM     20  C   UNL     1       1.027  -1.052  -0.200  1.00  0.00     0.026 A 
ATOM     21  C   UNL     1       0.818   1.298   0.131  1.00  0.00     0.048 A 
ATOM     22  C   UNL     1       1.621   0.160   0.117  1.00  0.00     0.033 A 
BRANCH  22  23
ATOM     23  N   UNL     1       2.936   0.218   0.556  1.00  0.00    -0.399 N 
ATOM     24  H   UNL     1       3.495  -0.592   0.542  1.00  0.00     0.156 HD
ATOM     25  H   UNL     1       3.309   1.069   0.881  1.00  0.00     0.156 HD
ENDBRANCH  22  23
ENDBRANCH  13  16
ENDBRANCH  11  13
ENDBRANCH   6  11
ENDBRANCH   3   5
ENDBRANCH   2   3
ENDBRANCH   1   2
BRANCH   1  26
ATOM     26  C   UNL     1      -2.866  -3.146   4.661  1.00  0.00     0.275 C 
BRANCH  26  27
ATOM     27  O   UNL     1      -3.889  -3.867   3.947  1.00  0.00    -0.458 OA
BRANCH  27  28
ATOM     28  C   UNL     1      -5.087  -3.239   3.886  1.00  0.00     0.338 C 
ATOM     29  O   UNL     1      -5.389  -2.175   4.394  1.00  0.00    -0.246 OA
BRANCH  28  30
ATOM     30  C   UNL     1      -6.022  -4.003   3.047  1.00  0.00     0.060 A 
ATOM     31  C   UNL     1      -5.864  -3.986   1.665  1.00  0.00     0.016 A 
ATOM     32  C   UNL     1      -7.164  -4.563   3.611  1.00  0.00     0.016 A 
ATOM     33  C   UNL     1      -6.910  -4.377   0.837  1.00  0.00     0.010 A 
ATOM     34  C   UNL     1      -8.146  -5.102   2.774  1.00  0.00     0.010 A 
ATOM     35  C   UNL     1      -8.055  -4.972   1.375  1.00  0.00    -0.014 A 
BRANCH  35  36
ATOM     36  C   UNL     1      -9.163  -5.439   0.492  1.00  0.00     0.031 A 
ATOM     37  C   UNL     1     -10.572  -4.969   0.745  1.00  0.00     0.074 A 
ATOM     38  C   UNL     1      -8.918  -6.292  -0.523  1.00  0.00     0.049 A 
ATOM     39  N   UNL     1     -11.702  -5.443   0.287  1.00  0.00    -0.248 NA
ATOM     40  C   UNL     1     -10.726  -3.827   1.659  1.00  0.00     0.031 C 
ATOM     41  C   UNL     1      -7.596  -6.768  -0.938  1.00  0.00     0.029 A 
ATOM     42  N   UNL     1      -9.777  -6.920  -1.392  1.00  0.00    -0.354 N 
ATOM     43  C   UNL     1     -12.704  -4.698   0.901  1.00  0.00     0.074 A 
ATOM     44  C   UNL     1     -12.042  -3.760   1.785  1.00  0.00     0.031 C 
ATOM     45  C   UNL     1      -7.728  -7.580  -1.996  1.00  0.00     0.029 A 
ATOM     46  C   UNL     1      -9.146  -7.784  -2.258  1.00  0.00     0.049 A 
ATOM     47  H   UNL     1     -10.749  -6.767  -1.396  1.00  0.00     0.167 HD
ATOM     48  C   UNL     1     -14.049  -4.791   0.739  1.00  0.00     0.034 A 
ATOM     49  C   UNL     1      -9.645  -8.692  -3.118  1.00  0.00     0.034 A 
ATOM     50  C   UNL     1     -14.679  -5.720  -0.169  1.00  0.00     0.049 A 
ATOM     51  C   UNL     1     -11.138  -8.859  -3.205  1.00  0.00     0.074 A 
ATOM     52  C   UNL     1     -16.028  -5.908  -0.417  1.00  0.00     0.029 A 
ATOM     53  N   UNL     1     -14.001  -6.620  -0.985  1.00  0.00    -0.354 N 
ATOM     54  N   UNL     1     -12.080  -8.207  -2.563  1.00  0.00    -0.248 NA
ATOM     55  C   UNL     1     -11.633  -9.891  -4.122  1.00  0.00     0.031 C 
ATOM     56  C   UNL     1     -16.167  -6.968  -1.320  1.00  0.00     0.029 A 
ATOM     57  C   UNL     1     -14.904  -7.382  -1.711  1.00  0.00     0.049 A 
ATOM     58  H   UNL     1     -13.021  -6.703  -1.039  1.00  0.00     0.167 HD
ATOM     59  C   UNL     1     -13.283  -8.729  -3.028  1.00  0.00     0.074 A 
ATOM     60  C   UNL     1     -12.945  -9.742  -4.007  1.00  0.00     0.031 C 
ATOM     61  C   UNL     1     -14.552  -8.393  -2.683  1.00  0.00     0.034 A 
BRANCH  48  62
ATOM     62  C   UNL     1     -14.918  -3.911   1.612  1.00  0.00     0.023 A 
ATOM     63  C   UNL     1     -14.845  -2.508   1.564  1.00  0.00     0.031 A 
ATOM     64  C   UNL     1     -15.792  -4.487   2.553  1.00  0.00     0.131 A 
ATOM     65  C   UNL     1     -15.548  -1.736   2.502  1.00  0.00     0.055 A 
ATOM     66  C   UNL     1     -16.567  -3.709   3.417  1.00  0.00     0.041 A 
ATOM     67  F   UNL     1     -15.895  -5.821   2.666  1.00  0.00    -0.206 F 
ATOM     68  C   UNL     1     -16.430  -2.325   3.410  1.00  0.00     0.022 A 
BRANCH  65  69
ATOM     69  S   UNL     1     -15.146   0.028   2.641  1.00  0.00     0.124 S 
ATOM     70  O   UNL     1     -13.709  -0.019   2.903  1.00  0.00    -0.237 OA
ATOM     71  O   UNL     1     -15.540   0.545   1.336  1.00  0.00    -0.237 OA
ATOM     72  O   UNL     1     -15.963   0.478   3.766  1.00  0.00    -0.744 OA
ENDBRANCH  65  69
ENDBRANCH  48  62
BRANCH  49  73
ATOM     73  C   UNL     1      -8.728  -9.553  -3.920  1.00  0.00     0.023 A 
ATOM     74  C   UNL     1      -8.722  -9.483  -5.320  1.00  0.00     0.031 A 
ATOM     75  C   UNL     1      -7.860 -10.474  -3.303  1.00  0.00     0.131 A 
ATOM     76  C   UNL     1      -7.894 -10.341  -6.060  1.00  0.00     0.055 A 
ATOM     77  C   UNL     1      -6.992 -11.280  -4.040  1.00  0.00     0.041 A 
ATOM     78  F   UNL     1      -7.825 -10.585  -1.965  1.00  0.00    -0.206 F 
ATOM     79  C   UNL     1      -7.016 -11.225  -5.430  1.00  0.00     0.022 A 
BRANCH  76  80
ATOM     80  S   UNL     1      -8.044 -10.340  -7.867  1.00  0.00     0.124 S 
ATOM     81  O   UNL     1      -9.447 -10.695  -8.047  1.00  0.00    -0.237 OA
ATOM     82  O   UNL     1      -7.680  -8.967  -8.201  1.00  0.00    -0.237 OA
ATOM     83  O   UNL     1      -7.082 -11.357  -8.287  1.00  0.00    -0.744 OA
ENDBRANCH  76  80
ENDBRANCH  49  73
BRANCH  61  84
ATOM     84  C   UNL     1     -15.670  -9.084  -3.426  1.00  0.00     0.023 A 
ATOM     85  C   UNL     1     -15.918 -10.460  -3.290  1.00  0.00     0.031 A 
ATOM     86  C   UNL     1     -16.496  -8.345  -4.292  1.00  0.00     0.131 A 
ATOM     87  C   UNL     1     -16.931 -11.065  -4.050  1.00  0.00     0.055 A 
ATOM     88  C   UNL     1     -17.545  -8.939  -4.994  1.00  0.00     0.041 A 
ATOM     89  F   UNL     1     -16.299  -7.028  -4.466  1.00  0.00    -0.206 F 
ATOM     90  C   UNL     1     -17.759 -10.309  -4.884  1.00  0.00     0.022 A 
BRANCH  87  91
ATOM     91  S   UNL     1     -17.092 -12.871  -4.008  1.00  0.00     0.124 S 
ATOM     92  O   UNL     1     -15.777 -13.303  -4.470  1.00  0.00    -0.237 OA
ATOM     93  O   UNL     1     -17.390 -13.126  -2.602  1.00  0.00    -0.237 OA
ATOM     94  O   UNL     1     -18.193 -13.139  -4.932  1.00  0.00    -0.744 OA
ENDBRANCH  87  91
ENDBRANCH  61  84
ENDBRANCH  35  36
ENDBRANCH  28  30
ENDBRANCH  27  28
ENDBRANCH  26  27
ENDBRANCH   1  26
TORSDOF 18
