REMARK SMILES CCC(CC)(NC(=O)Nc1cc(Cl)cc(Cl)c1)C(=O)OCCOC(=O)c1ccc(-c2c3nc(c(-c4cc(S(=O)(=O)[O-])ccc4F)c4ccc([nH]4)c(-c4cc(S(=O)(=O)[O-])ccc4F)c4nc(c(-c5cc(S(=O)(=O)[O-])ccc5F)c5ccc2[nH]5)C=C4)C=C3)cc1
REMARK SMILES IDX 22 1 21 2 20 3 18 4 19 5 3 6 2 7 1 8 4 9 5 10 6 11 7 12 8 14
REMARK SMILES IDX 9 15 10 17 11 18 17 19 12 20 15 21 13 22 14 23 16 24 23 25
REMARK SMILES IDX 24 26 25 27 26 28 27 29 88 30 28 31 87 32 29 33 30 34 31 35
REMARK SMILES IDX 81 36 32 37 86 38 80 39 82 40 33 41 85 42 79 43 78 44 34 46
REMARK SMILES IDX 66 47 46 48 65 49 47 50 50 51 64 52 83 53 48 54 49 55 63 57
REMARK SMILES IDX 84 58 51 59 35 60 36 61 44 62 37 63 43 64 45 65 42 66 38 67
REMARK SMILES IDX 39 68 40 69 41 70 67 71 68 72 76 73 69 74 75 75 77 76 74 77
REMARK SMILES IDX 70 78 71 79 72 80 73 81 52 82 53 83 61 84 54 85 60 86 62 87
REMARK SMILES IDX 59 88 55 89 56 90 57 91 58 92
REMARK H PARENT 6 13 9 16 82 45 50 56
REMARK Flexibility Score: inf
ROOT
ATOM      1  C   UNL     1       4.486  -2.091  -4.159  1.00  0.00     0.275 C 
ENDROOT
BRANCH   1   2
ATOM      2  C   UNL     1       4.091  -3.332  -3.115  1.00  0.00     0.274 C 
BRANCH   2   3
ATOM      3  O   UNL     1       2.639  -3.632  -2.895  1.00  0.00    -0.460 OA
BRANCH   3   4
ATOM      4  C   UNL     1       2.002  -3.809  -1.641  1.00  0.00     0.332 C 
ATOM      5  O   UNL     1       2.376  -4.677  -0.856  1.00  0.00    -0.249 OA
BRANCH   4   6
ATOM      6  C   UNL     1       0.609  -2.819  -1.374  1.00  0.00     0.139 C 
BRANCH   6   7
ATOM      7  C   UNL     1       0.264  -1.430  -0.650  1.00  0.00     0.037 C 
ATOM      8  C   UNL     1       0.458  -1.103   0.803  1.00  0.00     0.007 C 
ENDBRANCH   6   7
BRANCH   6   9
ATOM      9  C   UNL     1      -0.525  -3.828  -1.049  1.00  0.00     0.037 C 
ATOM     10  C   UNL     1      -1.980  -3.352  -1.047  1.00  0.00     0.007 C 
ENDBRANCH   6   9
BRANCH   6  11
ATOM     11  N   UNL     1       0.659  -2.300  -2.688  1.00  0.00    -0.322 N 
ATOM     12  C   UNL     1       1.681  -1.475  -2.987  1.00  0.00     0.320 C 
ATOM     13  H   UNL     1      -0.025  -2.531  -3.357  1.00  0.00     0.166 HD
ATOM     14  O   UNL     1       1.720  -1.101  -4.163  1.00  0.00    -0.248 OA
ATOM     15  N   UNL     1       2.666  -1.075  -2.081  1.00  0.00    -0.308 N 
ATOM     16  H   UNL     1       3.079  -0.317  -2.555  1.00  0.00     0.171 HD
BRANCH  15  17
ATOM     17  C   UNL     1       3.442  -1.115  -0.853  1.00  0.00     0.045 A 
ATOM     18  C   UNL     1       3.543  -2.077   0.152  1.00  0.00     0.046 A 
ATOM     19  C   UNL     1       4.369  -0.052  -0.717  1.00  0.00     0.046 A 
ATOM     20  C   UNL     1       4.506  -1.999   1.186  1.00  0.00     0.044 A 
ATOM     21  C   UNL     1       5.301   0.050   0.325  1.00  0.00     0.044 A 
ATOM     22  Cl  UNL     1       4.638  -3.288   2.328  1.00  0.00    -0.084 Cl
ATOM     23  C   UNL     1       5.375  -0.928   1.292  1.00  0.00     0.041 A 
ATOM     24  Cl  UNL     1       6.389   1.382   0.368  1.00  0.00    -0.084 Cl
ENDBRANCH  15  17
ENDBRANCH   6  11
ENDBRANCH   4   6
ENDBRANCH   3   4
ENDBRANCH   2   3
ENDBRANCH   1   2
BRANCH   1  25
ATOM     25  O   UNL     1       4.358  -0.656  -3.676  1.00  0.00    -0.458 OA
BRANCH  25  26
ATOM     26  C   UNL     1       4.147   0.456  -4.497  1.00  0.00     0.338 C 
ATOM     27  O   UNL     1       4.427   0.484  -5.677  1.00  0.00    -0.246 OA
BRANCH  26  28
ATOM     28  C   UNL     1       3.541   1.682  -3.715  1.00  0.00     0.060 A 
ATOM     29  C   UNL     1       2.298   1.632  -3.051  1.00  0.00     0.016 A 
ATOM     30  C   UNL     1       4.163   2.930  -3.651  1.00  0.00     0.016 A 
ATOM     31  C   UNL     1       1.782   2.634  -2.207  1.00  0.00     0.010 A 
ATOM     32  C   UNL     1       3.591   4.009  -2.889  1.00  0.00     0.010 A 
ATOM     33  C   UNL     1       2.405   3.867  -2.130  1.00  0.00    -0.014 A 
BRANCH  33  34
ATOM     34  C   UNL     1       1.633   5.012  -1.520  1.00  0.00     0.031 A 
ATOM     35  C   UNL     1       0.906   5.949  -2.460  1.00  0.00     0.074 A 
ATOM     36  C   UNL     1       1.403   5.166  -0.194  1.00  0.00     0.049 A 
ATOM     37  N   UNL     1       0.300   7.085  -2.217  1.00  0.00    -0.248 NA
ATOM     38  C   UNL     1       0.844   5.525  -3.866  1.00  0.00     0.031 C 
ATOM     39  C   UNL     1       1.838   4.253   0.863  1.00  0.00     0.029 A 
ATOM     40  N   UNL     1       0.731   6.160   0.497  1.00  0.00    -0.354 N 
ATOM     41  C   UNL     1      -0.172   7.535  -3.448  1.00  0.00     0.074 A 
ATOM     42  C   UNL     1       0.218   6.545  -4.431  1.00  0.00     0.031 C 
ATOM     43  C   UNL     1       1.450   4.741   2.058  1.00  0.00     0.029 A 
ATOM     44  C   UNL     1       0.793   6.037   1.872  1.00  0.00     0.049 A 
ATOM     45  H   UNL     1       0.250   6.892   0.047  1.00  0.00     0.167 HD
ATOM     46  C   UNL     1      -0.859   8.668  -3.741  1.00  0.00     0.034 A 
ATOM     47  C   UNL     1       0.420   6.883   2.864  1.00  0.00     0.034 A 
ATOM     48  C   UNL     1      -1.275   9.644  -2.764  1.00  0.00     0.049 A 
ATOM     49  C   UNL     1      -0.203   8.223   2.508  1.00  0.00     0.074 A 
ATOM     50  C   UNL     1      -1.933  10.845  -2.974  1.00  0.00     0.029 A 
ATOM     51  N   UNL     1      -1.087   9.534  -1.394  1.00  0.00    -0.354 N 
ATOM     52  N   UNL     1      -0.534   8.698   1.329  1.00  0.00    -0.248 NA
ATOM     53  C   UNL     1      -0.493   9.146   3.619  1.00  0.00     0.031 C 
ATOM     54  C   UNL     1      -2.075  11.494  -1.742  1.00  0.00     0.029 A 
ATOM     55  C   UNL     1      -1.588  10.658  -0.752  1.00  0.00     0.049 A 
ATOM     56  H   UNL     1      -0.661   8.770  -0.942  1.00  0.00     0.167 HD
ATOM     57  C   UNL     1      -1.098   9.953   1.566  1.00  0.00     0.074 A 
ATOM     58  C   UNL     1      -1.087  10.152   2.997  1.00  0.00     0.031 C 
ATOM     59  C   UNL     1      -1.580  10.861   0.677  1.00  0.00     0.034 A 
BRANCH  46  60
ATOM     60  C   UNL     1      -1.124   8.959  -5.198  1.00  0.00     0.023 A 
ATOM     61  C   UNL     1      -1.981   8.167  -5.980  1.00  0.00     0.031 A 
ATOM     62  C   UNL     1      -0.483  10.048  -5.818  1.00  0.00     0.131 A 
ATOM     63  C   UNL     1      -2.125   8.439  -7.349  1.00  0.00     0.055 A 
ATOM     64  C   UNL     1      -0.694  10.361  -7.161  1.00  0.00     0.041 A 
ATOM     65  F   UNL     1       0.367  10.825  -5.127  1.00  0.00    -0.206 F 
ATOM     66  C   UNL     1      -1.510   9.546  -7.939  1.00  0.00     0.022 A 
BRANCH  63  67
ATOM     67  S   UNL     1      -3.022   7.248  -8.382  1.00  0.00     0.124 S 
ATOM     68  O   UNL     1      -2.238   6.032  -8.179  1.00  0.00    -0.237 OA
ATOM     69  O   UNL     1      -4.354   7.255  -7.787  1.00  0.00    -0.237 OA
ATOM     70  O   UNL     1      -2.934   7.822  -9.723  1.00  0.00    -0.744 OA
ENDBRANCH  63  67
ENDBRANCH  46  60
BRANCH  47  71
ATOM     71  C   UNL     1       0.718   6.582   4.307  1.00  0.00     0.023 A 
ATOM     72  C   UNL     1      -0.292   6.567   5.288  1.00  0.00     0.031 A 
ATOM     73  C   UNL     1       2.049   6.449   4.748  1.00  0.00     0.131 A 
ATOM     74  C   UNL     1       0.049   6.485   6.652  1.00  0.00     0.055 A 
ATOM     75  C   UNL     1       2.376   6.297   6.098  1.00  0.00     0.041 A 
ATOM     76  F   UNL     1       3.063   6.487   3.870  1.00  0.00    -0.206 F 
ATOM     77  C   UNL     1       1.374   6.332   7.061  1.00  0.00     0.022 A 
BRANCH  74  78
ATOM     78  S   UNL     1      -1.253   6.716   7.900  1.00  0.00     0.124 S 
ATOM     79  O   UNL     1      -1.766   8.036   7.551  1.00  0.00    -0.237 OA
ATOM     80  O   UNL     1      -2.138   5.590   7.625  1.00  0.00    -0.237 OA
ATOM     81  O   UNL     1      -0.528   6.642   9.167  1.00  0.00    -0.744 OA
ENDBRANCH  74  78
ENDBRANCH  47  71
BRANCH  59  82
ATOM     82  C   UNL     1      -2.192  12.129   1.232  1.00  0.00     0.023 A 
ATOM     83  C   UNL     1      -1.433  13.075   1.945  1.00  0.00     0.031 A 
ATOM     84  C   UNL     1      -3.565  12.388   1.059  1.00  0.00     0.131 A 
ATOM     85  C   UNL     1      -2.061  14.194   2.515  1.00  0.00     0.055 A 
ATOM     86  C   UNL     1      -4.171  13.538   1.569  1.00  0.00     0.041 A 
ATOM     87  F   UNL     1      -4.345  11.523   0.390  1.00  0.00    -0.206 F 
ATOM     88  C   UNL     1      -3.422  14.441   2.316  1.00  0.00     0.022 A 
BRANCH  85  89
ATOM     89  S   UNL     1      -1.100  15.266   3.620  1.00  0.00     0.124 S 
ATOM     90  O   UNL     1      -0.632  14.321   4.628  1.00  0.00    -0.237 OA
ATOM     91  O   UNL     1      -0.079  15.801   2.725  1.00  0.00    -0.237 OA
ATOM     92  O   UNL     1      -2.081  16.241   4.093  1.00  0.00    -0.744 OA
ENDBRANCH  85  89
ENDBRANCH  59  82
ENDBRANCH  33  34
ENDBRANCH  26  28
ENDBRANCH  25  26
ENDBRANCH   1  25
TORSDOF 18
