REMARK SMILES Cc1nc(CCC(=O)OCCOC(=O)c2ccc(-c3c4nc(c(-c5cc(S(=O)(=O)[O-])ccc5F)c5ccc([nH]5)c(-c5cc(S(=O)(=O)[O-])ccc5F)c5nc(c(-c6cc(S(=O)(=O)[O-])ccc6F)c6ccc3[nH]6)C=C5)C=C4)cc2)cc([C@@H]2CCC[N@@H+]2C(C)C)n1
REMARK SMILES IDX 10 1 9 2 7 3 8 4 6 5 5 6 4 7 1 8 2 9 3 10 88 11 79 12 78 13
REMARK SMILES IDX 80 14 81 15 84 16 82 17 83 18 85 20 86 21 87 22 11 23 12 24
REMARK SMILES IDX 13 25 14 26 15 27 16 28 77 29 17 30 76 31 18 32 19 33 20 34
REMARK SMILES IDX 70 35 21 36 75 37 69 38 71 39 22 40 74 41 68 42 67 43 23 45
REMARK SMILES IDX 55 46 35 47 54 48 36 49 39 50 53 51 72 52 37 53 38 54 52 56
REMARK SMILES IDX 73 57 40 58 24 59 25 60 33 61 26 62 32 63 34 64 31 65 27 66
REMARK SMILES IDX 28 67 29 68 30 69 56 70 57 71 65 72 58 73 64 74 66 75 63 76
REMARK SMILES IDX 59 77 60 78 61 79 62 80 41 81 42 82 50 83 43 84 49 85 51 86
REMARK SMILES IDX 48 87 44 88 45 89 46 90 47 91
REMARK H PARENT 84 19 71 44 39 55
REMARK Flexibility Score: inf
ROOT
ATOM      1  C   UNL     1      -2.287  -3.308   1.723  1.00  0.00     0.274 C 
ENDROOT
BRANCH   1   2
ATOM      2  O   UNL     1      -0.998  -2.670   1.773  1.00  0.00    -0.462 OA
BRANCH   2   3
ATOM      3  C   UNL     1       0.074  -3.436   2.073  1.00  0.00     0.306 C 
ATOM      4  O   UNL     1       0.012  -4.577   2.513  1.00  0.00    -0.252 OA
BRANCH   3   5
ATOM      5  C   UNL     1       1.384  -2.707   1.855  1.00  0.00     0.129 C 
BRANCH   5   6
ATOM      6  C   UNL     1       1.658  -2.312   0.400  1.00  0.00     0.068 C 
BRANCH   6   7
ATOM      7  C   UNL     1       1.029  -0.988   0.057  1.00  0.00     0.045 A 
ATOM      8  C   UNL     1      -2.409   0.190  -0.276  1.00  0.00     0.089 C 
ATOM      9  C   UNL     1      -0.917   0.191  -0.205  1.00  0.00     0.126 A 
ATOM     10  N   UNL     1      -0.302  -0.990  -0.124  1.00  0.00    -0.238 NA
ATOM     11  N   UNL     1      -0.289   1.370  -0.137  1.00  0.00    -0.232 NA
ATOM     12  C   UNL     1       1.061   1.363  -0.091  1.00  0.00     0.102 A 
ATOM     13  C   UNL     1       1.768   0.179   0.042  1.00  0.00     0.054 A 
BRANCH  12  14
ATOM     14  C   UNL     1       1.796   2.695  -0.073  1.00  0.00     0.234 C 
ATOM     15  C   UNL     1       1.732   3.379   1.288  1.00  0.00     0.078 C 
ATOM     16  N   UNL     1       1.462   3.757  -1.061  1.00  0.00    -0.325 N 
ATOM     17  C   UNL     1       2.167   4.804   1.003  1.00  0.00     0.068 C 
ATOM     18  C   UNL     1       2.016   4.996  -0.502  1.00  0.00     0.263 C 
ATOM     19  H   UNL     1       1.885   3.509  -1.955  1.00  0.00     0.348 HD
BRANCH  16  20
ATOM     20  C   UNL     1       0.070   3.861  -1.535  1.00  0.00     0.178 C 
ATOM     21  C   UNL     1      -0.968   4.364  -0.521  1.00  0.00     0.075 C 
ATOM     22  C   UNL     1       0.006   4.735  -2.799  1.00  0.00     0.075 C 
ENDBRANCH  16  20
ENDBRANCH  12  14
ENDBRANCH   6   7
ENDBRANCH   5   6
ENDBRANCH   3   5
ENDBRANCH   2   3
ENDBRANCH   1   2
BRANCH   1  23
ATOM     23  C   UNL     1      -2.563  -3.892   0.335  1.00  0.00     0.275 C 
BRANCH  23  24
ATOM     24  O   UNL     1      -1.853  -5.132   0.177  1.00  0.00    -0.458 OA
BRANCH  24  25
ATOM     25  C   UNL     1      -0.870  -5.147  -0.751  1.00  0.00     0.338 C 
ATOM     26  O   UNL     1      -0.582  -4.280  -1.554  1.00  0.00    -0.246 OA
BRANCH  25  27
ATOM     27  C   UNL     1      -0.103  -6.387  -0.581  1.00  0.00     0.060 A 
ATOM     28  C   UNL     1       1.140  -6.329   0.056  1.00  0.00     0.016 A 
ATOM     29  C   UNL     1      -0.597  -7.592  -1.079  1.00  0.00     0.016 A 
ATOM     30  C   UNL     1       1.897  -7.487   0.207  1.00  0.00     0.010 A 
ATOM     31  C   UNL     1       0.162  -8.753  -0.924  1.00  0.00     0.010 A 
ATOM     32  C   UNL     1       1.414  -8.705  -0.286  1.00  0.00    -0.014 A 
BRANCH  32  33
ATOM     33  C   UNL     1       2.246  -9.927  -0.190  1.00  0.00     0.031 A 
ATOM     34  C   UNL     1       2.928 -10.449  -1.420  1.00  0.00     0.074 A 
ATOM     35  C   UNL     1       2.379 -10.557   0.992  1.00  0.00     0.049 A 
ATOM     36  N   UNL     1       3.608 -11.553  -1.586  1.00  0.00    -0.248 NA
ATOM     37  C   UNL     1       2.822  -9.616  -2.627  1.00  0.00     0.031 C 
ATOM     38  C   UNL     1       1.796 -10.108   2.257  1.00  0.00     0.029 A 
ATOM     39  N   UNL     1       3.036 -11.716   1.318  1.00  0.00    -0.354 N 
ATOM     40  C   UNL     1       3.999 -11.558  -2.920  1.00  0.00     0.074 A 
ATOM     41  C   UNL     1       3.456 -10.359  -3.522  1.00  0.00     0.031 C 
ATOM     42  C   UNL     1       2.114 -10.988   3.221  1.00  0.00     0.029 A 
ATOM     43  C   UNL     1       2.878 -12.085   2.634  1.00  0.00     0.049 A 
ATOM     44  H   UNL     1       3.570 -12.233   0.673  1.00  0.00     0.167 HD
ATOM     45  C   UNL     1       4.746 -12.481  -3.575  1.00  0.00     0.034 A 
ATOM     46  C   UNL     1       3.274 -13.200   3.279  1.00  0.00     0.034 A 
ATOM     47  C   UNL     1       5.269 -13.674  -2.954  1.00  0.00     0.049 A 
ATOM     48  C   UNL     1       4.038 -14.249   2.509  1.00  0.00     0.074 A 
ATOM     49  C   UNL     1       6.040 -14.675  -3.517  1.00  0.00     0.029 A 
ATOM     50  N   UNL     1       5.066 -14.032  -1.626  1.00  0.00    -0.354 N 
ATOM     51  N   UNL     1       4.395 -14.251   1.245  1.00  0.00    -0.248 NA
ATOM     52  C   UNL     1       4.456 -15.444   3.254  1.00  0.00     0.031 C 
ATOM     53  C   UNL     1       6.248 -15.666  -2.551  1.00  0.00     0.029 A 
ATOM     54  C   UNL     1       5.672 -15.250  -1.361  1.00  0.00     0.049 A 
ATOM     55  H   UNL     1       4.564 -13.497  -0.968  1.00  0.00     0.167 HD
ATOM     56  C   UNL     1       5.104 -15.433   1.052  1.00  0.00     0.074 A 
ATOM     57  C   UNL     1       5.135 -16.111   2.332  1.00  0.00     0.031 C 
ATOM     58  C   UNL     1       5.683 -15.914  -0.078  1.00  0.00     0.034 A 
BRANCH  45  59
ATOM     59  C   UNL     1       4.984 -12.258  -5.049  1.00  0.00     0.023 A 
ATOM     60  C   UNL     1       5.728 -11.163  -5.524  1.00  0.00     0.031 A 
ATOM     61  C   UNL     1       4.427 -13.136  -5.996  1.00  0.00     0.131 A 
ATOM     62  C   UNL     1       5.839 -10.938  -6.905  1.00  0.00     0.055 A 
ATOM     63  C   UNL     1       4.605 -12.949  -7.368  1.00  0.00     0.041 A 
ATOM     64  F   UNL     1       3.687 -14.185  -5.603  1.00  0.00    -0.206 F 
ATOM     65  C   UNL     1       5.303 -11.837  -7.830  1.00  0.00     0.022 A 
BRANCH  62  66
ATOM     66  S   UNL     1       6.580  -9.384  -7.475  1.00  0.00     0.124 S 
ATOM     67  O   UNL     1       5.700  -8.393  -6.861  1.00  0.00    -0.237 OA
ATOM     68  O   UNL     1       7.932  -9.461  -6.933  1.00  0.00    -0.237 OA
ATOM     69  O   UNL     1       6.486  -9.473  -8.931  1.00  0.00    -0.744 OA
ENDBRANCH  62  66
ENDBRANCH  45  59
BRANCH  46  70
ATOM     70  C   UNL     1       2.919 -13.412   4.711  1.00  0.00     0.023 A 
ATOM     71  C   UNL     1       3.911 -13.502   5.700  1.00  0.00     0.031 A 
ATOM     72  C   UNL     1       1.579 -13.575   5.106  1.00  0.00     0.131 A 
ATOM     73  C   UNL     1       3.552 -13.791   7.026  1.00  0.00     0.055 A 
ATOM     74  C   UNL     1       1.223 -13.809   6.435  1.00  0.00     0.041 A 
ATOM     75  F   UNL     1       0.590 -13.500   4.200  1.00  0.00    -0.206 F 
ATOM     76  C   UNL     1       2.215 -13.932   7.402  1.00  0.00     0.022 A 
BRANCH  73  77
ATOM     77  S   UNL     1       4.870 -14.068   8.242  1.00  0.00     0.124 S 
ATOM     78  O   UNL     1       5.612 -15.166   7.633  1.00  0.00    -0.237 OA
ATOM     79  O   UNL     1       5.541 -12.773   8.261  1.00  0.00    -0.237 OA
ATOM     80  O   UNL     1       4.141 -14.408   9.462  1.00  0.00    -0.744 OA
ENDBRANCH  73  77
ENDBRANCH  46  70
BRANCH  58  81
ATOM     81  C   UNL     1       6.440 -17.213   0.044  1.00  0.00     0.023 A 
ATOM     82  C   UNL     1       5.787 -18.432   0.296  1.00  0.00     0.031 A 
ATOM     83  C   UNL     1       7.841 -17.225  -0.083  1.00  0.00     0.131 A 
ATOM     84  C   UNL     1       6.539 -19.604   0.468  1.00  0.00     0.055 A 
ATOM     85  C   UNL     1       8.579 -18.404   0.031  1.00  0.00     0.041 A 
ATOM     86  F   UNL     1       8.515 -16.089  -0.323  1.00  0.00    -0.206 F 
ATOM     87  C   UNL     1       7.929 -19.600   0.321  1.00  0.00     0.022 A 
BRANCH  84  88
ATOM     88  S   UNL     1       5.685 -21.123   0.972  1.00  0.00     0.124 S 
ATOM     89  O   UNL     1       5.072 -20.722   2.234  1.00  0.00    -0.237 OA
ATOM     90  O   UNL     1       4.766 -21.348  -0.140  1.00  0.00    -0.237 OA
ATOM     91  O   UNL     1       6.765 -22.101   1.090  1.00  0.00    -0.744 OA
ENDBRANCH  84  88
ENDBRANCH  58  81
ENDBRANCH  32  33
ENDBRANCH  25  27
ENDBRANCH  24  25
ENDBRANCH  23  24
ENDBRANCH   1  23
TORSDOF 18
