REMARK SMILES O=C(CSc1ccc(NC(=O)c2cccc3ccccc23)cc1)OCCOC(=O)c1ccc(-c2c3nc(c(-c4cc(S(=O)(=O)[O-])ccc4F)c4ccc([nH]4)c(-c4cc(S(=O)(=O)[O-])ccc4F)c4nc(c(-c5cc(S(=O)(=O)[O-])ccc5F)c5ccc2[nH]5)C=C4)C=C3)cc1
REMARK SMILES IDX 25 1 24 2 2 3 1 4 3 5 4 6 5 7 6 8 23 9 7 10 22 11 8 12 9 13
REMARK SMILES IDX 10 14 11 16 12 17 13 18 21 19 14 20 16 21 20 22 15 23 17 24
REMARK SMILES IDX 19 25 18 26 26 27 27 28 28 29 29 30 30 31 31 32 92 33 32 34
REMARK SMILES IDX 91 35 33 36 34 37 35 38 85 39 36 40 90 41 84 42 86 43 37 44
REMARK SMILES IDX 89 45 83 46 82 47 38 49 70 50 50 51 69 52 51 53 54 54 68 55
REMARK SMILES IDX 87 56 52 57 53 58 67 60 88 61 55 62 39 63 40 64 48 65 41 66
REMARK SMILES IDX 47 67 49 68 46 69 42 70 43 71 44 72 45 73 71 74 72 75 80 76
REMARK SMILES IDX 73 77 79 78 81 79 78 80 74 81 75 82 76 83 77 84 56 85 57 86
REMARK SMILES IDX 65 87 58 88 64 89 66 90 63 91 59 92 60 93 61 94 62 95
REMARK H PARENT 9 15 86 48 54 59
REMARK Flexibility Score: inf
ROOT
ATOM      1  C   UNL     1       4.723  -0.505   1.026  1.00  0.00     0.274 C 
ENDROOT
BRANCH   1   2
ATOM      2  O   UNL     1       3.440   0.148   0.950  1.00  0.00    -0.461 OA
BRANCH   2   3
ATOM      3  C   UNL     1       2.776   0.379  -0.209  1.00  0.00     0.316 C 
ATOM      4  O   UNL     1       1.578   0.657  -0.187  1.00  0.00    -0.251 OA
BRANCH   3   5
ATOM      5  C   UNL     1       3.547   0.333  -1.512  1.00  0.00     0.197 C 
BRANCH   5   6
ATOM      6  S   UNL     1       4.543   1.818  -1.748  1.00  0.00    -0.114 SA
BRANCH   6   7
ATOM      7  C   UNL     1       3.272   3.059  -1.688  1.00  0.00     0.008 A 
ATOM      8  C   UNL     1       3.544   4.215  -0.959  1.00  0.00     0.017 A 
ATOM      9  C   UNL     1       2.071   2.956  -2.398  1.00  0.00     0.017 A 
ATOM     10  C   UNL     1       2.692   5.309  -1.050  1.00  0.00     0.027 A 
ATOM     11  C   UNL     1       1.208   4.045  -2.475  1.00  0.00     0.027 A 
ATOM     12  C   UNL     1       1.595   5.258  -1.907  1.00  0.00     0.041 A 
BRANCH  12  13
ATOM     13  N   UNL     1       0.945   6.403  -2.380  1.00  0.00    -0.322 N 
ATOM     14  C   UNL     1       1.458   7.654  -2.646  1.00  0.00     0.256 C 
ATOM     15  H   UNL     1      -0.020   6.300  -2.546  1.00  0.00     0.170 HD
ATOM     16  O   UNL     1       0.695   8.544  -3.025  1.00  0.00    -0.269 OA
BRANCH  14  17
ATOM     17  C   UNL     1       2.900   7.995  -2.493  1.00  0.00     0.048 A 
ATOM     18  C   UNL     1       3.129   9.110  -1.669  1.00  0.00     0.014 A 
ATOM     19  C   UNL     1       3.992   7.315  -3.120  1.00  0.00    -0.006 A 
ATOM     20  C   UNL     1       4.421   9.560  -1.432  1.00  0.00     0.001 A 
ATOM     21  C   UNL     1       5.304   7.781  -2.842  1.00  0.00    -0.018 A 
ATOM     22  C   UNL     1       3.886   6.198  -3.991  1.00  0.00     0.009 A 
ATOM     23  C   UNL     1       5.497   8.899  -2.015  1.00  0.00     0.009 A 
ATOM     24  C   UNL     1       6.425   7.128  -3.383  1.00  0.00     0.009 A 
ATOM     25  C   UNL     1       5.013   5.529  -4.483  1.00  0.00     0.001 A 
ATOM     26  C   UNL     1       6.283   5.996  -4.181  1.00  0.00     0.001 A 
ENDBRANCH  14  17
ENDBRANCH  12  13
ENDBRANCH   6   7
ENDBRANCH   5   6
ENDBRANCH   3   5
ENDBRANCH   2   3
ENDBRANCH   1   2
BRANCH   1  27
ATOM     27  C   UNL     1       4.563  -2.027   1.053  1.00  0.00     0.275 C 
BRANCH  27  28
ATOM     28  O   UNL     1       4.121  -2.504  -0.233  1.00  0.00    -0.458 OA
BRANCH  28  29
ATOM     29  C   UNL     1       2.792  -2.780  -0.353  1.00  0.00     0.338 C 
ATOM     30  O   UNL     1       1.981  -2.806   0.550  1.00  0.00    -0.246 OA
BRANCH  29  31
ATOM     31  C   UNL     1       2.443  -2.805  -1.800  1.00  0.00     0.060 A 
ATOM     32  C   UNL     1       1.210  -2.268  -2.199  1.00  0.00     0.016 A 
ATOM     33  C   UNL     1       3.340  -3.275  -2.766  1.00  0.00     0.016 A 
ATOM     34  C   UNL     1       0.866  -2.220  -3.555  1.00  0.00     0.010 A 
ATOM     35  C   UNL     1       2.992  -3.230  -4.120  1.00  0.00     0.010 A 
ATOM     36  C   UNL     1       1.744  -2.725  -4.524  1.00  0.00    -0.014 A 
BRANCH  36  37
ATOM     37  C   UNL     1       1.301  -2.909  -5.931  1.00  0.00     0.031 A 
ATOM     38  C   UNL     1       0.777  -4.259  -6.340  1.00  0.00     0.074 A 
ATOM     39  C   UNL     1       1.393  -1.923  -6.843  1.00  0.00     0.049 A 
ATOM     40  N   UNL     1       0.405  -4.688  -7.517  1.00  0.00    -0.248 NA
ATOM     41  C   UNL     1       0.677  -5.262  -5.269  1.00  0.00     0.031 C 
ATOM     42  C   UNL     1       1.867  -0.567  -6.580  1.00  0.00     0.029 A 
ATOM     43  N   UNL     1       1.109  -1.925  -8.189  1.00  0.00    -0.354 N 
ATOM     44  C   UNL     1       0.023  -6.012  -7.331  1.00  0.00     0.074 A 
ATOM     45  C   UNL     1       0.255  -6.324  -5.936  1.00  0.00     0.031 C 
ATOM     46  C   UNL     1       1.866   0.125  -7.735  1.00  0.00     0.029 A 
ATOM     47  C   UNL     1       1.421  -0.746  -8.823  1.00  0.00     0.049 A 
ATOM     48  H   UNL     1       0.718  -2.700  -8.654  1.00  0.00     0.167 HD
ATOM     49  C   UNL     1      -0.485  -6.887  -8.235  1.00  0.00     0.034 A 
ATOM     50  C   UNL     1       1.381  -0.417 -10.133  1.00  0.00     0.034 A 
ATOM     51  C   UNL     1      -0.688  -6.580  -9.628  1.00  0.00     0.049 A 
ATOM     52  C   UNL     1       0.898  -1.434 -11.143  1.00  0.00     0.074 A 
ATOM     53  C   UNL     1      -1.226  -7.384 -10.617  1.00  0.00     0.029 A 
ATOM     54  N   UNL     1      -0.337  -5.383 -10.238  1.00  0.00    -0.354 N 
ATOM     55  N   UNL     1       0.494  -2.668 -10.947  1.00  0.00    -0.248 NA
ATOM     56  C   UNL     1       0.861  -1.012 -12.552  1.00  0.00     0.031 C 
ATOM     57  C   UNL     1      -1.128  -6.705 -11.837  1.00  0.00     0.029 A 
ATOM     58  C   UNL     1      -0.605  -5.445 -11.597  1.00  0.00     0.049 A 
ATOM     59  H   UNL     1       0.047  -4.605  -9.773  1.00  0.00     0.167 HD
ATOM     60  C   UNL     1       0.124  -3.154 -12.201  1.00  0.00     0.074 A 
ATOM     61  C   UNL     1       0.350  -2.082 -13.146  1.00  0.00     0.031 C 
ATOM     62  C   UNL     1      -0.369  -4.374 -12.537  1.00  0.00     0.034 A 
BRANCH  49  63
ATOM     63  C   UNL     1      -0.800  -8.276  -7.738  1.00  0.00     0.023 A 
ATOM     64  C   UNL     1      -1.780  -8.502  -6.755  1.00  0.00     0.031 A 
ATOM     65  C   UNL     1      -0.073  -9.382  -8.211  1.00  0.00     0.131 A 
ATOM     66  C   UNL     1      -1.944  -9.786  -6.215  1.00  0.00     0.055 A 
ATOM     67  C   UNL     1      -0.302 -10.672  -7.731  1.00  0.00     0.041 A 
ATOM     68  F   UNL     1       0.891  -9.223  -9.132  1.00  0.00    -0.206 F 
ATOM     69  C   UNL     1      -1.230 -10.877  -6.714  1.00  0.00     0.022 A 
BRANCH  66  70
ATOM     70  S   UNL     1      -2.980  -9.975  -4.738  1.00  0.00     0.124 S 
ATOM     71  O   UNL     1      -2.340  -9.047  -3.808  1.00  0.00    -0.237 OA
ATOM     72  O   UNL     1      -4.298  -9.585  -5.226  1.00  0.00    -0.237 OA
ATOM     73  O   UNL     1      -2.833 -11.388  -4.396  1.00  0.00    -0.744 OA
ENDBRANCH  66  70
ENDBRANCH  49  63
BRANCH  50  74
ATOM     74  C   UNL     1       1.863   0.920 -10.589  1.00  0.00     0.023 A 
ATOM     75  C   UNL     1       0.994   1.846 -11.187  1.00  0.00     0.031 A 
ATOM     76  C   UNL     1       3.224   1.262 -10.489  1.00  0.00     0.131 A 
ATOM     77  C   UNL     1       1.502   3.050 -11.702  1.00  0.00     0.055 A 
ATOM     78  C   UNL     1       3.715   2.482 -10.957  1.00  0.00     0.041 A 
ATOM     79  F   UNL     1       4.098   0.411  -9.929  1.00  0.00    -0.206 F 
ATOM     80  C   UNL     1       2.854   3.380 -11.580  1.00  0.00     0.022 A 
BRANCH  77  81
ATOM     81  S   UNL     1       0.381   4.149 -12.612  1.00  0.00     0.124 S 
ATOM     82  O   UNL     1      -0.051   3.289 -13.708  1.00  0.00    -0.237 OA
ATOM     83  O   UNL     1      -0.626   4.457 -11.602  1.00  0.00    -0.237 OA
ATOM     84  O   UNL     1       1.239   5.268 -12.996  1.00  0.00    -0.744 OA
ENDBRANCH  77  81
ENDBRANCH  50  74
BRANCH  62  85
ATOM     85  C   UNL     1      -0.750  -4.603 -13.981  1.00  0.00     0.023 A 
ATOM     86  C   UNL     1       0.211  -4.685 -15.004  1.00  0.00     0.031 A 
ATOM     87  C   UNL     1      -2.103  -4.771 -14.331  1.00  0.00     0.131 A 
ATOM     88  C   UNL     1      -0.197  -4.895 -16.331  1.00  0.00     0.055 A 
ATOM     89  C   UNL     1      -2.498  -5.031 -15.644  1.00  0.00     0.041 A 
ATOM     90  F   UNL     1      -3.063  -4.702 -13.395  1.00  0.00    -0.206 F 
ATOM     91  C   UNL     1      -1.543  -5.086 -16.654  1.00  0.00     0.022 A 
BRANCH  88  92
ATOM     92  S   UNL     1       1.051  -4.863 -17.648  1.00  0.00     0.124 S 
ATOM     93  O   UNL     1       1.589  -3.512 -17.525  1.00  0.00    -0.237 OA
ATOM     94  O   UNL     1       1.949  -5.945 -17.257  1.00  0.00    -0.237 OA
ATOM     95  O   UNL     1       0.276  -5.113 -18.863  1.00  0.00    -0.744 OA
ENDBRANCH  88  92
ENDBRANCH  62  85
ENDBRANCH  36  37
ENDBRANCH  29  31
ENDBRANCH  28  29
ENDBRANCH  27  28
ENDBRANCH   1  27
TORSDOF 18
