REMARK SMILES CCC(CC)(NC(=O)C[C@@H]1CCC[NH2+]C1)C(=O)OCCOC(=O)c1ccc(-c2c3nc(c(-c4cc(S(=O)(=O)[O-])ccc4F)c4ccc([nH]4)c(-c4cc(S(=O)(=O)[O-])ccc4F)c4nc(c(-c5cc(S(=O)(=O)[O-])ccc5F)c5ccc2[nH]5)C=C4)C=C3)cc1
REMARK SMILES IDX 19 1 18 2 16 3 17 4 3 5 2 6 1 7 4 8 5 9 6 10 7 11 8 13 9 14
REMARK SMILES IDX 10 15 11 16 15 17 12 18 14 19 13 20 20 23 21 24 22 25 23 26
REMARK SMILES IDX 24 27 25 28 86 29 26 30 85 31 27 32 28 33 29 34 79 35 30 36
REMARK SMILES IDX 84 37 78 38 80 39 31 40 83 41 77 42 76 43 32 45 64 46 44 47
REMARK SMILES IDX 63 48 45 49 48 50 62 51 81 52 46 53 47 54 61 56 82 57 49 58
REMARK SMILES IDX 33 59 34 60 42 61 35 62 41 63 43 64 40 65 36 66 37 67 38 68
REMARK SMILES IDX 39 69 65 70 66 71 74 72 67 73 73 74 75 75 72 76 68 77 69 78
REMARK SMILES IDX 70 79 71 80 50 81 51 82 59 83 52 84 58 85 60 86 57 87 53 88
REMARK SMILES IDX 54 89 55 90 56 91
REMARK H PARENT 6 12 14 21 14 22 80 44 48 55
REMARK Flexibility Score: inf
ROOT
ATOM      1  C   UNL     1       4.806  -0.738  -2.737  1.00  0.00     0.274 C 
ENDROOT
BRANCH   1   2
ATOM      2  O   UNL     1       3.469  -0.375  -3.147  1.00  0.00    -0.460 OA
BRANCH   2   3
ATOM      3  C   UNL     1       2.487  -1.212  -2.716  1.00  0.00     0.331 C 
ATOM      4  O   UNL     1       2.722  -2.207  -2.033  1.00  0.00    -0.249 OA
BRANCH   3   5
ATOM      5  C   UNL     1       1.028  -0.728  -3.033  1.00  0.00     0.137 C 
BRANCH   5   6
ATOM      6  C   UNL     1       0.512   0.138  -1.857  1.00  0.00     0.037 C 
ATOM      7  C   UNL     1       0.401  -0.570  -0.501  1.00  0.00     0.007 C 
ENDBRANCH   5   6
BRANCH   5   8
ATOM      8  C   UNL     1       0.174  -2.050  -3.140  1.00  0.00     0.037 C 
ATOM      9  C   UNL     1      -1.349  -1.887  -3.125  1.00  0.00     0.007 C 
ENDBRANCH   5   8
BRANCH   5  10
ATOM     10  N   UNL     1       0.777   0.015  -4.317  1.00  0.00    -0.340 N 
ATOM     11  C   UNL     1       1.148   1.140  -4.962  1.00  0.00     0.221 C 
ATOM     12  H   UNL     1       0.130  -0.484  -4.867  1.00  0.00     0.164 HD
ATOM     13  O   UNL     1       0.296   1.590  -5.740  1.00  0.00    -0.275 OA
BRANCH  11  14
ATOM     14  C   UNL     1       2.519   1.769  -4.941  1.00  0.00     0.109 C 
BRANCH  14  15
ATOM     15  C   UNL     1       2.899   2.628  -3.733  1.00  0.00     0.054 C 
ATOM     16  C   UNL     1       1.836   3.635  -3.285  1.00  0.00     0.016 C 
ATOM     17  C   UNL     1       4.240   3.353  -4.003  1.00  0.00     0.264 C 
ATOM     18  C   UNL     1       1.796   4.877  -4.166  1.00  0.00     0.062 C 
ATOM     19  N   UNL     1       4.117   4.513  -4.886  1.00  0.00    -0.346 N 
ATOM     20  C   UNL     1       3.184   5.488  -4.315  1.00  0.00     0.260 C 
ATOM     21  H   UNL     1       5.032   4.949  -4.999  1.00  0.00     0.346 HD
ATOM     22  H   UNL     1       3.763   4.205  -5.792  1.00  0.00     0.346 HD
ENDBRANCH  14  15
ENDBRANCH  11  14
ENDBRANCH   5  10
ENDBRANCH   3   5
ENDBRANCH   2   3
ENDBRANCH   1   2
BRANCH   1  23
ATOM     23  C   UNL     1       5.716   0.488  -2.545  1.00  0.00     0.275 C 
BRANCH  23  24
ATOM     24  O   UNL     1       5.151   1.571  -1.774  1.00  0.00    -0.458 OA
BRANCH  24  25
ATOM     25  C   UNL     1       4.749   1.292  -0.518  1.00  0.00     0.338 C 
ATOM     26  O   UNL     1       4.910   0.233   0.069  1.00  0.00    -0.246 OA
BRANCH  25  27
ATOM     27  C   UNL     1       3.875   2.375  -0.014  1.00  0.00     0.060 A 
ATOM     28  C   UNL     1       2.562   2.014   0.258  1.00  0.00     0.016 A 
ATOM     29  C   UNL     1       4.298   3.669   0.286  1.00  0.00     0.016 A 
ATOM     30  C   UNL     1       1.659   2.912   0.816  1.00  0.00     0.010 A 
ATOM     31  C   UNL     1       3.430   4.534   0.991  1.00  0.00     0.010 A 
ATOM     32  C   UNL     1       2.120   4.136   1.317  1.00  0.00    -0.014 A 
BRANCH  32  33
ATOM     33  C   UNL     1       1.289   4.805   2.371  1.00  0.00     0.031 A 
ATOM     34  C   UNL     1       0.708   6.180   2.207  1.00  0.00     0.074 A 
ATOM     35  C   UNL     1       1.009   4.101   3.494  1.00  0.00     0.049 A 
ATOM     36  N   UNL     1      -0.007   6.876   3.056  1.00  0.00    -0.248 NA
ATOM     37  C   UNL     1       0.962   6.863   0.933  1.00  0.00     0.031 C 
ATOM     38  C   UNL     1       1.496   2.744   3.775  1.00  0.00     0.029 A 
ATOM     39  N   UNL     1       0.228   4.389   4.588  1.00  0.00    -0.354 N 
ATOM     40  C   UNL     1      -0.288   8.085   2.429  1.00  0.00     0.074 A 
ATOM     41  C   UNL     1       0.361   8.030   1.131  1.00  0.00     0.031 C 
ATOM     42  C   UNL     1       0.939   2.293   4.904  1.00  0.00     0.029 A 
ATOM     43  C   UNL     1       0.158   3.363   5.506  1.00  0.00     0.049 A 
ATOM     44  H   UNL     1      -0.238   5.249   4.704  1.00  0.00     0.167 HD
ATOM     45  C   UNL     1      -1.014   9.136   2.895  1.00  0.00     0.034 A 
ATOM     46  C   UNL     1      -0.423   3.287   6.720  1.00  0.00     0.034 A 
ATOM     47  C   UNL     1      -1.641   9.180   4.200  1.00  0.00     0.049 A 
ATOM     48  C   UNL     1      -1.161   4.491   7.235  1.00  0.00     0.074 A 
ATOM     49  C   UNL     1      -2.356  10.216   4.782  1.00  0.00     0.029 A 
ATOM     50  N   UNL     1      -1.633   8.146   5.131  1.00  0.00    -0.354 N 
ATOM     51  N   UNL     1      -1.363   5.647   6.645  1.00  0.00    -0.248 NA
ATOM     52  C   UNL     1      -1.741   4.386   8.577  1.00  0.00     0.031 C 
ATOM     53  C   UNL     1      -2.722   9.834   6.079  1.00  0.00     0.029 A 
ATOM     54  C   UNL     1      -2.308   8.530   6.285  1.00  0.00     0.049 A 
ATOM     55  H   UNL     1      -1.209   7.269   4.993  1.00  0.00     0.167 HD
ATOM     56  C   UNL     1      -2.100   6.405   7.548  1.00  0.00     0.074 A 
ATOM     57  C   UNL     1      -2.344   5.558   8.698  1.00  0.00     0.031 C 
ATOM     58  C   UNL     1      -2.525   7.690   7.441  1.00  0.00     0.034 A 
BRANCH  45  59
ATOM     59  C   UNL     1      -1.115  10.355   2.006  1.00  0.00     0.023 A 
ATOM     60  C   UNL     1      -1.778  10.317   0.766  1.00  0.00     0.031 A 
ATOM     61  C   UNL     1      -0.523  11.571   2.394  1.00  0.00     0.131 A 
ATOM     62  C   UNL     1      -1.771  11.447  -0.068  1.00  0.00     0.055 A 
ATOM     63  C   UNL     1      -0.588  12.715   1.595  1.00  0.00     0.041 A 
ATOM     64  F   UNL     1       0.140  11.667   3.558  1.00  0.00    -0.206 F 
ATOM     65  C   UNL     1      -1.202  12.653   0.349  1.00  0.00     0.022 A 
BRANCH  62  66
ATOM     66  S   UNL     1      -2.388  11.277  -1.765  1.00  0.00     0.124 S 
ATOM     67  O   UNL     1      -1.520  10.225  -2.288  1.00  0.00    -0.237 OA
ATOM     68  O   UNL     1      -3.784  10.911  -1.558  1.00  0.00    -0.237 OA
ATOM     69  O   UNL     1      -2.168  12.601  -2.344  1.00  0.00    -0.744 OA
ENDBRANCH  62  66
ENDBRANCH  45  59
BRANCH  46  70
ATOM     70  C   UNL     1      -0.254   2.068   7.569  1.00  0.00     0.023 A 
ATOM     71  C   UNL     1      -1.356   1.320   8.014  1.00  0.00     0.031 A 
ATOM     72  C   UNL     1       1.026   1.661   7.992  1.00  0.00     0.131 A 
ATOM     73  C   UNL     1      -1.160   0.238   8.888  1.00  0.00     0.055 A 
ATOM     74  C   UNL     1       1.221   0.542   8.801  1.00  0.00     0.041 A 
ATOM     75  F   UNL     1       2.118   2.342   7.608  1.00  0.00    -0.206 F 
ATOM     76  C   UNL     1       0.121  -0.168   9.268  1.00  0.00     0.022 A 
BRANCH  73  77
ATOM     77  S   UNL     1      -2.613  -0.569   9.617  1.00  0.00     0.124 S 
ATOM     78  O   UNL     1      -3.296   0.557  10.244  1.00  0.00    -0.237 OA
ATOM     79  O   UNL     1      -3.263  -1.140   8.443  1.00  0.00    -0.237 OA
ATOM     80  O   UNL     1      -2.034  -1.541  10.542  1.00  0.00    -0.744 OA
ENDBRANCH  73  77
ENDBRANCH  46  70
BRANCH  58  81
ATOM     81  C   UNL     1      -3.323   8.232   8.604  1.00  0.00     0.023 A 
ATOM     82  C   UNL     1      -2.753   8.384   9.882  1.00  0.00     0.031 A 
ATOM     83  C   UNL     1      -4.687   8.535   8.451  1.00  0.00     0.131 A 
ATOM     84  C   UNL     1      -3.560   8.747  10.970  1.00  0.00     0.055 A 
ATOM     85  C   UNL     1      -5.469   8.965   9.524  1.00  0.00     0.041 A 
ATOM     86  F   UNL     1      -5.287   8.403   7.257  1.00  0.00    -0.206 F 
ATOM     87  C   UNL     1      -4.912   9.054  10.797  1.00  0.00     0.022 A 
BRANCH  84  88
ATOM     88  S   UNL     1      -2.850   8.682  12.639  1.00  0.00     0.124 S 
ATOM     89  O   UNL     1      -2.393   7.299  12.721  1.00  0.00    -0.237 OA
ATOM     90  O   UNL     1      -1.803   9.697  12.572  1.00  0.00    -0.237 OA
ATOM     91  O   UNL     1      -3.980   9.015  13.505  1.00  0.00    -0.744 OA
ENDBRANCH  84  88
ENDBRANCH  58  81
ENDBRANCH  32  33
ENDBRANCH  25  27
ENDBRANCH  24  25
ENDBRANCH  23  24
ENDBRANCH   1  23
TORSDOF 19
