REMARK SMILES CC(C)(C)OC(=O)N1CCC[C@](Cc2ccccc2)(C(=O)OCCOC(=O)c2ccc(-c3c4nc(c(-c5cc(S(=O)(=O)[O-])ccc5F)c5ccc([nH]5)c(-c5cc(S(=O)(=O)[O-])ccc5F)c5nc(c(-c6cc(S(=O)(=O)[O-])ccc6F)c6ccc3[nH]6)C=C5)C=C4)cc2)C1
REMARK SMILES IDX 23 1 22 2 20 3 21 4 12 5 8 6 9 7 91 8 10 9 11 10 6 11 7 12
REMARK SMILES IDX 5 13 2 14 1 15 3 16 4 17 13 18 14 19 15 20 19 21 16 22 18 23
REMARK SMILES IDX 17 24 24 25 25 26 26 27 27 28 28 29 29 30 90 31 30 32 89 33
REMARK SMILES IDX 31 34 32 35 33 36 83 37 34 38 88 39 82 40 84 41 35 42 87 43
REMARK SMILES IDX 81 44 80 45 36 47 68 48 48 49 67 50 49 51 52 52 66 53 85 54
REMARK SMILES IDX 50 55 51 56 65 58 86 59 53 60 37 61 38 62 46 63 39 64 45 65
REMARK SMILES IDX 47 66 44 67 40 68 41 69 42 70 43 71 69 72 70 73 78 74 71 75
REMARK SMILES IDX 77 76 79 77 76 78 72 79 73 80 74 81 75 82 54 83 55 84 63 85
REMARK SMILES IDX 56 86 62 87 64 88 61 89 57 90 58 91 59 92 60 93
REMARK H PARENT 84 46 52 57
REMARK Flexibility Score: inf
ROOT
ATOM      1  C   UNL     1       4.369   3.709   4.853  1.00  0.00     0.274 C 
ENDROOT
BRANCH   1   2
ATOM      2  O   UNL     1       4.030   2.302   4.824  1.00  0.00    -0.462 OA
BRANCH   2   3
ATOM      3  C   UNL     1       3.504   1.776   5.970  1.00  0.00     0.314 C 
ATOM      4  O   UNL     1       3.283   2.444   6.974  1.00  0.00    -0.252 OA
BRANCH   3   5
ATOM      5  C   UNL     1       3.376   0.240   5.918  1.00  0.00     0.090 C 
ATOM      6  N   UNL     1       1.155  -0.063   4.719  1.00  0.00    -0.307 N 
ATOM      7  C   UNL     1       0.500  -0.543   5.931  1.00  0.00     0.123 C 
ATOM      8  C   UNL     1       2.610  -0.197   4.643  1.00  0.00     0.142 C 
ATOM      9  C   UNL     1       1.153  -0.011   7.194  1.00  0.00     0.023 C 
ATOM     10  C   UNL     1       2.648  -0.265   7.199  1.00  0.00     0.023 C 
BRANCH   6  11
ATOM     11  C   UNL     1       0.349   0.190   3.604  1.00  0.00     0.410 C 
ATOM     12  O   UNL     1      -0.869   0.298   3.692  1.00  0.00    -0.224 OA
BRANCH  11  13
ATOM     13  O   UNL     1       1.044   0.264   2.437  1.00  0.00    -0.444 OA
BRANCH  13  14
ATOM     14  C   UNL     1       0.451   0.606   1.144  1.00  0.00     0.106 C 
ATOM     15  C   UNL     1       1.104  -0.352   0.138  1.00  0.00     0.056 C 
ATOM     16  C   UNL     1       0.864   2.034   0.767  1.00  0.00     0.056 C 
ATOM     17  C   UNL     1      -1.073   0.484   1.022  1.00  0.00     0.056 C 
ENDBRANCH  13  14
ENDBRANCH  11  13
ENDBRANCH   6  11
BRANCH   5  18
ATOM     18  C   UNL     1       4.856  -0.280   5.905  1.00  0.00     0.056 C 
BRANCH  18  19
ATOM     19  C   UNL     1       5.060  -1.700   6.400  1.00  0.00    -0.047 A 
ATOM     20  C   UNL     1       5.427  -1.931   7.737  1.00  0.00     0.004 A 
ATOM     21  C   UNL     1       4.768  -2.799   5.583  1.00  0.00     0.004 A 
ATOM     22  C   UNL     1       5.442  -3.227   8.256  1.00  0.00     0.000 A 
ATOM     23  C   UNL     1       4.773  -4.092   6.107  1.00  0.00     0.000 A 
ATOM     24  C   UNL     1       5.100  -4.306   7.445  1.00  0.00     0.000 A 
ENDBRANCH  18  19
ENDBRANCH   5  18
ENDBRANCH   3   5
ENDBRANCH   2   3
ENDBRANCH   1   2
BRANCH   1  25
ATOM     25  C   UNL     1       3.366   4.590   4.104  1.00  0.00     0.275 C 
BRANCH  25  26
ATOM     26  O   UNL     1       2.083   4.604   4.757  1.00  0.00    -0.458 OA
BRANCH  26  27
ATOM     27  C   UNL     1       1.238   3.677   4.251  1.00  0.00     0.338 C 
ATOM     28  O   UNL     1       1.505   2.918   3.339  1.00  0.00    -0.246 OA
BRANCH  27  29
ATOM     29  C   UNL     1      -0.036   3.595   4.971  1.00  0.00     0.060 A 
ATOM     30  C   UNL     1      -0.008   3.190   6.297  1.00  0.00     0.016 A 
ATOM     31  C   UNL     1      -1.247   3.640   4.278  1.00  0.00     0.016 A 
ATOM     32  C   UNL     1      -1.172   2.704   6.890  1.00  0.00     0.010 A 
ATOM     33  C   UNL     1      -2.436   3.286   4.932  1.00  0.00     0.010 A 
ATOM     34  C   UNL     1      -2.414   2.780   6.242  1.00  0.00    -0.014 A 
BRANCH  34  35
ATOM     35  C   UNL     1      -3.675   2.358   6.931  1.00  0.00     0.031 A 
ATOM     36  C   UNL     1      -4.657   1.429   6.256  1.00  0.00     0.074 A 
ATOM     37  C   UNL     1      -3.970   2.833   8.160  1.00  0.00     0.049 A 
ATOM     38  N   UNL     1      -5.922   1.220   6.526  1.00  0.00    -0.248 NA
ATOM     39  C   UNL     1      -4.150   0.641   5.124  1.00  0.00     0.031 C 
ATOM     40  C   UNL     1      -3.094   3.670   8.985  1.00  0.00     0.029 A 
ATOM     41  N   UNL     1      -5.104   2.698   8.930  1.00  0.00    -0.354 N 
ATOM     42  C   UNL     1      -6.382   0.332   5.555  1.00  0.00     0.074 A 
ATOM     43  C   UNL     1      -5.251   0.032   4.701  1.00  0.00     0.031 C 
ATOM     44  C   UNL     1      -3.702   3.948  10.143  1.00  0.00     0.029 A 
ATOM     45  C   UNL     1      -5.068   3.452  10.081  1.00  0.00     0.049 A 
ATOM     46  H   UNL     1      -5.862   2.121   8.682  1.00  0.00     0.167 HD
ATOM     47  C   UNL     1      -7.636  -0.162   5.388  1.00  0.00     0.034 A 
ATOM     48  C   UNL     1      -6.037   3.811  10.945  1.00  0.00     0.034 A 
ATOM     49  C   UNL     1      -8.736   0.125   6.286  1.00  0.00     0.049 A 
ATOM     50  C   UNL     1      -7.439   3.341  10.698  1.00  0.00     0.074 A 
ATOM     51  C   UNL     1     -10.043  -0.331   6.226  1.00  0.00     0.029 A 
ATOM     52  N   UNL     1      -8.658   0.941   7.408  1.00  0.00    -0.354 N 
ATOM     53  N   UNL     1      -7.895   2.598   9.717  1.00  0.00    -0.248 NA
ATOM     54  C   UNL     1      -8.461   3.774  11.657  1.00  0.00     0.031 C 
ATOM     55  C   UNL     1     -10.767   0.263   7.266  1.00  0.00     0.029 A 
ATOM     56  C   UNL     1      -9.897   1.026   8.027  1.00  0.00     0.049 A 
ATOM     57  H   UNL     1      -7.841   1.394   7.719  1.00  0.00     0.167 HD
ATOM     58  C   UNL     1      -9.257   2.456   9.953  1.00  0.00     0.074 A 
ATOM     59  C   UNL     1      -9.547   3.190  11.169  1.00  0.00     0.031 C 
ATOM     60  C   UNL     1     -10.179   1.771   9.232  1.00  0.00     0.034 A 
BRANCH  47  61
ATOM     61  C   UNL     1      -7.918  -0.986   4.149  1.00  0.00     0.023 A 
ATOM     62  C   UNL     1      -7.320  -2.235   3.909  1.00  0.00     0.031 A 
ATOM     63  C   UNL     1      -8.814  -0.494   3.178  1.00  0.00     0.131 A 
ATOM     64  C   UNL     1      -7.581  -2.920   2.708  1.00  0.00     0.055 A 
ATOM     65  C   UNL     1      -9.125  -1.212   2.022  1.00  0.00     0.041 A 
ATOM     66  F   UNL     1      -9.404   0.702   3.337  1.00  0.00    -0.206 F 
ATOM     67  C   UNL     1      -8.497  -2.427   1.775  1.00  0.00     0.022 A 
BRANCH  64  68
ATOM     68  S   UNL     1      -6.615  -4.407   2.317  1.00  0.00     0.124 S 
ATOM     69  O   UNL     1      -5.246  -3.907   2.400  1.00  0.00    -0.237 OA
ATOM     70  O   UNL     1      -7.024  -5.333   3.366  1.00  0.00    -0.237 OA
ATOM     71  O   UNL     1      -7.058  -4.760   0.969  1.00  0.00    -0.744 OA
ENDBRANCH  64  68
ENDBRANCH  47  61
BRANCH  48  72
ATOM     72  C   UNL     1      -5.717   4.764  12.046  1.00  0.00     0.023 A 
ATOM     73  C   UNL     1      -5.758   4.370  13.389  1.00  0.00     0.031 A 
ATOM     74  C   UNL     1      -5.322   6.086  11.754  1.00  0.00     0.131 A 
ATOM     75  C   UNL     1      -5.414   5.288  14.394  1.00  0.00     0.055 A 
ATOM     76  C   UNL     1      -4.927   6.976  12.752  1.00  0.00     0.041 A 
ATOM     77  F   UNL     1      -5.264   6.513  10.482  1.00  0.00    -0.206 F 
ATOM     78  C   UNL     1      -4.978   6.580  14.083  1.00  0.00     0.022 A 
BRANCH  75  79
ATOM     79  S   UNL     1      -5.584   4.786  16.127  1.00  0.00     0.124 S 
ATOM     80  O   UNL     1      -7.007   4.477  16.209  1.00  0.00    -0.237 OA
ATOM     81  O   UNL     1      -4.674   3.648  16.205  1.00  0.00    -0.237 OA
ATOM     82  O   UNL     1      -5.159   5.972  16.869  1.00  0.00    -0.744 OA
ENDBRANCH  75  79
ENDBRANCH  48  72
BRANCH  60  83
ATOM     83  C   UNL     1     -11.580   1.729   9.785  1.00  0.00     0.023 A 
ATOM     84  C   UNL     1     -12.415   2.859   9.783  1.00  0.00     0.031 A 
ATOM     85  C   UNL     1     -12.079   0.533  10.331  1.00  0.00     0.131 A 
ATOM     86  C   UNL     1     -13.695   2.779  10.352  1.00  0.00     0.055 A 
ATOM     87  C   UNL     1     -13.370   0.446  10.850  1.00  0.00     0.041 A 
ATOM     88  F   UNL     1     -11.317  -0.572  10.363  1.00  0.00    -0.206 F 
ATOM     89  C   UNL     1     -14.183   1.575  10.871  1.00  0.00     0.022 A 
BRANCH  86  90
ATOM     90  S   UNL     1     -14.699   4.285  10.467  1.00  0.00     0.124 S 
ATOM     91  O   UNL     1     -13.885   5.126  11.338  1.00  0.00    -0.237 OA
ATOM     92  O   UNL     1     -14.790   4.710   9.074  1.00  0.00    -0.237 OA
ATOM     93  O   UNL     1     -15.954   3.817  11.053  1.00  0.00    -0.744 OA
ENDBRANCH  86  90
ENDBRANCH  60  83
ENDBRANCH  34  35
ENDBRANCH  27  29
ENDBRANCH  26  27
ENDBRANCH  25  26
ENDBRANCH   1  25
TORSDOF 19
