REMARK SMILES C[C@@H](Oc1ccc2c(c1)OCO2)C(=O)N1CCn2nc(C(=O)OCCOC(=O)c3ccc(-c4c5nc(c(-c6cc(S(=O)(=O)[O-])ccc6F)c6ccc([nH]6)c(-c6cc(S(=O)(=O)[O-])ccc6F)c6nc(c(-c7cc(S(=O)(=O)[O-])ccc7F)c7ccc4[nH]7)C=C6)C=C5)cc3)cc2C1
REMARK SMILES IDX 24 1 23 2 21 3 22 4 20 5 15 6 16 7 94 8 17 9 93 10 18 11
REMARK SMILES IDX 92 12 19 13 13 14 14 15 2 16 1 17 3 18 4 19 5 20 9 21 6 22
REMARK SMILES IDX 8 23 7 24 10 25 12 26 11 27 25 28 26 29 27 30 28 31 29 32
REMARK SMILES IDX 30 33 91 34 31 35 90 36 32 37 33 38 34 39 84 40 35 41 89 42
REMARK SMILES IDX 83 43 85 44 36 45 88 46 82 47 81 48 37 50 69 51 49 52 68 53
REMARK SMILES IDX 50 54 53 55 67 56 86 57 51 58 52 59 66 61 87 62 54 63 38 64
REMARK SMILES IDX 39 65 47 66 40 67 46 68 48 69 45 70 41 71 42 72 43 73 44 74
REMARK SMILES IDX 70 75 71 76 79 77 72 78 78 79 80 80 77 81 73 82 74 83 75 84
REMARK SMILES IDX 76 85 55 86 56 87 64 88 57 89 63 90 65 91 62 92 58 93 59 94
REMARK SMILES IDX 60 95 61 96
REMARK H PARENT 85 49 53 60
REMARK Flexibility Score: inf
ROOT
ATOM      1  C   UNL     1      -8.019   5.457   2.989  1.00  0.00     0.275 C 
ENDROOT
BRANCH   1   2
ATOM      2  O   UNL     1      -7.067   4.436   2.658  1.00  0.00    -0.457 OA
BRANCH   2   3
ATOM      3  C   UNL     1      -6.527   4.514   1.399  1.00  0.00     0.358 C 
ATOM      4  O   UNL     1      -6.982   5.228   0.506  1.00  0.00    -0.244 OA
BRANCH   3   5
ATOM      5  C   UNL     1      -5.333   3.670   1.262  1.00  0.00     0.170 A 
ATOM      6  N   UNL     1      -1.712   0.816   1.151  1.00  0.00    -0.332 N 
ATOM      7  C   UNL     1      -1.280   1.859   0.212  1.00  0.00     0.143 C 
ATOM      8  C   UNL     1      -2.925   0.966   1.945  1.00  0.00     0.175 C 
ATOM      9  C   UNL     1      -2.284   2.908  -0.250  1.00  0.00     0.166 C 
ATOM     10  C   UNL     1      -3.761   2.118   1.578  1.00  0.00     0.059 A 
ATOM     11  N   UNL     1      -3.482   2.937   0.537  1.00  0.00    -0.265 N 
ATOM     12  C   UNL     1      -4.908   2.632   2.139  1.00  0.00     0.063 A 
ATOM     13  N   UNL     1      -4.462   3.802   0.241  1.00  0.00    -0.165 NA
BRANCH   6  14
ATOM     14  C   UNL     1      -0.917  -0.276   1.523  1.00  0.00     0.263 C 
ATOM     15  O   UNL     1      -1.408  -1.238   2.127  1.00  0.00    -0.271 OA
BRANCH  14  16
ATOM     16  C   UNL     1       0.601  -0.269   1.240  1.00  0.00     0.259 C 
ATOM     17  C   UNL     1       0.923  -0.389  -0.245  1.00  0.00     0.064 C 
BRANCH  16  18
ATOM     18  O   UNL     1       1.122   0.927   1.838  1.00  0.00    -0.481 OA
BRANCH  18  19
ATOM     19  C   UNL     1       2.448   0.861   2.163  1.00  0.00     0.124 A 
ATOM     20  C   UNL     1       3.410   1.127   1.174  1.00  0.00     0.050 A 
ATOM     21  C   UNL     1       2.816   0.707   3.501  1.00  0.00     0.097 A 
ATOM     22  C   UNL     1       4.764   1.199   1.504  1.00  0.00     0.054 A 
ATOM     23  C   UNL     1       4.161   0.802   3.800  1.00  0.00     0.169 A 
ATOM     24  C   UNL     1       5.106   1.039   2.827  1.00  0.00     0.166 A 
ATOM     25  O   UNL     1       4.716   0.711   5.040  1.00  0.00    -0.453 OA
ATOM     26  O   UNL     1       6.367   1.121   3.331  1.00  0.00    -0.454 OA
ATOM     27  C   UNL     1       6.098   1.000   4.742  1.00  0.00     0.468 C 
ENDBRANCH  18  19
ENDBRANCH  16  18
ENDBRANCH  14  16
ENDBRANCH   6  14
ENDBRANCH   3   5
ENDBRANCH   2   3
ENDBRANCH   1   2
BRANCH   1  28
ATOM     28  C   UNL     1      -7.327   6.691   3.549  1.00  0.00     0.275 C 
BRANCH  28  29
ATOM     29  O   UNL     1      -6.596   7.388   2.540  1.00  0.00    -0.458 OA
BRANCH  29  30
ATOM     30  C   UNL     1      -5.264   7.139   2.526  1.00  0.00     0.338 C 
ATOM     31  O   UNL     1      -4.706   6.143   2.953  1.00  0.00    -0.246 OA
BRANCH  30  32
ATOM     32  C   UNL     1      -4.559   8.371   2.147  1.00  0.00     0.060 A 
ATOM     33  C   UNL     1      -3.179   8.307   1.939  1.00  0.00     0.016 A 
ATOM     34  C   UNL     1      -5.228   9.600   2.259  1.00  0.00     0.016 A 
ATOM     35  C   UNL     1      -2.449   9.482   1.972  1.00  0.00     0.010 A 
ATOM     36  C   UNL     1      -4.498  10.763   2.318  1.00  0.00     0.010 A 
ATOM     37  C   UNL     1      -3.111  10.690   2.231  1.00  0.00    -0.014 A 
BRANCH  37  38
ATOM     38  C   UNL     1      -2.348  11.925   2.228  1.00  0.00     0.031 A 
ATOM     39  C   UNL     1      -1.929  12.320   0.863  1.00  0.00     0.074 A 
ATOM     40  C   UNL     1      -2.199  12.711   3.313  1.00  0.00     0.049 A 
ATOM     41  N   UNL     1      -0.736  12.319   0.371  1.00  0.00    -0.248 NA
ATOM     42  C   UNL     1      -2.986  12.544  -0.140  1.00  0.00     0.031 C 
ATOM     43  C   UNL     1      -2.829  12.550   4.626  1.00  0.00     0.029 A 
ATOM     44  N   UNL     1      -1.530  13.891   3.440  1.00  0.00    -0.354 N 
ATOM     45  C   UNL     1      -0.873  12.813  -0.921  1.00  0.00     0.074 A 
ATOM     46  C   UNL     1      -2.264  12.679  -1.251  1.00  0.00     0.031 C 
ATOM     47  C   UNL     1      -2.694  13.698   5.330  1.00  0.00     0.029 A 
ATOM     48  C   UNL     1      -1.866  14.627   4.575  1.00  0.00     0.049 A 
ATOM     49  H   UNL     1      -0.865  14.199   2.783  1.00  0.00     0.167 HD
ATOM     50  C   UNL     1       0.104  13.579  -1.476  1.00  0.00     0.034 A 
ATOM     51  C   UNL     1      -1.542  15.924   4.840  1.00  0.00     0.034 A 
ATOM     52  C   UNL     1       1.360  13.394  -0.777  1.00  0.00     0.049 A 
ATOM     53  C   UNL     1      -0.366  16.252   3.996  1.00  0.00     0.074 A 
ATOM     54  C   UNL     1       2.157  12.302  -0.487  1.00  0.00     0.029 A 
ATOM     55  N   UNL     1       1.770  14.386   0.085  1.00  0.00    -0.354 N 
ATOM     56  N   UNL     1       0.801  15.686   4.138  1.00  0.00    -0.248 NA
ATOM     57  C   UNL     1      -0.607  16.846   2.690  1.00  0.00     0.031 C 
ATOM     58  C   UNL     1       2.642  12.537   0.834  1.00  0.00     0.029 A 
ATOM     59  C   UNL     1       2.191  13.792   1.249  1.00  0.00     0.049 A 
ATOM     60  H   UNL     1       1.762  15.353  -0.101  1.00  0.00     0.167 HD
ATOM     61  C   UNL     1       1.248  15.454   2.846  1.00  0.00     0.074 A 
ATOM     62  C   UNL     1       0.389  16.282   2.000  1.00  0.00     0.031 C 
ATOM     63  C   UNL     1       2.076  14.404   2.562  1.00  0.00     0.034 A 
BRANCH  50  64
ATOM     64  C   UNL     1      -0.169  14.794  -2.344  1.00  0.00     0.023 A 
ATOM     65  C   UNL     1       0.954  15.517  -2.787  1.00  0.00     0.031 A 
ATOM     66  C   UNL     1      -1.415  15.446  -2.506  1.00  0.00     0.131 A 
ATOM     67  C   UNL     1       0.831  16.847  -3.224  1.00  0.00     0.055 A 
ATOM     68  C   UNL     1      -1.538  16.745  -3.007  1.00  0.00     0.041 A 
ATOM     69  F   UNL     1      -2.579  14.917  -2.115  1.00  0.00    -0.206 F 
ATOM     70  C   UNL     1      -0.408  17.469  -3.333  1.00  0.00     0.022 A 
BRANCH  67  71
ATOM     71  S   UNL     1       2.345  17.807  -3.462  1.00  0.00     0.124 S 
ATOM     72  O   UNL     1       2.988  17.658  -2.161  1.00  0.00    -0.237 OA
ATOM     73  O   UNL     1       2.972  17.104  -4.576  1.00  0.00    -0.237 OA
ATOM     74  O   UNL     1       1.851  19.147  -3.768  1.00  0.00    -0.744 OA
ENDBRANCH  67  71
ENDBRANCH  50  64
BRANCH  51  75
ATOM     75  C   UNL     1      -2.412  16.966   5.468  1.00  0.00     0.023 A 
ATOM     76  C   UNL     1      -1.912  18.186   5.981  1.00  0.00     0.031 A 
ATOM     77  C   UNL     1      -3.816  16.871   5.336  1.00  0.00     0.131 A 
ATOM     78  C   UNL     1      -2.800  19.234   6.333  1.00  0.00     0.055 A 
ATOM     79  C   UNL     1      -4.686  17.907   5.685  1.00  0.00     0.041 A 
ATOM     80  F   UNL     1      -4.392  15.796   4.777  1.00  0.00    -0.206 F 
ATOM     81  C   UNL     1      -4.181  19.098   6.176  1.00  0.00     0.022 A 
BRANCH  78  82
ATOM     82  S   UNL     1      -2.169  20.842   6.926  1.00  0.00     0.124 S 
ATOM     83  O   UNL     1      -1.602  20.494   8.223  1.00  0.00    -0.237 OA
ATOM     84  O   UNL     1      -1.223  21.214   5.881  1.00  0.00    -0.237 OA
ATOM     85  O   UNL     1      -3.369  21.679   6.988  1.00  0.00    -0.744 OA
ENDBRANCH  78  82
ENDBRANCH  51  75
BRANCH  63  86
ATOM     86  C   UNL     1       2.786  13.713   3.714  1.00  0.00     0.023 A 
ATOM     87  C   UNL     1       2.156  13.122   4.835  1.00  0.00     0.031 A 
ATOM     88  C   UNL     1       4.183  13.576   3.608  1.00  0.00     0.131 A 
ATOM     89  C   UNL     1       2.929  12.443   5.801  1.00  0.00     0.055 A 
ATOM     90  C   UNL     1       4.938  12.883   4.552  1.00  0.00     0.041 A 
ATOM     91  F   UNL     1       4.841  14.095   2.558  1.00  0.00    -0.206 F 
ATOM     92  C   UNL     1       4.314  12.321   5.657  1.00  0.00     0.022 A 
BRANCH  89  93
ATOM     93  S   UNL     1       2.154  11.728   7.290  1.00  0.00     0.124 S 
ATOM     94  O   UNL     1       1.269  12.787   7.759  1.00  0.00    -0.237 OA
ATOM     95  O   UNL     1       1.500  10.534   6.762  1.00  0.00    -0.237 OA
ATOM     96  O   UNL     1       3.294  11.456   8.168  1.00  0.00    -0.744 OA
ENDBRANCH  89  93
ENDBRANCH  63  86
ENDBRANCH  37  38
ENDBRANCH  30  32
ENDBRANCH  29  30
ENDBRANCH  28  29
ENDBRANCH   1  28
TORSDOF 18
