REMARK SMILES CCc1nc(C)c(C(=O)OCCOC(=O)c2ccc(-c3c4nc(c(-c5cc(S(=O)(=O)[O-])ccc5F)c5ccc([nH]5)c(-c5cc(S(=O)(=O)[O-])ccc5F)c5nc(c(-c6cc(S(=O)(=O)[O-])ccc6F)c6ccc3[nH]6)C=C5)C=C4)cc2)c(SCc2cnc(Cl)s2)n1
REMARK SMILES IDX 11 1 10 2 8 3 9 4 7 5 3 6 4 7 88 8 5 9 79 10 6 11 2 12 1 13
REMARK SMILES IDX 80 14 81 15 82 16 83 17 87 18 84 19 85 20 86 21 12 22 13 23
REMARK SMILES IDX 14 24 15 25 16 26 17 27 78 28 18 29 77 30 19 31 20 32 21 33
REMARK SMILES IDX 71 34 22 35 76 36 70 37 72 38 23 39 75 40 69 41 68 42 24 44
REMARK SMILES IDX 56 45 36 46 55 47 37 48 40 49 54 50 73 51 38 52 39 53 53 55
REMARK SMILES IDX 74 56 41 57 25 58 26 59 34 60 27 61 33 62 35 63 32 64 28 65
REMARK SMILES IDX 29 66 30 67 31 68 57 69 58 70 66 71 59 72 65 73 67 74 64 75
REMARK SMILES IDX 60 76 61 77 62 78 63 79 42 80 43 81 51 82 44 83 50 84 52 85
REMARK SMILES IDX 49 86 45 87 46 88 47 89 48 90
REMARK H PARENT 72 43 40 54
REMARK Flexibility Score: inf
ROOT
ATOM      1  C   UNL     1       1.752  -0.515  -8.372  1.00  0.00     0.275 C 
ENDROOT
BRANCH   1   2
ATOM      2  O   UNL     1       1.637  -0.537  -6.930  1.00  0.00    -0.458 OA
BRANCH   2   3
ATOM      3  C   UNL     1       2.152   0.555  -6.311  1.00  0.00     0.342 C 
ATOM      4  O   UNL     1       2.550   1.508  -6.949  1.00  0.00    -0.246 OA
BRANCH   3   5
ATOM      5  C   UNL     1       2.099   0.567  -4.836  1.00  0.00     0.113 A 
ATOM      6  C   UNL     1       1.363   0.794  -2.214  1.00  0.00     0.129 A 
ATOM      7  N   UNL     1       1.170  -0.382  -2.808  1.00  0.00    -0.237 NA
ATOM      8  N   UNL     1       2.037   1.791  -2.789  1.00  0.00    -0.226 NA
ATOM      9  C   UNL     1       1.569  -0.503  -4.099  1.00  0.00     0.057 A 
ATOM     10  C   UNL     1       2.446   1.694  -4.087  1.00  0.00     0.115 A 
ATOM     11  C   UNL     1       1.387  -1.906  -4.603  1.00  0.00     0.068 C 
BRANCH   6  12
ATOM     12  C   UNL     1       0.726   1.052  -0.876  1.00  0.00     0.074 C 
ATOM     13  C   UNL     1       1.067  -0.006   0.159  1.00  0.00     0.012 C 
ENDBRANCH   6  12
BRANCH  10  14
ATOM     14  S   UNL     1       3.365   3.200  -4.374  1.00  0.00    -0.100 SA
BRANCH  14  15
ATOM     15  C   UNL     1       4.160   3.355  -6.003  1.00  0.00     0.125 C 
BRANCH  15  16
ATOM     16  C   UNL     1       5.408   2.552  -6.180  1.00  0.00     0.036 A 
ATOM     17  C   UNL     1       6.688   2.847  -5.737  1.00  0.00     0.129 A 
ATOM     18  S   UNL     1       5.481   1.121  -7.130  1.00  0.00    -0.107 S 
ATOM     19  N   UNL     1       7.677   1.940  -6.080  1.00  0.00    -0.233 NA
ATOM     20  C   UNL     1       7.131   0.990  -6.793  1.00  0.00     0.183 A 
ATOM     21  Cl  UNL     1       8.014  -0.358  -7.382  1.00  0.00    -0.051 Cl
ENDBRANCH  15  16
ENDBRANCH  14  15
ENDBRANCH  10  14
ENDBRANCH   3   5
ENDBRANCH   2   3
ENDBRANCH   1   2
BRANCH   1  22
ATOM     22  C   UNL     1       0.610   0.224  -9.093  1.00  0.00     0.275 C 
BRANCH  22  23
ATOM     23  O   UNL     1       0.583   1.642  -8.833  1.00  0.00    -0.458 OA
BRANCH  23  24
ATOM     24  C   UNL     1      -0.168   2.010  -7.761  1.00  0.00     0.338 C 
ATOM     25  O   UNL     1      -0.870   1.258  -7.100  1.00  0.00    -0.246 OA
BRANCH  24  26
ATOM     26  C   UNL     1       0.107   3.414  -7.354  1.00  0.00     0.060 A 
ATOM     27  C   UNL     1       0.047   3.705  -5.984  1.00  0.00     0.016 A 
ATOM     28  C   UNL     1       0.414   4.434  -8.261  1.00  0.00     0.016 A 
ATOM     29  C   UNL     1       0.289   4.999  -5.518  1.00  0.00     0.010 A 
ATOM     30  C   UNL     1       0.627   5.743  -7.793  1.00  0.00     0.010 A 
ATOM     31  C   UNL     1       0.554   6.036  -6.420  1.00  0.00    -0.014 A 
BRANCH  31  32
ATOM     32  C   UNL     1       0.581   7.437  -5.920  1.00  0.00     0.031 A 
ATOM     33  C   UNL     1      -0.718   8.186  -5.810  1.00  0.00     0.074 A 
ATOM     34  C   UNL     1       1.724   8.024  -5.517  1.00  0.00     0.049 A 
ATOM     35  N   UNL     1      -0.948   9.393  -5.362  1.00  0.00    -0.248 NA
ATOM     36  C   UNL     1      -1.919   7.469  -6.263  1.00  0.00     0.031 C 
ATOM     37  C   UNL     1       3.040   7.393  -5.519  1.00  0.00     0.029 A 
ATOM     38  N   UNL     1       1.958   9.285  -5.023  1.00  0.00    -0.354 N 
ATOM     39  C   UNL     1      -2.323   9.574  -5.451  1.00  0.00     0.074 A 
ATOM     40  C   UNL     1      -2.867   8.367  -6.040  1.00  0.00     0.031 C 
ATOM     41  C   UNL     1       3.948   8.271  -5.058  1.00  0.00     0.029 A 
ATOM     42  C   UNL     1       3.284   9.538  -4.752  1.00  0.00     0.049 A 
ATOM     43  H   UNL     1       1.244   9.946  -4.876  1.00  0.00     0.167 HD
ATOM     44  C   UNL     1      -3.068  10.641  -5.071  1.00  0.00     0.034 A 
ATOM     45  C   UNL     1       3.892  10.665  -4.323  1.00  0.00     0.034 A 
ATOM     46  C   UNL     1      -2.518  11.864  -4.539  1.00  0.00     0.049 A 
ATOM     47  C   UNL     1       3.054  11.889  -4.026  1.00  0.00     0.074 A 
ATOM     48  C   UNL     1      -3.185  13.012  -4.149  1.00  0.00     0.029 A 
ATOM     49  N   UNL     1      -1.164  12.108  -4.343  1.00  0.00    -0.354 N 
ATOM     50  N   UNL     1       1.752  12.040  -4.098  1.00  0.00    -0.248 NA
ATOM     51  C   UNL     1       3.771  13.093  -3.579  1.00  0.00     0.031 C 
ATOM     52  C   UNL     1      -2.234  13.974  -3.790  1.00  0.00     0.029 A 
ATOM     53  C   UNL     1      -0.975  13.400  -3.874  1.00  0.00     0.049 A 
ATOM     54  H   UNL     1      -0.444  11.459  -4.512  1.00  0.00     0.167 HD
ATOM     55  C   UNL     1       1.494  13.340  -3.664  1.00  0.00     0.074 A 
ATOM     56  C   UNL     1       2.773  13.927  -3.329  1.00  0.00     0.031 C 
ATOM     57  C   UNL     1       0.304  13.984  -3.544  1.00  0.00     0.034 A 
BRANCH  44  58
ATOM     58  C   UNL     1      -4.558  10.541  -5.286  1.00  0.00     0.023 A 
ATOM     59  C   UNL     1      -5.339   9.600  -4.592  1.00  0.00     0.031 A 
ATOM     60  C   UNL     1      -5.196  11.360  -6.234  1.00  0.00     0.131 A 
ATOM     61  C   UNL     1      -6.697   9.450  -4.909  1.00  0.00     0.055 A 
ATOM     62  C   UNL     1      -6.564  11.259  -6.489  1.00  0.00     0.041 A 
ATOM     63  F   UNL     1      -4.495  12.257  -6.944  1.00  0.00    -0.206 F 
ATOM     64  C   UNL     1      -7.320  10.289  -5.836  1.00  0.00     0.022 A 
BRANCH  61  65
ATOM     65  S   UNL     1      -7.602   8.044  -4.206  1.00  0.00     0.124 S 
ATOM     66  O   UNL     1      -6.813   6.913  -4.688  1.00  0.00    -0.237 OA
ATOM     67  O   UNL     1      -7.533   8.309  -2.773  1.00  0.00    -0.237 OA
ATOM     68  O   UNL     1      -8.933   8.163  -4.799  1.00  0.00    -0.744 OA
ENDBRANCH  61  65
ENDBRANCH  44  58
BRANCH  45  69
ATOM     69  C   UNL     1       5.378  10.725  -4.187  1.00  0.00     0.023 A 
ATOM     70  C   UNL     1       5.991  10.966  -2.946  1.00  0.00     0.031 A 
ATOM     71  C   UNL     1       6.205  10.629  -5.321  1.00  0.00     0.131 A 
ATOM     72  C   UNL     1       7.380  11.160  -2.878  1.00  0.00     0.055 A 
ATOM     73  C   UNL     1       7.591  10.766  -5.239  1.00  0.00     0.041 A 
ATOM     74  F   UNL     1       5.672  10.404  -6.533  1.00  0.00    -0.206 F 
ATOM     75  C   UNL     1       8.186  11.049  -4.013  1.00  0.00     0.022 A 
BRANCH  72  76
ATOM     76  S   UNL     1       8.114  11.661  -1.295  1.00  0.00     0.124 S 
ATOM     77  O   UNL     1       7.402  12.903  -1.019  1.00  0.00    -0.237 OA
ATOM     78  O   UNL     1       7.786  10.527  -0.437  1.00  0.00    -0.237 OA
ATOM     79  O   UNL     1       9.533  11.811  -1.610  1.00  0.00    -0.744 OA
ENDBRANCH  72  76
ENDBRANCH  45  69
BRANCH  57  80
ATOM     80  C   UNL     1       0.325  15.380  -2.966  1.00  0.00     0.023 A 
ATOM     81  C   UNL     1       0.917  16.462  -3.642  1.00  0.00     0.031 A 
ATOM     82  C   UNL     1      -0.261  15.629  -1.711  1.00  0.00     0.131 A 
ATOM     83  C   UNL     1       0.954  17.730  -3.038  1.00  0.00     0.055 A 
ATOM     84  C   UNL     1      -0.272  16.903  -1.141  1.00  0.00     0.041 A 
ATOM     85  F   UNL     1      -0.839  14.634  -1.018  1.00  0.00    -0.206 F 
ATOM     86  C   UNL     1       0.349  17.960  -1.799  1.00  0.00     0.022 A 
BRANCH  83  87
ATOM     87  S   UNL     1       1.878  19.062  -3.853  1.00  0.00     0.124 S 
ATOM     88  O   UNL     1       3.215  18.486  -3.958  1.00  0.00    -0.237 OA
ATOM     89  O   UNL     1       1.152  19.222  -5.109  1.00  0.00    -0.237 OA
ATOM     90  O   UNL     1       1.758  20.183  -2.922  1.00  0.00    -0.744 OA
ENDBRANCH  83  87
ENDBRANCH  57  80
ENDBRANCH  31  32
ENDBRANCH  24  26
ENDBRANCH  23  24
ENDBRANCH  22  23
ENDBRANCH   1  22
TORSDOF 18
