REMARK SMILES O=C(OCCOC(=O)C1CCN(C(=O)COc2ccc(Cl)cc2Cl)CC1)c1ccc(-c2c3nc(c(-c4cc(S(=O)(=O)[O-])ccc4F)c4ccc([nH]4)c(-c4cc(S(=O)(=O)[O-])ccc4F)c4nc(c(-c5cc(S(=O)(=O)[O-])ccc5F)c5ccc2[nH]5)C=C4)C=C3)cc1
REMARK SMILES IDX 4 1 3 2 2 3 1 4 27 5 28 6 89 7 29 8 88 9 30 10 31 11 32 12
REMARK SMILES IDX 82 13 33 14 87 15 81 16 83 17 34 18 86 19 80 20 79 21 35 23
REMARK SMILES IDX 67 24 47 25 66 26 48 27 51 28 65 29 84 30 49 31 50 32 64 34
REMARK SMILES IDX 85 35 52 36 36 37 37 38 45 39 38 40 44 41 46 42 43 43 39 44
REMARK SMILES IDX 40 45 41 46 42 47 68 48 69 49 77 50 70 51 76 52 78 53 75 54
REMARK SMILES IDX 71 55 72 56 73 57 74 58 53 59 54 60 62 61 55 62 61 63 63 64
REMARK SMILES IDX 60 65 56 66 57 67 58 68 59 69 5 70 6 71 7 72 8 73 9 74 10 75
REMARK SMILES IDX 26 76 11 77 25 78 12 79 13 80 14 81 15 82 16 83 17 84 18 85
REMARK SMILES IDX 23 86 19 87 22 88 24 89 20 90 21 91
REMARK H PARENT 83 22 51 33
REMARK Flexibility Score: inf
ROOT
ATOM      1  C   UNL     1       4.519  -1.191  -0.891  1.00  0.00     0.275 C 
ENDROOT
BRANCH   1   2
ATOM      2  O   UNL     1       3.281  -1.205  -0.155  1.00  0.00    -0.458 OA
BRANCH   2   3
ATOM      3  C   UNL     1       2.935  -0.566   0.991  1.00  0.00     0.338 C 
ATOM      4  O   UNL     1       1.913  -0.933   1.570  1.00  0.00    -0.246 OA
BRANCH   3   5
ATOM      5  C   UNL     1       3.617   0.670   1.504  1.00  0.00     0.060 A 
ATOM      6  C   UNL     1       4.918   1.077   1.203  1.00  0.00     0.016 A 
ATOM      7  C   UNL     1       2.838   1.525   2.317  1.00  0.00     0.016 A 
ATOM      8  C   UNL     1       5.413   2.306   1.640  1.00  0.00     0.010 A 
ATOM      9  C   UNL     1       3.328   2.762   2.760  1.00  0.00     0.010 A 
ATOM     10  C   UNL     1       4.632   3.146   2.434  1.00  0.00    -0.014 A 
BRANCH  10  11
ATOM     11  C   UNL     1       5.320   4.264   3.115  1.00  0.00     0.031 A 
ATOM     12  C   UNL     1       5.851   3.996   4.493  1.00  0.00     0.074 A 
ATOM     13  C   UNL     1       5.605   5.408   2.467  1.00  0.00     0.049 A 
ATOM     14  N   UNL     1       6.635   4.725   5.239  1.00  0.00    -0.248 NA
ATOM     15  C   UNL     1       5.459   2.712   5.099  1.00  0.00     0.031 C 
ATOM     16  C   UNL     1       5.194   5.723   1.100  1.00  0.00     0.029 A 
ATOM     17  N   UNL     1       6.335   6.502   2.853  1.00  0.00    -0.354 N 
ATOM     18  C   UNL     1       6.843   3.981   6.395  1.00  0.00     0.074 A 
ATOM     19  C   UNL     1       6.062   2.772   6.272  1.00  0.00     0.031 C 
ATOM     20  C   UNL     1       5.694   6.921   0.752  1.00  0.00     0.029 A 
ATOM     21  C   UNL     1       6.445   7.469   1.878  1.00  0.00     0.049 A 
ATOM     22  H   UNL     1       6.744   6.589   3.744  1.00  0.00     0.167 HD
ATOM     23  C   UNL     1       7.629   4.277   7.457  1.00  0.00     0.034 A 
ATOM     24  C   UNL     1       7.085   8.656   1.901  1.00  0.00     0.034 A 
ATOM     25  C   UNL     1       8.356   5.514   7.571  1.00  0.00     0.049 A 
ATOM     26  C   UNL     1       7.858   9.018   3.147  1.00  0.00     0.074 A 
ATOM     27  C   UNL     1       9.139   5.965   8.617  1.00  0.00     0.029 A 
ATOM     28  N   UNL     1       8.367   6.515   6.604  1.00  0.00    -0.354 N 
ATOM     29  N   UNL     1       8.048   8.308   4.237  1.00  0.00    -0.248 NA
ATOM     30  C   UNL     1       8.515  10.329   3.159  1.00  0.00     0.031 C 
ATOM     31  C   UNL     1       9.559   7.265   8.316  1.00  0.00     0.029 A 
ATOM     32  C   UNL     1       9.116   7.593   7.042  1.00  0.00     0.049 A 
ATOM     33  H   UNL     1       7.908   6.463   5.734  1.00  0.00     0.167 HD
ATOM     34  C   UNL     1       8.881   9.073   5.049  1.00  0.00     0.074 A 
ATOM     35  C   UNL     1       9.164  10.291   4.314  1.00  0.00     0.031 C 
ATOM     36  C   UNL     1       9.377   8.796   6.284  1.00  0.00     0.034 A 
BRANCH  23  37
ATOM     37  C   UNL     1       7.638   3.277   8.586  1.00  0.00     0.023 A 
ATOM     38  C   UNL     1       8.106   1.962   8.406  1.00  0.00     0.031 A 
ATOM     39  C   UNL     1       7.056   3.605   9.822  1.00  0.00     0.131 A 
ATOM     40  C   UNL     1       7.888   1.000   9.404  1.00  0.00     0.055 A 
ATOM     41  C   UNL     1       6.926   2.666  10.846  1.00  0.00     0.041 A 
ATOM     42  F   UNL     1       6.561   4.833  10.039  1.00  0.00    -0.206 F 
ATOM     43  C   UNL     1       7.323   1.348  10.633  1.00  0.00     0.022 A 
BRANCH  40  44
ATOM     44  S   UNL     1       8.169  -0.748   8.999  1.00  0.00     0.124 S 
ATOM     45  O   UNL     1       7.264  -0.938   7.868  1.00  0.00    -0.237 OA
ATOM     46  O   UNL     1       9.593  -0.775   8.687  1.00  0.00    -0.237 OA
ATOM     47  O   UNL     1       7.784  -1.450  10.222  1.00  0.00    -0.744 OA
ENDBRANCH  40  44
ENDBRANCH  23  37
BRANCH  24  48
ATOM     48  C   UNL     1       7.017   9.592   0.737  1.00  0.00     0.023 A 
ATOM     49  C   UNL     1       8.171   9.992   0.042  1.00  0.00     0.031 A 
ATOM     50  C   UNL     1       5.788  10.153   0.342  1.00  0.00     0.131 A 
ATOM     51  C   UNL     1       8.078  10.954  -0.980  1.00  0.00     0.055 A 
ATOM     52  C   UNL     1       5.694  11.068  -0.710  1.00  0.00     0.041 A 
ATOM     53  F   UNL     1       4.655   9.817   0.978  1.00  0.00    -0.206 F 
ATOM     54  C   UNL     1       6.846  11.483  -1.369  1.00  0.00     0.022 A 
BRANCH  51  55
ATOM     55  S   UNL     1       9.607  11.571  -1.740  1.00  0.00     0.124 S 
ATOM     56  O   UNL     1      10.330  12.085  -0.583  1.00  0.00    -0.237 OA
ATOM     57  O   UNL     1      10.149  10.362  -2.352  1.00  0.00    -0.237 OA
ATOM     58  O   UNL     1       9.135  12.584  -2.682  1.00  0.00    -0.744 OA
ENDBRANCH  51  55
ENDBRANCH  24  48
BRANCH  36  59
ATOM     59  C   UNL     1      10.324   9.807   6.880  1.00  0.00     0.023 A 
ATOM     60  C   UNL     1       9.907  11.103   7.229  1.00  0.00     0.031 A 
ATOM     61  C   UNL     1      11.672   9.466   7.090  1.00  0.00     0.131 A 
ATOM     62  C   UNL     1      10.844  12.031   7.704  1.00  0.00     0.055 A 
ATOM     63  C   UNL     1      12.583  10.371   7.633  1.00  0.00     0.041 A 
ATOM     64  F   UNL     1      12.125   8.242   6.773  1.00  0.00    -0.206 F 
ATOM     65  C   UNL     1      12.175  11.668   7.928  1.00  0.00     0.022 A 
BRANCH  62  66
ATOM     66  S   UNL     1      10.325  13.756   7.915  1.00  0.00     0.124 S 
ATOM     67  O   UNL     1       9.841  14.091   6.580  1.00  0.00    -0.237 OA
ATOM     68  O   UNL     1       9.307  13.650   8.954  1.00  0.00    -0.237 OA
ATOM     69  O   UNL     1      11.555  14.436   8.318  1.00  0.00    -0.744 OA
ENDBRANCH  62  66
ENDBRANCH  36  59
ENDBRANCH  10  11
ENDBRANCH   3   5
ENDBRANCH   2   3
ENDBRANCH   1   2
BRANCH   1  70
ATOM     70  C   UNL     1       4.571  -0.129  -1.995  1.00  0.00     0.274 C 
BRANCH  70  71
ATOM     71  O   UNL     1       4.032   1.130  -1.566  1.00  0.00    -0.462 OA
BRANCH  71  72
ATOM     72  C   UNL     1       2.723   1.343  -1.877  1.00  0.00     0.309 C 
ATOM     73  O   UNL     1       2.060   0.625  -2.616  1.00  0.00    -0.252 OA
BRANCH  72  74
ATOM     74  C   UNL     1       2.168   2.531  -1.107  1.00  0.00     0.103 C 
ATOM     75  C   UNL     1       0.652   2.639  -1.285  1.00  0.00     0.037 C 
ATOM     76  C   UNL     1       2.868   3.851  -1.426  1.00  0.00     0.037 C 
ATOM     77  C   UNL     1       0.296   3.181  -2.667  1.00  0.00     0.120 C 
ATOM     78  C   UNL     1       2.444   4.408  -2.776  1.00  0.00     0.120 C 
ATOM     79  N   UNL     1       0.986   4.446  -2.896  1.00  0.00    -0.340 N 
ATOM     80  C   UNL     1       0.237   5.568  -3.225  1.00  0.00     0.260 C 
ATOM     81  O   UNL     1      -0.942   5.488  -3.579  1.00  0.00    -0.271 OA
BRANCH  80  82
ATOM     82  C   UNL     1       0.895   6.944  -3.067  1.00  0.00     0.329 C 
BRANCH  82  83
ATOM     83  O   UNL     1       1.504   7.175  -1.798  1.00  0.00    -0.482 OA
BRANCH  83  84
ATOM     84  C   UNL     1       0.615   7.515  -0.811  1.00  0.00     0.138 A 
ATOM     85  C   UNL     1      -0.274   6.566  -0.297  1.00  0.00     0.049 A 
ATOM     86  C   UNL     1       0.686   8.780  -0.216  1.00  0.00     0.084 A 
ATOM     87  C   UNL     1      -1.106   6.885   0.777  1.00  0.00     0.024 A 
ATOM     88  C   UNL     1      -0.136   9.099   0.869  1.00  0.00     0.045 A 
ATOM     89  Cl  UNL     1       1.760   9.989  -0.818  1.00  0.00    -0.080 Cl
ATOM     90  C   UNL     1      -1.029   8.148   1.358  1.00  0.00     0.042 A 
ATOM     91  Cl  UNL     1      -2.048   8.528   2.691  1.00  0.00    -0.084 Cl
ENDBRANCH  83  84
ENDBRANCH  82  83
ENDBRANCH  80  82
ENDBRANCH  72  74
ENDBRANCH  71  72
ENDBRANCH  70  71
ENDBRANCH   1  70
TORSDOF 17
