REMARK SMILES CC1(C)CCN(c2ncccc2C(=O)OCCOC(=O)c2ccc(-c3c4nc(c(-c5cc(S(=O)(=O)[O-])ccc5F)c5ccc([nH]5)c(-c5cc(S(=O)(=O)[O-])ccc5F)c5nc(c(-c6cc(S(=O)(=O)[O-])ccc6F)c6ccc3[nH]6)C=C5)C=C4)cc2)C1
REMARK SMILES IDX 17 1 16 2 15 3 13 4 14 5 12 6 7 7 8 8 9 9 11 10 10 11 6 12
REMARK SMILES IDX 1 13 2 14 3 15 4 16 84 17 5 18 18 19 19 20 20 21 21 22 22 23
REMARK SMILES IDX 83 24 23 25 82 26 24 27 25 28 26 29 76 30 27 31 81 32 75 33
REMARK SMILES IDX 77 34 28 35 80 36 74 37 73 38 29 40 61 41 41 42 60 43 42 44
REMARK SMILES IDX 45 45 59 46 78 47 43 48 44 49 58 51 79 52 46 53 30 54 31 55
REMARK SMILES IDX 39 56 32 57 38 58 40 59 37 60 33 61 34 62 35 63 36 64 62 65
REMARK SMILES IDX 63 66 71 67 64 68 70 69 72 70 69 71 65 72 66 73 67 74 68 75
REMARK SMILES IDX 47 76 48 77 56 78 49 79 55 80 57 81 54 82 50 83 51 84 52 85
REMARK SMILES IDX 53 86
REMARK H PARENT 77 39 45 50
REMARK Flexibility Score: inf
ROOT
ATOM      1  C   UNL     1       1.304   4.104   4.065  1.00  0.00     0.275 C 
ENDROOT
BRANCH   1   2
ATOM      2  C   UNL     1       2.761   3.707   3.825  1.00  0.00     0.275 C 
BRANCH   2   3
ATOM      3  O   UNL     1       3.059   3.589   2.409  1.00  0.00    -0.458 OA
BRANCH   3   4
ATOM      4  C   UNL     1       3.523   2.381   1.970  1.00  0.00     0.342 C 
ATOM      5  O   UNL     1       3.712   1.403   2.675  1.00  0.00    -0.246 OA
BRANCH   4   6
ATOM      6  C   UNL     1       3.845   2.419   0.520  1.00  0.00     0.102 A 
ATOM      7  C   UNL     1       3.439   1.461  -0.438  1.00  0.00     0.143 A 
ATOM      8  N   UNL     1       3.903   1.541  -1.712  1.00  0.00    -0.238 NA
ATOM      9  C   UNL     1       4.713   2.560  -2.064  1.00  0.00     0.113 A 
ATOM     10  C   UNL     1       4.672   3.479   0.116  1.00  0.00     0.021 A 
ATOM     11  C   UNL     1       5.105   3.559  -1.199  1.00  0.00     0.021 A 
BRANCH   7  12
ATOM     12  N   UNL     1       2.327   0.642  -0.329  1.00  0.00    -0.355 N 
ATOM     13  C   UNL     1      -1.129   1.400  -1.285  1.00  0.00     0.013 C 
ATOM     14  C   UNL     1      -0.754   0.648   0.489  1.00  0.00    -0.016 C 
ATOM     15  C   UNL     1      -1.605   0.055   2.100  1.00  0.00     0.013 C 
ATOM     16  C   UNL     1       0.363  -0.984   1.347  1.00  0.00     0.030 C 
ATOM     17  C   UNL     1       0.834   1.649  -0.502  1.00  0.00     0.124 C 
ATOM     18  C   UNL     1       2.188  -0.802   0.667  1.00  0.00     0.119 C 
ENDBRANCH   7  12
ENDBRANCH   4   6
ENDBRANCH   3   4
ENDBRANCH   2   3
ENDBRANCH   1   2
BRANCH   1  19
ATOM     19  O   UNL     1       0.468   3.075   3.530  1.00  0.00    -0.458 OA
BRANCH  19  20
ATOM     20  C   UNL     1       0.043   3.355   2.287  1.00  0.00     0.338 C 
ATOM     21  O   UNL     1       0.099   4.404   1.673  1.00  0.00    -0.246 OA
BRANCH  20  22
ATOM     22  C   UNL     1      -0.416   2.133   1.670  1.00  0.00     0.060 A 
ATOM     23  C   UNL     1       0.796   0.850   1.159  1.00  0.00     0.016 A 
ATOM     24  C   UNL     1      -2.094   2.061   1.050  1.00  0.00     0.016 A 
ATOM     25  C   UNL     1       0.249  -0.391  -0.398  1.00  0.00     0.010 A 
ATOM     26  C   UNL     1      -2.719   0.625   0.132  1.00  0.00     0.010 A 
ATOM     27  C   UNL     1      -1.613  -0.653  -0.600  1.00  0.00    -0.014 A 
BRANCH  27  28
ATOM     28  C   UNL     1      -2.441  -1.706  -1.284  1.00  0.00     0.031 A 
ATOM     29  C   UNL     1      -3.560  -1.321  -2.268  1.00  0.00     0.074 A 
ATOM     30  C   UNL     1      -2.397  -2.972  -0.810  1.00  0.00     0.049 A 
ATOM     31  N   UNL     1      -4.377  -2.109  -2.926  1.00  0.00    -0.248 NA
ATOM     32  C   UNL     1      -3.871   0.101  -2.528  1.00  0.00     0.031 C 
ATOM     33  C   UNL     1      -1.674  -3.378   0.382  1.00  0.00     0.029 A 
ATOM     34  N   UNL     1      -2.969  -4.154  -1.201  1.00  0.00    -0.354 N 
ATOM     35  C   UNL     1      -5.178  -1.275  -3.709  1.00  0.00     0.074 A 
ATOM     36  C   UNL     1      -4.844   0.074  -3.408  1.00  0.00     0.031 C 
ATOM     37  C   UNL     1      -1.602  -4.705   0.487  1.00  0.00     0.029 A 
ATOM     38  C   UNL     1      -2.526  -5.251  -0.477  1.00  0.00     0.049 A 
ATOM     39  H   UNL     1      -3.631  -4.218  -1.927  1.00  0.00     0.167 HD
ATOM     40  C   UNL     1      -6.142  -1.582  -4.601  1.00  0.00     0.034 A 
ATOM     41  C   UNL     1      -2.899  -6.542  -0.508  1.00  0.00     0.034 A 
ATOM     42  C   UNL     1      -6.617  -2.917  -4.738  1.00  0.00     0.049 A 
ATOM     43  C   UNL     1      -4.023  -6.858  -1.447  1.00  0.00     0.074 A 
ATOM     44  C   UNL     1      -7.628  -3.398  -5.538  1.00  0.00     0.029 A 
ATOM     45  N   UNL     1      -6.125  -3.982  -3.993  1.00  0.00    -0.354 N 
ATOM     46  N   UNL     1      -4.687  -6.031  -2.224  1.00  0.00    -0.248 NA
ATOM     47  C   UNL     1      -4.470  -8.249  -1.507  1.00  0.00     0.031 C 
ATOM     48  C   UNL     1      -7.792  -4.748  -5.228  1.00  0.00     0.029 A 
ATOM     49  C   UNL     1      -6.812  -5.127  -4.318  1.00  0.00     0.049 A 
ATOM     50  H   UNL     1      -5.396  -3.925  -3.334  1.00  0.00     0.167 HD
ATOM     51  C   UNL     1      -5.603  -6.812  -2.905  1.00  0.00     0.074 A 
ATOM     52  C   UNL     1      -5.400  -8.175  -2.446  1.00  0.00     0.031 C 
ATOM     53  C   UNL     1      -6.527  -6.449  -3.826  1.00  0.00     0.034 A 
BRANCH  40  54
ATOM     54  C   UNL     1      -6.730  -0.444  -5.401  1.00  0.00     0.023 A 
ATOM     55  C   UNL     1      -5.910   0.331  -6.248  1.00  0.00     0.031 A 
ATOM     56  C   UNL     1      -8.068  -0.049  -5.245  1.00  0.00     0.131 A 
ATOM     57  C   UNL     1      -6.416   1.490  -6.852  1.00  0.00     0.055 A 
ATOM     58  C   UNL     1      -8.590   1.058  -5.922  1.00  0.00     0.041 A 
ATOM     59  F   UNL     1      -8.879  -0.700  -4.397  1.00  0.00    -0.206 F 
ATOM     60  C   UNL     1      -7.761   1.839  -6.723  1.00  0.00     0.022 A 
BRANCH  57  61
ATOM     61  S   UNL     1      -5.257   2.622  -7.670  1.00  0.00     0.124 S 
ATOM     62  O   UNL     1      -4.433   3.060  -6.545  1.00  0.00    -0.237 OA
ATOM     63  O   UNL     1      -4.601   1.758  -8.645  1.00  0.00    -0.237 OA
ATOM     64  O   UNL     1      -6.126   3.652  -8.235  1.00  0.00    -0.744 OA
ENDBRANCH  57  61
ENDBRANCH  40  54
BRANCH  41  65
ATOM     65  C   UNL     1      -2.272  -7.582   0.366  1.00  0.00     0.023 A 
ATOM     66  C   UNL     1      -1.677  -8.714  -0.211  1.00  0.00     0.031 A 
ATOM     67  C   UNL     1      -2.296  -7.515   1.774  1.00  0.00     0.131 A 
ATOM     68  C   UNL     1      -1.219  -9.764   0.601  1.00  0.00     0.055 A 
ATOM     69  C   UNL     1      -1.742  -8.515   2.579  1.00  0.00     0.041 A 
ATOM     70  F   UNL     1      -2.857  -6.468   2.400  1.00  0.00    -0.206 F 
ATOM     71  C   UNL     1      -1.223  -9.663   1.992  1.00  0.00     0.022 A 
BRANCH  68  72
ATOM     72  S   UNL     1      -0.807 -11.339  -0.197  1.00  0.00     0.124 S 
ATOM     73  O   UNL     1      -2.019 -11.599  -0.967  1.00  0.00    -0.237 OA
ATOM     74  O   UNL     1       0.381 -10.988  -0.967  1.00  0.00    -0.237 OA
ATOM     75  O   UNL     1      -0.579 -12.240   0.930  1.00  0.00    -0.744 OA
ENDBRANCH  68  72
ENDBRANCH  41  65
BRANCH  53  76
ATOM     76  C   UNL     1      -7.294  -7.559  -4.461  1.00  0.00     0.023 A 
ATOM     77  C   UNL     1      -8.220  -8.315  -3.736  1.00  0.00     0.031 A 
ATOM     78  C   UNL     1      -7.107  -7.823  -5.828  1.00  0.00     0.131 A 
ATOM     79  C   UNL     1      -8.891  -9.355  -4.377  1.00  0.00     0.055 A 
ATOM     80  C   UNL     1      -7.852  -8.795  -6.481  1.00  0.00     0.041 A 
ATOM     81  F   UNL     1      -6.220  -7.117  -6.548  1.00  0.00    -0.206 F 
ATOM     82  C   UNL     1      -8.741  -9.578  -5.750  1.00  0.00     0.022 A 
BRANCH  79  83
ATOM     83  S   UNL     1      -9.867 -10.487  -3.360  1.00  0.00     0.124 S 
ATOM     84  O   UNL     1      -8.865 -10.993  -2.428  1.00  0.00    -0.237 OA
ATOM     85  O   UNL     1     -10.878  -9.602  -2.788  1.00  0.00    -0.237 OA
ATOM     86  O   UNL     1     -10.369 -11.462  -4.325  1.00  0.00    -0.744 OA
ENDBRANCH  79  83
ENDBRANCH  53  76
ENDBRANCH  27  28
ENDBRANCH  20  22
ENDBRANCH  19  20
ENDBRANCH   1  19
TORSDOF 15
