REMARK SMILES C[C@@H](C(=O)OCCOC(=O)c1ccc(-c2c3nc(c(-c4cc(S(=O)(=O)[O-])ccc4F)c4ccc([nH]4)c(-c4cc(S(=O)(=O)[O-])ccc4F)c4nc(c(-c5cc(S(=O)(=O)[O-])ccc5F)c5ccc2[nH]5)C=C4)C=C3)cc1)n1ccc(C(=O)NC2CCCCCCC2)n1
REMARK SMILES IDX 3 1 4 2 2 3 1 4 74 5 75 6 89 7 76 8 77 9 78 10 79 11 80 12
REMARK SMILES IDX 81 14 82 15 83 16 88 18 87 19 86 20 85 21 84 22 5 24 6 25
REMARK SMILES IDX 7 26 8 27 9 28 10 29 11 30 12 31 73 32 13 33 72 34 14 35
REMARK SMILES IDX 15 36 16 37 66 38 17 39 71 40 65 41 67 42 18 43 70 44 64 45
REMARK SMILES IDX 63 46 19 48 51 49 31 50 50 51 32 52 35 53 49 54 68 55 33 56
REMARK SMILES IDX 34 57 48 59 69 60 36 61 20 62 21 63 29 64 22 65 28 66 30 67
REMARK SMILES IDX 27 68 23 69 24 70 25 71 26 72 52 73 53 74 61 75 54 76 60 77
REMARK SMILES IDX 62 78 59 79 55 80 56 81 57 82 58 83 37 84 38 85 46 86 39 87
REMARK SMILES IDX 45 88 47 89 44 90 40 91 41 92 42 93 43 94
REMARK H PARENT 80 13 67 47 35 58
REMARK Flexibility Score: 80.00
ROOT
ATOM      1  C   UNL     1       1.272   0.265  -2.144  1.00  0.00     0.330 C 
ATOM      2  O   UNL     1       0.777   0.730  -3.164  1.00  0.00    -0.250 OA
ENDROOT
BRANCH   1   3
ATOM      3  C   UNL     1       0.889   0.688  -0.733  1.00  0.00     0.213 C 
ATOM      4  C   UNL     1       1.675  -0.004   0.379  1.00  0.00     0.046 C 
BRANCH   3   5
ATOM      5  N   UNL     1      -0.556   0.606  -0.530  1.00  0.00    -0.258 N 
ATOM      6  C   UNL     1      -1.276  -0.402   0.041  1.00  0.00     0.110 A 
ATOM      7  N   UNL     1      -1.312   1.672  -0.845  1.00  0.00    -0.167 NA
ATOM      8  C   UNL     1      -2.575   0.045   0.099  1.00  0.00     0.056 A 
ATOM      9  C   UNL     1      -2.564   1.351  -0.467  1.00  0.00     0.150 A 
BRANCH   9  10
ATOM     10  C   UNL     1      -3.755   2.207  -0.650  1.00  0.00     0.271 C 
ATOM     11  O   UNL     1      -4.890   1.750  -0.516  1.00  0.00    -0.267 OA
ATOM     12  N   UNL     1      -3.640   3.546  -0.961  1.00  0.00    -0.348 N 
ATOM     13  H   UNL     1      -4.494   4.021  -1.085  1.00  0.00     0.164 HD
BRANCH  12  14
ATOM     14  C   UNL     1      -2.441   4.365  -1.133  1.00  0.00     0.082 C 
BRANCH  14  15
ATOM     15  C   UNL     1      -2.062   4.379  -2.619  1.00  0.00     0.025 C 
BRANCH  15  16
ATOM     16  C   UNL     1      -0.649   4.863  -2.929  1.00  0.00     0.002 CG0
ATOM     17  G   UNL     1      -0.307   6.298  -2.540  1.00  0.00     0.000 G0
ENDBRANCH  15  16
ENDBRANCH  14  15
BRANCH  14  18
ATOM     18  C   UNL     1      -2.648   5.728  -0.445  1.00  0.00     0.025 C 
BRANCH  18  19
ATOM     19  C   UNL     1      -3.270   6.840  -1.288  1.00  0.00     0.002 C 
BRANCH  19  20
ATOM     20  C   UNL     1      -2.254   7.839  -1.849  1.00  0.00     0.000 C 
BRANCH  20  21
ATOM     21  C   UNL     1      -1.341   7.340  -2.971  1.00  0.00     0.000 C 
BRANCH  21  22
ATOM     22  C   UNL     1      -0.307   6.298  -2.540  1.00  0.00     0.000 CG0
ATOM     23  G   UNL     1      -0.649   4.863  -2.929  1.00  0.00     0.000 G0
ENDBRANCH  21  22
ENDBRANCH  20  21
ENDBRANCH  19  20
ENDBRANCH  18  19
ENDBRANCH  14  18
ENDBRANCH  12  14
ENDBRANCH   9  10
ENDBRANCH   3   5
ENDBRANCH   1   3
BRANCH   1  24
ATOM     24  O   UNL     1       2.286  -0.649  -2.158  1.00  0.00    -0.460 OA
BRANCH  24  25
ATOM     25  C   UNL     1       2.723  -1.115  -3.451  1.00  0.00     0.274 C 
BRANCH  25  26
ATOM     26  C   UNL     1       2.223  -2.535  -3.709  1.00  0.00     0.275 C 
BRANCH  26  27
ATOM     27  O   UNL     1       0.792  -2.540  -3.851  1.00  0.00    -0.458 OA
BRANCH  27  28
ATOM     28  C   UNL     1       0.105  -2.972  -2.771  1.00  0.00     0.338 C 
ATOM     29  O   UNL     1       0.571  -3.392  -1.720  1.00  0.00    -0.246 OA
BRANCH  28  30
ATOM     30  C   UNL     1      -1.337  -2.812  -2.997  1.00  0.00     0.060 A 
ATOM     31  C   UNL     1      -1.871  -1.528  -3.048  1.00  0.00     0.016 A 
ATOM     32  C   UNL     1      -2.180  -3.922  -2.980  1.00  0.00     0.016 A 
ATOM     33  C   UNL     1      -3.248  -1.350  -2.956  1.00  0.00     0.010 A 
ATOM     34  C   UNL     1      -3.569  -3.736  -3.003  1.00  0.00     0.010 A 
ATOM     35  C   UNL     1      -4.125  -2.445  -2.938  1.00  0.00    -0.014 A 
BRANCH  35  36
ATOM     36  C   UNL     1      -5.599  -2.235  -2.790  1.00  0.00     0.031 A 
ATOM     37  C   UNL     1      -6.361  -2.930  -1.685  1.00  0.00     0.074 A 
ATOM     38  C   UNL     1      -6.263  -1.398  -3.614  1.00  0.00     0.049 A 
ATOM     39  N   UNL     1      -7.653  -3.068  -1.525  1.00  0.00    -0.248 NA
ATOM     40  C   UNL     1      -5.559  -3.579  -0.637  1.00  0.00     0.031 C 
ATOM     41  C   UNL     1      -5.659  -0.604  -4.686  1.00  0.00     0.029 A 
ATOM     42  N   UNL     1      -7.594  -1.059  -3.669  1.00  0.00    -0.354 N 
ATOM     43  C   UNL     1      -7.818  -3.876  -0.403  1.00  0.00     0.074 A 
ATOM     44  C   UNL     1      -6.489  -4.203   0.071  1.00  0.00     0.031 C 
ATOM     45  C   UNL     1      -6.598   0.173  -5.244  1.00  0.00     0.029 A 
ATOM     46  C   UNL     1      -7.893  -0.154  -4.662  1.00  0.00     0.049 A 
ATOM     47  H   UNL     1      -8.271  -1.429  -3.057  1.00  0.00     0.167 HD
ATOM     48  C   UNL     1      -8.971  -4.307   0.170  1.00  0.00     0.034 A 
ATOM     49  C   UNL     1      -9.075   0.322  -5.101  1.00  0.00     0.034 A 
ATOM     50  C   UNL     1     -10.288  -3.908  -0.274  1.00  0.00     0.049 A 
ATOM     51  C   UNL     1     -10.341  -0.184  -4.468  1.00  0.00     0.074 A 
ATOM     52  C   UNL     1     -11.522  -4.281   0.234  1.00  0.00     0.029 A 
ATOM     53  N   UNL     1     -10.544  -3.025  -1.316  1.00  0.00    -0.354 N 
ATOM     54  N   UNL     1     -10.488  -1.050  -3.493  1.00  0.00    -0.248 NA
ATOM     55  C   UNL     1     -11.603   0.331  -5.013  1.00  0.00     0.031 C 
ATOM     56  C   UNL     1     -12.521  -3.669  -0.533  1.00  0.00     0.029 A 
ATOM     57  C   UNL     1     -11.913  -2.858  -1.477  1.00  0.00     0.049 A 
ATOM     58  H   UNL     1      -9.855  -2.582  -1.862  1.00  0.00     0.167 HD
ATOM     59  C   UNL     1     -11.860  -1.185  -3.309  1.00  0.00     0.074 A 
ATOM     60  C   UNL     1     -12.495  -0.287  -4.253  1.00  0.00     0.031 C 
ATOM     61  C   UNL     1     -12.534  -1.983  -2.443  1.00  0.00     0.034 A 
BRANCH  48  62
ATOM     62  C   UNL     1      -8.863  -5.315   1.293  1.00  0.00     0.023 A 
ATOM     63  C   UNL     1      -8.269  -5.012   2.530  1.00  0.00     0.031 A 
ATOM     64  C   UNL     1      -9.353  -6.622   1.105  1.00  0.00     0.131 A 
ATOM     65  C   UNL     1      -8.120  -6.017   3.501  1.00  0.00     0.055 A 
ATOM     66  C   UNL     1      -9.274  -7.595   2.103  1.00  0.00     0.041 A 
ATOM     67  F   UNL     1      -9.912  -6.981  -0.062  1.00  0.00    -0.206 F 
ATOM     68  C   UNL     1      -8.641  -7.298   3.306  1.00  0.00     0.022 A 
BRANCH  65  69
ATOM     69  S   UNL     1      -7.113  -5.669   4.970  1.00  0.00     0.124 S 
ATOM     70  O   UNL     1      -5.832  -5.302   4.371  1.00  0.00    -0.237 OA
ATOM     71  O   UNL     1      -7.852  -4.588   5.612  1.00  0.00    -0.237 OA
ATOM     72  O   UNL     1      -7.111  -6.939   5.694  1.00  0.00    -0.744 OA
ENDBRANCH  65  69
ENDBRANCH  48  62
BRANCH  49  73
ATOM     73  C   UNL     1      -9.118   1.257  -6.263  1.00  0.00     0.023 A 
ATOM     74  C   UNL     1      -9.598   2.569  -6.130  1.00  0.00     0.031 A 
ATOM     75  C   UNL     1      -8.688   0.838  -7.537  1.00  0.00     0.131 A 
ATOM     76  C   UNL     1      -9.657   3.408  -7.254  1.00  0.00     0.055 A 
ATOM     77  C   UNL     1      -8.694   1.694  -8.638  1.00  0.00     0.041 A 
ATOM     78  F   UNL     1      -8.226  -0.409  -7.723  1.00  0.00    -0.206 F 
ATOM     79  C   UNL     1      -9.190   2.986  -8.502  1.00  0.00     0.022 A 
BRANCH  76  80
ATOM     80  S   UNL     1     -10.418   5.046  -7.084  1.00  0.00     0.124 S 
ATOM     81  O   UNL     1     -11.764   4.704  -6.635  1.00  0.00    -0.237 OA
ATOM     82  O   UNL     1      -9.554   5.683  -6.096  1.00  0.00    -0.237 OA
ATOM     83  O   UNL     1     -10.333   5.603  -8.432  1.00  0.00    -0.744 OA
ENDBRANCH  76  80
ENDBRANCH  49  73
BRANCH  61  84
ATOM     84  C   UNL     1     -14.039  -1.893  -2.475  1.00  0.00     0.023 A 
ATOM     85  C   UNL     1     -14.780  -2.360  -3.575  1.00  0.00     0.031 A 
ATOM     86  C   UNL     1     -14.736  -1.302  -1.407  1.00  0.00     0.131 A 
ATOM     87  C   UNL     1     -16.171  -2.175  -3.609  1.00  0.00     0.055 A 
ATOM     88  C   UNL     1     -16.125  -1.170  -1.422  1.00  0.00     0.041 A 
ATOM     89  F   UNL     1     -14.076  -0.839  -0.334  1.00  0.00    -0.206 F 
ATOM     90  C   UNL     1     -16.849  -1.595  -2.533  1.00  0.00     0.022 A 
BRANCH  87  91
ATOM     91  S   UNL     1     -17.074  -2.620  -5.118  1.00  0.00     0.124 S 
ATOM     92  O   UNL     1     -16.422  -1.784  -6.121  1.00  0.00    -0.237 OA
ATOM     93  O   UNL     1     -16.824  -4.054  -5.221  1.00  0.00    -0.237 OA
ATOM     94  O   UNL     1     -18.456  -2.254  -4.811  1.00  0.00    -0.744 OA
ENDBRANCH  87  91
ENDBRANCH  61  84
ENDBRANCH  35  36
ENDBRANCH  28  30
ENDBRANCH  27  28
ENDBRANCH  26  27
ENDBRANCH  25  26
ENDBRANCH  24  25
ENDBRANCH   1  24
TORSDOF 17
