REMARK SMILES CCC[NH2+][C@]1(C(=O)OCCOC(=O)c2ccc(-c3c4nc(c(-c5cc(S(=O)(=O)[O-])ccc5F)c5ccc([nH]5)c(-c5cc(S(=O)(=O)[O-])ccc5F)c5nc(c(-c6cc(S(=O)(=O)[O-])ccc6F)c6ccc3[nH]6)C=C5)C=C4)cc2)CC[C@@H](Sc2nnc(C)n2C)C1
REMARK SMILES IDX 9 1 8 2 6 3 7 4 5 5 77 6 88 7 78 8 79 9 4 10 3 13 2 14 1 15
REMARK SMILES IDX 80 16 81 17 82 18 86 19 83 20 84 21 87 22 85 23 10 24 11 25
REMARK SMILES IDX 12 26 13 27 14 28 15 29 76 30 16 31 75 32 17 33 18 34 19 35
REMARK SMILES IDX 69 36 20 37 74 38 68 39 70 40 21 41 73 42 67 43 66 44 22 46
REMARK SMILES IDX 54 47 34 48 53 49 35 50 38 51 52 52 71 53 36 54 37 55 51 57
REMARK SMILES IDX 72 58 39 59 23 60 24 61 32 62 25 63 31 64 33 65 30 66 26 67
REMARK SMILES IDX 27 68 28 69 29 70 55 71 56 72 64 73 57 74 63 75 65 76 62 77
REMARK SMILES IDX 58 78 59 79 60 80 61 81 40 82 41 83 49 84 42 85 48 86 50 87
REMARK SMILES IDX 47 88 43 89 44 90 45 91 46 92
REMARK H PARENT 4 11 4 12 70 45 38 56
REMARK Flexibility Score: inf
ROOT
ATOM      1  C   UNL     1      -0.905  -1.152   0.594  1.00  0.00     0.274 C 
ENDROOT
BRANCH   1   2
ATOM      2  O   UNL     1      -0.657  -1.750   1.881  1.00  0.00    -0.457 OA
BRANCH   2   3
ATOM      3  C   UNL     1       0.646  -2.009   2.181  1.00  0.00     0.368 C 
ATOM      4  O   UNL     1       1.575  -1.792   1.409  1.00  0.00    -0.245 OA
BRANCH   3   5
ATOM      5  C   UNL     1       0.825  -2.638   3.590  1.00  0.00     0.195 C 
ATOM      6  C   UNL     1       0.751  -4.167   3.456  1.00  0.00     0.082 C 
ATOM      7  C   UNL     1       2.282  -2.411   4.088  1.00  0.00     0.096 C 
ATOM      8  C   UNL     1       1.620  -4.719   4.576  1.00  0.00     0.022 C 
ATOM      9  C   UNL     1       2.755  -3.711   4.742  1.00  0.00     0.062 C 
BRANCH   5  10
ATOM     10  N   UNL     1      -0.018  -2.009   4.637  1.00  0.00    -0.332 N 
ATOM     11  H   UNL     1       0.425  -2.201   5.536  1.00  0.00     0.347 HD
ATOM     12  H   UNL     1      -0.067  -1.028   4.362  1.00  0.00     0.347 HD
BRANCH  10  13
ATOM     13  C   UNL     1      -1.411  -2.417   4.748  1.00  0.00     0.261 C 
BRANCH  13  14
ATOM     14  C   UNL     1      -2.075  -1.756   5.967  1.00  0.00     0.058 C 
ATOM     15  C   UNL     1      -2.197  -0.242   5.874  1.00  0.00     0.010 C 
ENDBRANCH  13  14
ENDBRANCH  10  13
ENDBRANCH   5  10
BRANCH   9  16
ATOM     16  S   UNL     1       4.394  -4.242   4.123  1.00  0.00    -0.082 SA
BRANCH  16  17
ATOM     17  C   UNL     1       4.098  -4.542   2.449  1.00  0.00     0.191 A 
ATOM     18  N   UNL     1       3.528  -5.622   1.969  1.00  0.00    -0.123 NA
ATOM     19  N   UNL     1       4.437  -3.702   1.425  1.00  0.00    -0.309 N 
ATOM     20  N   UNL     1       3.466  -5.491   0.602  1.00  0.00    -0.135 NA
ATOM     21  C   UNL     1       4.010  -4.335   0.279  1.00  0.00     0.130 A 
ATOM     22  C   UNL     1       5.065  -2.406   1.473  1.00  0.00     0.154 C 
ATOM     23  C   UNL     1       4.151  -3.785  -1.088  1.00  0.00     0.090 C 
ENDBRANCH  16  17
ENDBRANCH   9  16
ENDBRANCH   3   5
ENDBRANCH   2   3
ENDBRANCH   1   2
BRANCH   1  24
ATOM     24  C   UNL     1      -1.166   0.348   0.725  1.00  0.00     0.275 C 
BRANCH  24  25
ATOM     25  O   UNL     1      -0.004   1.026   1.237  1.00  0.00    -0.458 OA
BRANCH  25  26
ATOM     26  C   UNL     1      -0.093   1.429   2.526  1.00  0.00     0.338 C 
ATOM     27  O   UNL     1      -1.043   1.307   3.277  1.00  0.00    -0.246 OA
BRANCH  26  28
ATOM     28  C   UNL     1       1.195   1.989   2.954  1.00  0.00     0.060 A 
ATOM     29  C   UNL     1       2.203   1.112   3.346  1.00  0.00     0.016 A 
ATOM     30  C   UNL     1       1.371   3.365   3.072  1.00  0.00     0.016 A 
ATOM     31  C   UNL     1       3.389   1.596   3.887  1.00  0.00     0.010 A 
ATOM     32  C   UNL     1       2.586   3.857   3.561  1.00  0.00     0.010 A 
ATOM     33  C   UNL     1       3.601   2.976   3.978  1.00  0.00    -0.014 A 
BRANCH  33  34
ATOM     34  C   UNL     1       4.889   3.502   4.496  1.00  0.00     0.031 A 
ATOM     35  C   UNL     1       4.927   4.268   5.786  1.00  0.00     0.074 A 
ATOM     36  C   UNL     1       6.020   3.305   3.790  1.00  0.00     0.049 A 
ATOM     37  N   UNL     1       5.898   4.977   6.299  1.00  0.00    -0.248 NA
ATOM     38  C   UNL     1       3.705   4.234   6.604  1.00  0.00     0.031 C 
ATOM     39  C   UNL     1       6.119   2.525   2.554  1.00  0.00     0.029 A 
ATOM     40  N   UNL     1       7.298   3.757   4.000  1.00  0.00    -0.354 N 
ATOM     41  C   UNL     1       5.398   5.505   7.484  1.00  0.00     0.074 A 
ATOM     42  C   UNL     1       4.032   5.037   7.607  1.00  0.00     0.031 C 
ATOM     43  C   UNL     1       7.386   2.557   2.115  1.00  0.00     0.029 A 
ATOM     44  C   UNL     1       8.168   3.425   2.988  1.00  0.00     0.049 A 
ATOM     45  H   UNL     1       7.566   4.269   4.797  1.00  0.00     0.167 HD
ATOM     46  C   UNL     1       6.024   6.310   8.379  1.00  0.00     0.034 A 
ATOM     47  C   UNL     1       9.432   3.827   2.751  1.00  0.00     0.034 A 
ATOM     48  C   UNL     1       7.391   6.754   8.239  1.00  0.00     0.049 A 
ATOM     49  C   UNL     1      10.074   4.799   3.704  1.00  0.00     0.074 A 
ATOM     50  C   UNL     1       8.132   7.551   9.094  1.00  0.00     0.029 A 
ATOM     51  N   UNL     1       8.221   6.443   7.169  1.00  0.00    -0.354 N 
ATOM     52  N   UNL     1       9.577   5.332   4.795  1.00  0.00    -0.248 NA
ATOM     53  C   UNL     1      11.438   5.238   3.382  1.00  0.00     0.031 C 
ATOM     54  C   UNL     1       9.387   7.772   8.511  1.00  0.00     0.029 A 
ATOM     55  C   UNL     1       9.452   7.062   7.323  1.00  0.00     0.049 A 
ATOM     56  H   UNL     1       7.971   5.866   6.412  1.00  0.00     0.167 HD
ATOM     57  C   UNL     1      10.571   6.168   5.294  1.00  0.00     0.074 A 
ATOM     58  C   UNL     1      11.701   6.053   4.394  1.00  0.00     0.031 C 
ATOM     59  C   UNL     1      10.553   6.958   6.397  1.00  0.00     0.034 A 
BRANCH  46  60
ATOM     60  C   UNL     1       5.212   6.814   9.545  1.00  0.00     0.023 A 
ATOM     61  C   UNL     1       4.737   5.956  10.551  1.00  0.00     0.031 A 
ATOM     62  C   UNL     1       4.884   8.179   9.633  1.00  0.00     0.131 A 
ATOM     63  C   UNL     1       3.910   6.461  11.568  1.00  0.00     0.055 A 
ATOM     64  C   UNL     1       4.118   8.687  10.684  1.00  0.00     0.041 A 
ATOM     65  F   UNL     1       5.291   9.042   8.688  1.00  0.00    -0.206 F 
ATOM     66  C   UNL     1       3.615   7.824  11.652  1.00  0.00     0.022 A 
BRANCH  63  67
ATOM     67  S   UNL     1       3.119   5.291  12.707  1.00  0.00     0.124 S 
ATOM     68  O   UNL     1       2.369   4.442  11.784  1.00  0.00    -0.237 OA
ATOM     69  O   UNL     1       4.263   4.668  13.363  1.00  0.00    -0.237 OA
ATOM     70  O   UNL     1       2.299   6.146  13.562  1.00  0.00    -0.744 OA
ENDBRANCH  63  67
ENDBRANCH  46  60
BRANCH  47  71
ATOM     71  C   UNL     1      10.137   3.390   1.514  1.00  0.00     0.023 A 
ATOM     72  C   UNL     1      11.274   2.572   1.576  1.00  0.00     0.031 A 
ATOM     73  C   UNL     1       9.689   3.808   0.247  1.00  0.00     0.131 A 
ATOM     74  C   UNL     1      11.942   2.217   0.393  1.00  0.00     0.055 A 
ATOM     75  C   UNL     1      10.330   3.415  -0.928  1.00  0.00     0.041 A 
ATOM     76  F   UNL     1       8.604   4.589   0.134  1.00  0.00    -0.206 F 
ATOM     77  C   UNL     1      11.470   2.622  -0.858  1.00  0.00     0.022 A 
BRANCH  74  78
ATOM     78  S   UNL     1      13.478   1.262   0.516  1.00  0.00     0.124 S 
ATOM     79  O   UNL     1      14.310   2.140   1.332  1.00  0.00    -0.237 OA
ATOM     80  O   UNL     1      13.018   0.035   1.156  1.00  0.00    -0.237 OA
ATOM     81  O   UNL     1      13.900   1.117  -0.875  1.00  0.00    -0.744 OA
ENDBRANCH  74  78
ENDBRANCH  47  71
BRANCH  59  82
ATOM     82  C   UNL     1      11.808   7.738   6.688  1.00  0.00     0.023 A 
ATOM     83  C   UNL     1      12.188   8.835   5.897  1.00  0.00     0.031 A 
ATOM     84  C   UNL     1      12.641   7.366   7.757  1.00  0.00     0.131 A 
ATOM     85  C   UNL     1      13.395   9.499   6.160  1.00  0.00     0.055 A 
ATOM     86  C   UNL     1      13.817   8.059   8.043  1.00  0.00     0.041 A 
ATOM     87  F   UNL     1      12.323   6.322   8.539  1.00  0.00    -0.206 F 
ATOM     88  C   UNL     1      14.205   9.126   7.237  1.00  0.00     0.022 A 
BRANCH  85  89
ATOM     89  S   UNL     1      13.928  10.820   5.038  1.00  0.00     0.124 S 
ATOM     90  O   UNL     1      14.096  10.099   3.781  1.00  0.00    -0.237 OA
ATOM     91  O   UNL     1      12.806  11.751   5.094  1.00  0.00    -0.237 OA
ATOM     92  O   UNL     1      15.165  11.307   5.645  1.00  0.00    -0.744 OA
ENDBRANCH  85  89
ENDBRANCH  59  82
ENDBRANCH  33  34
ENDBRANCH  26  28
ENDBRANCH  25  26
ENDBRANCH  24  25
ENDBRANCH   1  24
TORSDOF 19
