REMARK SMILES CC(C)C[C@H](C(=O)OCCOC(=O)c1ccc(-c2c3nc(c(-c4cc(S(=O)(=O)[O-])ccc4F)c4ccc([nH]4)c(-c4cc(S(=O)(=O)[O-])ccc4F)c4nc(c(-c5cc(S(=O)(=O)[O-])ccc5F)c5ccc2[nH]5)C=C4)C=C3)cc1)N1C(=O)/C(=C2\C(=O)Nc3ccc(Br)cc32)SC1=S
REMARK SMILES IDX 10 1 9 2 8 3 6 4 7 5 5 6 4 7 2 8 1 9 3 10 77 11 78 12 93 13
REMARK SMILES IDX 79 14 80 15 92 16 94 17 81 18 82 19 91 20 83 21 84 22 85 23
REMARK SMILES IDX 90 24 86 26 88 27 87 28 89 29 11 30 12 31 13 32 14 33 15 34
REMARK SMILES IDX 76 35 16 36 75 37 17 38 18 39 19 40 69 41 20 42 74 43 68 44
REMARK SMILES IDX 70 45 21 46 73 47 67 48 66 49 22 51 54 52 34 53 53 54 35 55
REMARK SMILES IDX 38 56 52 57 71 58 36 59 37 60 51 62 72 63 39 64 23 65 24 66
REMARK SMILES IDX 32 67 25 68 31 69 33 70 30 71 26 72 27 73 28 74 29 75 55 76
REMARK SMILES IDX 56 77 64 78 57 79 63 80 65 81 62 82 58 83 59 84 60 85 61 86
REMARK SMILES IDX 40 87 41 88 49 89 42 90 48 91 50 92 47 93 43 94 44 95 45 96
REMARK SMILES IDX 46 97
REMARK H PARENT 84 25 70 50 38 61
REMARK Flexibility Score: inf
ROOT
ATOM      1  C   UNL     1      -0.188  -3.804   0.516  1.00  0.00     0.275 C 
ENDROOT
BRANCH   1   2
ATOM      2  C   UNL     1      -1.400  -2.971   0.921  1.00  0.00     0.274 C 
BRANCH   2   3
ATOM      3  O   UNL     1      -1.941  -2.286  -0.225  1.00  0.00    -0.461 OA
BRANCH   3   4
ATOM      4  C   UNL     1      -1.867  -0.935  -0.240  1.00  0.00     0.329 C 
ATOM      5  O   UNL     1      -1.293  -0.265   0.613  1.00  0.00    -0.250 OA
BRANCH   4   6
ATOM      6  C   UNL     1      -2.493  -0.304  -1.496  1.00  0.00     0.202 C 
BRANCH   6   7
ATOM      7  C   UNL     1      -1.783  -0.757  -2.796  1.00  0.00     0.040 C 
BRANCH   7   8
ATOM      8  C   UNL     1      -1.960   0.196  -4.002  1.00  0.00    -0.015 C 
ATOM      9  C   UNL     1      -1.302   1.564  -3.792  1.00  0.00     0.007 C 
ATOM     10  C   UNL     1      -1.373  -0.441  -5.265  1.00  0.00     0.007 C 
ENDBRANCH   7   8
ENDBRANCH   6   7
BRANCH   6  11
ATOM     11  N   UNL     1      -3.953  -0.425  -1.664  1.00  0.00    -0.278 N 
ATOM     12  C   UNL     1      -4.533  -1.669  -1.773  1.00  0.00     0.267 C 
ATOM     13  C   UNL     1      -4.792   0.617  -1.985  1.00  0.00     0.149 C 
ATOM     14  O   UNL     1      -4.405  -2.580  -0.970  1.00  0.00    -0.268 OA
ATOM     15  C   UNL     1      -5.596  -1.633  -2.806  1.00  0.00     0.093 C 
ATOM     16  S   UNL     1      -6.172  -0.009  -2.894  1.00  0.00    -0.053 SA
ATOM     17  S   UNL     1      -4.618   2.239  -1.651  1.00  0.00    -0.052 S 
ATOM     18  C   UNL     1      -6.023  -2.701  -3.491  1.00  0.00     0.069 C 
ATOM     19  C   UNL     1      -5.468  -4.090  -3.289  1.00  0.00     0.257 C 
ATOM     20  C   UNL     1      -7.147  -2.842  -4.430  1.00  0.00     0.013 A 
ATOM     21  O   UNL     1      -4.393  -4.430  -2.845  1.00  0.00    -0.269 OA
ATOM     22  N   UNL     1      -6.421  -4.934  -3.829  1.00  0.00    -0.321 N 
ATOM     23  C   UNL     1      -7.393  -4.219  -4.516  1.00  0.00     0.049 A 
ATOM     24  C   UNL     1      -7.879  -1.965  -5.210  1.00  0.00     0.026 A 
ATOM     25  H   UNL     1      -6.412  -5.914  -3.739  1.00  0.00     0.170 HD
ATOM     26  C   UNL     1      -8.418  -4.757  -5.265  1.00  0.00     0.028 A 
ATOM     27  C   UNL     1      -8.900  -2.495  -6.008  1.00  0.00     0.018 A 
ATOM     28  C   UNL     1      -9.189  -3.871  -6.016  1.00  0.00     0.018 A 
ATOM     29  Br  UNL     1      -9.899  -1.340  -7.127  1.00  0.00    -0.051 Br
ENDBRANCH   6  11
ENDBRANCH   4   6
ENDBRANCH   3   4
ENDBRANCH   2   3
ENDBRANCH   1   2
BRANCH   1  30
ATOM     30  O   UNL     1       0.882  -2.943   0.086  1.00  0.00    -0.458 OA
BRANCH  30  31
ATOM     31  C   UNL     1       0.995  -2.818  -1.254  1.00  0.00     0.338 C 
ATOM     32  O   UNL     1       0.343  -3.384  -2.115  1.00  0.00    -0.246 OA
BRANCH  31  33
ATOM     33  C   UNL     1       2.011  -1.812  -1.580  1.00  0.00     0.060 A 
ATOM     34  C   UNL     1       1.637  -0.470  -1.633  1.00  0.00     0.016 A 
ATOM     35  C   UNL     1       3.269  -2.220  -2.016  1.00  0.00     0.016 A 
ATOM     36  C   UNL     1       2.477   0.454  -2.241  1.00  0.00     0.010 A 
ATOM     37  C   UNL     1       4.156  -1.266  -2.521  1.00  0.00     0.010 A 
ATOM     38  C   UNL     1       3.754   0.073  -2.675  1.00  0.00    -0.014 A 
BRANCH  38  39
ATOM     39  C   UNL     1       4.663   1.074  -3.292  1.00  0.00     0.031 A 
ATOM     40  C   UNL     1       5.154   0.889  -4.702  1.00  0.00     0.074 A 
ATOM     41  C   UNL     1       5.045   2.150  -2.576  1.00  0.00     0.049 A 
ATOM     42  N   UNL     1       6.068   1.559  -5.356  1.00  0.00    -0.248 NA
ATOM     43  C   UNL     1       4.543  -0.204  -5.474  1.00  0.00     0.031 C 
ATOM     44  C   UNL     1       4.600   2.461  -1.215  1.00  0.00     0.029 A 
ATOM     45  N   UNL     1       5.897   3.179  -2.887  1.00  0.00    -0.354 N 
ATOM     46  C   UNL     1       6.170   0.950  -6.603  1.00  0.00     0.074 A 
ATOM     47  C   UNL     1       5.240  -0.160  -6.601  1.00  0.00     0.031 C 
ATOM     48  C   UNL     1       5.165   3.610  -0.818  1.00  0.00     0.029 A 
ATOM     49  C   UNL     1       6.083   4.067  -1.853  1.00  0.00     0.049 A 
ATOM     50  H   UNL     1       6.333   3.273  -3.765  1.00  0.00     0.167 HD
ATOM     51  C   UNL     1       6.964   1.292  -7.649  1.00  0.00     0.034 A 
ATOM     52  C   UNL     1       6.935   5.102  -1.726  1.00  0.00     0.034 A 
ATOM     53  C   UNL     1       7.875   2.414  -7.627  1.00  0.00     0.049 A 
ATOM     54  C   UNL     1       7.860   5.418  -2.871  1.00  0.00     0.074 A 
ATOM     55  C   UNL     1       8.722   2.858  -8.628  1.00  0.00     0.029 A 
ATOM     56  N   UNL     1       8.062   3.269  -6.546  1.00  0.00    -0.354 N 
ATOM     57  N   UNL     1       7.974   4.812  -4.031  1.00  0.00    -0.248 NA
ATOM     58  C   UNL     1       8.771   6.553  -2.689  1.00  0.00     0.031 C 
ATOM     59  C   UNL     1       9.466   3.934  -8.131  1.00  0.00     0.029 A 
ATOM     60  C   UNL     1       9.029   4.217  -6.847  1.00  0.00     0.049 A 
ATOM     61  H   UNL     1       7.577   3.210  -5.691  1.00  0.00     0.167 HD
ATOM     62  C   UNL     1       8.956   5.510  -4.726  1.00  0.00     0.074 A 
ATOM     63  C   UNL     1       9.386   6.591  -3.861  1.00  0.00     0.031 C 
ATOM     64  C   UNL     1       9.457   5.280  -5.967  1.00  0.00     0.034 A 
BRANCH  51  65
ATOM     65  C   UNL     1       6.923   0.409  -8.875  1.00  0.00     0.023 A 
ATOM     66  C   UNL     1       5.760   0.263  -9.651  1.00  0.00     0.031 A 
ATOM     67  C   UNL     1       8.062  -0.323  -9.258  1.00  0.00     0.131 A 
ATOM     68  C   UNL     1       5.739  -0.646 -10.722  1.00  0.00     0.055 A 
ATOM     69  C   UNL     1       8.060  -1.164 -10.373  1.00  0.00     0.041 A 
ATOM     70  F   UNL     1       9.197  -0.244  -8.546  1.00  0.00    -0.206 F 
ATOM     71  C   UNL     1       6.889  -1.342 -11.103  1.00  0.00     0.022 A 
BRANCH  68  72
ATOM     72  S   UNL     1       4.151  -1.017 -11.516  1.00  0.00     0.124 S 
ATOM     73  O   UNL     1       3.358  -1.493 -10.385  1.00  0.00    -0.237 OA
ATOM     74  O   UNL     1       3.764   0.277 -12.067  1.00  0.00    -0.237 OA
ATOM     75  O   UNL     1       4.491  -2.039 -12.504  1.00  0.00    -0.744 OA
ENDBRANCH  68  72
ENDBRANCH  51  65
BRANCH  52  76
ATOM     76  C   UNL     1       6.998   5.868  -0.449  1.00  0.00     0.023 A 
ATOM     77  C   UNL     1       6.668   7.230  -0.403  1.00  0.00     0.031 A 
ATOM     78  C   UNL     1       7.415   5.249   0.744  1.00  0.00     0.131 A 
ATOM     79  C   UNL     1       6.797   7.939   0.801  1.00  0.00     0.055 A 
ATOM     80  C   UNL     1       7.484   5.944   1.952  1.00  0.00     0.041 A 
ATOM     81  F   UNL     1       7.742   3.946   0.756  1.00  0.00    -0.206 F 
ATOM     82  C   UNL     1       7.187   7.302   1.982  1.00  0.00     0.022 A 
BRANCH  79  83
ATOM     83  S   UNL     1       6.530   9.732   0.784  1.00  0.00     0.124 S 
ATOM     84  O   UNL     1       7.509  10.169  -0.204  1.00  0.00    -0.237 OA
ATOM     85  O   UNL     1       5.130   9.826   0.385  1.00  0.00    -0.237 OA
ATOM     86  O   UNL     1       6.811  10.131   2.162  1.00  0.00    -0.744 OA
ENDBRANCH  79  83
ENDBRANCH  52  76
BRANCH  64  87
ATOM     87  C   UNL     1      10.494   6.254  -6.471  1.00  0.00     0.023 A 
ATOM     88  C   UNL     1      11.768   6.348  -5.885  1.00  0.00     0.031 A 
ATOM     89  C   UNL     1      10.190   7.117  -7.539  1.00  0.00     0.131 A 
ATOM     90  C   UNL     1      12.671   7.326  -6.331  1.00  0.00     0.055 A 
ATOM     91  C   UNL     1      11.115   8.043  -8.020  1.00  0.00     0.041 A 
ATOM     92  F   UNL     1       8.987   7.072  -8.133  1.00  0.00    -0.206 F 
ATOM     93  C   UNL     1      12.359   8.162  -7.406  1.00  0.00     0.022 A 
BRANCH  90  94
ATOM     94  S   UNL     1      14.223   7.557  -5.423  1.00  0.00     0.124 S 
ATOM     95  O   UNL     1      13.745   7.870  -4.080  1.00  0.00    -0.237 OA
ATOM     96  O   UNL     1      14.875   6.261  -5.582  1.00  0.00    -0.237 OA
ATOM     97  O   UNL     1      14.870   8.665  -6.124  1.00  0.00    -0.744 OA
ENDBRANCH  90  94
ENDBRANCH  64  87
ENDBRANCH  38  39
ENDBRANCH  31  33
ENDBRANCH  30  31
ENDBRANCH   1  30
TORSDOF 17
