REMARK SMILES CCC[N@@H+]1CC2(CC[NH+](C(=O)Cn3nnnc3C)CC2)C[C@H]1C(=O)OCCOC(=O)c1ccc(-c2c3nc(c(-c4cc(S(=O)(=O)[O-])ccc4F)c4ccc([nH]4)c(-c4cc(S(=O)(=O)[O-])ccc4F)c4nc(c(-c5cc(S(=O)(=O)[O-])ccc5F)c5ccc2[nH]5)C=C4)C=C3)cc1
REMARK SMILES IDX 26 1 25 2 23 3 24 4 22 5 4 6 5 7 6 9 21 10 7 11 20 12 8 13
REMARK SMILES IDX 19 14 9 15 3 17 2 18 1 19 10 20 11 21 12 22 13 23 14 24
REMARK SMILES IDX 17 25 15 26 16 27 18 28 27 29 28 30 29 31 30 32 31 33 32 34
REMARK SMILES IDX 93 35 33 36 92 37 34 38 35 39 36 40 86 41 37 42 91 43 85 44
REMARK SMILES IDX 87 45 38 46 90 47 84 48 83 49 39 51 71 52 51 53 70 54 52 55
REMARK SMILES IDX 55 56 69 57 88 58 53 59 54 60 68 62 89 63 56 64 40 65 41 66
REMARK SMILES IDX 49 67 42 68 48 69 50 70 47 71 43 72 44 73 45 74 46 75 72 76
REMARK SMILES IDX 73 77 81 78 74 79 80 80 82 81 79 82 75 83 76 84 77 85 78 86
REMARK SMILES IDX 57 87 58 88 66 89 59 90 65 91 67 92 64 93 60 94 61 95 62 96
REMARK SMILES IDX 63 97
REMARK H PARENT 4 8 9 16 87 50 55 61
REMARK Flexibility Score: inf
ROOT
ATOM      1  C   UNL     1      -1.393   6.181   0.647  1.00  0.00     0.274 C 
ENDROOT
BRANCH   1   2
ATOM      2  O   UNL     1      -0.640   5.142   1.301  1.00  0.00    -0.458 OA
BRANCH   2   3
ATOM      3  C   UNL     1      -1.223   4.501   2.352  1.00  0.00     0.365 C 
ATOM      4  O   UNL     1      -2.268   4.876   2.882  1.00  0.00    -0.245 OA
BRANCH   3   5
ATOM      5  C   UNL     1      -0.395   3.331   2.922  1.00  0.00     0.295 C 
ATOM      6  N   UNL     1       0.441   2.575   1.950  1.00  0.00    -0.323 N 
ATOM      7  C   UNL     1       1.639   3.397   1.751  1.00  0.00     0.270 C 
ATOM      8  H   UNL     1      -0.068   2.419   1.080  1.00  0.00     0.348 HD
ATOM      9  C   UNL     1       1.888   4.132   3.090  1.00  0.00     0.036 C 
ATOM     10  C   UNL     1       0.607   3.892   3.917  1.00  0.00     0.091 C 
ATOM     11  C   UNL     1       2.122   5.641   2.865  1.00  0.00     0.075 C 
ATOM     12  C   UNL     1       3.103   3.562   3.848  1.00  0.00     0.075 C 
ATOM     13  C   UNL     1       3.425   5.898   2.123  1.00  0.00     0.271 C 
ATOM     14  C   UNL     1       4.416   3.865   3.137  1.00  0.00     0.271 C 
ATOM     15  N   UNL     1       4.549   5.291   2.840  1.00  0.00    -0.270 N 
ATOM     16  H   UNL     1       4.897   5.176   1.927  1.00  0.00     0.356 HD
BRANCH   6  17
ATOM     17  C   UNL     1       0.789   1.222   2.426  1.00  0.00     0.262 C 
BRANCH  17  18
ATOM     18  C   UNL     1       0.290   0.115   1.492  1.00  0.00     0.058 C 
ATOM     19  C   UNL     1       0.865   0.177   0.084  1.00  0.00     0.010 C 
ENDBRANCH  17  18
ENDBRANCH   6  17
BRANCH  15  20
ATOM     20  C   UNL     1       5.742   5.926   3.147  1.00  0.00     0.333 C 
ATOM     21  O   UNL     1       6.634   5.366   3.791  1.00  0.00    -0.229 OA
BRANCH  20  22
ATOM     22  C   UNL     1       5.958   7.339   2.682  1.00  0.00     0.293 C 
BRANCH  22  23
ATOM     23  N   UNL     1       6.049   7.515   1.250  1.00  0.00    -0.216 N 
ATOM     24  N   UNL     1       5.851   8.760   0.768  1.00  0.00    -0.044 NA
ATOM     25  C   UNL     1       6.299   6.660   0.204  1.00  0.00     0.149 A 
ATOM     26  N   UNL     1       5.968   8.656  -0.544  1.00  0.00    -0.024 NA
ATOM     27  N   UNL     1       6.242   7.367  -0.908  1.00  0.00    -0.114 NA
ATOM     28  C   UNL     1       6.550   5.204   0.266  1.00  0.00     0.091 C 
ENDBRANCH  22  23
ENDBRANCH  20  22
ENDBRANCH  15  20
ENDBRANCH   3   5
ENDBRANCH   2   3
ENDBRANCH   1   2
BRANCH   1  29
ATOM     29  C   UNL     1      -2.180   5.628  -0.531  1.00  0.00     0.275 C 
BRANCH  29  30
ATOM     30  O   UNL     1      -3.171   4.722  -0.062  1.00  0.00    -0.458 OA
BRANCH  30  31
ATOM     31  C   UNL     1      -2.739   3.441   0.016  1.00  0.00     0.338 C 
ATOM     32  O   UNL     1      -1.607   3.041  -0.172  1.00  0.00    -0.246 OA
BRANCH  31  33
ATOM     33  C   UNL     1      -3.882   2.547   0.186  1.00  0.00     0.060 A 
ATOM     34  C   UNL     1      -3.581   1.185   0.252  1.00  0.00     0.016 A 
ATOM     35  C   UNL     1      -5.157   3.024  -0.136  1.00  0.00     0.016 A 
ATOM     36  C   UNL     1      -4.485   0.298  -0.272  1.00  0.00     0.010 A 
ATOM     37  C   UNL     1      -6.047   2.143  -0.688  1.00  0.00     0.010 A 
ATOM     38  C   UNL     1      -5.653   0.814  -0.834  1.00  0.00    -0.014 A 
BRANCH  38  39
ATOM     39  C   UNL     1      -6.494  -0.096  -1.569  1.00  0.00     0.031 A 
ATOM     40  C   UNL     1      -7.317  -0.954  -0.699  1.00  0.00     0.074 A 
ATOM     41  C   UNL     1      -6.593  -0.045  -2.908  1.00  0.00     0.049 A 
ATOM     42  N   UNL     1      -7.261  -2.234  -0.565  1.00  0.00    -0.248 NA
ATOM     43  C   UNL     1      -8.189  -0.280   0.276  1.00  0.00     0.031 C 
ATOM     44  C   UNL     1      -6.049   0.969  -3.815  1.00  0.00     0.029 A 
ATOM     45  N   UNL     1      -7.342  -0.825  -3.725  1.00  0.00    -0.354 N 
ATOM     46  C   UNL     1      -8.260  -2.549   0.346  1.00  0.00     0.074 A 
ATOM     47  C   UNL     1      -8.626  -1.317   0.987  1.00  0.00     0.031 C 
ATOM     48  C   UNL     1      -6.699   0.886  -4.998  1.00  0.00     0.029 A 
ATOM     49  C   UNL     1      -7.610  -0.249  -4.958  1.00  0.00     0.049 A 
ATOM     50  H   UNL     1      -7.665  -1.719  -3.467  1.00  0.00     0.167 HD
ATOM     51  C   UNL     1      -8.891  -3.751   0.311  1.00  0.00     0.034 A 
ATOM     52  C   UNL     1      -8.607  -0.609  -5.808  1.00  0.00     0.034 A 
ATOM     53  C   UNL     1      -8.120  -4.728  -0.423  1.00  0.00     0.049 A 
ATOM     54  C   UNL     1      -8.997  -2.002  -5.452  1.00  0.00     0.074 A 
ATOM     55  C   UNL     1      -6.830  -5.214  -0.305  1.00  0.00     0.029 A 
ATOM     56  N   UNL     1      -8.521  -5.064  -1.698  1.00  0.00    -0.354 N 
ATOM     57  N   UNL     1      -8.196  -3.028  -5.571  1.00  0.00    -0.248 NA
ATOM     58  C   UNL     1     -10.088  -2.189  -4.503  1.00  0.00     0.031 C 
ATOM     59  C   UNL     1      -6.360  -5.338  -1.645  1.00  0.00     0.029 A 
ATOM     60  C   UNL     1      -7.408  -4.995  -2.502  1.00  0.00     0.049 A 
ATOM     61  H   UNL     1      -9.433  -5.307  -1.980  1.00  0.00     0.167 HD
ATOM     62  C   UNL     1      -8.411  -3.795  -4.434  1.00  0.00     0.074 A 
ATOM     63  C   UNL     1      -9.657  -3.283  -3.867  1.00  0.00     0.031 C 
ATOM     64  C   UNL     1      -7.425  -4.572  -3.892  1.00  0.00     0.034 A 
BRANCH  51  65
ATOM     65  C   UNL     1     -10.354  -3.933   0.634  1.00  0.00     0.023 A 
ATOM     66  C   UNL     1     -10.856  -5.245   0.607  1.00  0.00     0.031 A 
ATOM     67  C   UNL     1     -11.325  -2.903   0.690  1.00  0.00     0.131 A 
ATOM     68  C   UNL     1     -12.238  -5.484   0.541  1.00  0.00     0.055 A 
ATOM     69  C   UNL     1     -12.698  -3.151   0.707  1.00  0.00     0.041 A 
ATOM     70  F   UNL     1     -11.015  -1.603   0.629  1.00  0.00    -0.206 F 
ATOM     71  C   UNL     1     -13.164  -4.447   0.598  1.00  0.00     0.022 A 
BRANCH  68  72
ATOM     72  S   UNL     1     -12.793  -7.168   0.182  1.00  0.00     0.124 S 
ATOM     73  O   UNL     1     -12.013  -7.487  -1.009  1.00  0.00    -0.237 OA
ATOM     74  O   UNL     1     -12.420  -7.871   1.405  1.00  0.00    -0.237 OA
ATOM     75  O   UNL     1     -14.229  -7.010  -0.035  1.00  0.00    -0.744 OA
ENDBRANCH  68  72
ENDBRANCH  51  65
BRANCH  52  76
ATOM     76  C   UNL     1      -9.450   0.332  -6.600  1.00  0.00     0.023 A 
ATOM     77  C   UNL     1     -10.216  -0.077  -7.709  1.00  0.00     0.031 A 
ATOM     78  C   UNL     1      -9.671   1.652  -6.136  1.00  0.00     0.131 A 
ATOM     79  C   UNL     1     -11.130   0.821  -8.314  1.00  0.00     0.055 A 
ATOM     80  C   UNL     1     -10.556   2.540  -6.750  1.00  0.00     0.041 A 
ATOM     81  F   UNL     1      -9.091   2.106  -5.014  1.00  0.00    -0.206 F 
ATOM     82  C   UNL     1     -11.295   2.125  -7.842  1.00  0.00     0.022 A 
BRANCH  79  83
ATOM     83  S   UNL     1     -12.195   0.267  -9.684  1.00  0.00     0.124 S 
ATOM     84  O   UNL     1     -11.235   0.073 -10.765  1.00  0.00    -0.237 OA
ATOM     85  O   UNL     1     -12.808  -0.937  -9.135  1.00  0.00    -0.237 OA
ATOM     86  O   UNL     1     -13.117   1.388  -9.874  1.00  0.00    -0.744 OA
ENDBRANCH  79  83
ENDBRANCH  52  76
BRANCH  64  87
ATOM     87  C   UNL     1      -6.155  -4.813  -4.689  1.00  0.00     0.023 A 
ATOM     88  C   UNL     1      -5.304  -3.793  -5.173  1.00  0.00     0.031 A 
ATOM     89  C   UNL     1      -5.715  -6.143  -4.824  1.00  0.00     0.131 A 
ATOM     90  C   UNL     1      -4.071  -4.125  -5.770  1.00  0.00     0.055 A 
ATOM     91  C   UNL     1      -4.485  -6.466  -5.396  1.00  0.00     0.041 A 
ATOM     92  F   UNL     1      -6.461  -7.157  -4.355  1.00  0.00    -0.206 F 
ATOM     93  C   UNL     1      -3.659  -5.457  -5.876  1.00  0.00     0.022 A 
BRANCH  90  94
ATOM     94  S   UNL     1      -2.974  -2.825  -6.426  1.00  0.00     0.124 S 
ATOM     95  O   UNL     1      -3.869  -1.995  -7.223  1.00  0.00    -0.237 OA
ATOM     96  O   UNL     1      -2.445  -2.216  -5.208  1.00  0.00    -0.237 OA
ATOM     97  O   UNL     1      -1.987  -3.576  -7.205  1.00  0.00    -0.744 OA
ENDBRANCH  90  94
ENDBRANCH  64  87
ENDBRANCH  38  39
ENDBRANCH  31  33
ENDBRANCH  30  31
ENDBRANCH  29  30
ENDBRANCH   1  29
TORSDOF 19
