REMARK SMILES CC(C)n1ccc(C#CC(=O)OCCOC(=O)c2ccc(-c3c4nc(c(-c5cc(S(=O)(=O)[O-])ccc5F)c5ccc([nH]5)c(-c5cc(S(=O)(=O)[O-])ccc5F)c5nc(c(-c6cc(S(=O)(=O)[O-])ccc6F)c6ccc3[nH]6)C=C5)C=C4)cc2)n1
REMARK SMILES IDX 14 1 13 2 12 3 10 4 11 5 9 6 8 7 7 8 4 9 5 10 81 11 6 12
REMARK SMILES IDX 2 13 1 14 3 15 15 16 16 17 17 18 18 19 19 20 80 21 20 22
REMARK SMILES IDX 79 23 21 24 22 25 23 26 73 27 24 28 78 29 72 30 74 31 25 32
REMARK SMILES IDX 77 33 71 34 70 35 26 37 58 38 38 39 57 40 39 41 42 42 56 43
REMARK SMILES IDX 75 44 40 45 41 46 55 48 76 49 43 50 27 51 28 52 36 53 29 54
REMARK SMILES IDX 35 55 37 56 34 57 30 58 31 59 32 60 33 61 59 62 60 63 68 64
REMARK SMILES IDX 61 65 67 66 69 67 66 68 62 69 63 70 64 71 65 72 44 73 45 74
REMARK SMILES IDX 53 75 46 76 52 77 54 78 51 79 47 80 48 81 49 82 50 83
REMARK H PARENT 74 36 42 47
REMARK Flexibility Score: inf
ROOT
ATOM      1  C   UNL     1      -8.913   3.128   1.734  1.00  0.00     0.275 C 
ENDROOT
BRANCH   1   2
ATOM      2  C   UNL     1      -8.416   3.020   0.299  1.00  0.00     0.275 C 
BRANCH   2   3
ATOM      3  O   UNL     1      -7.294   2.130   0.199  1.00  0.00    -0.452 OA
BRANCH   3   4
ATOM      4  C   UNL     1      -6.071   2.711   0.348  1.00  0.00     0.384 C 
ATOM      5  O   UNL     1      -5.839   3.912   0.356  1.00  0.00    -0.236 OA
BRANCH   4   6
ATOM      6  C   UNL     1      -5.025   1.754   0.552  1.00  0.00     0.024 C 
ATOM      7  C   UNL     1      -4.145   0.958   0.790  1.00  0.00    -0.033 C 
BRANCH   7   8
ATOM      8  C   UNL     1      -3.113   0.028   1.066  1.00  0.00     0.135 A 
ATOM      9  N   UNL     1      -1.135  -0.665   1.306  1.00  0.00    -0.269 N 
ATOM     10  C   UNL     1      -1.916  -1.780   1.445  1.00  0.00     0.110 A 
ATOM     11  N   UNL     1      -1.847   0.453   1.057  1.00  0.00    -0.164 NA
ATOM     12  C   UNL     1      -3.218  -1.352   1.314  1.00  0.00     0.059 A 
BRANCH   9  13
ATOM     13  C   UNL     1       0.322  -0.618   1.339  1.00  0.00     0.101 C 
ATOM     14  C   UNL     1       0.893  -0.041   0.043  1.00  0.00     0.033 C 
ATOM     15  C   UNL     1       0.836   0.142   2.560  1.00  0.00     0.033 C 
ENDBRANCH   9  13
ENDBRANCH   7   8
ENDBRANCH   4   6
ENDBRANCH   3   4
ENDBRANCH   2   3
ENDBRANCH   1   2
BRANCH   1  16
ATOM     16  O   UNL     1      -7.953   3.767   2.577  1.00  0.00    -0.458 OA
BRANCH  16  17
ATOM     17  C   UNL     1      -7.157   2.910   3.260  1.00  0.00     0.338 C 
ATOM     18  O   UNL     1      -6.852   1.775   2.932  1.00  0.00    -0.246 OA
BRANCH  17  19
ATOM     19  C   UNL     1      -6.937   3.426   4.612  1.00  0.00     0.060 A 
ATOM     20  C   UNL     1      -6.055   2.725   5.442  1.00  0.00     0.016 A 
ATOM     21  C   UNL     1      -7.849   4.359   5.119  1.00  0.00     0.016 A 
ATOM     22  C   UNL     1      -6.199   2.845   6.810  1.00  0.00     0.010 A 
ATOM     23  C   UNL     1      -8.028   4.432   6.476  1.00  0.00     0.010 A 
ATOM     24  C   UNL     1      -7.240   3.635   7.308  1.00  0.00    -0.014 A 
BRANCH  24  25
ATOM     25  C   UNL     1      -7.370   3.837   8.740  1.00  0.00     0.031 A 
ATOM     26  C   UNL     1      -6.345   4.799   9.226  1.00  0.00     0.074 A 
ATOM     27  C   UNL     1      -8.428   3.367   9.435  1.00  0.00     0.049 A 
ATOM     28  N   UNL     1      -5.323   4.552   9.978  1.00  0.00    -0.248 NA
ATOM     29  C   UNL     1      -6.284   6.128   8.577  1.00  0.00     0.031 C 
ATOM     30  C   UNL     1      -9.581   2.625   8.919  1.00  0.00     0.029 A 
ATOM     31  N   UNL     1      -8.761   3.545  10.743  1.00  0.00    -0.354 N 
ATOM     32  C   UNL     1      -4.686   5.781  10.129  1.00  0.00     0.074 A 
ATOM     33  C   UNL     1      -5.111   6.577   9.020  1.00  0.00     0.031 C 
ATOM     34  C   UNL     1     -10.573   2.630   9.841  1.00  0.00     0.029 A 
ATOM     35  C   UNL     1     -10.100   3.282  11.052  1.00  0.00     0.049 A 
ATOM     36  H   UNL     1      -8.108   3.836  11.420  1.00  0.00     0.167 HD
ATOM     37  C   UNL     1      -4.195   6.157  11.342  1.00  0.00     0.034 A 
ATOM     38  C   UNL     1     -10.771   3.651  12.186  1.00  0.00     0.034 A 
ATOM     39  C   UNL     1      -4.001   4.989  12.181  1.00  0.00     0.049 A 
ATOM     40  C   UNL     1      -9.730   3.959  13.205  1.00  0.00     0.074 A 
ATOM     41  C   UNL     1      -3.290   3.812  12.035  1.00  0.00     0.029 A 
ATOM     42  N   UNL     1      -4.928   4.740  13.172  1.00  0.00    -0.354 N 
ATOM     43  N   UNL     1      -8.933   3.053  13.702  1.00  0.00    -0.248 NA
ATOM     44  C   UNL     1      -9.219   5.323  13.250  1.00  0.00     0.031 C 
ATOM     45  C   UNL     1      -4.139   2.799  12.570  1.00  0.00     0.029 A 
ATOM     46  C   UNL     1      -5.263   3.410  13.127  1.00  0.00     0.049 A 
ATOM     47  H   UNL     1      -5.288   5.404  13.804  1.00  0.00     0.167 HD
ATOM     48  C   UNL     1      -7.676   3.641  13.703  1.00  0.00     0.074 A 
ATOM     49  C   UNL     1      -7.926   5.066  13.478  1.00  0.00     0.031 C 
ATOM     50  C   UNL     1      -6.543   2.886  13.571  1.00  0.00     0.034 A 
BRANCH  37  51
ATOM     51  C   UNL     1      -4.360   7.559  11.918  1.00  0.00     0.023 A 
ATOM     52  C   UNL     1      -3.998   7.714  13.267  1.00  0.00     0.031 A 
ATOM     53  C   UNL     1      -5.098   8.636  11.368  1.00  0.00     0.131 A 
ATOM     54  C   UNL     1      -4.511   8.767  14.041  1.00  0.00     0.055 A 
ATOM     55  C   UNL     1      -5.559   9.714  12.130  1.00  0.00     0.041 A 
ATOM     56  F   UNL     1      -5.471   8.704  10.087  1.00  0.00    -0.206 F 
ATOM     57  C   UNL     1      -5.305   9.763  13.486  1.00  0.00     0.022 A 
BRANCH  54  58
ATOM     58  S   UNL     1      -4.280   8.683  15.831  1.00  0.00     0.124 S 
ATOM     59  O   UNL     1      -4.846   7.371  16.126  1.00  0.00    -0.237 OA
ATOM     60  O   UNL     1      -2.831   8.804  15.947  1.00  0.00    -0.237 OA
ATOM     61  O   UNL     1      -5.045   9.826  16.322  1.00  0.00    -0.744 OA
ENDBRANCH  54  58
ENDBRANCH  37  51
BRANCH  38  62
ATOM     62  C   UNL     1     -12.197   4.104  12.317  1.00  0.00     0.023 A 
ATOM     63  C   UNL     1     -12.895   4.187  13.551  1.00  0.00     0.031 A 
ATOM     64  C   UNL     1     -12.830   4.712  11.208  1.00  0.00     0.131 A 
ATOM     65  C   UNL     1     -14.154   4.845  13.627  1.00  0.00     0.055 A 
ATOM     66  C   UNL     1     -14.066   5.360  11.290  1.00  0.00     0.041 A 
ATOM     67  F   UNL     1     -12.228   4.775  10.011  1.00  0.00    -0.206 F 
ATOM     68  C   UNL     1     -14.729   5.438  12.502  1.00  0.00     0.022 A 
BRANCH  65  69
ATOM     69  S   UNL     1     -15.055   5.015  15.211  1.00  0.00     0.124 S 
ATOM     70  O   UNL     1     -15.430   3.638  15.508  1.00  0.00    -0.237 OA
ATOM     71  O   UNL     1     -14.056   5.620  16.083  1.00  0.00    -0.237 OA
ATOM     72  O   UNL     1     -16.179   5.893  14.875  1.00  0.00    -0.744 OA
ENDBRANCH  65  69
ENDBRANCH  38  62
BRANCH  50  73
ATOM     73  C   UNL     1      -6.649   1.381  13.736  1.00  0.00     0.023 A 
ATOM     74  C   UNL     1      -7.487   0.522  12.985  1.00  0.00     0.031 A 
ATOM     75  C   UNL     1      -5.755   0.785  14.643  1.00  0.00     0.131 A 
ATOM     76  C   UNL     1      -7.413  -0.875  13.174  1.00  0.00     0.055 A 
ATOM     77  C   UNL     1      -5.666  -0.595  14.806  1.00  0.00     0.041 A 
ATOM     78  F   UNL     1      -4.917   1.543  15.371  1.00  0.00    -0.206 F 
ATOM     79  C   UNL     1      -6.501  -1.431  14.077  1.00  0.00     0.022 A 
BRANCH  76  80
ATOM     80  S   UNL     1      -8.528  -2.007  12.279  1.00  0.00     0.124 S 
ATOM     81  O   UNL     1      -9.833  -1.367  12.394  1.00  0.00    -0.237 OA
ATOM     82  O   UNL     1      -7.944  -2.032  10.940  1.00  0.00    -0.237 OA
ATOM     83  O   UNL     1      -8.400  -3.265  13.018  1.00  0.00    -0.744 OA
ENDBRANCH  76  80
ENDBRANCH  50  73
ENDBRANCH  24  25
ENDBRANCH  17  19
ENDBRANCH  16  17
ENDBRANCH   1  16
TORSDOF 16
