REMARK SMILES CCCOc1cc(NC[C@H]2CC[C@@H](C(=O)OCCOC(=O)c3ccc(-c4c5nc(c(-c6cc(S(=O)(=O)[O-])ccc6F)c6ccc([nH]6)c(-c6cc(S(=O)(=O)[O-])ccc6F)c6nc(c(-c7cc(S(=O)(=O)[O-])ccc7F)c7ccc4[nH]7)C=C6)C=C5)cc3)O2)ncn1
REMARK SMILES IDX 16 1 14 2 15 3 13 4 10 5 11 6 85 7 12 8 9 9 8 10 7 12 5 13
REMARK SMILES IDX 6 14 88 15 87 16 86 17 4 18 3 19 2 20 1 21 17 22 18 23 19 24
REMARK SMILES IDX 20 25 21 26 22 27 23 28 84 29 24 30 83 31 25 32 26 33 27 34
REMARK SMILES IDX 77 35 28 36 82 37 76 38 78 39 29 40 81 41 75 42 74 43 30 45
REMARK SMILES IDX 62 46 42 47 61 48 43 49 46 50 60 51 79 52 44 53 45 54 59 56
REMARK SMILES IDX 80 57 47 58 31 59 32 60 40 61 33 62 39 63 41 64 38 65 34 66
REMARK SMILES IDX 35 67 36 68 37 69 63 70 64 71 72 72 65 73 71 74 73 75 70 76
REMARK SMILES IDX 66 77 67 78 68 79 69 80 48 81 49 82 57 83 50 84 56 85 58 86
REMARK SMILES IDX 55 87 51 88 52 89 53 90 54 91
REMARK H PARENT 8 11 78 44 46 55
REMARK Flexibility Score: inf
ROOT
ATOM      1  O   UNL     1       6.631  -3.551   4.080  1.00  0.00    -0.460 OA
ENDROOT
BRANCH   1   2
ATOM      2  C   UNL     1       5.665  -4.222   3.389  1.00  0.00     0.335 C 
ATOM      3  O   UNL     1       5.700  -5.425   3.158  1.00  0.00    -0.249 OA
BRANCH   2   4
ATOM      4  C   UNL     1       4.549  -3.289   2.892  1.00  0.00     0.228 C 
ATOM      5  C   UNL     1       2.304  -2.901   3.518  1.00  0.00     0.138 C 
ATOM      6  C   UNL     1       3.015  -1.567   3.354  1.00  0.00     0.037 C 
ATOM      7  O   UNL     1       3.241  -3.881   3.003  1.00  0.00    -0.361 OA
ATOM      8  C   UNL     1       4.460  -1.938   3.581  1.00  0.00     0.047 C 
BRANCH   5   9
ATOM      9  C   UNL     1       1.958  -3.250   4.978  1.00  0.00     0.146 C 
BRANCH   9  10
ATOM     10  N   UNL     1       1.119  -2.258   5.623  1.00  0.00    -0.367 N 
ATOM     11  H   UNL     1       1.502  -1.394   5.899  1.00  0.00     0.162 HD
BRANCH  10  12
ATOM     12  C   UNL     1      -0.226  -2.529   5.851  1.00  0.00     0.133 A 
ATOM     13  C   UNL     1      -2.341  -1.765   6.483  1.00  0.00     0.218 A 
ATOM     14  C   UNL     1      -0.984  -1.556   6.458  1.00  0.00     0.115 A 
ATOM     15  N   UNL     1      -2.944  -2.874   6.044  1.00  0.00    -0.202 NA
ATOM     16  C   UNL     1      -2.112  -3.800   5.562  1.00  0.00     0.228 A 
ATOM     17  N   UNL     1      -0.782  -3.663   5.398  1.00  0.00    -0.219 NA
BRANCH  13  18
ATOM     18  O   UNL     1      -3.131  -0.753   6.965  1.00  0.00    -0.478 OA
BRANCH  18  19
ATOM     19  C   UNL     1      -3.678   0.027   5.899  1.00  0.00     0.231 C 
BRANCH  19  20
ATOM     20  C   UNL     1      -2.765   1.221   5.590  1.00  0.00     0.038 C 
ATOM     21  C   UNL     1      -1.921   1.020   4.336  1.00  0.00     0.007 C 
ENDBRANCH  19  20
ENDBRANCH  18  19
ENDBRANCH  13  18
ENDBRANCH  10  12
ENDBRANCH   9  10
ENDBRANCH   5   9
ENDBRANCH   2   4
ENDBRANCH   1   2
BRANCH   1  22
ATOM     22  C   UNL     1       7.684  -4.363   4.639  1.00  0.00     0.274 C 
BRANCH  22  23
ATOM     23  C   UNL     1       7.423  -4.664   6.114  1.00  0.00     0.275 C 
BRANCH  23  24
ATOM     24  O   UNL     1       6.267  -5.508   6.255  1.00  0.00    -0.458 OA
BRANCH  24  25
ATOM     25  C   UNL     1       5.203  -4.952   6.871  1.00  0.00     0.338 C 
ATOM     26  O   UNL     1       5.132  -3.827   7.355  1.00  0.00    -0.246 OA
BRANCH  25  27
ATOM     27  C   UNL     1       4.071  -5.888   6.865  1.00  0.00     0.060 A 
ATOM     28  C   UNL     1       3.426  -6.163   5.661  1.00  0.00     0.016 A 
ATOM     29  C   UNL     1       3.541  -6.356   8.068  1.00  0.00     0.016 A 
ATOM     30  C   UNL     1       2.196  -6.815   5.668  1.00  0.00     0.010 A 
ATOM     31  C   UNL     1       2.351  -7.095   8.059  1.00  0.00     0.010 A 
ATOM     32  C   UNL     1       1.640  -7.294   6.863  1.00  0.00    -0.014 A 
BRANCH  32  33
ATOM     33  C   UNL     1       0.304  -7.957   6.848  1.00  0.00     0.031 A 
ATOM     34  C   UNL     1      -0.846  -7.386   7.641  1.00  0.00     0.074 A 
ATOM     35  C   UNL     1       0.111  -9.060   6.096  1.00  0.00     0.049 A 
ATOM     36  N   UNL     1      -2.038  -7.887   7.853  1.00  0.00    -0.248 NA
ATOM     37  C   UNL     1      -0.620  -6.089   8.295  1.00  0.00     0.031 C 
ATOM     38  C   UNL     1       1.126  -9.694   5.250  1.00  0.00     0.029 A 
ATOM     39  N   UNL     1      -1.005  -9.836   5.906  1.00  0.00    -0.354 N 
ATOM     40  C   UNL     1      -2.679  -7.003   8.718  1.00  0.00     0.074 A 
ATOM     41  C   UNL     1      -1.741  -5.933   8.986  1.00  0.00     0.031 C 
ATOM     42  C   UNL     1       0.575 -10.728   4.598  1.00  0.00     0.029 A 
ATOM     43  C   UNL     1      -0.805 -10.887   5.041  1.00  0.00     0.049 A 
ATOM     44  H   UNL     1      -1.867  -9.657   6.346  1.00  0.00     0.167 HD
ATOM     45  C   UNL     1      -3.928  -7.087   9.243  1.00  0.00     0.034 A 
ATOM     46  C   UNL     1      -1.622 -11.892   4.671  1.00  0.00     0.034 A 
ATOM     47  C   UNL     1      -4.869  -8.138   8.922  1.00  0.00     0.049 A 
ATOM     48  C   UNL     1      -3.003 -11.960   5.261  1.00  0.00     0.074 A 
ATOM     49  C   UNL     1      -6.171  -8.298   9.367  1.00  0.00     0.029 A 
ATOM     50  N   UNL     1      -4.612  -9.207   8.071  1.00  0.00    -0.354 N 
ATOM     51  N   UNL     1      -3.571 -11.152   6.124  1.00  0.00    -0.248 NA
ATOM     52  C   UNL     1      -3.845 -13.085   4.836  1.00  0.00     0.031 C 
ATOM     53  C   UNL     1      -6.681  -9.488   8.831  1.00  0.00     0.029 A 
ATOM     54  C   UNL     1      -5.722 -10.040   7.997  1.00  0.00     0.049 A 
ATOM     55  H   UNL     1      -3.766  -9.353   7.589  1.00  0.00     0.167 HD
ATOM     56  C   UNL     1      -4.840 -11.674   6.350  1.00  0.00     0.074 A 
ATOM     57  C   UNL     1      -4.963 -12.847   5.506  1.00  0.00     0.031 C 
ATOM     58  C   UNL     1      -5.814 -11.229   7.183  1.00  0.00     0.034 A 
BRANCH  45  59
ATOM     59  C   UNL     1      -4.318  -6.062  10.287  1.00  0.00     0.023 A 
ATOM     60  C   UNL     1      -4.457  -4.692  10.002  1.00  0.00     0.031 A 
ATOM     61  C   UNL     1      -4.531  -6.481  11.615  1.00  0.00     0.131 A 
ATOM     62  C   UNL     1      -4.740  -3.787  11.040  1.00  0.00     0.055 A 
ATOM     63  C   UNL     1      -4.884  -5.587  12.627  1.00  0.00     0.041 A 
ATOM     64  F   UNL     1      -4.388  -7.772  11.956  1.00  0.00    -0.206 F 
ATOM     65  C   UNL     1      -4.978  -4.229  12.345  1.00  0.00     0.022 A 
BRANCH  62  66
ATOM     66  S   UNL     1      -4.663  -2.003  10.705  1.00  0.00     0.124 S 
ATOM     67  O   UNL     1      -3.280  -1.845  10.262  1.00  0.00    -0.237 OA
ATOM     68  O   UNL     1      -5.699  -1.825   9.695  1.00  0.00    -0.237 OA
ATOM     69  O   UNL     1      -4.957  -1.397  12.004  1.00  0.00    -0.744 OA
ENDBRANCH  62  66
ENDBRANCH  45  59
BRANCH  46  70
ATOM     70  C   UNL     1      -1.132 -12.952   3.745  1.00  0.00     0.023 A 
ATOM     71  C   UNL     1      -1.674 -13.102   2.460  1.00  0.00     0.031 A 
ATOM     72  C   UNL     1      -0.121 -13.843   4.148  1.00  0.00     0.131 A 
ATOM     73  C   UNL     1      -1.220 -14.139   1.630  1.00  0.00     0.055 A 
ATOM     74  C   UNL     1       0.360 -14.842   3.301  1.00  0.00     0.041 A 
ATOM     75  F   UNL     1       0.430 -13.739   5.367  1.00  0.00    -0.206 F 
ATOM     76  C   UNL     1      -0.197 -15.000   2.037  1.00  0.00     0.022 A 
BRANCH  73  77
ATOM     77  S   UNL     1      -2.027 -14.387   0.024  1.00  0.00     0.124 S 
ATOM     78  O   UNL     1      -3.410 -14.631   0.419  1.00  0.00    -0.237 OA
ATOM     79  O   UNL     1      -1.766 -13.118  -0.647  1.00  0.00    -0.237 OA
ATOM     80  O   UNL     1      -1.325 -15.540  -0.536  1.00  0.00    -0.744 OA
ENDBRANCH  73  77
ENDBRANCH  46  70
BRANCH  58  81
ATOM     81  C   UNL     1      -7.096 -12.024   7.198  1.00  0.00     0.023 A 
ATOM     82  C   UNL     1      -7.145 -13.325   7.730  1.00  0.00     0.031 A 
ATOM     83  C   UNL     1      -8.265 -11.495   6.625  1.00  0.00     0.131 A 
ATOM     84  C   UNL     1      -8.324 -14.078   7.623  1.00  0.00     0.055 A 
ATOM     85  C   UNL     1      -9.450 -12.231   6.569  1.00  0.00     0.041 A 
ATOM     86  F   UNL     1      -8.270 -10.261   6.099  1.00  0.00    -0.206 F 
ATOM     87  C   UNL     1      -9.480 -13.535   7.056  1.00  0.00     0.022 A 
BRANCH  84  88
ATOM     88  S   UNL     1      -8.299 -15.816   8.143  1.00  0.00     0.124 S 
ATOM     89  O   UNL     1      -7.226 -16.366   7.321  1.00  0.00    -0.237 OA
ATOM     90  O   UNL     1      -8.019 -15.711   9.571  1.00  0.00    -0.237 OA
ATOM     91  O   UNL     1      -9.640 -16.294   7.810  1.00  0.00    -0.744 OA
ENDBRANCH  84  88
ENDBRANCH  58  81
ENDBRANCH  32  33
ENDBRANCH  25  27
ENDBRANCH  24  25
ENDBRANCH  23  24
ENDBRANCH  22  23
ENDBRANCH   1  22
TORSDOF 20
