REMARK SMILES CCN(CCC(=O)OCCOC(=O)c1ccc(-c2c3nc(c(-c4cc(S(=O)(=O)[O-])ccc4F)c4ccc([nH]4)c(-c4cc(S(=O)(=O)[O-])ccc4F)c4nc(c(-c5cc(S(=O)(=O)[O-])ccc5F)c5ccc2[nH]5)C=C4)C=C3)cc1)C(=O)c1cc(Cl)ccc1F
REMARK SMILES IDX 9 1 8 2 6 3 7 4 5 5 4 6 3 7 2 8 1 9 77 10 78 11 79 12 80 13
REMARK SMILES IDX 85 14 81 15 84 16 86 17 82 18 83 19 10 20 11 21 12 22 13 23
REMARK SMILES IDX 14 24 15 25 76 26 16 27 75 28 17 29 18 30 19 31 69 32 20 33
REMARK SMILES IDX 74 34 68 35 70 36 21 37 73 38 67 39 66 40 22 42 54 43 34 44
REMARK SMILES IDX 53 45 35 46 38 47 52 48 71 49 36 50 37 51 51 53 72 54 39 55
REMARK SMILES IDX 23 56 24 57 32 58 25 59 31 60 33 61 30 62 26 63 27 64 28 65
REMARK SMILES IDX 29 66 55 67 56 68 64 69 57 70 63 71 65 72 62 73 58 74 59 75
REMARK SMILES IDX 60 76 61 77 40 78 41 79 49 80 42 81 48 82 50 83 47 84 43 85
REMARK SMILES IDX 44 86 45 87 46 88
REMARK H PARENT 70 41 38 52
REMARK Flexibility Score: inf
ROOT
ATOM      1  C   UNL     1       3.616   5.453  -0.580  1.00  0.00     0.274 C 
ENDROOT
BRANCH   1   2
ATOM      2  O   UNL     1       2.349   6.249  -0.232  1.00  0.00    -0.462 OA
BRANCH   2   3
ATOM      3  C   UNL     1       1.016   6.012   0.118  1.00  0.00     0.307 C 
ATOM      4  O   UNL     1       0.227   6.954   0.002  1.00  0.00    -0.252 OA
BRANCH   3   5
ATOM      5  C   UNL     1       0.433   4.577   0.609  1.00  0.00     0.144 C 
BRANCH   5   6
ATOM      6  C   UNL     1       0.011   3.370  -0.415  1.00  0.00     0.131 C 
BRANCH   6   7
ATOM      7  N   UNL     1       0.967   2.152  -0.497  1.00  0.00    -0.338 N 
BRANCH   7   8
ATOM      8  C   UNL     1       0.760   1.192   0.597  1.00  0.00     0.116 C 
ATOM      9  C   UNL     1       0.672  -0.278   0.201  1.00  0.00     0.027 C 
ENDBRANCH   7   8
BRANCH   7  10
ATOM     10  C   UNL     1       2.075   1.874  -1.398  1.00  0.00     0.256 C 
ATOM     11  O   UNL     1       2.797   0.883  -1.270  1.00  0.00    -0.269 OA
BRANCH  10  12
ATOM     12  C   UNL     1       2.523   2.812  -2.481  1.00  0.00     0.077 A 
ATOM     13  C   UNL     1       4.002   2.626  -3.474  1.00  0.00     0.037 A 
ATOM     14  C   UNL     1       1.893   4.441  -2.253  1.00  0.00     0.136 A 
ATOM     15  C   UNL     1       4.763   4.060  -4.247  1.00  0.00     0.042 A 
ATOM     16  C   UNL     1       2.650   5.939  -2.984  1.00  0.00     0.041 A 
ATOM     17  F   UNL     1       1.733   4.435  -0.977  1.00  0.00    -0.206 F 
ATOM     18  Cl  UNL     1       6.147   3.855  -5.243  1.00  0.00    -0.084 Cl
ATOM     19  C   UNL     1       4.097   5.721  -4.021  1.00  0.00     0.023 A 
ENDBRANCH  10  12
ENDBRANCH   7  10
ENDBRANCH   6   7
ENDBRANCH   5   6
ENDBRANCH   3   5
ENDBRANCH   2   3
ENDBRANCH   1   2
BRANCH   1  20
ATOM     20  C   UNL     1       4.019   4.549  -2.102  1.00  0.00     0.275 C 
BRANCH  20  21
ATOM     21  O   UNL     1       2.916   4.210  -3.761  1.00  0.00    -0.458 OA
BRANCH  21  22
ATOM     22  C   UNL     1       2.007   4.178  -4.855  1.00  0.00     0.338 C 
ATOM     23  O   UNL     1       1.997   3.221  -5.624  1.00  0.00    -0.246 OA
BRANCH  22  24
ATOM     24  C   UNL     1       1.033   5.283  -5.119  1.00  0.00     0.060 A 
ATOM     25  C   UNL     1      -0.097   5.542  -4.323  1.00  0.00     0.016 A 
ATOM     26  C   UNL     1       1.226   6.014  -6.292  1.00  0.00     0.016 A 
ATOM     27  C   UNL     1      -1.003   6.551  -4.678  1.00  0.00     0.010 A 
ATOM     28  C   UNL     1       0.313   7.007  -6.655  1.00  0.00     0.010 A 
ATOM     29  C   UNL     1      -0.817   7.272  -5.862  1.00  0.00    -0.014 A 
BRANCH  29  30
ATOM     30  C   UNL     1      -1.856   8.202  -6.375  1.00  0.00     0.031 A 
ATOM     31  C   UNL     1      -2.732   7.745  -7.512  1.00  0.00     0.074 A 
ATOM     32  C   UNL     1      -1.976   9.449  -5.883  1.00  0.00     0.049 A 
ATOM     33  N   UNL     1      -3.575   8.431  -8.239  1.00  0.00    -0.248 NA
ATOM     34  C   UNL     1      -2.635   6.324  -7.883  1.00  0.00     0.031 C 
ATOM     35  C   UNL     1      -1.219   9.990  -4.755  1.00  0.00     0.029 A 
ATOM     36  N   UNL     1      -2.762  10.500  -6.292  1.00  0.00    -0.354 N 
ATOM     37  C   UNL     1      -4.085   7.536  -9.173  1.00  0.00     0.074 A 
ATOM     38  C   UNL     1      -3.451   6.259  -8.925  1.00  0.00     0.031 C 
ATOM     39  C   UNL     1      -1.553  11.281  -4.583  1.00  0.00     0.029 A 
ATOM     40  C   UNL     1      -2.507  11.674  -5.618  1.00  0.00     0.049 A 
ATOM     41  H   UNL     1      -3.442  10.421  -7.000  1.00  0.00     0.167 HD
ATOM     42  C   UNL     1      -4.995   7.765 -10.151  1.00  0.00     0.034 A 
ATOM     43  C   UNL     1      -2.955  12.927  -5.843  1.00  0.00     0.034 A 
ATOM     44  C   UNL     1      -5.626   9.041 -10.377  1.00  0.00     0.049 A 
ATOM     45  C   UNL     1      -3.912  13.168  -6.990  1.00  0.00     0.074 A 
ATOM     46  C   UNL     1      -6.609   9.362 -11.298  1.00  0.00     0.029 A 
ATOM     47  N   UNL     1      -5.327  10.209  -9.692  1.00  0.00    -0.354 N 
ATOM     48  N   UNL     1      -4.414  12.305  -7.844  1.00  0.00    -0.248 NA
ATOM     49  C   UNL     1      -4.359  14.552  -7.206  1.00  0.00     0.031 C 
ATOM     50  C   UNL     1      -6.846  10.738 -11.223  1.00  0.00     0.029 A 
ATOM     51  C   UNL     1      -6.068  11.263 -10.203  1.00  0.00     0.049 A 
ATOM     52  H   UNL     1      -4.682  10.280  -8.951  1.00  0.00     0.167 HD
ATOM     53  C   UNL     1      -5.255  13.040  -8.677  1.00  0.00     0.074 A 
ATOM     54  C   UNL     1      -5.209  14.410  -8.212  1.00  0.00     0.031 C 
ATOM     55  C   UNL     1      -6.001  12.625  -9.733  1.00  0.00     0.034 A 
BRANCH  42  56
ATOM     56  C   UNL     1      -5.320   6.632 -11.091  1.00  0.00     0.023 A 
ATOM     57  C   UNL     1      -6.017   5.487 -10.671  1.00  0.00     0.031 A 
ATOM     58  C   UNL     1      -4.943   6.719 -12.444  1.00  0.00     0.131 A 
ATOM     59  C   UNL     1      -6.284   4.458 -11.588  1.00  0.00     0.055 A 
ATOM     60  C   UNL     1      -5.264   5.720 -13.363  1.00  0.00     0.041 A 
ATOM     61  F   UNL     1      -4.257   7.781 -12.894  1.00  0.00    -0.206 F 
ATOM     62  C   UNL     1      -5.933   4.577 -12.935  1.00  0.00     0.022 A 
BRANCH  59  63
ATOM     63  S   UNL     1      -7.024   2.918 -10.979  1.00  0.00     0.124 S 
ATOM     64  O   UNL     1      -6.012   2.457 -10.031  1.00  0.00    -0.237 OA
ATOM     65  O   UNL     1      -8.280   3.378 -10.398  1.00  0.00    -0.237 OA
ATOM     66  O   UNL     1      -7.158   2.101 -12.183  1.00  0.00    -0.744 OA
ENDBRANCH  59  63
ENDBRANCH  42  56
BRANCH  43  67
ATOM     67  C   UNL     1      -2.461  14.077  -5.026  1.00  0.00     0.023 A 
ATOM     68  C   UNL     1      -3.344  14.868  -4.274  1.00  0.00     0.031 A 
ATOM     69  C   UNL     1      -1.107  14.460  -5.063  1.00  0.00     0.131 A 
ATOM     70  C   UNL     1      -2.879  16.033  -3.642  1.00  0.00     0.055 A 
ATOM     71  C   UNL     1      -0.637  15.584  -4.380  1.00  0.00     0.041 A 
ATOM     72  F   UNL     1      -0.217  13.749  -5.774  1.00  0.00    -0.206 F 
ATOM     73  C   UNL     1      -1.529  16.388  -3.679  1.00  0.00     0.022 A 
BRANCH  70  74
ATOM     74  S   UNL     1      -4.089  17.150  -2.879  1.00  0.00     0.124 S 
ATOM     75  O   UNL     1      -5.004  17.398  -3.987  1.00  0.00    -0.237 OA
ATOM     76  O   UNL     1      -4.609  16.331  -1.789  1.00  0.00    -0.237 OA
ATOM     77  O   UNL     1      -3.282  18.296  -2.467  1.00  0.00    -0.744 OA
ENDBRANCH  70  74
ENDBRANCH  43  67
BRANCH  55  78
ATOM     78  C   UNL     1      -6.850  13.662 -10.426  1.00  0.00     0.023 A 
ATOM     79  C   UNL     1      -6.276  14.710 -11.166  1.00  0.00     0.031 A 
ATOM     80  C   UNL     1      -8.252  13.602 -10.340  1.00  0.00     0.131 A 
ATOM     81  C   UNL     1      -7.099  15.686 -11.748  1.00  0.00     0.055 A 
ATOM     82  C   UNL     1      -9.068  14.543 -10.970  1.00  0.00     0.041 A 
ATOM     83  F   UNL     1      -8.854  12.623  -9.645  1.00  0.00    -0.206 F 
ATOM     84  C   UNL     1      -8.491  15.600 -11.669  1.00  0.00     0.022 A 
BRANCH  81  85
ATOM     85  S   UNL     1      -6.322  17.119 -12.545  1.00  0.00     0.124 S 
ATOM     86  O   UNL     1      -5.575  17.712 -11.441  1.00  0.00    -0.237 OA
ATOM     87  O   UNL     1      -5.522  16.498 -13.595  1.00  0.00    -0.237 OA
ATOM     88  O   UNL     1      -7.459  17.907 -13.018  1.00  0.00    -0.744 OA
ENDBRANCH  81  85
ENDBRANCH  55  78
ENDBRANCH  29  30
ENDBRANCH  22  24
ENDBRANCH  21  22
ENDBRANCH  20  21
ENDBRANCH   1  20
TORSDOF 19
