REMARK SMILES C=CC[N@@H+](CC(=O)Nc1cc(C)on1)CC(=O)OCCOC(=O)c1ccc(-c2c3nc(c(-c4cc(S(=O)(=O)[O-])ccc4F)c4ccc([nH]4)c(-c4cc(S(=O)(=O)[O-])ccc4F)c4nc(c(-c5cc(S(=O)(=O)[O-])ccc5F)c5ccc2[nH]5)C=C4)C=C3)cc1
REMARK SMILES IDX 19 1 18 2 16 3 17 4 15 5 4 6 3 8 2 9 1 10 5 11 6 12 7 13
REMARK SMILES IDX 8 14 9 16 10 17 14 18 11 19 13 20 12 21 20 22 21 23 22 24
REMARK SMILES IDX 23 25 24 26 25 27 86 28 26 29 85 30 27 31 28 32 29 33 79 34
REMARK SMILES IDX 30 35 84 36 78 37 80 38 31 39 83 40 77 41 76 42 32 44 64 45
REMARK SMILES IDX 44 46 63 47 45 48 48 49 62 50 81 51 46 52 47 53 61 55 82 56
REMARK SMILES IDX 49 57 33 58 34 59 42 60 35 61 41 62 43 63 40 64 36 65 37 66
REMARK SMILES IDX 38 67 39 68 65 69 66 70 74 71 67 72 73 73 75 74 72 75 68 76
REMARK SMILES IDX 69 77 70 78 71 79 50 80 51 81 59 82 52 83 58 84 60 85 57 86
REMARK SMILES IDX 53 87 54 88 55 89 56 90
REMARK H PARENT 4 7 8 15 80 43 48 54
REMARK Flexibility Score: inf
ROOT
ATOM      1  C   UNL     1      -3.273  -2.068   2.805  1.00  0.00     0.274 C 
ENDROOT
BRANCH   1   2
ATOM      2  O   UNL     1      -3.001  -0.713   2.399  1.00  0.00    -0.458 OA
BRANCH   2   3
ATOM      3  C   UNL     1      -2.056  -0.037   3.090  1.00  0.00     0.361 C 
ATOM      4  O   UNL     1      -1.324  -0.554   3.930  1.00  0.00    -0.245 OA
BRANCH   3   5
ATOM      5  C   UNL     1      -2.096   1.467   2.862  1.00  0.00     0.387 C 
BRANCH   5   6
ATOM      6  N   UNL     1      -2.248   1.987   1.499  1.00  0.00    -0.315 N 
ATOM      7  H   UNL     1      -2.092   2.967   1.734  1.00  0.00     0.349 HD
BRANCH   6   8
ATOM      8  C   UNL     1      -1.167   1.768   0.555  1.00  0.00     0.291 C 
BRANCH   8   9
ATOM      9  C   UNL     1       0.174   2.313   0.951  1.00  0.00     0.025 C 
ATOM     10  C   UNL     1       1.316   1.918   0.368  1.00  0.00     0.010 C 
ENDBRANCH   8   9
ENDBRANCH   6   8
BRANCH   6  11
ATOM     11  C   UNL     1      -3.612   2.066   0.925  1.00  0.00     0.364 C 
BRANCH  11  12
ATOM     12  C   UNL     1      -4.196   0.756   0.357  1.00  0.00     0.280 C 
ATOM     13  O   UNL     1      -5.092   0.150   0.960  1.00  0.00    -0.268 OA
ATOM     14  N   UNL     1      -3.685   0.200  -0.784  1.00  0.00    -0.303 N 
ATOM     15  H   UNL     1      -3.803  -0.771  -0.893  1.00  0.00     0.171 HD
BRANCH  14  16
ATOM     16  C   UNL     1      -3.024   0.857  -1.794  1.00  0.00     0.176 A 
ATOM     17  C   UNL     1      -2.010   0.279  -2.591  1.00  0.00     0.095 A 
ATOM     18  N   UNL     1      -3.212   2.141  -2.116  1.00  0.00    -0.062 NA
ATOM     19  C   UNL     1      -1.447   1.352  -3.237  1.00  0.00     0.135 A 
ATOM     20  O   UNL     1      -2.207   2.456  -3.013  1.00  0.00    -0.360 OA
ATOM     21  C   UNL     1      -0.198   1.559  -3.992  1.00  0.00     0.091 C 
ENDBRANCH  14  16
ENDBRANCH  11  12
ENDBRANCH   6  11
ENDBRANCH   5   6
ENDBRANCH   3   5
ENDBRANCH   2   3
ENDBRANCH   1   2
BRANCH   1  22
ATOM     22  C   UNL     1      -2.705  -3.068   1.807  1.00  0.00     0.275 C 
BRANCH  22  23
ATOM     23  O   UNL     1      -1.274  -2.962   1.768  1.00  0.00    -0.458 OA
BRANCH  23  24
ATOM     24  C   UNL     1      -0.770  -2.354   0.674  1.00  0.00     0.338 C 
ATOM     25  O   UNL     1      -1.385  -1.972  -0.314  1.00  0.00    -0.246 OA
BRANCH  24  26
ATOM     26  C   UNL     1       0.682  -2.211   0.824  1.00  0.00     0.060 A 
ATOM     27  C   UNL     1       1.198  -1.207   1.644  1.00  0.00     0.016 A 
ATOM     28  C   UNL     1       1.533  -3.016   0.067  1.00  0.00     0.016 A 
ATOM     29  C   UNL     1       2.572  -0.974   1.672  1.00  0.00     0.010 A 
ATOM     30  C   UNL     1       2.914  -2.814   0.138  1.00  0.00     0.010 A 
ATOM     31  C   UNL     1       3.445  -1.778   0.924  1.00  0.00    -0.014 A 
BRANCH  31  32
ATOM     32  C   UNL     1       4.912  -1.550   0.976  1.00  0.00     0.031 A 
ATOM     33  C   UNL     1       5.660  -1.099  -0.249  1.00  0.00     0.074 A 
ATOM     34  C   UNL     1       5.573  -1.773   2.128  1.00  0.00     0.049 A 
ATOM     35  N   UNL     1       6.950  -0.997  -0.442  1.00  0.00    -0.248 NA
ATOM     36  C   UNL     1       4.846  -0.720  -1.414  1.00  0.00     0.031 C 
ATOM     37  C   UNL     1       4.950  -2.174   3.392  1.00  0.00     0.029 A 
ATOM     38  N   UNL     1       6.911  -1.706   2.423  1.00  0.00    -0.354 N 
ATOM     39  C   UNL     1       7.109  -0.572  -1.757  1.00  0.00     0.074 A 
ATOM     40  C   UNL     1       5.779  -0.448  -2.318  1.00  0.00     0.031 C 
ATOM     41  C   UNL     1       5.902  -2.310   4.326  1.00  0.00     0.029 A 
ATOM     42  C   UNL     1       7.205  -2.080   3.713  1.00  0.00     0.049 A 
ATOM     43  H   UNL     1       7.593  -1.418   1.775  1.00  0.00     0.167 HD
ATOM     44  C   UNL     1       8.260  -0.315  -2.428  1.00  0.00     0.034 A 
ATOM     45  C   UNL     1       8.392  -2.265   4.324  1.00  0.00     0.034 A 
ATOM     46  C   UNL     1       9.576  -0.435  -1.844  1.00  0.00     0.049 A 
ATOM     47  C   UNL     1       9.654  -2.036   3.540  1.00  0.00     0.074 A 
ATOM     48  C   UNL     1      10.807  -0.176  -2.425  1.00  0.00     0.029 A 
ATOM     49  N   UNL     1       9.836  -0.856  -0.545  1.00  0.00    -0.354 N 
ATOM     50  N   UNL     1       9.791  -1.666   2.287  1.00  0.00    -0.248 NA
ATOM     51  C   UNL     1      10.920  -2.255   4.249  1.00  0.00     0.031 C 
ATOM     52  C   UNL     1      11.808  -0.498  -1.501  1.00  0.00     0.029 A 
ATOM     53  C   UNL     1      11.205  -0.894  -0.319  1.00  0.00     0.049 A 
ATOM     54  H   UNL     1       9.149  -1.093   0.118  1.00  0.00     0.167 HD
ATOM     55  C   UNL     1      11.162  -1.596   2.063  1.00  0.00     0.074 A 
ATOM     56  C   UNL     1      11.806  -1.943   3.315  1.00  0.00     0.031 C 
ATOM     57  C   UNL     1      11.829  -1.272   0.927  1.00  0.00     0.034 A 
BRANCH  44  58
ATOM     58  C   UNL     1       8.150   0.063  -3.887  1.00  0.00     0.023 A 
ATOM     59  C   UNL     1       7.553   1.265  -4.305  1.00  0.00     0.031 A 
ATOM     60  C   UNL     1       8.645  -0.805  -4.877  1.00  0.00     0.131 A 
ATOM     61  C   UNL     1       7.417   1.538  -5.676  1.00  0.00     0.055 A 
ATOM     62  C   UNL     1       8.569  -0.495  -6.237  1.00  0.00     0.041 A 
ATOM     63  F   UNL     1       9.204  -1.978  -4.539  1.00  0.00    -0.206 F 
ATOM     64  C   UNL     1       7.942   0.678  -6.644  1.00  0.00     0.022 A 
BRANCH  61  65
ATOM     65  S   UNL     1       6.431   2.975  -6.183  1.00  0.00     0.124 S 
ATOM     66  O   UNL     1       5.139   2.679  -5.566  1.00  0.00    -0.237 OA
ATOM     67  O   UNL     1       7.176   4.088  -5.606  1.00  0.00    -0.237 OA
ATOM     68  O   UNL     1       6.445   2.903  -7.642  1.00  0.00    -0.744 OA
ENDBRANCH  61  65
ENDBRANCH  44  58
BRANCH  45  69
ATOM     69  C   UNL     1       8.437  -2.750   5.731  1.00  0.00     0.023 A 
ATOM     70  C   UNL     1       8.939  -1.942   6.761  1.00  0.00     0.031 A 
ATOM     71  C   UNL     1       7.985  -4.041   6.062  1.00  0.00     0.131 A 
ATOM     72  C   UNL     1       9.001  -2.441   8.071  1.00  0.00     0.055 A 
ATOM     73  C   UNL     1       8.004  -4.515   7.373  1.00  0.00     0.041 A 
ATOM     74  F   UNL     1       7.493  -4.853   5.111  1.00  0.00    -0.206 F 
ATOM     75  C   UNL     1       8.523  -3.716   8.386  1.00  0.00     0.022 A 
BRANCH  72  76
ATOM     76  S   UNL     1       9.776  -1.420   9.353  1.00  0.00     0.124 S 
ATOM     77  O   UNL     1      11.112  -1.214   8.804  1.00  0.00    -0.237 OA
ATOM     78  O   UNL     1       8.904  -0.250   9.376  1.00  0.00    -0.237 OA
ATOM     79  O   UNL     1       9.714  -2.264  10.544  1.00  0.00    -0.744 OA
ENDBRANCH  72  76
ENDBRANCH  45  69
BRANCH  57  80
ATOM     80  C   UNL     1      13.334  -1.255   1.013  1.00  0.00     0.023 A 
ATOM     81  C   UNL     1      14.073  -2.441   1.173  1.00  0.00     0.031 A 
ATOM     82  C   UNL     1      14.032  -0.036   0.979  1.00  0.00     0.131 A 
ATOM     83  C   UNL     1      15.463  -2.377   1.352  1.00  0.00     0.055 A 
ATOM     84  C   UNL     1      15.421   0.017   1.104  1.00  0.00     0.041 A 
ATOM     85  F   UNL     1      13.373   1.124   0.831  1.00  0.00    -0.206 F 
ATOM     86  C   UNL     1      16.142  -1.156   1.306  1.00  0.00     0.022 A 
BRANCH  83  87
ATOM     87  S   UNL     1      16.362  -3.903   1.741  1.00  0.00     0.124 S 
ATOM     88  O   UNL     1      15.709  -4.334   2.974  1.00  0.00    -0.237 OA
ATOM     89  O   UNL     1      16.106  -4.725   0.563  1.00  0.00    -0.237 OA
ATOM     90  O   UNL     1      17.745  -3.457   1.896  1.00  0.00    -0.744 OA
ENDBRANCH  83  87
ENDBRANCH  57  80
ENDBRANCH  31  32
ENDBRANCH  24  26
ENDBRANCH  23  24
ENDBRANCH  22  23
ENDBRANCH   1  22
TORSDOF 20
