REMARK SMILES O=C(Cn1nc(C(=O)OCCOC(=O)c2ccc(-c3c4nc(c(-c5cc(S(=O)(=O)[O-])ccc5F)c5ccc([nH]5)c(-c5cc(S(=O)(=O)[O-])ccc5F)c5nc(c(-c6cc(S(=O)(=O)[O-])ccc6F)c6ccc3[nH]6)C=C5)C=C4)cc2)c2ccccc2c1=O)Nc1ccc2c(c1)C(=O)c1ccccc1C2=O
REMARK SMILES IDX 10 1 9 2 7 3 8 4 6 5 4 6 5 7 84 8 83 9 85 10 78 11 82 12
REMARK SMILES IDX 79 13 81 14 80 15 3 16 2 17 1 18 86 19 87 21 88 22 92 23
REMARK SMILES IDX 89 24 91 25 90 26 93 27 101 28 94 29 95 30 100 31 102 32
REMARK SMILES IDX 96 33 99 34 97 35 98 36 11 37 12 38 13 39 14 40 15 41 16 42
REMARK SMILES IDX 77 43 17 44 76 45 18 46 19 47 20 48 70 49 21 50 75 51 69 52
REMARK SMILES IDX 71 53 22 54 74 55 68 56 67 57 23 59 55 60 35 61 54 62 36 63
REMARK SMILES IDX 39 64 53 65 72 66 37 67 38 68 52 70 73 71 40 72 24 73 25 74
REMARK SMILES IDX 33 75 26 76 32 77 34 78 31 79 27 80 28 81 29 82 30 83 56 84
REMARK SMILES IDX 57 85 65 86 58 87 64 88 66 89 63 90 59 91 60 92 61 93 62 94
REMARK SMILES IDX 41 95 42 96 50 97 43 98 49 99 51 100 48 101 44 102 45 103
REMARK SMILES IDX 46 104 47 105
REMARK H PARENT 86 20 71 58 39 69
REMARK Flexibility Score: inf
ROOT
ATOM      1  C   UNL     1       4.985  -6.005  -3.070  1.00  0.00     0.275 C 
ENDROOT
BRANCH   1   2
ATOM      2  O   UNL     1       4.626  -4.625  -2.839  1.00  0.00    -0.457 OA
BRANCH   2   3
ATOM      3  C   UNL     1       5.632  -3.778  -2.542  1.00  0.00     0.359 C 
ATOM      4  O   UNL     1       6.829  -4.016  -2.558  1.00  0.00    -0.244 OA
BRANCH   3   5
ATOM      5  C   UNL     1       5.101  -2.413  -2.108  1.00  0.00     0.176 A 
ATOM      6  N   UNL     1       3.793  -1.181  -0.656  1.00  0.00    -0.219 N 
ATOM      7  N   UNL     1       4.239  -2.402  -1.127  1.00  0.00    -0.161 NA
ATOM      8  C   UNL     1       4.349   0.034  -1.048  1.00  0.00     0.275 A 
ATOM      9  C   UNL     1       5.102   0.025  -2.303  1.00  0.00     0.051 A 
ATOM     10  O   UNL     1       4.246   1.082  -0.417  1.00  0.00    -0.267 OA
ATOM     11  C   UNL     1       5.576  -1.186  -2.781  1.00  0.00     0.022 A 
ATOM     12  C   UNL     1       5.368   1.226  -2.975  1.00  0.00     0.014 A 
ATOM     13  C   UNL     1       6.443  -1.170  -3.870  1.00  0.00     0.011 A 
ATOM     14  C   UNL     1       6.144   1.215  -4.130  1.00  0.00     0.001 A 
ATOM     15  C   UNL     1       6.707   0.019  -4.560  1.00  0.00     0.001 A 
BRANCH   6  16
ATOM     16  C   UNL     1       2.901  -1.203   0.502  1.00  0.00     0.248 C 
BRANCH  16  17
ATOM     17  C   UNL     1       1.702  -0.274   0.248  1.00  0.00     0.246 C 
ATOM     18  O   UNL     1       0.824  -0.546  -0.567  1.00  0.00    -0.273 OA
ATOM     19  N   UNL     1       1.789   0.928   0.938  1.00  0.00    -0.324 N 
ATOM     20  H   UNL     1       2.178   0.897   1.842  1.00  0.00     0.169 HD
BRANCH  19  21
ATOM     21  C   UNL     1       1.372   2.191   0.461  1.00  0.00     0.042 A 
ATOM     22  C   UNL     1       1.538   3.281   1.333  1.00  0.00     0.027 A 
ATOM     23  C   UNL     1       1.092   2.416  -0.889  1.00  0.00     0.039 A 
ATOM     24  C   UNL     1       1.595   4.585   0.841  1.00  0.00     0.015 A 
ATOM     25  C   UNL     1       1.228   3.713  -1.385  1.00  0.00     0.036 A 
ATOM     26  C   UNL     1       1.554   4.772  -0.537  1.00  0.00     0.034 A 
ATOM     27  C   UNL     1       1.346   3.917  -2.841  1.00  0.00     0.194 C 
ATOM     28  C   UNL     1       2.190   5.976  -1.115  1.00  0.00     0.194 C 
ATOM     29  O   UNL     1       0.619   3.344  -3.635  1.00  0.00    -0.289 OA
ATOM     30  C   UNL     1       2.482   4.759  -3.255  1.00  0.00     0.034 A 
ATOM     31  C   UNL     1       2.930   5.752  -2.380  1.00  0.00     0.034 A 
ATOM     32  O   UNL     1       2.233   7.038  -0.510  1.00  0.00    -0.289 OA
ATOM     33  C   UNL     1       3.208   4.434  -4.400  1.00  0.00     0.013 A 
ATOM     34  C   UNL     1       4.143   6.399  -2.616  1.00  0.00     0.013 A 
ATOM     35  C   UNL     1       4.433   5.063  -4.624  1.00  0.00     0.001 A 
ATOM     36  C   UNL     1       4.905   6.030  -3.728  1.00  0.00     0.001 A 
ENDBRANCH  19  21
ENDBRANCH  16  17
ENDBRANCH   6  16
ENDBRANCH   3   5
ENDBRANCH   2   3
ENDBRANCH   1   2
BRANCH   1  37
ATOM     37  C   UNL     1       4.407  -6.499  -4.395  1.00  0.00     0.275 C 
BRANCH  37  38
ATOM     38  O   UNL     1       5.168  -5.905  -5.458  1.00  0.00    -0.458 OA
BRANCH  38  39
ATOM     39  C   UNL     1       4.524  -5.001  -6.233  1.00  0.00     0.338 C 
ATOM     40  O   UNL     1       3.333  -4.759  -6.264  1.00  0.00    -0.246 OA
BRANCH  39  41
ATOM     41  C   UNL     1       5.547  -4.250  -6.984  1.00  0.00     0.060 A 
ATOM     42  C   UNL     1       5.453  -4.044  -8.354  1.00  0.00     0.016 A 
ATOM     43  C   UNL     1       6.572  -3.647  -6.266  1.00  0.00     0.016 A 
ATOM     44  C   UNL     1       6.417  -3.249  -8.997  1.00  0.00     0.010 A 
ATOM     45  C   UNL     1       7.422  -2.734  -6.887  1.00  0.00     0.010 A 
ATOM     46  C   UNL     1       7.394  -2.534  -8.270  1.00  0.00    -0.014 A 
BRANCH  46  47
ATOM     47  C   UNL     1       8.363  -1.587  -8.925  1.00  0.00     0.031 A 
ATOM     48  C   UNL     1       9.845  -1.588  -8.580  1.00  0.00     0.074 A 
ATOM     49  C   UNL     1       7.916  -0.649  -9.791  1.00  0.00     0.049 A 
ATOM     50  N   UNL     1      10.796  -0.796  -9.017  1.00  0.00    -0.248 NA
ATOM     51  C   UNL     1      10.312  -2.541  -7.560  1.00  0.00     0.031 C 
ATOM     52  C   UNL     1       6.511  -0.400 -10.117  1.00  0.00     0.029 A 
ATOM     53  N   UNL     1       8.594   0.260 -10.573  1.00  0.00    -0.354 N 
ATOM     54  C   UNL     1      11.938  -1.126  -8.289  1.00  0.00     0.074 A 
ATOM     55  C   UNL     1      11.533  -2.098  -7.303  1.00  0.00     0.031 C 
ATOM     56  C   UNL     1       6.437   0.506 -11.101  1.00  0.00     0.029 A 
ATOM     57  C   UNL     1       7.784   0.958 -11.443  1.00  0.00     0.049 A 
ATOM     58  H   UNL     1       9.567   0.399 -10.516  1.00  0.00     0.167 HD
ATOM     59  C   UNL     1      13.222  -0.725  -8.464  1.00  0.00     0.034 A 
ATOM     60  C   UNL     1       8.079   1.839 -12.423  1.00  0.00     0.034 A 
ATOM     61  C   UNL     1      13.644   0.146  -9.530  1.00  0.00     0.049 A 
ATOM     62  C   UNL     1       9.522   2.184 -12.695  1.00  0.00     0.074 A 
ATOM     63  C   UNL     1      14.934   0.510  -9.874  1.00  0.00     0.029 A 
ATOM     64  N   UNL     1      12.799   0.756 -10.444  1.00  0.00    -0.354 N 
ATOM     65  N   UNL     1      10.598   1.765 -12.073  1.00  0.00    -0.248 NA
ATOM     66  C   UNL     1       9.798   3.107 -13.806  1.00  0.00     0.031 C 
ATOM     67  C   UNL     1      14.867   1.374 -10.966  1.00  0.00     0.029 A 
ATOM     68  C   UNL     1      13.541   1.496 -11.349  1.00  0.00     0.049 A 
ATOM     69  H   UNL     1      11.818   0.675 -10.450  1.00  0.00     0.167 HD
ATOM     70  C   UNL     1      11.676   2.347 -12.735  1.00  0.00     0.074 A 
ATOM     71  C   UNL     1      11.125   3.132 -13.818  1.00  0.00     0.031 C 
ATOM     72  C   UNL     1      12.999   2.242 -12.459  1.00  0.00     0.034 A 
BRANCH  59  73
ATOM     73  C   UNL     1      14.297  -1.288  -7.557  1.00  0.00     0.023 A 
ATOM     74  C   UNL     1      15.121  -0.426  -6.806  1.00  0.00     0.031 A 
ATOM     75  C   UNL     1      14.595  -2.664  -7.536  1.00  0.00     0.131 A 
ATOM     76  C   UNL     1      16.206  -0.948  -6.087  1.00  0.00     0.055 A 
ATOM     77  C   UNL     1      15.637  -3.185  -6.769  1.00  0.00     0.041 A 
ATOM     78  F   UNL     1      13.860  -3.533  -8.251  1.00  0.00    -0.206 F 
ATOM     79  C   UNL     1      16.457  -2.323  -6.050  1.00  0.00     0.022 A 
BRANCH  76  80
ATOM     80  S   UNL     1      17.384   0.138  -5.234  1.00  0.00     0.124 S 
ATOM     81  O   UNL     1      17.256  -0.312  -3.849  1.00  0.00    -0.237 OA
ATOM     82  O   UNL     1      18.644  -0.208  -5.887  1.00  0.00    -0.237 OA
ATOM     83  O   UNL     1      16.881   1.480  -5.500  1.00  0.00    -0.744 OA
ENDBRANCH  76  80
ENDBRANCH  59  73
BRANCH  60  84
ATOM     84  C   UNL     1       6.977   2.349 -13.294  1.00  0.00     0.023 A 
ATOM     85  C   UNL     1       5.929   3.125 -12.772  1.00  0.00     0.031 A 
ATOM     86  C   UNL     1       6.897   1.952 -14.642  1.00  0.00     0.131 A 
ATOM     87  C   UNL     1       4.814   3.415 -13.570  1.00  0.00     0.055 A 
ATOM     88  C   UNL     1       5.819   2.308 -15.454  1.00  0.00     0.041 A 
ATOM     89  F   UNL     1       7.865   1.196 -15.182  1.00  0.00    -0.206 F 
ATOM     90  C   UNL     1       4.760   3.028 -14.912  1.00  0.00     0.022 A 
BRANCH  87  91
ATOM     91  S   UNL     1       3.332   4.178 -12.852  1.00  0.00     0.124 S 
ATOM     92  O   UNL     1       3.195   5.390 -13.654  1.00  0.00    -0.237 OA
ATOM     93  O   UNL     1       2.325   3.146 -13.087  1.00  0.00    -0.237 OA
ATOM     94  O   UNL     1       3.697   4.384 -11.454  1.00  0.00    -0.744 OA
ENDBRANCH  87  91
ENDBRANCH  60  84
BRANCH  72  95
ATOM     95  C   UNL     1      13.999   2.955 -13.337  1.00  0.00     0.023 A 
ATOM     96  C   UNL     1      14.967   2.207 -14.037  1.00  0.00     0.031 A 
ATOM     97  C   UNL     1      14.127   4.353 -13.315  1.00  0.00     0.131 A 
ATOM     98  C   UNL     1      16.056   2.857 -14.630  1.00  0.00     0.055 A 
ATOM     99  C   UNL     1      15.186   5.000 -13.954  1.00  0.00     0.041 A 
ATOM    100  F   UNL     1      13.239   5.109 -12.650  1.00  0.00    -0.206 F 
ATOM    101  C   UNL     1      16.167   4.250 -14.598  1.00  0.00     0.022 A 
BRANCH  98 102
ATOM    102  S   UNL     1      17.423   1.913 -15.361  1.00  0.00     0.124 S 
ATOM    103  O   UNL     1      17.430   2.406 -16.736  1.00  0.00    -0.237 OA
ATOM    104  O   UNL     1      18.557   2.333 -14.542  1.00  0.00    -0.237 OA
ATOM    105  O   UNL     1      17.015   0.521 -15.203  1.00  0.00    -0.744 OA
ENDBRANCH  98 102
ENDBRANCH  72  95
ENDBRANCH  46  47
ENDBRANCH  39  41
ENDBRANCH  38  39
ENDBRANCH  37  38
ENDBRANCH   1  37
TORSDOF 17
