REMARK SMILES COc1cccc(N(CC(=O)OCCOC(=O)c2ccc(-c3c4nc(c(-c5cc(S(=O)(=O)[O-])ccc5F)c5ccc([nH]5)c(-c5cc(S(=O)(=O)[O-])ccc5F)c5nc(c(-c6cc(S(=O)(=O)[O-])ccc6F)c6ccc3[nH]6)C=C5)C=C4)cc2)S(=O)(=O)c2ccc(C)cc2)c1
REMARK SMILES IDX 13 1 12 2 10 3 11 4 9 5 8 6 7 7 3 8 4 9 91 10 5 11 6 12 2 13
REMARK SMILES IDX 1 14 81 15 82 16 83 17 84 18 85 19 90 20 86 21 89 22 87 23
REMARK SMILES IDX 88 24 14 25 15 26 16 27 17 28 18 29 19 30 80 31 20 32 79 33
REMARK SMILES IDX 21 34 22 35 23 36 73 37 24 38 78 39 72 40 74 41 25 42 77 43
REMARK SMILES IDX 71 44 70 45 26 47 58 48 38 49 57 50 39 51 42 52 56 53 75 54
REMARK SMILES IDX 40 55 41 56 55 58 76 59 43 60 27 61 28 62 36 63 29 64 35 65
REMARK SMILES IDX 37 66 34 67 30 68 31 69 32 70 33 71 59 72 60 73 68 74 61 75
REMARK SMILES IDX 67 76 69 77 66 78 62 79 63 80 64 81 65 82 44 83 45 84 53 85
REMARK SMILES IDX 46 86 52 87 54 88 51 89 47 90 48 91 49 92 50 93
REMARK H PARENT 74 46 42 57
REMARK Flexibility Score: inf
ROOT
ATOM      1  C   UNL     1       4.873   6.445  -2.997  1.00  0.00     0.274 C 
ENDROOT
BRANCH   1   2
ATOM      2  O   UNL     1       4.600   5.042  -2.774  1.00  0.00    -0.461 OA
BRANCH   2   3
ATOM      3  C   UNL     1       4.492   4.266  -3.887  1.00  0.00     0.326 C 
ATOM      4  O   UNL     1       4.426   4.716  -5.029  1.00  0.00    -0.250 OA
BRANCH   3   5
ATOM      5  C   UNL     1       4.589   2.775  -3.616  1.00  0.00     0.258 C 
BRANCH   5   6
ATOM      6  N   UNL     1       3.959   2.276  -2.351  1.00  0.00    -0.255 N 
BRANCH   6   7
ATOM      7  C   UNL     1       2.515   1.926  -2.509  1.00  0.00     0.056 A 
ATOM      8  C   UNL     1       0.507   0.688  -1.820  1.00  0.00     0.120 A 
ATOM      9  C   UNL     1      -0.248   1.332  -2.792  1.00  0.00     0.046 A 
ATOM     10  C   UNL     1       1.870   0.984  -1.694  1.00  0.00     0.073 A 
ATOM     11  C   UNL     1       0.340   2.319  -3.573  1.00  0.00     0.006 A 
ATOM     12  C   UNL     1       1.695   2.635  -3.406  1.00  0.00     0.027 A 
BRANCH   8  13
ATOM     13  O   UNL     1      -0.171  -0.225  -1.055  1.00  0.00    -0.497 OA
ATOM     14  C   UNL     1       0.426  -0.532   0.204  1.00  0.00     0.278 C 
ENDBRANCH   8  13
ENDBRANCH   6   7
BRANCH   6  15
ATOM     15  S   UNL     1       4.923   1.018  -1.595  1.00  0.00     0.264 S 
ATOM     16  O   UNL     1       4.465   0.848  -0.228  1.00  0.00    -0.201 OA
ATOM     17  O   UNL     1       4.915  -0.103  -2.516  1.00  0.00    -0.201 OA
BRANCH  15  18
ATOM     18  C   UNL     1       6.608   1.570  -1.446  1.00  0.00     0.088 A 
ATOM     19  C   UNL     1       7.608   0.969  -2.218  1.00  0.00     0.022 A 
ATOM     20  C   UNL     1       6.950   2.481  -0.442  1.00  0.00     0.022 A 
ATOM     21  C   UNL     1       8.943   1.339  -2.032  1.00  0.00     0.005 A 
ATOM     22  C   UNL     1       8.290   2.859  -0.276  1.00  0.00     0.005 A 
ATOM     23  C   UNL     1       9.291   2.313  -1.089  1.00  0.00    -0.051 A 
ATOM     24  C   UNL     1      10.718   2.758  -0.949  1.00  0.00     0.044 C 
ENDBRANCH  15  18
ENDBRANCH   6  15
ENDBRANCH   5   6
ENDBRANCH   3   5
ENDBRANCH   2   3
ENDBRANCH   1   2
BRANCH   1  25
ATOM     25  C   UNL     1       6.364   6.785  -2.826  1.00  0.00     0.275 C 
BRANCH  25  26
ATOM     26  O   UNL     1       7.199   6.183  -3.841  1.00  0.00    -0.458 OA
BRANCH  26  27
ATOM     27  C   UNL     1       7.530   4.913  -3.527  1.00  0.00     0.338 C 
ATOM     28  O   UNL     1       7.144   4.320  -2.538  1.00  0.00    -0.246 OA
BRANCH  27  29
ATOM     29  C   UNL     1       8.350   4.209  -4.509  1.00  0.00     0.060 A 
ATOM     30  C   UNL     1       7.720   3.368  -5.433  1.00  0.00     0.016 A 
ATOM     31  C   UNL     1       9.727   4.141  -4.300  1.00  0.00     0.016 A 
ATOM     32  C   UNL     1       8.469   2.433  -6.140  1.00  0.00     0.010 A 
ATOM     33  C   UNL     1      10.482   3.231  -5.037  1.00  0.00     0.010 A 
ATOM     34  C   UNL     1       9.857   2.373  -5.959  1.00  0.00    -0.014 A 
BRANCH  34  35
ATOM     35  C   UNL     1      10.696   1.600  -6.897  1.00  0.00     0.031 A 
ATOM     36  C   UNL     1      11.331   0.299  -6.523  1.00  0.00     0.074 A 
ATOM     37  C   UNL     1      10.953   2.193  -8.076  1.00  0.00     0.049 A 
ATOM     38  N   UNL     1      12.264  -0.372  -7.146  1.00  0.00    -0.248 NA
ATOM     39  C   UNL     1      10.866  -0.328  -5.282  1.00  0.00     0.031 C 
ATOM     40  C   UNL     1      10.356   3.457  -8.523  1.00  0.00     0.029 A 
ATOM     41  N   UNL     1      11.805   1.847  -9.085  1.00  0.00    -0.354 N 
ATOM     42  C   UNL     1      12.524  -1.489  -6.358  1.00  0.00     0.074 A 
ATOM     43  C   UNL     1      11.656  -1.392  -5.202  1.00  0.00     0.031 C 
ATOM     44  C   UNL     1      10.896   3.803  -9.697  1.00  0.00     0.029 A 
ATOM     45  C   UNL     1      11.903   2.815 -10.054  1.00  0.00     0.049 A 
ATOM     46  H   UNL     1      12.297   0.995  -9.115  1.00  0.00     0.167 HD
ATOM     47  C   UNL     1      13.405  -2.494  -6.599  1.00  0.00     0.034 A 
ATOM     48  C   UNL     1      12.750   2.923 -11.089  1.00  0.00     0.034 A 
ATOM     49  C   UNL     1      14.221  -2.562  -7.793  1.00  0.00     0.049 A 
ATOM     50  C   UNL     1      13.745   1.829 -11.311  1.00  0.00     0.074 A 
ATOM     51  C   UNL     1      15.061  -3.580  -8.212  1.00  0.00     0.029 A 
ATOM     52  N   UNL     1      14.306  -1.562  -8.756  1.00  0.00    -0.354 N 
ATOM     53  N   UNL     1      13.970   0.765 -10.577  1.00  0.00    -0.248 NA
ATOM     54  C   UNL     1      14.583   1.942 -12.506  1.00  0.00     0.031 C 
ATOM     55  C   UNL     1      15.698  -3.169  -9.390  1.00  0.00     0.029 A 
ATOM     56  C   UNL     1      15.213  -1.920  -9.744  1.00  0.00     0.049 A 
ATOM     57  H   UNL     1      13.796  -0.720  -8.739  1.00  0.00     0.167 HD
ATOM     58  C   UNL     1      14.968   0.061 -11.235  1.00  0.00     0.074 A 
ATOM     59  C   UNL     1      15.295   0.827 -12.426  1.00  0.00     0.031 C 
ATOM     60  C   UNL     1      15.550  -1.118 -10.897  1.00  0.00     0.034 A 
BRANCH  47  61
ATOM     61  C   UNL     1      13.567  -3.570  -5.549  1.00  0.00     0.023 A 
ATOM     62  C   UNL     1      12.525  -4.445  -5.197  1.00  0.00     0.031 A 
ATOM     63  C   UNL     1      14.802  -3.726  -4.889  1.00  0.00     0.131 A 
ATOM     64  C   UNL     1      12.717  -5.396  -4.179  1.00  0.00     0.055 A 
ATOM     65  C   UNL     1      15.007  -4.716  -3.925  1.00  0.00     0.041 A 
ATOM     66  F   UNL     1      15.832  -2.911  -5.168  1.00  0.00    -0.206 F 
ATOM     67  C   UNL     1      13.958  -5.551  -3.556  1.00  0.00     0.022 A 
BRANCH  64  68
ATOM     68  S   UNL     1      11.288  -6.348  -3.593  1.00  0.00     0.124 S 
ATOM     69  O   UNL     1      10.363  -5.286  -3.209  1.00  0.00    -0.237 OA
ATOM     70  O   UNL     1      10.922  -7.121  -4.774  1.00  0.00    -0.237 OA
ATOM     71  O   UNL     1      11.828  -7.127  -2.480  1.00  0.00    -0.744 OA
ENDBRANCH  64  68
ENDBRANCH  47  61
BRANCH  48  72
ATOM     72  C   UNL     1      12.677   4.124 -11.954  1.00  0.00     0.023 A 
ATOM     73  C   UNL     1      12.097   4.050 -13.226  1.00  0.00     0.031 A 
ATOM     74  C   UNL     1      13.098   5.379 -11.479  1.00  0.00     0.131 A 
ATOM     75  C   UNL     1      11.952   5.216 -13.989  1.00  0.00     0.055 A 
ATOM     76  C   UNL     1      12.929   6.540 -12.232  1.00  0.00     0.041 A 
ATOM     77  F   UNL     1      13.630   5.497 -10.252  1.00  0.00    -0.206 F 
ATOM     78  C   UNL     1      12.354   6.462 -13.497  1.00  0.00     0.022 A 
BRANCH  75  79
ATOM     79  S   UNL     1      11.222   5.080 -15.641  1.00  0.00     0.124 S 
ATOM     80  O   UNL     1      12.142   4.159 -16.300  1.00  0.00    -0.237 OA
ATOM     81  O   UNL     1       9.893   4.555 -15.342  1.00  0.00    -0.237 OA
ATOM     82  O   UNL     1      11.249   6.453 -16.139  1.00  0.00    -0.744 OA
ENDBRANCH  75  79
ENDBRANCH  48  72
BRANCH  60  83
ATOM     83  C   UNL     1      16.580  -1.638 -11.862  1.00  0.00     0.023 A 
ATOM     84  C   UNL     1      17.827  -1.007 -12.006  1.00  0.00     0.031 A 
ATOM     85  C   UNL     1      16.280  -2.727 -12.697  1.00  0.00     0.131 A 
ATOM     86  C   UNL     1      18.705  -1.428 -13.014  1.00  0.00     0.055 A 
ATOM     87  C   UNL     1      17.182  -3.178 -13.660  1.00  0.00     0.041 A 
ATOM     88  F   UNL     1      15.098  -3.357 -12.601  1.00  0.00    -0.206 F 
ATOM     89  C   UNL     1      18.396  -2.518 -13.833  1.00  0.00     0.022 A 
BRANCH  86  90
ATOM     90  S   UNL     1      20.211  -0.463 -13.309  1.00  0.00     0.124 S 
ATOM     91  O   UNL     1      19.667   0.845 -13.661  1.00  0.00    -0.237 OA
ATOM     92  O   UNL     1      20.893  -0.544 -12.021  1.00  0.00    -0.237 OA
ATOM     93  O   UNL     1      20.867  -1.177 -14.403  1.00  0.00    -0.744 OA
ENDBRANCH  86  90
ENDBRANCH  60  83
ENDBRANCH  34  35
ENDBRANCH  27  29
ENDBRANCH  26  27
ENDBRANCH  25  26
ENDBRANCH   1  25
TORSDOF 19
