REMARK SMILES C[C@@H](CC(=O)OCCOC(=O)c1ccc(-c2c3nc(c(-c4cc(S(=O)(=O)[O-])ccc4F)c4ccc([nH]4)c(-c4cc(S(=O)(=O)[O-])ccc4F)c4nc(c(-c5cc(S(=O)(=O)[O-])ccc5F)c5ccc2[nH]5)C=C4)C=C3)cc1)NC(=O)CN(C)c1ncccn1
REMARK SMILES IDX 7 1 6 2 4 3 5 4 3 5 2 6 1 7 75 8 76 9 77 11 78 12 79 13
REMARK SMILES IDX 80 14 81 15 82 16 86 17 83 18 85 19 84 20 8 21 9 22 10 23
REMARK SMILES IDX 11 24 12 25 13 26 74 27 14 28 73 29 15 30 16 31 17 32 67 33
REMARK SMILES IDX 18 34 72 35 66 36 68 37 19 38 71 39 65 40 64 41 20 43 52 44
REMARK SMILES IDX 32 45 51 46 33 47 36 48 50 49 69 50 34 51 35 52 49 54 70 55
REMARK SMILES IDX 37 56 21 57 22 58 30 59 23 60 29 61 31 62 28 63 24 64 25 65
REMARK SMILES IDX 26 66 27 67 53 68 54 69 62 70 55 71 61 72 63 73 60 74 56 75
REMARK SMILES IDX 57 76 58 77 59 78 38 79 39 80 47 81 40 82 46 83 48 84 45 85
REMARK SMILES IDX 41 86 42 87 43 88 44 89
REMARK H PARENT 75 10 68 42 36 53
REMARK Flexibility Score: inf
ROOT
ATOM      1  C   UNL     1       0.410   3.187   2.680  1.00  0.00     0.274 C 
ENDROOT
BRANCH   1   2
ATOM      2  O   UNL     1       0.738   1.941   2.030  1.00  0.00    -0.462 OA
BRANCH   2   3
ATOM      3  C   UNL     1       1.188   0.950   2.837  1.00  0.00     0.307 C 
ATOM      4  O   UNL     1       1.330   1.062   4.051  1.00  0.00    -0.252 OA
BRANCH   3   5
ATOM      5  C   UNL     1       1.635  -0.291   2.101  1.00  0.00     0.147 C 
BRANCH   5   6
ATOM      6  C   UNL     1       0.886  -0.755   0.847  1.00  0.00     0.090 C 
ATOM      7  C   UNL     1       1.101   0.144  -0.366  1.00  0.00     0.031 C 
BRANCH   6   8
ATOM      8  N   UNL     1      -0.532  -0.979   1.075  1.00  0.00    -0.352 N 
ATOM      9  C   UNL     1      -1.300  -2.096   0.880  1.00  0.00     0.239 C 
ATOM     10  H   UNL     1      -1.020  -0.201   1.429  1.00  0.00     0.163 HD
ATOM     11  O   UNL     1      -2.483  -2.043   1.231  1.00  0.00    -0.273 OA
BRANCH   9  12
ATOM     12  C   UNL     1      -0.681  -3.409   0.388  1.00  0.00     0.219 C 
BRANCH  12  13
ATOM     13  N   UNL     1       0.134  -3.302  -0.828  1.00  0.00    -0.335 N 
ATOM     14  C   UNL     1       1.322  -4.119  -0.944  1.00  0.00     0.147 C 
BRANCH  13  15
ATOM     15  C   UNL     1      -0.512  -2.952  -2.000  1.00  0.00     0.225 A 
ATOM     16  N   UNL     1       0.062  -3.251  -3.180  1.00  0.00    -0.221 NA
ATOM     17  N   UNL     1      -1.683  -2.308  -1.923  1.00  0.00    -0.221 NA
ATOM     18  C   UNL     1      -0.608  -2.920  -4.301  1.00  0.00     0.117 A 
ATOM     19  C   UNL     1      -2.315  -1.983  -3.064  1.00  0.00     0.117 A 
ATOM     20  C   UNL     1      -1.817  -2.274  -4.304  1.00  0.00     0.040 A 
ENDBRANCH  13  15
ENDBRANCH  12  13
ENDBRANCH   9  12
ENDBRANCH   6   8
ENDBRANCH   5   6
ENDBRANCH   3   5
ENDBRANCH   2   3
ENDBRANCH   1   2
BRANCH   1  21
ATOM     21  C   UNL     1      -1.092   3.356   2.930  1.00  0.00     0.275 C 
BRANCH  21  22
ATOM     22  O   UNL     1      -1.603   2.395   3.872  1.00  0.00    -0.458 OA
BRANCH  22  23
ATOM     23  C   UNL     1      -2.062   1.260   3.293  1.00  0.00     0.338 C 
ATOM     24  O   UNL     1      -2.083   1.029   2.096  1.00  0.00    -0.246 OA
BRANCH  23  25
ATOM     25  C   UNL     1      -2.410   0.253   4.309  1.00  0.00     0.060 A 
ATOM     26  C   UNL     1      -1.611  -0.889   4.402  1.00  0.00     0.016 A 
ATOM     27  C   UNL     1      -3.585   0.357   5.054  1.00  0.00     0.016 A 
ATOM     28  C   UNL     1      -2.006  -1.956   5.202  1.00  0.00     0.010 A 
ATOM     29  C   UNL     1      -3.971  -0.710   5.875  1.00  0.00     0.010 A 
ATOM     30  C   UNL     1      -3.199  -1.885   5.930  1.00  0.00    -0.014 A 
BRANCH  30  31
ATOM     31  C   UNL     1      -3.674  -3.084   6.667  1.00  0.00     0.031 A 
ATOM     32  C   UNL     1      -4.827  -3.883   6.122  1.00  0.00     0.074 A 
ATOM     33  C   UNL     1      -3.047  -3.480   7.790  1.00  0.00     0.049 A 
ATOM     34  N   UNL     1      -5.439  -4.917   6.642  1.00  0.00    -0.248 NA
ATOM     35  C   UNL     1      -5.364  -3.454   4.823  1.00  0.00     0.031 C 
ATOM     36  C   UNL     1      -1.887  -2.815   8.387  1.00  0.00     0.029 A 
ATOM     37  N   UNL     1      -3.293  -4.539   8.627  1.00  0.00    -0.354 N 
ATOM     38  C   UNL     1      -6.453  -5.247   5.748  1.00  0.00     0.074 A 
ATOM     39  C   UNL     1      -6.383  -4.287   4.666  1.00  0.00     0.031 C 
ATOM     40  C   UNL     1      -1.520  -3.486   9.492  1.00  0.00     0.029 A 
ATOM     41  C   UNL     1      -2.441  -4.599   9.705  1.00  0.00     0.049 A 
ATOM     42  H   UNL     1      -4.011  -5.194   8.471  1.00  0.00     0.167 HD
ATOM     43  C   UNL     1      -7.355  -6.258   5.825  1.00  0.00     0.034 A 
ATOM     44  C   UNL     1      -2.421  -5.441  10.757  1.00  0.00     0.034 A 
ATOM     45  C   UNL     1      -7.399  -7.218   6.903  1.00  0.00     0.049 A 
ATOM     46  C   UNL     1      -3.446  -6.543  10.832  1.00  0.00     0.074 A 
ATOM     47  C   UNL     1      -8.276  -8.275   7.085  1.00  0.00     0.029 A 
ATOM     48  N   UNL     1      -6.524  -7.243   7.983  1.00  0.00    -0.354 N 
ATOM     49  N   UNL     1      -4.425  -6.820  10.001  1.00  0.00    -0.248 NA
ATOM     50  C   UNL     1      -3.356  -7.453  11.981  1.00  0.00     0.031 C 
ATOM     51  C   UNL     1      -7.961  -8.907   8.295  1.00  0.00     0.029 A 
ATOM     52  C   UNL     1      -6.848  -8.287   8.837  1.00  0.00     0.049 A 
ATOM     53  H   UNL     1      -5.782  -6.611   8.121  1.00  0.00     0.167 HD
ATOM     54  C   UNL     1      -5.050  -7.952  10.516  1.00  0.00     0.074 A 
ATOM     55  C   UNL     1      -4.328  -8.314  11.719  1.00  0.00     0.031 C 
ATOM     56  C   UNL     1      -6.122  -8.633  10.037  1.00  0.00     0.034 A 
BRANCH  43  57
ATOM     57  C   UNL     1      -8.404  -6.329   4.741  1.00  0.00     0.023 A 
ATOM     58  C   UNL     1      -8.079  -6.615   3.403  1.00  0.00     0.031 A 
ATOM     59  C   UNL     1      -9.752  -6.071   5.051  1.00  0.00     0.131 A 
ATOM     60  C   UNL     1      -9.077  -6.571   2.416  1.00  0.00     0.055 A 
ATOM     61  C   UNL     1     -10.751  -6.099   4.076  1.00  0.00     0.041 A 
ATOM     62  F   UNL     1     -10.119  -5.774   6.307  1.00  0.00    -0.206 F 
ATOM     63  C   UNL     1     -10.414  -6.336   2.747  1.00  0.00     0.022 A 
BRANCH  60  64
ATOM     64  S   UNL     1      -8.591  -6.708   0.673  1.00  0.00     0.124 S 
ATOM     65  O   UNL     1      -7.727  -5.541   0.514  1.00  0.00    -0.237 OA
ATOM     66  O   UNL     1      -7.928  -8.006   0.629  1.00  0.00    -0.237 OA
ATOM     67  O   UNL     1      -9.862  -6.634  -0.045  1.00  0.00    -0.744 OA
ENDBRANCH  60  64
ENDBRANCH  43  57
BRANCH  44  68
ATOM     68  C   UNL     1      -1.422  -5.260  11.847  1.00  0.00     0.023 A 
ATOM     69  C   UNL     1      -0.427  -6.220  12.090  1.00  0.00     0.031 A 
ATOM     70  C   UNL     1      -1.481  -4.138  12.694  1.00  0.00     0.131 A 
ATOM     71  C   UNL     1       0.442  -6.062  13.181  1.00  0.00     0.055 A 
ATOM     72  C   UNL     1      -0.584  -3.963  13.748  1.00  0.00     0.041 A 
ATOM     73  F   UNL     1      -2.412  -3.191  12.502  1.00  0.00    -0.206 F 
ATOM     74  C   UNL     1       0.378  -4.936  14.004  1.00  0.00     0.022 A 
BRANCH  71  75
ATOM     75  S   UNL     1       1.616  -7.394  13.556  1.00  0.00     0.124 S 
ATOM     76  O   UNL     1       0.724  -8.529  13.762  1.00  0.00    -0.237 OA
ATOM     77  O   UNL     1       2.431  -7.429  12.346  1.00  0.00    -0.237 OA
ATOM     78  O   UNL     1       2.304  -6.915  14.753  1.00  0.00    -0.744 OA
ENDBRANCH  71  75
ENDBRANCH  44  68
BRANCH  56  79
ATOM     79  C   UNL     1      -6.534  -9.871  10.794  1.00  0.00     0.023 A 
ATOM     80  C   UNL     1      -7.081  -9.803  12.088  1.00  0.00     0.031 A 
ATOM     81  C   UNL     1      -6.342 -11.141  10.222  1.00  0.00     0.131 A 
ATOM     82  C   UNL     1      -7.361 -10.985  12.791  1.00  0.00     0.055 A 
ATOM     83  C   UNL     1      -6.671 -12.312  10.905  1.00  0.00     0.041 A 
ATOM     84  F   UNL     1      -5.821 -11.264   8.990  1.00  0.00    -0.206 F 
ATOM     85  C   UNL     1      -7.170 -12.239  12.203  1.00  0.00     0.022 A 
BRANCH  82  86
ATOM     86  S   UNL     1      -7.883 -10.868  14.524  1.00  0.00     0.124 S 
ATOM     87  O   UNL     1      -6.800 -10.090  15.118  1.00  0.00    -0.237 OA
ATOM     88  O   UNL     1      -9.170 -10.190  14.416  1.00  0.00    -0.237 OA
ATOM     89  O   UNL     1      -7.952 -12.263  14.957  1.00  0.00    -0.744 OA
ENDBRANCH  82  86
ENDBRANCH  56  79
ENDBRANCH  30  31
ENDBRANCH  23  25
ENDBRANCH  22  23
ENDBRANCH  21  22
ENDBRANCH   1  21
TORSDOF 19
