REMARK SMILES C[C@H](c1ccccc1)N1C(=O)c2ccc(C(=O)OCCOC(=O)c3ccc(-c4c5nc(c(-c6cc(S(=O)(=O)[O-])ccc6F)c6ccc([nH]6)c(-c6cc(S(=O)(=O)[O-])ccc6F)c6nc(c(-c7cc(S(=O)(=O)[O-])ccc7F)c7ccc4[nH]7)C=C6)C=C5)cc3)cc2C1=O
REMARK SMILES IDX 20 1 19 2 18 3 16 4 17 5 15 6 9 7 10 8 89 9 11 10 12 11
REMARK SMILES IDX 88 12 90 13 13 14 87 15 14 16 2 17 1 18 3 19 4 20 8 21 5 22
REMARK SMILES IDX 7 23 6 24 21 25 22 26 23 27 24 28 25 29 86 30 26 31 85 32
REMARK SMILES IDX 27 33 28 34 29 35 79 36 30 37 84 38 78 39 80 40 31 41 83 42
REMARK SMILES IDX 77 43 76 44 32 46 64 47 44 48 63 49 45 50 48 51 62 52 81 53
REMARK SMILES IDX 46 54 47 55 61 57 82 58 49 59 33 60 34 61 42 62 35 63 41 64
REMARK SMILES IDX 43 65 40 66 36 67 37 68 38 69 39 70 65 71 66 72 74 73 67 74
REMARK SMILES IDX 73 75 75 76 72 77 68 78 69 79 70 80 71 81 50 82 51 83 59 84
REMARK SMILES IDX 52 85 58 86 60 87 57 88 53 89 54 90 55 91 56 92
REMARK H PARENT 80 45 48 56
REMARK Flexibility Score: inf
ROOT
ATOM      1  C   UNL     1      -9.856  -1.498  -2.195  1.00  0.00     0.275 C 
ENDROOT
BRANCH   1   2
ATOM      2  C   UNL     1      -9.095  -0.180  -2.260  1.00  0.00     0.275 C 
BRANCH   2   3
ATOM      3  O   UNL     1      -7.687  -0.469  -2.337  1.00  0.00    -0.458 OA
BRANCH   3   4
ATOM      4  C   UNL     1      -6.895   0.264  -1.525  1.00  0.00     0.338 C 
ATOM      5  O   UNL     1      -7.227   1.205  -0.824  1.00  0.00    -0.246 OA
BRANCH   4   6
ATOM      6  C   UNL     1      -5.502  -0.222  -1.614  1.00  0.00     0.060 A 
ATOM      7  N   UNL     1      -0.924  -0.014  -1.506  1.00  0.00    -0.267 N 
ATOM      8  C   UNL     1      -1.455  -1.274  -1.553  1.00  0.00     0.262 C 
ATOM      9  C   UNL     1      -1.901   0.942  -1.573  1.00  0.00     0.262 C 
ATOM     10  O   UNL     1      -0.906  -2.354  -1.642  1.00  0.00    -0.269 OA
ATOM     11  C   UNL     1      -2.904  -1.117  -1.562  1.00  0.00     0.053 A 
ATOM     12  C   UNL     1      -3.179   0.238  -1.568  1.00  0.00     0.054 A 
ATOM     13  O   UNL     1      -1.802   2.151  -1.682  1.00  0.00    -0.269 OA
ATOM     14  C   UNL     1      -3.898  -2.071  -1.595  1.00  0.00     0.015 A 
ATOM     15  C   UNL     1      -4.471   0.724  -1.579  1.00  0.00     0.030 A 
ATOM     16  C   UNL     1      -5.215  -1.609  -1.652  1.00  0.00     0.016 A 
BRANCH   7  17
ATOM     17  C   UNL     1       0.500   0.303  -1.450  1.00  0.00     0.121 C 
ATOM     18  C   UNL     1       1.309  -0.420  -2.533  1.00  0.00     0.037 C 
BRANCH  17  19
ATOM     19  C   UNL     1       1.070   0.108  -0.050  1.00  0.00    -0.025 A 
ATOM     20  C   UNL     1       1.122  -1.158   0.560  1.00  0.00     0.006 A 
ATOM     21  C   UNL     1       1.536   1.212   0.683  1.00  0.00     0.006 A 
ATOM     22  C   UNL     1       1.597  -1.314   1.863  1.00  0.00     0.000 A 
ATOM     23  C   UNL     1       2.027   1.052   1.983  1.00  0.00     0.000 A 
ATOM     24  C   UNL     1       2.050  -0.208   2.575  1.00  0.00     0.000 A 
ENDBRANCH  17  19
ENDBRANCH   7  17
ENDBRANCH   4   6
ENDBRANCH   3   4
ENDBRANCH   2   3
ENDBRANCH   1   2
BRANCH   1  25
ATOM     25  O   UNL     1      -9.433  -2.225  -1.023  1.00  0.00    -0.458 OA
BRANCH  25  26
ATOM     26  C   UNL     1      -8.781  -3.383  -1.276  1.00  0.00     0.338 C 
ATOM     27  O   UNL     1      -8.591  -3.900  -2.365  1.00  0.00    -0.246 OA
BRANCH  26  28
ATOM     28  C   UNL     1      -8.252  -3.966  -0.033  1.00  0.00     0.060 A 
ATOM     29  C   UNL     1      -7.224  -3.318   0.648  1.00  0.00     0.016 A 
ATOM     30  C   UNL     1      -8.630  -5.259   0.330  1.00  0.00     0.016 A 
ATOM     31  C   UNL     1      -6.482  -4.021   1.598  1.00  0.00     0.010 A 
ATOM     32  C   UNL     1      -7.962  -5.911   1.374  1.00  0.00     0.010 A 
ATOM     33  C   UNL     1      -6.840  -5.326   1.985  1.00  0.00    -0.014 A 
BRANCH  33  34
ATOM     34  C   UNL     1      -6.014  -6.072   2.988  1.00  0.00     0.031 A 
ATOM     35  C   UNL     1      -5.424  -7.428   2.662  1.00  0.00     0.074 A 
ATOM     36  C   UNL     1      -5.757  -5.521   4.193  1.00  0.00     0.049 A 
ATOM     37  N   UNL     1      -4.774  -8.260   3.439  1.00  0.00    -0.248 NA
ATOM     38  C   UNL     1      -5.610  -7.924   1.290  1.00  0.00     0.031 C 
ATOM     39  C   UNL     1      -6.257  -4.223   4.652  1.00  0.00     0.029 A 
ATOM     40  N   UNL     1      -4.994  -5.966   5.245  1.00  0.00    -0.354 N 
ATOM     41  C   UNL     1      -4.518  -9.392   2.669  1.00  0.00     0.074 A 
ATOM     42  C   UNL     1      -5.108  -9.148   1.369  1.00  0.00     0.031 C 
ATOM     43  C   UNL     1      -5.733  -3.946   5.854  1.00  0.00     0.029 A 
ATOM     44  C   UNL     1      -4.939  -5.084   6.301  1.00  0.00     0.049 A 
ATOM     45  H   UNL     1      -4.529  -6.834   5.244  1.00  0.00     0.167 HD
ATOM     46  C   UNL     1      -3.849 -10.525   3.008  1.00  0.00     0.034 A 
ATOM     47  C   UNL     1      -4.350  -5.183   7.510  1.00  0.00     0.034 A 
ATOM     48  C   UNL     1      -3.222 -10.743   4.292  1.00  0.00     0.049 A 
ATOM     49  C   UNL     1      -3.600  -6.440   7.855  1.00  0.00     0.074 A 
ATOM     50  C   UNL     1      -2.518 -11.852   4.734  1.00  0.00     0.029 A 
ATOM     51  N   UNL     1      -3.203  -9.828   5.337  1.00  0.00    -0.354 N 
ATOM     52  N   UNL     1      -3.425  -7.522   7.132  1.00  0.00    -0.248 NA
ATOM     53  C   UNL     1      -2.975  -6.491   9.182  1.00  0.00     0.031 C 
ATOM     54  C   UNL     1      -2.120 -11.628   6.058  1.00  0.00     0.029 A 
ATOM     55  C   UNL     1      -2.513 -10.352   6.422  1.00  0.00     0.049 A 
ATOM     56  H   UNL     1      -3.619  -8.936   5.312  1.00  0.00     0.167 HD
ATOM     57  C   UNL     1      -2.671  -8.384   7.922  1.00  0.00     0.074 A 
ATOM     58  C   UNL     1      -2.387  -7.677   9.155  1.00  0.00     0.031 C 
ATOM     59  C   UNL     1      -2.263  -9.652   7.660  1.00  0.00     0.034 A 
BRANCH  46  60
ATOM     60  C   UNL     1      -3.800 -11.641   1.987  1.00  0.00     0.023 A 
ATOM     61  C   UNL     1      -3.132 -11.503   0.758  1.00  0.00     0.031 A 
ATOM     62  C   UNL     1      -4.448 -12.864   2.245  1.00  0.00     0.131 A 
ATOM     63  C   UNL     1      -3.183 -12.538  -0.190  1.00  0.00     0.055 A 
ATOM     64  C   UNL     1      -4.428 -13.920   1.331  1.00  0.00     0.041 A 
ATOM     65  F   UNL     1      -5.119 -13.053   3.392  1.00  0.00    -0.206 F 
ATOM     66  C   UNL     1      -3.805 -13.755   0.098  1.00  0.00     0.022 A 
BRANCH  63  67
ATOM     67  S   UNL     1      -2.540 -12.224  -1.857  1.00  0.00     0.124 S 
ATOM     68  O   UNL     1      -3.365 -11.096  -2.283  1.00  0.00    -0.237 OA
ATOM     69  O   UNL     1      -1.135 -11.930  -1.603  1.00  0.00    -0.237 OA
ATOM     70  O   UNL     1      -2.797 -13.476  -2.566  1.00  0.00    -0.744 OA
ENDBRANCH  63  67
ENDBRANCH  46  60
BRANCH  47  71
ATOM     71  C   UNL     1      -4.497  -4.083   8.508  1.00  0.00     0.023 A 
ATOM     72  C   UNL     1      -3.385  -3.358   8.963  1.00  0.00     0.031 A 
ATOM     73  C   UNL     1      -5.758  -3.763   9.043  1.00  0.00     0.131 A 
ATOM     74  C   UNL     1      -3.551  -2.374   9.951  1.00  0.00     0.055 A 
ATOM     75  C   UNL     1      -5.926  -2.744   9.980  1.00  0.00     0.041 A 
ATOM     76  F   UNL     1      -6.855  -4.426   8.642  1.00  0.00    -0.206 F 
ATOM     77  C   UNL     1      -4.816  -2.050  10.449  1.00  0.00     0.022 A 
BRANCH  74  78
ATOM     78  S   UNL     1      -2.075  -1.577  10.641  1.00  0.00     0.124 S 
ATOM     79  O   UNL     1      -1.321  -2.723  11.136  1.00  0.00    -0.237 OA
ATOM     80  O   UNL     1      -1.521  -0.901   9.473  1.00  0.00    -0.237 OA
ATOM     81  O   UNL     1      -2.616  -0.693  11.671  1.00  0.00    -0.744 OA
ENDBRANCH  74  78
ENDBRANCH  47  71
BRANCH  59  82
ATOM     82  C   UNL     1      -1.454 -10.334   8.736  1.00  0.00     0.023 A 
ATOM     83  C   UNL     1      -2.019 -10.655   9.984  1.00  0.00     0.031 A 
ATOM     84  C   UNL     1      -0.091 -10.609   8.537  1.00  0.00     0.131 A 
ATOM     85  C   UNL     1      -1.207 -11.159  11.010  1.00  0.00     0.055 A 
ATOM     86  C   UNL     1       0.699 -11.169   9.542  1.00  0.00     0.041 A 
ATOM     87  F   UNL     1       0.501 -10.322   7.366  1.00  0.00    -0.206 F 
ATOM     88  C   UNL     1       0.146 -11.430  10.793  1.00  0.00     0.022 A 
BRANCH  85  89
ATOM     89  S   UNL     1      -1.915 -11.338  12.671  1.00  0.00     0.124 S 
ATOM     90  O   UNL     1      -2.405  -9.990  12.940  1.00  0.00    -0.237 OA
ATOM     91  O   UNL     1      -2.937 -12.359  12.466  1.00  0.00    -0.237 OA
ATOM     92  O   UNL     1      -0.776 -11.757  13.486  1.00  0.00    -0.744 OA
ENDBRANCH  85  89
ENDBRANCH  59  82
ENDBRANCH  33  34
ENDBRANCH  26  28
ENDBRANCH  25  26
ENDBRANCH   1  25
TORSDOF 16
