REMARK SMILES O=C(OCCOC(=O)c1cc(S(=O)(=O)Nc2ccccc2-n2cc(Br)cn2)c[nH]1)c1ccc(-c2c3nc(c(-c4cc(S(=O)(=O)[O-])ccc4F)c4ccc([nH]4)c(-c4cc(S(=O)(=O)[O-])ccc4F)c4nc(c(-c5cc(S(=O)(=O)[O-])ccc5F)c5ccc2[nH]5)C=C4)C=C3)cc1
REMARK SMILES IDX 5 1 4 2 3 3 2 4 1 5 30 6 31 7 92 8 32 9 91 10 33 11 34 12
REMARK SMILES IDX 35 13 85 14 36 15 90 16 84 17 86 18 37 19 89 20 83 21 82 22
REMARK SMILES IDX 38 24 70 25 50 26 69 27 51 28 54 29 68 30 87 31 52 32 53 33
REMARK SMILES IDX 67 35 88 36 55 37 39 38 40 39 48 40 41 41 47 42 49 43 46 44
REMARK SMILES IDX 42 45 43 46 44 47 45 48 71 49 72 50 80 51 73 52 79 53 81 54
REMARK SMILES IDX 78 55 74 56 75 57 76 58 77 59 56 60 57 61 65 62 58 63 64 64
REMARK SMILES IDX 66 65 63 66 59 67 60 68 61 69 62 70 6 71 7 72 8 73 9 74
REMARK SMILES IDX 10 75 29 76 11 77 28 78 12 80 13 81 14 82 15 83 16 85 17 86
REMARK SMILES IDX 21 87 18 88 20 89 19 90 22 91 23 92 27 93 24 94 26 95 25 96
REMARK H PARENT 86 23 54 34 29 79 15 84
REMARK Flexibility Score: inf
ROOT
ATOM      1  C   UNL     1       4.862  -1.442  -0.028  1.00  0.00     0.275 C 
ENDROOT
BRANCH   1   2
ATOM      2  C   UNL     1       4.491  -0.587   1.190  1.00  0.00     0.275 C 
BRANCH   2   3
ATOM      3  O   UNL     1       3.062  -0.420   1.319  1.00  0.00    -0.458 OA
BRANCH   3   4
ATOM      4  C   UNL     1       2.281   0.411   0.589  1.00  0.00     0.338 C 
ATOM      5  O   UNL     1       1.159   0.067   0.224  1.00  0.00    -0.246 OA
BRANCH   4   6
ATOM      6  C   UNL     1       2.669   1.825   0.372  1.00  0.00     0.060 A 
ATOM      7  C   UNL     1       3.917   2.241  -0.093  1.00  0.00     0.016 A 
ATOM      8  C   UNL     1       1.645   2.776   0.540  1.00  0.00     0.016 A 
ATOM      9  C   UNL     1       4.166   3.592  -0.300  1.00  0.00     0.010 A 
ATOM     10  C   UNL     1       1.879   4.127   0.296  1.00  0.00     0.010 A 
ATOM     11  C   UNL     1       3.150   4.535  -0.111  1.00  0.00    -0.014 A 
BRANCH  11  12
ATOM     12  C   UNL     1       3.454   5.935  -0.476  1.00  0.00     0.031 A 
ATOM     13  C   UNL     1       3.498   6.133  -1.999  1.00  0.00     0.074 A 
ATOM     14  C   UNL     1       3.771   6.782   0.548  1.00  0.00     0.049 A 
ATOM     15  N   UNL     1       4.338   6.804  -2.727  1.00  0.00    -0.248 NA
ATOM     16  C   UNL     1       2.556   5.352  -2.845  1.00  0.00     0.031 C 
ATOM     17  C   UNL     1       3.684   6.434   1.986  1.00  0.00     0.029 A 
ATOM     18  N   UNL     1       4.242   8.077   0.610  1.00  0.00    -0.354 N 
ATOM     19  C   UNL     1       3.902   6.714  -4.071  1.00  0.00     0.074 A 
ATOM     20  C   UNL     1       2.903   5.686  -4.091  1.00  0.00     0.031 C 
ATOM     21  C   UNL     1       4.147   7.442   2.757  1.00  0.00     0.029 A 
ATOM     22  C   UNL     1       4.578   8.537   1.911  1.00  0.00     0.049 A 
ATOM     23  H   UNL     1       4.338   8.641  -0.191  1.00  0.00     0.167 HD
ATOM     24  C   UNL     1       4.284   7.595  -5.046  1.00  0.00     0.034 A 
ATOM     25  C   UNL     1       5.211   9.692   2.288  1.00  0.00     0.034 A 
ATOM     26  C   UNL     1       5.139   8.590  -4.487  1.00  0.00     0.049 A 
ATOM     27  C   UNL     1       5.441  10.438   1.040  1.00  0.00     0.074 A 
ATOM     28  C   UNL     1       6.446   8.619  -4.088  1.00  0.00     0.029 A 
ATOM     29  N   UNL     1       4.533   9.760  -4.090  1.00  0.00    -0.354 N 
ATOM     30  N   UNL     1       4.532  11.074   0.367  1.00  0.00    -0.248 NA
ATOM     31  C   UNL     1       6.787  10.415   0.450  1.00  0.00     0.031 C 
ATOM     32  C   UNL     1       6.479   9.623  -3.095  1.00  0.00     0.029 A 
ATOM     33  C   UNL     1       5.213  10.214  -2.990  1.00  0.00     0.049 A 
ATOM     34  H   UNL     1       3.757  10.190  -4.517  1.00  0.00     0.167 HD
ATOM     35  C   UNL     1       5.134  11.267  -0.853  1.00  0.00     0.074 A 
ATOM     36  C   UNL     1       6.557  11.156  -0.630  1.00  0.00     0.031 C 
ATOM     37  C   UNL     1       4.465  10.957  -1.992  1.00  0.00     0.034 A 
BRANCH  24  38
ATOM     38  C   UNL     1       3.805   7.872  -6.457  1.00  0.00     0.023 A 
ATOM     39  C   UNL     1       4.602   8.765  -7.226  1.00  0.00     0.031 A 
ATOM     40  C   UNL     1       2.536   7.588  -6.974  1.00  0.00     0.131 A 
ATOM     41  C   UNL     1       4.096   9.439  -8.345  1.00  0.00     0.055 A 
ATOM     42  C   UNL     1       2.056   8.206  -8.142  1.00  0.00     0.041 A 
ATOM     43  F   UNL     1       1.680   6.780  -6.335  1.00  0.00    -0.206 F 
ATOM     44  C   UNL     1       2.818   9.164  -8.811  1.00  0.00     0.022 A 
BRANCH  41  45
ATOM     45  S   UNL     1       5.074  10.802  -9.046  1.00  0.00     0.124 S 
ATOM     46  O   UNL     1       5.289  11.659  -7.885  1.00  0.00    -0.237 OA
ATOM     47  O   UNL     1       6.253  10.106  -9.551  1.00  0.00    -0.237 OA
ATOM     48  O   UNL     1       4.196  11.358 -10.073  1.00  0.00    -0.744 OA
ENDBRANCH  41  45
ENDBRANCH  24  38
BRANCH  25  49
ATOM     49  C   UNL     1       5.788  10.302   3.556  1.00  0.00     0.023 A 
ATOM     50  C   UNL     1       5.554   9.857   4.868  1.00  0.00     0.031 A 
ATOM     51  C   UNL     1       6.670  11.425   3.461  1.00  0.00     0.131 A 
ATOM     52  C   UNL     1       6.225  10.464   5.966  1.00  0.00     0.055 A 
ATOM     53  C   UNL     1       7.375  11.973   4.532  1.00  0.00     0.041 A 
ATOM     54  F   UNL     1       6.897  12.063   2.306  1.00  0.00    -0.206 F 
ATOM     55  C   UNL     1       7.165  11.483   5.798  1.00  0.00     0.022 A 
BRANCH  52  56
ATOM     56  S   UNL     1       5.916   9.936   7.678  1.00  0.00     0.124 S 
ATOM     57  O   UNL     1       4.902  10.893   8.110  1.00  0.00    -0.237 OA
ATOM     58  O   UNL     1       5.470   8.555   7.523  1.00  0.00    -0.237 OA
ATOM     59  O   UNL     1       7.226  10.091   8.309  1.00  0.00    -0.744 OA
ENDBRANCH  52  56
ENDBRANCH  25  49
BRANCH  37  60
ATOM     60  C   UNL     1       2.945  10.998  -1.847  1.00  0.00     0.023 A 
ATOM     61  C   UNL     1       2.289  12.185  -1.471  1.00  0.00     0.031 A 
ATOM     62  C   UNL     1       2.133   9.853  -1.942  1.00  0.00     0.131 A 
ATOM     63  C   UNL     1       0.907  12.188  -1.190  1.00  0.00     0.055 A 
ATOM     64  C   UNL     1       0.759   9.854  -1.684  1.00  0.00     0.041 A 
ATOM     65  F   UNL     1       2.656   8.675  -2.271  1.00  0.00    -0.206 F 
ATOM     66  C   UNL     1       0.137  11.029  -1.298  1.00  0.00     0.022 A 
BRANCH  63  67
ATOM     67  S   UNL     1       0.103  13.735  -0.688  1.00  0.00     0.124 S 
ATOM     68  O   UNL     1       0.633  13.951   0.653  1.00  0.00    -0.237 OA
ATOM     69  O   UNL     1       0.553  14.672  -1.713  1.00  0.00    -0.237 OA
ATOM     70  O   UNL     1      -1.323  13.412  -0.743  1.00  0.00    -0.744 OA
ENDBRANCH  63  67
ENDBRANCH  37  60
ENDBRANCH  11  12
ENDBRANCH   4   6
ENDBRANCH   3   4
ENDBRANCH   2   3
ENDBRANCH   1   2
BRANCH   1  71
ATOM     71  O   UNL     1       4.538  -0.785  -1.264  1.00  0.00    -0.457 OA
BRANCH  71  72
ATOM     72  C   UNL     1       3.335  -1.125  -1.802  1.00  0.00     0.354 C 
ATOM     73  O   UNL     1       2.589  -1.993  -1.365  1.00  0.00    -0.244 OA
BRANCH  72  74
ATOM     74  C   UNL     1       3.030  -0.260  -2.906  1.00  0.00     0.126 A 
ATOM     75  C   UNL     1       3.812   0.095  -3.992  1.00  0.00     0.057 A 
ATOM     76  N   UNL     1       1.788   0.309  -3.099  1.00  0.00    -0.354 N 
ATOM     77  C   UNL     1       2.933   0.633  -4.971  1.00  0.00     0.106 A 
ATOM     78  C   UNL     1       1.717   0.853  -4.357  1.00  0.00     0.105 A 
ATOM     79  H   UNL     1       1.062   0.322  -2.434  1.00  0.00     0.166 HD
BRANCH  77  80
ATOM     80  S   UNL     1       3.326   0.780  -6.649  1.00  0.00     0.263 S 
ATOM     81  O   UNL     1       2.235   1.533  -7.241  1.00  0.00    -0.201 OA
ATOM     82  O   UNL     1       4.691   1.237  -6.687  1.00  0.00    -0.201 OA
BRANCH  80  83
ATOM     83  N   UNL     1       3.289  -0.774  -7.388  1.00  0.00    -0.277 N 
ATOM     84  H   UNL     1       2.856  -0.925  -8.259  1.00  0.00     0.180 HD
BRANCH  83  85
ATOM     85  C   UNL     1       3.925  -1.841  -6.660  1.00  0.00     0.075 A 
ATOM     86  C   UNL     1       5.321  -1.950  -6.764  1.00  0.00     0.029 A 
ATOM     87  C   UNL     1       3.237  -2.638  -5.721  1.00  0.00     0.089 A 
ATOM     88  C   UNL     1       6.034  -2.825  -5.942  1.00  0.00     0.002 A 
ATOM     89  C   UNL     1       3.975  -3.499  -4.883  1.00  0.00     0.030 A 
ATOM     90  C   UNL     1       5.363  -3.593  -4.996  1.00  0.00     0.002 A 
BRANCH  87  91
ATOM     91  N   UNL     1       1.826  -2.568  -5.523  1.00  0.00    -0.238 N 
ATOM     92  C   UNL     1       0.855  -2.014  -6.332  1.00  0.00     0.130 A 
ATOM     93  N   UNL     1       1.269  -3.070  -4.382  1.00  0.00    -0.175 NA
ATOM     94  C   UNL     1      -0.281  -1.944  -5.574  1.00  0.00     0.056 A 
ATOM     95  C   UNL     1       0.025  -2.584  -4.375  1.00  0.00     0.151 A 
ATOM     96  Br  UNL     1      -1.911  -1.156  -6.014  1.00  0.00    -0.047 Br
ENDBRANCH  87  91
ENDBRANCH  83  85
ENDBRANCH  80  83
ENDBRANCH  77  80
ENDBRANCH  72  74
ENDBRANCH  71  72
ENDBRANCH   1  71
TORSDOF 18
