REMARK SMILES O=C(OCCOC(=O)c1cccc(N2NC(=O)[C@H]3CC=CC[C@H]3C2=O)c1)c1ccc(-c2c3nc(c(-c4cc(S(=O)(=O)[O-])ccc4F)c4ccc([nH]4)c(-c4cc(S(=O)(=O)[O-])ccc4F)c4nc(c(-c5cc(S(=O)(=O)[O-])ccc5F)c5ccc2[nH]5)C=C4)C=C3)cc1
REMARK SMILES IDX 4 1 3 2 2 3 1 4 27 5 28 6 89 7 29 8 88 9 30 10 31 11 32 12
REMARK SMILES IDX 82 13 33 14 87 15 81 16 83 17 34 18 86 19 80 20 79 21 35 23
REMARK SMILES IDX 67 24 47 25 66 26 48 27 51 28 65 29 84 30 49 31 50 32 64 34
REMARK SMILES IDX 85 35 52 36 36 37 37 38 45 39 38 40 44 41 46 42 43 43 39 44
REMARK SMILES IDX 40 45 41 46 42 47 68 48 69 49 77 50 70 51 76 52 78 53 75 54
REMARK SMILES IDX 71 55 72 56 73 57 74 58 53 59 54 60 62 61 55 62 61 63 63 64
REMARK SMILES IDX 60 65 56 66 57 67 58 68 59 69 5 70 6 71 7 72 8 73 9 74 10 75
REMARK SMILES IDX 26 76 11 77 13 78 12 79 14 80 15 81 24 82 16 83 23 85 25 86
REMARK SMILES IDX 17 87 18 88 22 89 19 90 21 91 20 92
REMARK H PARENT 83 22 51 33 15 84
REMARK Flexibility Score: inf
ROOT
ATOM      1  C   UNL     1       4.020  -0.536  -1.510  1.00  0.00     0.275 C 
ENDROOT
BRANCH   1   2
ATOM      2  O   UNL     1       2.893  -0.904  -0.694  1.00  0.00    -0.458 OA
BRANCH   2   3
ATOM      3  C   UNL     1       2.669  -0.721   0.629  1.00  0.00     0.338 C 
ATOM      4  O   UNL     1       1.679  -1.258   1.127  1.00  0.00    -0.246 OA
BRANCH   3   5
ATOM      5  C   UNL     1       3.467   0.205   1.498  1.00  0.00     0.060 A 
ATOM      6  C   UNL     1       4.807   0.551   1.320  1.00  0.00     0.016 A 
ATOM      7  C   UNL     1       2.793   0.756   2.607  1.00  0.00     0.016 A 
ATOM      8  C   UNL     1       5.443   1.447   2.184  1.00  0.00     0.010 A 
ATOM      9  C   UNL     1       3.418   1.667   3.466  1.00  0.00     0.010 A 
ATOM     10  C   UNL     1       4.760   1.999   3.269  1.00  0.00    -0.014 A 
BRANCH  10  11
ATOM     11  C   UNL     1       5.534   2.729   4.300  1.00  0.00     0.031 A 
ATOM     12  C   UNL     1       5.936   1.972   5.539  1.00  0.00     0.074 A 
ATOM     13  C   UNL     1       5.962   3.987   4.084  1.00  0.00     0.049 A 
ATOM     14  N   UNL     1       6.705   2.343   6.529  1.00  0.00    -0.248 NA
ATOM     15  C   UNL     1       5.423   0.596   5.662  1.00  0.00     0.031 C 
ATOM     16  C   UNL     1       5.697   4.789   2.887  1.00  0.00     0.029 A 
ATOM     17  N   UNL     1       6.726   4.811   4.867  1.00  0.00    -0.354 N 
ATOM     18  C   UNL     1       6.801   1.236   7.366  1.00  0.00     0.074 A 
ATOM     19  C   UNL     1       5.951   0.207   6.810  1.00  0.00     0.031 C 
ATOM     20  C   UNL     1       6.263   6.002   3.032  1.00  0.00     0.029 A 
ATOM     21  C   UNL     1       6.927   6.060   4.328  1.00  0.00     0.049 A 
ATOM     22  H   UNL     1       7.097   4.535   5.736  1.00  0.00     0.167 HD
ATOM     23  C   UNL     1       7.557   1.079   8.480  1.00  0.00     0.034 A 
ATOM     24  C   UNL     1       7.570   7.123   4.844  1.00  0.00     0.034 A 
ATOM     25  C   UNL     1       8.357   2.136   9.046  1.00  0.00     0.049 A 
ATOM     26  C   UNL     1       8.253   6.977   6.177  1.00  0.00     0.074 A 
ATOM     27  C   UNL     1       9.162   2.109  10.170  1.00  0.00     0.029 A 
ATOM     28  N   UNL     1       8.427   3.427   8.537  1.00  0.00    -0.354 N 
ATOM     29  N   UNL     1       8.326   5.931   6.963  1.00  0.00    -0.248 NA
ATOM     30  C   UNL     1       8.965   8.163   6.668  1.00  0.00     0.031 C 
ATOM     31  C   UNL     1       9.663   3.400  10.378  1.00  0.00     0.029 A 
ATOM     32  C   UNL     1       9.233   4.213   9.342  1.00  0.00     0.049 A 
ATOM     33  H   UNL     1       7.969   3.737   7.722  1.00  0.00     0.167 HD
ATOM     34  C   UNL     1       9.127   6.322   8.030  1.00  0.00     0.074 A 
ATOM     35  C   UNL     1       9.498   7.703   7.787  1.00  0.00     0.031 C 
ATOM     36  C   UNL     1       9.548   5.600   9.099  1.00  0.00     0.034 A 
BRANCH  23  37
ATOM     37  C   UNL     1       7.500  -0.266   9.163  1.00  0.00     0.023 A 
ATOM     38  C   UNL     1       7.945  -1.437   8.520  1.00  0.00     0.031 A 
ATOM     39  C   UNL     1       6.935  -0.393  10.443  1.00  0.00     0.131 A 
ATOM     40  C   UNL     1       7.743  -2.688   9.123  1.00  0.00     0.055 A 
ATOM     41  C   UNL     1       6.808  -1.634  11.070  1.00  0.00     0.041 A 
ATOM     42  F   UNL     1       6.471   0.684  11.095  1.00  0.00    -0.206 F 
ATOM     43  C   UNL     1       7.197  -2.793  10.404  1.00  0.00     0.022 A 
BRANCH  40  44
ATOM     44  S   UNL     1       8.063  -4.185   8.148  1.00  0.00     0.124 S 
ATOM     45  O   UNL     1       7.164  -3.997   7.011  1.00  0.00    -0.237 OA
ATOM     46  O   UNL     1       9.488  -4.076   7.859  1.00  0.00    -0.237 OA
ATOM     47  O   UNL     1       7.692  -5.271   9.053  1.00  0.00    -0.744 OA
ENDBRANCH  40  44
ENDBRANCH  23  37
BRANCH  24  48
ATOM     48  C   UNL     1       7.578   8.451   4.178  1.00  0.00     0.023 A 
ATOM     49  C   UNL     1       8.682   8.899   3.438  1.00  0.00     0.031 A 
ATOM     50  C   UNL     1       6.547   9.361   4.460  1.00  0.00     0.131 A 
ATOM     51  C   UNL     1       8.740  10.243   3.031  1.00  0.00     0.055 A 
ATOM     52  C   UNL     1       6.600  10.687   4.031  1.00  0.00     0.041 A 
ATOM     53  F   UNL     1       5.499   8.984   5.205  1.00  0.00    -0.206 F 
ATOM     54  C   UNL     1       7.699  11.134   3.308  1.00  0.00     0.022 A 
BRANCH  51  55
ATOM     55  S   UNL     1      10.235  10.852   2.204  1.00  0.00     0.124 S 
ATOM     56  O   UNL     1      11.174  10.931   3.317  1.00  0.00    -0.237 OA
ATOM     57  O   UNL     1      10.493   9.807   1.219  1.00  0.00    -0.237 OA
ATOM     58  O   UNL     1       9.811  12.135   1.647  1.00  0.00    -0.744 OA
ENDBRANCH  51  55
ENDBRANCH  24  48
BRANCH  36  59
ATOM     59  C   UNL     1      10.495   6.298  10.037  1.00  0.00     0.023 A 
ATOM     60  C   UNL     1      10.085   7.382  10.829  1.00  0.00     0.031 A 
ATOM     61  C   UNL     1      11.847   5.913  10.077  1.00  0.00     0.131 A 
ATOM     62  C   UNL     1      11.035   8.096  11.572  1.00  0.00     0.055 A 
ATOM     63  C   UNL     1      12.774   6.583  10.873  1.00  0.00     0.041 A 
ATOM     64  F   UNL     1      12.290   4.891   9.328  1.00  0.00    -0.206 F 
ATOM     65  C   UNL     1      12.373   7.693  11.613  1.00  0.00     0.022 A 
BRANCH  62  66
ATOM     66  S   UNL     1      10.524   9.637  12.379  1.00  0.00     0.124 S 
ATOM     67  O   UNL     1      10.038  10.422  11.248  1.00  0.00    -0.237 OA
ATOM     68  O   UNL     1       9.507   9.175  13.318  1.00  0.00    -0.237 OA
ATOM     69  O   UNL     1      11.756  10.128  12.992  1.00  0.00    -0.744 OA
ENDBRANCH  62  66
ENDBRANCH  36  59
ENDBRANCH  10  11
ENDBRANCH   3   5
ENDBRANCH   2   3
ENDBRANCH   1   2
BRANCH   1  70
ATOM     70  C   UNL     1       3.962   0.884  -2.080  1.00  0.00     0.275 C 
BRANCH  70  71
ATOM     71  O   UNL     1       3.483   1.854  -1.139  1.00  0.00    -0.458 OA
BRANCH  71  72
ATOM     72  C   UNL     1       2.151   2.122  -1.224  1.00  0.00     0.338 C 
ATOM     73  O   UNL     1       1.372   1.705  -2.053  1.00  0.00    -0.246 OA
BRANCH  72  74
ATOM     74  C   UNL     1       1.738   2.900  -0.038  1.00  0.00     0.062 A 
ATOM     75  C   UNL     1       0.658   2.415   0.706  1.00  0.00     0.016 A 
ATOM     76  C   UNL     1       2.396   4.074   0.343  1.00  0.00     0.044 A 
ATOM     77  C   UNL     1       0.286   3.061   1.881  1.00  0.00     0.003 A 
ATOM     78  C   UNL     1       1.995   4.753   1.506  1.00  0.00     0.067 A 
ATOM     79  C   UNL     1       0.962   4.212   2.287  1.00  0.00     0.028 A 
BRANCH  78  80
ATOM     80  N   UNL     1       2.538   6.038   1.819  1.00  0.00    -0.221 N 
ATOM     81  N   UNL     1       2.649   6.915   0.737  1.00  0.00    -0.260 N 
ATOM     82  C   UNL     1       2.702   6.476   3.135  1.00  0.00     0.249 C 
ATOM     83  C   UNL     1       2.841   8.258   0.849  1.00  0.00     0.243 C 
ATOM     84  H   UNL     1       2.584   6.536  -0.169  1.00  0.00     0.192 HD
ATOM     85  C   UNL     1       2.903   7.966   3.354  1.00  0.00     0.097 C 
ATOM     86  O   UNL     1       2.592   5.735   4.116  1.00  0.00    -0.272 OA
ATOM     87  O   UNL     1       2.630   8.970  -0.130  1.00  0.00    -0.273 OA
ATOM     88  C   UNL     1       3.431   8.742   2.148  1.00  0.00     0.097 C 
ATOM     89  C   UNL     1       1.575   8.487   3.925  1.00  0.00     0.041 C 
ATOM     90  C   UNL     1       3.314  10.271   2.282  1.00  0.00     0.041 C 
ATOM     91  C   UNL     1       1.385   9.964   3.841  1.00  0.00    -0.030 C 
ATOM     92  C   UNL     1       2.167  10.763   3.109  1.00  0.00    -0.030 C 
ENDBRANCH  78  80
ENDBRANCH  72  74
ENDBRANCH  71  72
ENDBRANCH  70  71
ENDBRANCH   1  70
TORSDOF 15
