REMARK SMILES O=C(OCCOC(=O)c1c(-c2ccc(Cl)cc2)noc1CO[C@@H]1CCCCO1)c1ccc(-c2c3nc(c(-c4cc(S(=O)(=O)[O-])ccc4F)c4ccc([nH]4)c(-c4cc(S(=O)(=O)[O-])ccc4F)c4nc(c(-c5cc(S(=O)(=O)[O-])ccc5F)c5ccc2[nH]5)C=C4)C=C3)cc1
REMARK SMILES IDX 4 1 3 2 2 3 1 4 29 5 30 6 91 7 31 8 90 9 32 10 33 11 34 12
REMARK SMILES IDX 84 13 35 14 89 15 83 16 85 17 36 18 88 19 82 20 81 21 37 23
REMARK SMILES IDX 69 24 49 25 68 26 50 27 53 28 67 29 86 30 51 31 52 32 66 34
REMARK SMILES IDX 87 35 54 36 38 37 39 38 47 39 40 40 46 41 48 42 45 43 41 44
REMARK SMILES IDX 42 45 43 46 44 47 70 48 71 49 79 50 72 51 78 52 80 53 77 54
REMARK SMILES IDX 73 55 74 56 75 57 76 58 55 59 56 60 64 61 57 62 63 63 65 64
REMARK SMILES IDX 62 65 58 66 59 67 60 68 61 69 5 70 6 71 7 72 8 73 9 74 10 75
REMARK SMILES IDX 20 76 18 77 19 78 11 79 12 80 17 81 13 82 16 83 14 84 15 85
REMARK SMILES IDX 21 86 22 87 23 88 24 89 28 90 25 91 27 92 26 93
REMARK H PARENT 85 22 53 33
REMARK Flexibility Score: inf
ROOT
ATOM      1  C   UNL     1       5.079  -1.811   0.642  1.00  0.00     0.275 C 
ENDROOT
BRANCH   1   2
ATOM      2  O   UNL     1       5.454  -0.438   0.658  1.00  0.00    -0.458 OA
BRANCH   2   3
ATOM      3  C   UNL     1       4.465   0.453   0.896  1.00  0.00     0.338 C 
ATOM      4  O   UNL     1       3.483   0.266   1.591  1.00  0.00    -0.246 OA
BRANCH   3   5
ATOM      5  C   UNL     1       4.635   1.557  -0.086  1.00  0.00     0.060 A 
ATOM      6  C   UNL     1       5.594   1.433  -1.106  1.00  0.00     0.016 A 
ATOM      7  C   UNL     1       3.744   2.634  -0.098  1.00  0.00     0.016 A 
ATOM      8  C   UNL     1       5.693   2.388  -2.100  1.00  0.00     0.010 A 
ATOM      9  C   UNL     1       3.798   3.564  -1.135  1.00  0.00     0.010 A 
ATOM     10  C   UNL     1       4.812   3.469  -2.102  1.00  0.00    -0.014 A 
BRANCH  10  11
ATOM     11  C   UNL     1       5.183   4.641  -2.915  1.00  0.00     0.031 A 
ATOM     12  C   UNL     1       5.812   5.785  -2.184  1.00  0.00     0.074 A 
ATOM     13  C   UNL     1       5.044   4.628  -4.250  1.00  0.00     0.049 A 
ATOM     14  N   UNL     1       6.190   6.948  -2.631  1.00  0.00    -0.248 NA
ATOM     15  C   UNL     1       5.987   5.609  -0.733  1.00  0.00     0.031 C 
ATOM     16  C   UNL     1       4.433   3.545  -5.011  1.00  0.00     0.029 A 
ATOM     17  N   UNL     1       5.411   5.534  -5.205  1.00  0.00    -0.354 N 
ATOM     18  C   UNL     1       6.588   7.660  -1.506  1.00  0.00     0.074 A 
ATOM     19  C   UNL     1       6.336   6.824  -0.357  1.00  0.00     0.031 C 
ATOM     20  C   UNL     1       4.497   3.823  -6.321  1.00  0.00     0.029 A 
ATOM     21  C   UNL     1       5.101   5.138  -6.486  1.00  0.00     0.049 A 
ATOM     22  H   UNL     1       5.853   6.388  -4.996  1.00  0.00     0.167 HD
ATOM     23  C   UNL     1       7.136   8.896  -1.452  1.00  0.00     0.034 A 
ATOM     24  C   UNL     1       5.266   5.790  -7.652  1.00  0.00     0.034 A 
ATOM     25  C   UNL     1       7.378   9.669  -2.643  1.00  0.00     0.049 A 
ATOM     26  C   UNL     1       5.893   7.157  -7.582  1.00  0.00     0.074 A 
ATOM     27  C   UNL     1       7.921  10.931  -2.766  1.00  0.00     0.029 A 
ATOM     28  N   UNL     1       7.082   9.229  -3.933  1.00  0.00    -0.354 N 
ATOM     29  N   UNL     1       6.265   7.835  -6.517  1.00  0.00    -0.248 NA
ATOM     30  C   UNL     1       6.129   7.847  -8.852  1.00  0.00     0.031 C 
ATOM     31  C   UNL     1       7.908  11.274  -4.124  1.00  0.00     0.029 A 
ATOM     32  C   UNL     1       7.427  10.197  -4.858  1.00  0.00     0.049 A 
ATOM     33  H   UNL     1       6.685   8.356  -4.153  1.00  0.00     0.167 HD
ATOM     34  C   UNL     1       6.799   9.027  -6.988  1.00  0.00     0.074 A 
ATOM     35  C   UNL     1       6.707   8.967  -8.437  1.00  0.00     0.031 C 
ATOM     36  C   UNL     1       7.318  10.074  -6.296  1.00  0.00     0.034 A 
BRANCH  23  37
ATOM     37  C   UNL     1       7.416   9.453  -0.075  1.00  0.00     0.023 A 
ATOM     38  C   UNL     1       8.248   8.778   0.841  1.00  0.00     0.031 A 
ATOM     39  C   UNL     1       6.715  10.578   0.391  1.00  0.00     0.131 A 
ATOM     40  C   UNL     1       8.235   9.137   2.197  1.00  0.00     0.055 A 
ATOM     41  C   UNL     1       6.801  11.002   1.720  1.00  0.00     0.041 A 
ATOM     42  F   UNL     1       5.886  11.253  -0.421  1.00  0.00    -0.206 F 
ATOM     43  C   UNL     1       7.539  10.263   2.639  1.00  0.00     0.022 A 
BRANCH  40  44
ATOM     44  S   UNL     1       8.940   7.974   3.403  1.00  0.00     0.124 S 
ATOM     45  O   UNL     1       8.124   6.783   3.174  1.00  0.00    -0.237 OA
ATOM     46  O   UNL     1      10.332   7.883   2.981  1.00  0.00    -0.237 OA
ATOM     47  O   UNL     1       8.718   8.634   4.688  1.00  0.00    -0.744 OA
ENDBRANCH  40  44
ENDBRANCH  23  37
BRANCH  24  48
ATOM     48  C   UNL     1       4.814   5.170  -8.932  1.00  0.00     0.023 A 
ATOM     49  C   UNL     1       5.725   4.780  -9.927  1.00  0.00     0.031 A 
ATOM     50  C   UNL     1       3.448   4.915  -9.159  1.00  0.00     0.131 A 
ATOM     51  C   UNL     1       5.260   4.165 -11.103  1.00  0.00     0.055 A 
ATOM     52  C   UNL     1       2.994   4.266 -10.309  1.00  0.00     0.041 A 
ATOM     53  F   UNL     1       2.531   5.263  -8.241  1.00  0.00    -0.206 F 
ATOM     54  C   UNL     1       3.903   3.892 -11.293  1.00  0.00     0.022 A 
BRANCH  51  55
ATOM     55  S   UNL     1       6.452   3.753 -12.409  1.00  0.00     0.124 S 
ATOM     56  O   UNL     1       7.042   5.055 -12.699  1.00  0.00    -0.237 OA
ATOM     57  O   UNL     1       7.319   2.791 -11.737  1.00  0.00    -0.237 OA
ATOM     58  O   UNL     1       5.617   3.197 -13.472  1.00  0.00    -0.744 OA
ENDBRANCH  51  55
ENDBRANCH  24  48
BRANCH  36  59
ATOM     59  C   UNL     1       7.886  11.201  -7.113  1.00  0.00     0.023 A 
ATOM     60  C   UNL     1       7.063  12.079  -7.834  1.00  0.00     0.031 A 
ATOM     61  C   UNL     1       9.276  11.411  -7.132  1.00  0.00     0.131 A 
ATOM     62  C   UNL     1       7.643  13.112  -8.580  1.00  0.00     0.055 A 
ATOM     63  C   UNL     1       9.842  12.476  -7.829  1.00  0.00     0.041 A 
ATOM     64  F   UNL     1      10.100  10.595  -6.456  1.00  0.00    -0.206 F 
ATOM     65  C   UNL     1       9.025  13.329  -8.566  1.00  0.00     0.022 A 
BRANCH  62  66
ATOM     66  S   UNL     1       6.573  14.136  -9.624  1.00  0.00     0.124 S 
ATOM     67  O   UNL     1       6.025  13.151 -10.550  1.00  0.00    -0.237 OA
ATOM     68  O   UNL     1       5.634  14.696  -8.658  1.00  0.00    -0.237 OA
ATOM     69  O   UNL     1       7.497  15.100 -10.218  1.00  0.00    -0.744 OA
ENDBRANCH  62  66
ENDBRANCH  36  59
ENDBRANCH  10  11
ENDBRANCH   3   5
ENDBRANCH   2   3
ENDBRANCH   1   2
BRANCH   1  70
ATOM     70  C   UNL     1       4.071  -2.202  -0.462  1.00  0.00     0.275 C 
BRANCH  70  71
ATOM     71  O   UNL     1       3.530  -1.098  -1.213  1.00  0.00    -0.458 OA
BRANCH  71  72
ATOM     72  C   UNL     1       2.185  -0.857  -1.117  1.00  0.00     0.344 C 
ATOM     73  O   UNL     1       1.404  -1.545  -0.479  1.00  0.00    -0.246 OA
BRANCH  72  74
ATOM     74  C   UNL     1       1.781   0.300  -1.886  1.00  0.00     0.133 A 
ATOM     75  C   UNL     1       0.768   1.272  -1.616  1.00  0.00     0.128 A 
ATOM     76  C   UNL     1       2.291   0.678  -3.114  1.00  0.00     0.177 A 
ATOM     77  N   UNL     1       0.703   2.166  -2.616  1.00  0.00    -0.079 NA
ATOM     78  O   UNL     1       1.671   1.813  -3.525  1.00  0.00    -0.357 OA
BRANCH  75  79
ATOM     79  C   UNL     1      -0.102   1.448  -0.454  1.00  0.00     0.005 A 
ATOM     80  C   UNL     1       0.428   1.510   0.839  1.00  0.00     0.012 A 
ATOM     81  C   UNL     1      -1.475   1.669  -0.624  1.00  0.00     0.012 A 
ATOM     82  C   UNL     1      -0.375   1.829   1.937  1.00  0.00     0.021 A 
ATOM     83  C   UNL     1      -2.292   1.953   0.478  1.00  0.00     0.021 A 
ATOM     84  C   UNL     1      -1.735   2.046   1.752  1.00  0.00     0.041 A 
ATOM     85  Cl  UNL     1      -2.730   2.432   3.101  1.00  0.00    -0.084 Cl
ENDBRANCH  75  79
BRANCH  76  86
ATOM     86  C   UNL     1       3.284   0.088  -4.047  1.00  0.00     0.242 C 
BRANCH  86  87
ATOM     87  O   UNL     1       2.806   0.089  -5.394  1.00  0.00    -0.345 OA
BRANCH  87  88
ATOM     88  C   UNL     1       1.556  -0.558  -5.631  1.00  0.00     0.250 C 
ATOM     89  C   UNL     1       1.504  -2.009  -5.141  1.00  0.00     0.062 C 
ATOM     90  O   UNL     1       1.229  -0.518  -7.026  1.00  0.00    -0.353 OA
ATOM     91  C   UNL     1       2.437  -2.892  -5.961  1.00  0.00     0.008 C 
ATOM     92  C   UNL     1       2.129  -1.268  -7.839  1.00  0.00     0.163 C 
ATOM     93  C   UNL     1       2.114  -2.738  -7.442  1.00  0.00     0.029 C 
ENDBRANCH  87  88
ENDBRANCH  86  87
ENDBRANCH  76  86
ENDBRANCH  72  74
ENDBRANCH  71  72
ENDBRANCH  70  71
ENDBRANCH   1  70
TORSDOF 18
