REMARK SMILES Cc1cc(/C=C2\C(=O)N(Cc3ccco3)C(=O)N=C2OCCOC(=O)c2ccc(-c3c4nc(c(-c5cc(S(=O)(=O)[O-])ccc5F)c5ccc([nH]5)c(-c5cc(S(=O)(=O)[O-])ccc5F)c5nc(c(-c6cc(S(=O)(=O)[O-])ccc6F)c6ccc3[nH]6)C=C5)C=C4)cc2)c(C)n1-c1ccc(Cl)c(C(=O)[O-])c1
REMARK SMILES IDX 22 1 21 2 20 3 19 4 5 5 6 6 7 7 8 8 9 9 18 10 16 11 17 12
REMARK SMILES IDX 4 13 1 14 2 15 3 16 91 17 89 18 90 19 92 20 93 21 101 22
REMARK SMILES IDX 94 23 97 24 95 25 96 26 98 27 99 28 100 29 10 30 11 31 12 32
REMARK SMILES IDX 15 33 13 34 14 35 23 36 24 37 25 38 26 39 27 40 88 41 28 42
REMARK SMILES IDX 87 43 29 44 30 45 31 46 81 47 32 48 86 49 80 50 82 51 33 52
REMARK SMILES IDX 85 53 79 54 78 55 34 57 66 58 46 59 65 60 47 61 50 62 64 63
REMARK SMILES IDX 83 64 48 65 49 66 63 68 84 69 51 70 35 71 36 72 44 73 37 74
REMARK SMILES IDX 43 75 45 76 42 77 38 78 39 79 40 80 41 81 67 82 68 83 76 84
REMARK SMILES IDX 69 85 75 86 77 87 74 88 70 89 71 90 72 91 73 92 52 93 53 94
REMARK SMILES IDX 61 95 54 96 60 97 62 98 59 99 55 100 56 101 57 102 58 103
REMARK H PARENT 82 56 50 67
REMARK Flexibility Score: inf
ROOT
ATOM      1  C   UNL     1      -4.351   7.812  -3.997  1.00  0.00     0.274 C 
ENDROOT
BRANCH   1   2
ATOM      2  C   UNL     1      -3.775   6.751  -5.049  1.00  0.00     0.273 C 
BRANCH   2   3
ATOM      3  O   UNL     1      -2.985   5.613  -4.463  1.00  0.00    -0.473 OA
BRANCH   3   4
ATOM      4  C   UNL     1      -1.718   5.954  -4.140  1.00  0.00     0.231 C 
ATOM      5  C   UNL     1      -1.108   3.821  -2.802  1.00  0.00     0.029 C 
ATOM      6  C   UNL     1      -0.849   5.056  -3.312  1.00  0.00     0.103 C 
ATOM      7  C   UNL     1       0.468   5.732  -3.060  1.00  0.00     0.267 C 
ATOM      8  O   UNL     1       1.537   5.132  -3.026  1.00  0.00    -0.268 OA
ATOM      9  N   UNL     1       0.326   7.092  -2.918  1.00  0.00    -0.250 N 
ATOM     10  N   UNL     1      -1.372   7.123  -4.515  1.00  0.00    -0.156 NA
ATOM     11  C   UNL     1      -0.510   7.825  -3.737  1.00  0.00     0.354 C 
ATOM     12  O   UNL     1      -0.570   9.023  -3.743  1.00  0.00    -0.245 OA
BRANCH   5  13
ATOM     13  C   UNL     1      -0.347   3.010  -1.836  1.00  0.00    -0.003 A 
ATOM     14  C   UNL     1       0.856  -0.163  -0.190  1.00  0.00     0.065 C 
ATOM     15  C   UNL     1       0.536   1.203  -0.712  1.00  0.00     0.020 A 
ATOM     16  C   UNL     1      -0.242   1.583  -1.802  1.00  0.00     0.031 A 
ATOM     17  N   UNL     1       0.931   2.361  -0.059  1.00  0.00    -0.318 N 
ATOM     18  C   UNL     1       0.324   3.450  -0.695  1.00  0.00     0.027 A 
ATOM     19  C   UNL     1       0.553   4.838  -0.209  1.00  0.00     0.065 C 
BRANCH  17  20
ATOM     20  C   UNL     1       1.847   2.452   1.040  1.00  0.00     0.046 A 
ATOM     21  C   UNL     1       1.491   3.172   2.182  1.00  0.00     0.028 A 
ATOM     22  C   UNL     1       3.157   1.969   0.908  1.00  0.00     0.038 A 
ATOM     23  C   UNL     1       2.462   3.525   3.120  1.00  0.00     0.023 A 
ATOM     24  C   UNL     1       4.143   2.297   1.872  1.00  0.00     0.018 A 
ATOM     25  C   UNL     1       3.789   3.112   2.961  1.00  0.00     0.050 A 
ATOM     26  Cl  UNL     1       4.905   3.687   4.151  1.00  0.00    -0.084 Cl
BRANCH  24  27
ATOM     27  C   UNL     1       5.543   1.812   1.693  1.00  0.00     0.073 C 
ATOM     28  O   UNL     1       6.529   2.066   2.356  1.00  0.00    -0.545 OA
ATOM     29  O   UNL     1       5.661   0.964   0.651  1.00  0.00    -0.545 OA
ENDBRANCH  24  27
ENDBRANCH  17  20
ENDBRANCH   5  13
BRANCH   9  30
ATOM     30  C   UNL     1       1.050   7.828  -1.907  1.00  0.00     0.206 C 
BRANCH  30  31
ATOM     31  C   UNL     1       2.142   8.623  -2.500  1.00  0.00     0.123 A 
ATOM     32  C   UNL     1       2.174   9.818  -3.188  1.00  0.00     0.047 A 
ATOM     33  O   UNL     1       3.402   8.136  -2.346  1.00  0.00    -0.467 OA
ATOM     34  C   UNL     1       3.526  10.057  -3.503  1.00  0.00     0.042 A 
ATOM     35  C   UNL     1       4.235   9.017  -2.952  1.00  0.00     0.195 A 
ENDBRANCH  30  31
ENDBRANCH   9  30
ENDBRANCH   3   4
ENDBRANCH   2   3
ENDBRANCH   1   2
BRANCH   1  36
ATOM     36  O   UNL     1      -3.949   9.281  -3.988  1.00  0.00    -0.458 OA
BRANCH  36  37
ATOM     37  C   UNL     1      -3.922   9.935  -2.739  1.00  0.00     0.338 C 
ATOM     38  O   UNL     1      -3.921   9.272  -1.704  1.00  0.00    -0.246 OA
BRANCH  37  39
ATOM     39  C   UNL     1      -3.971  11.529  -2.608  1.00  0.00     0.060 A 
ATOM     40  C   UNL     1      -2.825  12.329  -2.608  1.00  0.00     0.016 A 
ATOM     41  C   UNL     1      -5.087  12.243  -2.083  1.00  0.00     0.016 A 
ATOM     42  C   UNL     1      -2.832  13.756  -2.189  1.00  0.00     0.010 A 
ATOM     43  C   UNL     1      -5.083  13.689  -1.627  1.00  0.00     0.010 A 
ATOM     44  C   UNL     1      -3.950  14.532  -1.673  1.00  0.00    -0.014 A 
BRANCH  44  45
ATOM     45  C   UNL     1      -3.615  15.957  -0.781  1.00  0.00     0.031 A 
ATOM     46  C   UNL     1      -2.501  15.468   0.078  1.00  0.00     0.074 A 
ATOM     47  C   UNL     1      -3.987  17.302  -0.449  1.00  0.00     0.049 A 
ATOM     48  N   UNL     1      -2.662  14.412   0.827  1.00  0.00    -0.248 NA
ATOM     49  C   UNL     1      -1.107  15.864  -0.127  1.00  0.00     0.031 C 
ATOM     50  C   UNL     1      -5.175  18.065  -0.894  1.00  0.00     0.029 A 
ATOM     51  N   UNL     1      -3.388  18.360   0.395  1.00  0.00    -0.354 N 
ATOM     52  C   UNL     1      -1.473  14.251   1.490  1.00  0.00     0.074 A 
ATOM     53  C   UNL     1      -0.509  14.969   0.667  1.00  0.00     0.031 C 
ATOM     54  C   UNL     1      -5.154  19.382  -0.502  1.00  0.00     0.029 A 
ATOM     55  C   UNL     1      -3.981  19.713   0.321  1.00  0.00     0.049 A 
ATOM     56  H   UNL     1      -2.623  18.170   0.984  1.00  0.00     0.167 HD
ATOM     57  C   UNL     1      -1.565  14.245   2.853  1.00  0.00     0.034 A 
ATOM     58  C   UNL     1      -3.654  20.970   0.907  1.00  0.00     0.034 A 
ATOM     59  C   UNL     1      -1.149  15.488   3.442  1.00  0.00     0.049 A 
ATOM     60  C   UNL     1      -2.953  20.701   2.160  1.00  0.00     0.074 A 
ATOM     61  C   UNL     1      -0.086  16.335   3.210  1.00  0.00     0.029 A 
ATOM     62  N   UNL     1      -2.102  16.220   4.119  1.00  0.00    -0.354 N 
ATOM     63  N   UNL     1      -3.606  20.400   3.239  1.00  0.00    -0.248 NA
ATOM     64  C   UNL     1      -1.522  20.915   2.338  1.00  0.00     0.031 C 
ATOM     65  C   UNL     1      -0.613  17.635   3.345  1.00  0.00     0.029 A 
ATOM     66  C   UNL     1      -1.846  17.566   3.983  1.00  0.00     0.049 A 
ATOM     67  H   UNL     1      -2.854  15.836   4.625  1.00  0.00     0.167 HD
ATOM     68  C   UNL     1      -2.649  19.815   4.004  1.00  0.00     0.074 A 
ATOM     69  C   UNL     1      -1.404  20.430   3.577  1.00  0.00     0.031 C 
ATOM     70  C   UNL     1      -2.892  18.515   4.313  1.00  0.00     0.034 A 
BRANCH  57  71
ATOM     71  C   UNL     1      -2.683  13.389   3.378  1.00  0.00     0.023 A 
ATOM     72  C   UNL     1      -2.373  12.136   3.915  1.00  0.00     0.031 A 
ATOM     73  C   UNL     1      -4.045  13.726   3.219  1.00  0.00     0.131 A 
ATOM     74  C   UNL     1      -3.405  11.231   4.209  1.00  0.00     0.055 A 
ATOM     75  C   UNL     1      -5.065  12.812   3.475  1.00  0.00     0.041 A 
ATOM     76  F   UNL     1      -4.402  14.949   2.795  1.00  0.00    -0.206 F 
ATOM     77  C   UNL     1      -4.746  11.549   3.963  1.00  0.00     0.022 A 
BRANCH  74  78
ATOM     78  S   UNL     1      -2.962   9.626   4.922  1.00  0.00     0.124 S 
ATOM     79  O   UNL     1      -2.211   8.996   3.839  1.00  0.00    -0.237 OA
ATOM     80  O   UNL     1      -2.175  10.010   6.090  1.00  0.00    -0.237 OA
ATOM     81  O   UNL     1      -4.252   9.009   5.223  1.00  0.00    -0.744 OA
ENDBRANCH  74  78
ENDBRANCH  57  71
BRANCH  58  82
ATOM     82  C   UNL     1      -3.901  22.566   0.898  1.00  0.00     0.023 A 
ATOM     83  C   UNL     1      -3.694  23.424   2.079  1.00  0.00     0.031 A 
ATOM     84  C   UNL     1      -3.938  23.292  -0.298  1.00  0.00     0.131 A 
ATOM     85  C   UNL     1      -3.499  24.846   2.013  1.00  0.00     0.055 A 
ATOM     86  C   UNL     1      -3.756  24.706  -0.356  1.00  0.00     0.041 A 
ATOM     87  F   UNL     1      -4.048  22.652  -1.470  1.00  0.00    -0.206 F 
ATOM     88  C   UNL     1      -3.520  25.481   0.781  1.00  0.00     0.022 A 
BRANCH  85  89
ATOM     89  S   UNL     1      -3.017  25.890   3.478  1.00  0.00     0.124 S 
ATOM     90  O   UNL     1      -4.278  26.076   4.185  1.00  0.00    -0.237 OA
ATOM     91  O   UNL     1      -2.006  25.078   4.146  1.00  0.00    -0.237 OA
ATOM     92  O   UNL     1      -2.485  27.114   2.868  1.00  0.00    -0.744 OA
ENDBRANCH  85  89
ENDBRANCH  58  82
BRANCH  70  93
ATOM     93  C   UNL     1      -4.321  18.155   4.736  1.00  0.00     0.023 A 
ATOM     94  C   UNL     1      -5.527  18.602   4.125  1.00  0.00     0.031 A 
ATOM     95  C   UNL     1      -4.471  17.354   5.878  1.00  0.00     0.131 A 
ATOM     96  C   UNL     1      -6.788  18.280   4.667  1.00  0.00     0.055 A 
ATOM     97  C   UNL     1      -5.721  16.994   6.389  1.00  0.00     0.041 A 
ATOM     98  F   UNL     1      -3.388  16.898   6.528  1.00  0.00    -0.206 F 
ATOM     99  C   UNL     1      -6.885  17.468   5.794  1.00  0.00     0.022 A 
BRANCH  96 100
ATOM    100  S   UNL     1      -8.315  18.977   3.945  1.00  0.00     0.124 S 
ATOM    101  O   UNL     1      -8.033  20.406   3.873  1.00  0.00    -0.237 OA
ATOM    102  O   UNL     1      -8.412  18.281   2.665  1.00  0.00    -0.237 OA
ATOM    103  O   UNL     1      -9.348  18.613   4.917  1.00  0.00    -0.744 OA
ENDBRANCH  96 100
ENDBRANCH  70  93
ENDBRANCH  44  45
ENDBRANCH  37  39
ENDBRANCH  36  37
ENDBRANCH   1  36
TORSDOF 18
