REMARK SMILES CCC(CC)NC(=O)NC[C@H]1CC[C@H](C(=O)OCCOC(=O)c2ccc(-c3c4nc(c(-c5cc(S(=O)(=O)[O-])ccc5F)c5ccc([nH]5)c(-c5cc(S(=O)(=O)[O-])ccc5F)c5nc(c(-c6cc(S(=O)(=O)[O-])ccc6F)c6ccc3[nH]6)C=C5)C=C4)cc2)O1
REMARK SMILES IDX 18 1 17 2 15 3 16 4 14 5 11 6 12 7 86 8 13 9 10 10 9 11 6 12
REMARK SMILES IDX 7 13 8 15 3 17 2 18 1 19 4 20 5 21 19 22 20 23 21 24 22 25
REMARK SMILES IDX 23 26 24 27 85 28 25 29 84 30 26 31 27 32 28 33 78 34 29 35
REMARK SMILES IDX 83 36 77 37 79 38 30 39 82 40 76 41 75 42 31 44 63 45 43 46
REMARK SMILES IDX 62 47 44 48 47 49 61 50 80 51 45 52 46 53 60 55 81 56 48 57
REMARK SMILES IDX 32 58 33 59 41 60 34 61 40 62 42 63 39 64 35 65 36 66 37 67
REMARK SMILES IDX 38 68 64 69 65 70 73 71 66 72 72 73 74 74 71 75 67 76 68 77
REMARK SMILES IDX 69 78 70 79 49 80 50 81 58 82 51 83 57 84 59 85 56 86 52 87
REMARK SMILES IDX 53 88 54 89 55 90
REMARK H PARENT 6 14 9 16 79 43 47 54
REMARK Flexibility Score: inf
ROOT
ATOM      1  C   UNL     1       6.947  -0.204  -0.542  1.00  0.00     0.274 C 
ENDROOT
BRANCH   1   2
ATOM      2  O   UNL     1       6.155  -0.371   0.648  1.00  0.00    -0.460 OA
BRANCH   2   3
ATOM      3  C   UNL     1       6.687  -1.186   1.603  1.00  0.00     0.335 C 
ATOM      4  O   UNL     1       7.733  -1.812   1.473  1.00  0.00    -0.249 OA
BRANCH   3   5
ATOM      5  C   UNL     1       5.826  -1.247   2.868  1.00  0.00     0.228 C 
ATOM      6  C   UNL     1       3.580  -1.627   3.375  1.00  0.00     0.138 C 
ATOM      7  C   UNL     1       3.727  -0.140   3.132  1.00  0.00     0.037 C 
ATOM      8  O   UNL     1       4.758  -2.212   2.788  1.00  0.00    -0.361 OA
ATOM      9  C   UNL     1       5.209   0.088   3.270  1.00  0.00     0.047 C 
BRANCH   6  10
ATOM     10  C   UNL     1       3.413  -2.038   4.858  1.00  0.00     0.149 C 
BRANCH  10  11
ATOM     11  N   UNL     1       4.661  -2.310   5.553  1.00  0.00    -0.336 N 
ATOM     12  N   UNL     1       4.889  -0.777   7.334  1.00  0.00    -0.335 N 
ATOM     13  C   UNL     1       5.210  -1.912   6.704  1.00  0.00     0.315 C 
ATOM     14  H   UNL     1       5.205  -0.744   8.265  1.00  0.00     0.165 HD
ATOM     15  O   UNL     1       6.074  -2.631   7.207  1.00  0.00    -0.249 OA
ATOM     16  H   UNL     1       5.238  -2.936   5.058  1.00  0.00     0.165 HD
BRANCH  12  17
ATOM     17  C   UNL     1       4.168   0.420   6.926  1.00  0.00     0.083 C 
BRANCH  17  18
ATOM     18  C   UNL     1       2.922   0.593   7.803  1.00  0.00     0.021 C 
ATOM     19  C   UNL     1       1.956   1.632   7.256  1.00  0.00     0.006 C 
ENDBRANCH  17  18
BRANCH  17  20
ATOM     20  C   UNL     1       5.117   1.636   6.883  1.00  0.00     0.021 C 
ATOM     21  C   UNL     1       5.569   2.167   8.236  1.00  0.00     0.006 C 
ENDBRANCH  17  20
ENDBRANCH  12  17
ENDBRANCH  10  11
ENDBRANCH   6  10
ENDBRANCH   3   5
ENDBRANCH   2   3
ENDBRANCH   1   2
BRANCH   1  22
ATOM     22  C   UNL     1       7.774   1.085  -0.502  1.00  0.00     0.275 C 
BRANCH  22  23
ATOM     23  O   UNL     1       8.836   1.015   0.468  1.00  0.00    -0.458 OA
BRANCH  23  24
ATOM     24  C   UNL     1       8.556   1.561   1.672  1.00  0.00     0.338 C 
ATOM     25  O   UNL     1       7.519   2.123   2.000  1.00  0.00    -0.246 OA
BRANCH  24  26
ATOM     26  C   UNL     1       9.652   1.301   2.616  1.00  0.00     0.060 A 
ATOM     27  C   UNL     1       9.369   0.583   3.782  1.00  0.00     0.016 A 
ATOM     28  C   UNL     1      10.925   1.834   2.401  1.00  0.00     0.016 A 
ATOM     29  C   UNL     1      10.362   0.398   4.743  1.00  0.00     0.010 A 
ATOM     30  C   UNL     1      11.920   1.645   3.366  1.00  0.00     0.010 A 
ATOM     31  C   UNL     1      11.642   0.936   4.548  1.00  0.00    -0.014 A 
BRANCH  31  32
ATOM     32  C   UNL     1      12.677   0.799   5.604  1.00  0.00     0.031 A 
ATOM     33  C   UNL     1      13.033   1.982   6.461  1.00  0.00     0.074 A 
ATOM     34  C   UNL     1      13.290  -0.384   5.794  1.00  0.00     0.049 A 
ATOM     35  N   UNL     1      13.951   2.092   7.386  1.00  0.00    -0.248 NA
ATOM     36  C   UNL     1      12.250   3.205   6.238  1.00  0.00     0.031 C 
ATOM     37  C   UNL     1      12.998  -1.611   5.053  1.00  0.00     0.029 A 
ATOM     38  N   UNL     1      14.284  -0.747   6.667  1.00  0.00    -0.354 N 
ATOM     39  C   UNL     1      13.868   3.399   7.852  1.00  0.00     0.074 A 
ATOM     40  C   UNL     1      12.828   4.050   7.080  1.00  0.00     0.031 C 
ATOM     41  C   UNL     1      13.793  -2.594   5.507  1.00  0.00     0.029 A 
ATOM     42  C   UNL     1      14.681  -2.057   6.534  1.00  0.00     0.049 A 
ATOM     43  H   UNL     1      14.675  -0.129   7.326  1.00  0.00     0.167 HD
ATOM     44  C   UNL     1      14.587   3.997   8.836  1.00  0.00     0.034 A 
ATOM     45  C   UNL     1      15.667  -2.738   7.152  1.00  0.00     0.034 A 
ATOM     46  C   UNL     1      15.624   3.332   9.591  1.00  0.00     0.049 A 
ATOM     47  C   UNL     1      16.512  -2.028   8.178  1.00  0.00     0.074 A 
ATOM     48  C   UNL     1      16.400   3.835  10.622  1.00  0.00     0.029 A 
ATOM     49  N   UNL     1      16.040   2.022   9.389  1.00  0.00    -0.354 N 
ATOM     50  N   UNL     1      16.427  -0.789   8.607  1.00  0.00    -0.248 NA
ATOM     51  C   UNL     1      17.588  -2.809   8.802  1.00  0.00     0.031 C 
ATOM     52  C   UNL     1      17.327   2.853  10.995  1.00  0.00     0.029 A 
ATOM     53  C   UNL     1      17.084   1.712  10.248  1.00  0.00     0.049 A 
ATOM     54  H   UNL     1      15.650   1.402   8.730  1.00  0.00     0.167 HD
ATOM     55  C   UNL     1      17.422  -0.653   9.572  1.00  0.00     0.074 A 
ATOM     56  C   UNL     1      18.086  -1.938   9.667  1.00  0.00     0.031 C 
ATOM     57  C   UNL     1      17.752   0.432  10.318  1.00  0.00     0.034 A 
BRANCH  44  58
ATOM     58  C   UNL     1      14.309   5.458   9.102  1.00  0.00     0.023 A 
ATOM     59  C   UNL     1      13.061   5.903   9.574  1.00  0.00     0.031 A 
ATOM     60  C   UNL     1      15.294   6.425   8.834  1.00  0.00     0.131 A 
ATOM     61  C   UNL     1      12.805   7.279   9.685  1.00  0.00     0.055 A 
ATOM     62  C   UNL     1      15.058   7.789   9.023  1.00  0.00     0.041 A 
ATOM     63  F   UNL     1      16.497   6.064   8.362  1.00  0.00    -0.206 F 
ATOM     64  C   UNL     1      13.802   8.224   9.435  1.00  0.00     0.022 A 
BRANCH  61  65
ATOM     65  S   UNL     1      11.104   7.822  10.009  1.00  0.00     0.124 S 
ATOM     66  O   UNL     1      10.377   7.198   8.905  1.00  0.00    -0.237 OA
ATOM     67  O   UNL     1      10.844   7.274  11.335  1.00  0.00    -0.237 OA
ATOM     68  O   UNL     1      11.189   9.279   9.941  1.00  0.00    -0.744 OA
ENDBRANCH  61  65
ENDBRANCH  44  58
BRANCH  45  69
ATOM     69  C   UNL     1      15.942  -4.157   6.791  1.00  0.00     0.023 A 
ATOM     70  C   UNL     1      15.765  -5.190   7.725  1.00  0.00     0.031 A 
ATOM     71  C   UNL     1      16.430  -4.496   5.516  1.00  0.00     0.131 A 
ATOM     72  C   UNL     1      16.108  -6.508   7.383  1.00  0.00     0.055 A 
ATOM     73  C   UNL     1      16.722  -5.814   5.164  1.00  0.00     0.041 A 
ATOM     74  F   UNL     1      16.621  -3.545   4.588  1.00  0.00    -0.206 F 
ATOM     75  C   UNL     1      16.572  -6.828   6.105  1.00  0.00     0.022 A 
BRANCH  72  76
ATOM     76  S   UNL     1      16.012  -7.792   8.661  1.00  0.00     0.124 S 
ATOM     77  O   UNL     1      16.927  -7.274   9.672  1.00  0.00    -0.237 OA
ATOM     78  O   UNL     1      14.595  -7.771   9.007  1.00  0.00    -0.237 OA
ATOM     79  O   UNL     1      16.464  -8.996   7.967  1.00  0.00    -0.744 OA
ENDBRANCH  72  76
ENDBRANCH  45  69
BRANCH  57  80
ATOM     80  C   UNL     1      18.857   0.252  11.329  1.00  0.00     0.023 A 
ATOM     81  C   UNL     1      20.192   0.049  10.939  1.00  0.00     0.031 A 
ATOM     82  C   UNL     1      18.562   0.258  12.704  1.00  0.00     0.131 A 
ATOM     83  C   UNL     1      21.175  -0.193  11.911  1.00  0.00     0.055 A 
ATOM     84  C   UNL     1      19.553   0.070  13.668  1.00  0.00     0.041 A 
ATOM     85  F   UNL     1      17.303   0.445  13.132  1.00  0.00    -0.206 F 
ATOM     86  C   UNL     1      20.866  -0.170  13.274  1.00  0.00     0.022 A 
BRANCH  83  87
ATOM     87  S   UNL     1      22.852  -0.624  11.370  1.00  0.00     0.124 S 
ATOM     88  O   UNL     1      22.617  -1.829  10.580  1.00  0.00    -0.237 OA
ATOM     89  O   UNL     1      23.253   0.562  10.619  1.00  0.00    -0.237 OA
ATOM     90  O   UNL     1      23.575  -0.836  12.623  1.00  0.00    -0.744 OA
ENDBRANCH  83  87
ENDBRANCH  57  80
ENDBRANCH  31  32
ENDBRANCH  24  26
ENDBRANCH  23  24
ENDBRANCH  22  23
ENDBRANCH   1  22
TORSDOF 19
