REMARK SMILES C[C@H](Oc1ccc(C(=O)NCc2ccccc2)cc1)C(=O)OCCOC(=O)c1ccc(-c2c3nc(c(-c4cc(S(=O)(=O)[O-])ccc4F)c4ccc([nH]4)c(-c4cc(S(=O)(=O)[O-])ccc4F)c4nc(c(-c5cc(S(=O)(=O)[O-])ccc5F)c5ccc2[nH]5)C=C4)C=C3)cc1
REMARK SMILES IDX 23 1 22 2 20 3 21 4 2 5 1 6 3 7 4 8 5 9 19 10 6 11 18 12
REMARK SMILES IDX 7 13 8 14 9 15 10 16 11 18 12 19 13 20 17 21 14 22 16 23
REMARK SMILES IDX 15 24 24 25 25 26 26 27 27 28 28 29 29 30 90 31 30 32 89 33
REMARK SMILES IDX 31 34 32 35 33 36 83 37 34 38 88 39 82 40 84 41 35 42 87 43
REMARK SMILES IDX 81 44 80 45 36 47 68 48 48 49 67 50 49 51 52 52 66 53 85 54
REMARK SMILES IDX 50 55 51 56 65 58 86 59 53 60 37 61 38 62 46 63 39 64 45 65
REMARK SMILES IDX 47 66 44 67 40 68 41 69 42 70 43 71 69 72 70 73 78 74 71 75
REMARK SMILES IDX 77 76 79 77 76 78 72 79 73 80 74 81 75 82 54 83 55 84 63 85
REMARK SMILES IDX 56 86 62 87 64 88 61 89 57 90 58 91 59 92 60 93
REMARK H PARENT 10 17 84 46 52 57
REMARK Flexibility Score: inf
ROOT
ATOM      1  C   UNL     1      -3.220   0.659   1.144  1.00  0.00     0.274 C 
ENDROOT
BRANCH   1   2
ATOM      2  O   UNL     1      -1.805   0.912   1.119  1.00  0.00    -0.459 OA
BRANCH   2   3
ATOM      3  C   UNL     1      -1.052   0.328   2.098  1.00  0.00     0.347 C 
ATOM      4  O   UNL     1      -1.504  -0.359   3.006  1.00  0.00    -0.248 OA
BRANCH   3   5
ATOM      5  C   UNL     1       0.424   0.726   1.992  1.00  0.00     0.279 C 
ATOM      6  C   UNL     1       0.581   2.034   2.772  1.00  0.00     0.066 C 
BRANCH   5   7
ATOM      7  O   UNL     1       0.756   0.835   0.607  1.00  0.00    -0.479 OA
BRANCH   7   8
ATOM      8  C   UNL     1       2.030   1.145   0.235  1.00  0.00     0.120 A 
ATOM      9  C   UNL     1       3.152   1.166   1.054  1.00  0.00     0.047 A 
ATOM     10  C   UNL     1       2.154   1.539  -1.097  1.00  0.00     0.047 A 
ATOM     11  C   UNL     1       4.352   1.708   0.575  1.00  0.00     0.017 A 
ATOM     12  C   UNL     1       3.352   2.078  -1.578  1.00  0.00     0.017 A 
ATOM     13  C   UNL     1       4.458   2.203  -0.737  1.00  0.00     0.040 A 
BRANCH  13  14
ATOM     14  C   UNL     1       5.691   2.974  -1.066  1.00  0.00     0.251 C 
ATOM     15  O   UNL     1       6.324   3.491  -0.143  1.00  0.00    -0.269 OA
ATOM     16  N   UNL     1       6.157   3.193  -2.332  1.00  0.00    -0.348 N 
ATOM     17  H   UNL     1       6.899   3.840  -2.368  1.00  0.00     0.164 HD
BRANCH  16  18
ATOM     18  C   UNL     1       5.788   2.672  -3.630  1.00  0.00     0.152 C 
BRANCH  18  19
ATOM     19  C   UNL     1       5.200   3.744  -4.521  1.00  0.00    -0.029 A 
ATOM     20  C   UNL     1       5.564   3.806  -5.875  1.00  0.00     0.005 A 
ATOM     21  C   UNL     1       4.255   4.667  -4.045  1.00  0.00     0.005 A 
ATOM     22  C   UNL     1       5.007   4.768  -6.722  1.00  0.00     0.000 A 
ATOM     23  C   UNL     1       3.687   5.619  -4.895  1.00  0.00     0.000 A 
ATOM     24  C   UNL     1       4.066   5.671  -6.233  1.00  0.00     0.000 A 
ENDBRANCH  18  19
ENDBRANCH  16  18
ENDBRANCH  13  14
ENDBRANCH   7   8
ENDBRANCH   5   7
ENDBRANCH   3   5
ENDBRANCH   2   3
ENDBRANCH   1   2
BRANCH   1  25
ATOM     25  C   UNL     1      -3.620  -0.430   0.147  1.00  0.00     0.275 C 
BRANCH  25  26
ATOM     26  O   UNL     1      -3.113  -1.716   0.545  1.00  0.00    -0.458 OA
BRANCH  26  27
ATOM     27  C   UNL     1      -1.916  -2.049   0.007  1.00  0.00     0.338 C 
ATOM     28  O   UNL     1      -1.288  -1.414  -0.831  1.00  0.00    -0.246 OA
BRANCH  27  29
ATOM     29  C   UNL     1      -1.379  -3.238   0.689  1.00  0.00     0.060 A 
ATOM     30  C   UNL     1      -0.078  -3.165   1.198  1.00  0.00     0.016 A 
ATOM     31  C   UNL     1      -2.117  -4.420   0.794  1.00  0.00     0.016 A 
ATOM     32  C   UNL     1       0.488  -4.276   1.819  1.00  0.00     0.010 A 
ATOM     33  C   UNL     1      -1.542  -5.537   1.410  1.00  0.00     0.010 A 
ATOM     34  C   UNL     1      -0.234  -5.474   1.919  1.00  0.00    -0.014 A 
BRANCH  34  35
ATOM     35  C   UNL     1       0.418  -6.668   2.513  1.00  0.00     0.031 A 
ATOM     36  C   UNL     1       0.965  -7.742   1.616  1.00  0.00     0.074 A 
ATOM     37  C   UNL     1       0.557  -6.760   3.849  1.00  0.00     0.049 A 
ATOM     38  N   UNL     1       1.569  -8.859   1.933  1.00  0.00    -0.248 NA
ATOM     39  C   UNL     1       0.812  -7.529   0.169  1.00  0.00     0.031 C 
ATOM     40  C   UNL     1       0.093  -5.761   4.813  1.00  0.00     0.029 A 
ATOM     41  N   UNL     1       1.133  -7.733   4.625  1.00  0.00    -0.354 N 
ATOM     42  C   UNL     1       1.877  -9.480   0.728  1.00  0.00     0.074 A 
ATOM     43  C   UNL     1       1.357  -8.632  -0.325  1.00  0.00     0.031 C 
ATOM     44  C   UNL     1       0.404  -6.175   6.053  1.00  0.00     0.029 A 
ATOM     45  C   UNL     1       1.057  -7.479   5.975  1.00  0.00     0.049 A 
ATOM     46  H   UNL     1       1.561  -8.537   4.252  1.00  0.00     0.167 HD
ATOM     47  C   UNL     1       2.540 -10.645   0.521  1.00  0.00     0.034 A 
ATOM     48  C   UNL     1       1.450  -8.224   7.028  1.00  0.00     0.034 A 
ATOM     49  C   UNL     1       3.036 -11.490   1.582  1.00  0.00     0.049 A 
ATOM     50  C   UNL     1       2.125  -9.550   6.770  1.00  0.00     0.074 A 
ATOM     51  C   UNL     1       3.711 -12.695   1.482  1.00  0.00     0.029 A 
ATOM     52  N   UNL     1       2.906 -11.223   2.939  1.00  0.00    -0.354 N 
ATOM     53  N   UNL     1       2.408 -10.125   5.623  1.00  0.00    -0.248 NA
ATOM     54  C   UNL     1       2.542 -10.320   7.949  1.00  0.00     0.031 C 
ATOM     55  C   UNL     1       3.936 -13.183   2.775  1.00  0.00     0.029 A 
ATOM     56  C   UNL     1       3.465 -12.251   3.685  1.00  0.00     0.049 A 
ATOM     57  H   UNL     1       2.479 -10.420   3.317  1.00  0.00     0.167 HD
ATOM     58  C   UNL     1       3.054 -11.315   5.947  1.00  0.00     0.074 A 
ATOM     59  C   UNL     1       3.145 -11.358   7.392  1.00  0.00     0.031 C 
ATOM     60  C   UNL     1       3.528 -12.289   5.127  1.00  0.00     0.034 A 
BRANCH  47  61
ATOM     61  C   UNL     1       2.724 -11.092  -0.908  1.00  0.00     0.023 A 
ATOM     62  C   UNL     1       3.539 -10.381  -1.806  1.00  0.00     0.031 A 
ATOM     63  C   UNL     1       2.066 -12.241  -1.382  1.00  0.00     0.131 A 
ATOM     64  C   UNL     1       3.632 -10.794  -3.144  1.00  0.00     0.055 A 
ATOM     65  C   UNL     1       2.217 -12.686  -2.697  1.00  0.00     0.041 A 
ATOM     66  F   UNL     1       1.258 -12.947  -0.576  1.00  0.00    -0.206 F 
ATOM     67  C   UNL     1       2.996 -11.955  -3.590  1.00  0.00     0.022 A 
BRANCH  64  68
ATOM     68  S   UNL     1       4.511  -9.733  -4.325  1.00  0.00     0.124 S 
ATOM     69  O   UNL     1       3.725  -8.504  -4.260  1.00  0.00    -0.237 OA
ATOM     70  O   UNL     1       5.851  -9.665  -3.754  1.00  0.00    -0.237 OA
ATOM     71  O   UNL     1       4.408 -10.465  -5.586  1.00  0.00    -0.744 OA
ENDBRANCH  64  68
ENDBRANCH  47  61
BRANCH  48  72
ATOM     72  C   UNL     1       1.181  -7.771   8.423  1.00  0.00     0.023 A 
ATOM     73  C   UNL     1       2.228  -7.516   9.323  1.00  0.00     0.031 A 
ATOM     74  C   UNL     1      -0.138  -7.659   8.899  1.00  0.00     0.131 A 
ATOM     75  C   UNL     1       1.940  -7.217  10.664  1.00  0.00     0.055 A 
ATOM     76  C   UNL     1      -0.420  -7.305  10.219  1.00  0.00     0.041 A 
ATOM     77  F   UNL     1      -1.177  -7.895   8.082  1.00  0.00    -0.206 F 
ATOM     78  C   UNL     1       0.624  -7.098  11.115  1.00  0.00     0.022 A 
BRANCH  75  79
ATOM     79  S   UNL     1       3.316  -7.092  11.841  1.00  0.00     0.124 S 
ATOM     80  O   UNL     1       3.978  -8.379  11.664  1.00  0.00    -0.237 OA
ATOM     81  O   UNL     1       4.035  -5.925  11.342  1.00  0.00    -0.237 OA
ATOM     82  O   UNL     1       2.647  -6.906  13.127  1.00  0.00    -0.744 OA
ENDBRANCH  75  79
ENDBRANCH  48  72
BRANCH  60  83
ATOM     83  C   UNL     1       4.210 -13.461   5.790  1.00  0.00     0.023 A 
ATOM     84  C   UNL     1       3.501 -14.359   6.608  1.00  0.00     0.031 A 
ATOM     85  C   UNL     1       5.594 -13.658   5.636  1.00  0.00     0.131 A 
ATOM     86  C   UNL     1       4.189 -15.370   7.297  1.00  0.00     0.055 A 
ATOM     87  C   UNL     1       6.263 -14.703   6.276  1.00  0.00     0.041 A 
ATOM     88  F   UNL     1       6.321 -12.831   4.868  1.00  0.00    -0.206 F 
ATOM     89  C   UNL     1       5.563 -15.556   7.125  1.00  0.00     0.022 A 
BRANCH  86  90
ATOM     90  S   UNL     1       3.281 -16.370   8.508  1.00  0.00     0.124 S 
ATOM     91  O   UNL     1       2.752 -15.351   9.409  1.00  0.00    -0.237 OA
ATOM     92  O   UNL     1       2.299 -17.054   7.673  1.00  0.00    -0.237 OA
ATOM     93  O   UNL     1       4.312 -17.231   9.083  1.00  0.00    -0.744 OA
ENDBRANCH  86  90
ENDBRANCH  60  83
ENDBRANCH  34  35
ENDBRANCH  27  29
ENDBRANCH  26  27
ENDBRANCH  25  26
ENDBRANCH   1  25
TORSDOF 19
