REMARK SMILES CC(C)c1ccc(-c2cnc([C@@H]3[NH2+][C@H](C(=O)OCCOC(=O)c4ccc(-c5c6nc(c(-c7cc(S(=O)(=O)[O-])ccc7F)c7ccc([nH]7)c(-c7cc(S(=O)(=O)[O-])ccc7F)c7nc(c(-c8cc(S(=O)(=O)[O-])ccc8F)c8ccc5[nH]8)C=C7)C=C6)cc4)C(C)(C)S3)s2)cc1
REMARK SMILES IDX 18 1 17 2 15 3 16 4 14 5 12 6 13 7 89 8 86 11 87 12 88 13
REMARK SMILES IDX 11 14 8 15 9 16 90 17 10 18 7 19 4 20 5 21 92 22 6 23 91 24
REMARK SMILES IDX 2 25 1 26 3 27 19 28 20 29 21 30 22 31 23 32 24 33 85 34
REMARK SMILES IDX 25 35 84 36 26 37 27 38 28 39 78 40 29 41 83 42 77 43 79 44
REMARK SMILES IDX 30 45 82 46 76 47 75 48 31 50 63 51 43 52 62 53 44 54 47 55
REMARK SMILES IDX 61 56 80 57 45 58 46 59 60 61 81 62 48 63 32 64 33 65 41 66
REMARK SMILES IDX 34 67 40 68 42 69 39 70 35 71 36 72 37 73 38 74 64 75 65 76
REMARK SMILES IDX 73 77 66 78 72 79 74 80 71 81 67 82 68 83 69 84 70 85 49 86
REMARK SMILES IDX 50 87 58 88 51 89 57 90 59 91 56 92 52 93 53 94 54 95 55 96
REMARK H PARENT 13 9 13 10 79 49 47 60
REMARK Flexibility Score: inf
ROOT
ATOM      1  C   UNL     1     -13.334   1.949  -4.053  1.00  0.00     0.274 C 
ENDROOT
BRANCH   1   2
ATOM      2  O   UNL     1     -12.740   1.313  -2.906  1.00  0.00    -0.458 OA
BRANCH   2   3
ATOM      3  C   UNL     1     -12.359   0.027  -3.123  1.00  0.00     0.366 C 
ATOM      4  O   UNL     1     -12.698  -0.613  -4.119  1.00  0.00    -0.245 OA
BRANCH   3   5
ATOM      5  C   UNL     1     -11.506  -0.605  -1.993  1.00  0.00     0.310 C 
ATOM      6  C   UNL     1      -9.202  -0.113  -2.522  1.00  0.00     0.304 C 
ATOM      7  N   UNL     1     -10.233  -1.170  -2.571  1.00  0.00    -0.317 N 
ATOM      8  S   UNL     1      -9.441   0.683  -0.896  1.00  0.00    -0.079 SA
ATOM      9  H   UNL     1      -9.931  -1.975  -2.022  1.00  0.00     0.348 HD
ATOM     10  H   UNL     1     -10.385  -1.474  -3.533  1.00  0.00     0.348 HD
ATOM     11  C   UNL     1     -11.170   0.122  -0.665  1.00  0.00     0.079 C 
ATOM     12  C   UNL     1     -11.117  -0.879   0.514  1.00  0.00     0.030 C 
ATOM     13  C   UNL     1     -12.114   1.248  -0.224  1.00  0.00     0.030 C 
BRANCH   6  14
ATOM     14  C   UNL     1      -9.216   0.869  -3.699  1.00  0.00     0.162 A 
ATOM     15  C   UNL     1      -8.567   2.410  -5.520  1.00  0.00     0.055 A 
ATOM     16  C   UNL     1      -9.857   2.515  -5.042  1.00  0.00     0.132 A 
ATOM     17  S   UNL     1      -7.860   1.016  -4.776  1.00  0.00    -0.112 S 
ATOM     18  N   UNL     1     -10.215   1.670  -4.010  1.00  0.00    -0.242 NA
BRANCH  15  19
ATOM     19  C   UNL     1      -7.872   3.329  -6.451  1.00  0.00    -0.007 A 
ATOM     20  C   UNL     1      -6.647   5.189  -8.252  1.00  0.00    -0.045 A 
ATOM     21  C   UNL     1      -6.278   3.834  -8.228  1.00  0.00     0.004 A 
ATOM     22  C   UNL     1      -7.603   5.615  -7.327  1.00  0.00     0.004 A 
ATOM     23  C   UNL     1      -6.878   2.918  -7.342  1.00  0.00     0.010 A 
ATOM     24  C   UNL     1      -8.204   4.700  -6.448  1.00  0.00     0.010 A 
BRANCH  20  25
ATOM     25  C   UNL     1      -6.027   6.135  -9.272  1.00  0.00     0.013 C 
ATOM     26  C   UNL     1      -7.092   6.795 -10.158  1.00  0.00     0.012 C 
ATOM     27  C   UNL     1      -5.142   7.209  -8.634  1.00  0.00     0.012 C 
ENDBRANCH  20  25
ENDBRANCH  15  19
ENDBRANCH   6  14
ENDBRANCH   3   5
ENDBRANCH   2   3
ENDBRANCH   1   2
BRANCH   1  28
ATOM     28  C   UNL     1     -13.477   3.459  -3.824  1.00  0.00     0.275 C 
BRANCH  28  29
ATOM     29  O   UNL     1     -12.178   4.074  -3.700  1.00  0.00    -0.458 OA
BRANCH  29  30
ATOM     30  C   UNL     1     -11.938   4.802  -2.584  1.00  0.00     0.338 C 
ATOM     31  O   UNL     1     -12.753   5.153  -1.744  1.00  0.00    -0.246 OA
BRANCH  30  32
ATOM     32  C   UNL     1     -10.478   4.987  -2.451  1.00  0.00     0.060 A 
ATOM     33  C   UNL     1      -9.770   3.958  -1.843  1.00  0.00     0.016 A 
ATOM     34  C   UNL     1      -9.799   6.129  -2.865  1.00  0.00     0.016 A 
ATOM     35  C   UNL     1      -8.386   4.015  -1.685  1.00  0.00     0.010 A 
ATOM     36  C   UNL     1      -8.400   6.200  -2.695  1.00  0.00     0.010 A 
ATOM     37  C   UNL     1      -7.681   5.138  -2.113  1.00  0.00    -0.014 A 
BRANCH  37  38
ATOM     38  C   UNL     1      -6.216   5.218  -1.863  1.00  0.00     0.031 A 
ATOM     39  C   UNL     1      -5.721   5.895  -0.630  1.00  0.00     0.074 A 
ATOM     40  C   UNL     1      -5.321   4.588  -2.646  1.00  0.00     0.049 A 
ATOM     41  N   UNL     1      -4.503   6.245  -0.316  1.00  0.00    -0.248 NA
ATOM     42  C   UNL     1      -6.730   6.182   0.395  1.00  0.00     0.031 C 
ATOM     43  C   UNL     1      -5.678   3.679  -3.717  1.00  0.00     0.029 A 
ATOM     44  N   UNL     1      -3.948   4.590  -2.667  1.00  0.00    -0.354 N 
ATOM     45  C   UNL     1      -4.595   6.814   0.945  1.00  0.00     0.074 A 
ATOM     46  C   UNL     1      -5.992   6.759   1.331  1.00  0.00     0.031 C 
ATOM     47  C   UNL     1      -4.571   3.220  -4.317  1.00  0.00     0.029 A 
ATOM     48  C   UNL     1      -3.417   3.886  -3.728  1.00  0.00     0.049 A 
ATOM     49  H   UNL     1      -3.397   5.050  -1.993  1.00  0.00     0.167 HD
ATOM     50  C   UNL     1      -3.598   7.344   1.695  1.00  0.00     0.034 A 
ATOM     51  C   UNL     1      -2.159   3.844  -4.214  1.00  0.00     0.034 A 
ATOM     52  C   UNL     1      -2.223   7.411   1.260  1.00  0.00     0.049 A 
ATOM     53  C   UNL     1      -1.112   4.675  -3.520  1.00  0.00     0.074 A 
ATOM     54  C   UNL     1      -1.147   8.020   1.880  1.00  0.00     0.029 A 
ATOM     55  N   UNL     1      -1.734   6.856   0.081  1.00  0.00    -0.354 N 
ATOM     56  N   UNL     1      -1.216   5.365  -2.408  1.00  0.00    -0.248 NA
ATOM     57  C   UNL     1       0.210   4.747  -4.154  1.00  0.00     0.031 C 
ATOM     58  C   UNL     1      -0.031   7.903   1.041  1.00  0.00     0.029 A 
ATOM     59  C   UNL     1      -0.385   7.148  -0.066  1.00  0.00     0.049 A 
ATOM     60  H   UNL     1      -2.268   6.331  -0.558  1.00  0.00     0.167 HD
ATOM     61  C   UNL     1       0.034   5.931  -2.193  1.00  0.00     0.074 A 
ATOM     62  C   UNL     1       0.879   5.497  -3.289  1.00  0.00     0.031 C 
ATOM     63  C   UNL     1       0.445   6.729  -1.174  1.00  0.00     0.034 A 
BRANCH  50  64
ATOM     64  C   UNL     1      -4.015   8.004   2.983  1.00  0.00     0.023 A 
ATOM     65  C   UNL     1      -4.596   7.279   4.038  1.00  0.00     0.031 A 
ATOM     66  C   UNL     1      -3.944   9.403   3.103  1.00  0.00     0.131 A 
ATOM     67  C   UNL     1      -5.175   7.964   5.117  1.00  0.00     0.055 A 
ATOM     68  C   UNL     1      -4.439  10.072   4.223  1.00  0.00     0.041 A 
ATOM     69  F   UNL     1      -3.431  10.149   2.112  1.00  0.00    -0.206 F 
ATOM     70  C   UNL     1      -5.079   9.354   5.228  1.00  0.00     0.022 A 
BRANCH  67  71
ATOM     71  S   UNL     1      -6.231   7.037   6.266  1.00  0.00     0.124 S 
ATOM     72  O   UNL     1      -7.221   6.462   5.358  1.00  0.00    -0.237 OA
ATOM     73  O   UNL     1      -5.292   6.096   6.867  1.00  0.00    -0.237 OA
ATOM     74  O   UNL     1      -6.746   8.067   7.165  1.00  0.00    -0.744 OA
ENDBRANCH  67  71
ENDBRANCH  50  64
BRANCH  51  75
ATOM     75  C   UNL     1      -1.841   3.103  -5.472  1.00  0.00     0.023 A 
ATOM     76  C   UNL     1      -0.897   2.065  -5.492  1.00  0.00     0.031 A 
ATOM     77  C   UNL     1      -2.434   3.472  -6.696  1.00  0.00     0.131 A 
ATOM     78  C   UNL     1      -0.556   1.449  -6.709  1.00  0.00     0.055 A 
ATOM     79  C   UNL     1      -2.133   2.821  -7.893  1.00  0.00     0.041 A 
ATOM     80  F   UNL     1      -3.318   4.480  -6.747  1.00  0.00    -0.206 F 
ATOM     81  C   UNL     1      -1.181   1.808  -7.906  1.00  0.00     0.022 A 
BRANCH  78  82
ATOM     82  S   UNL     1       0.781   0.222  -6.726  1.00  0.00     0.124 S 
ATOM     83  O   UNL     1       1.907   1.003  -6.228  1.00  0.00    -0.237 OA
ATOM     84  O   UNL     1       0.262  -0.804  -5.828  1.00  0.00    -0.237 OA
ATOM     85  O   UNL     1       0.866  -0.170  -8.131  1.00  0.00    -0.744 OA
ENDBRANCH  78  82
ENDBRANCH  51  75
BRANCH  63  86
ATOM     86  C   UNL     1       1.894   7.146  -1.180  1.00  0.00     0.023 A 
ATOM     87  C   UNL     1       2.409   8.021  -2.152  1.00  0.00     0.031 A 
ATOM     88  C   UNL     1       2.773   6.653  -0.199  1.00  0.00     0.131 A 
ATOM     89  C   UNL     1       3.776   8.339  -2.149  1.00  0.00     0.055 A 
ATOM     90  C   UNL     1       4.118   7.021  -0.166  1.00  0.00     0.041 A 
ATOM     91  F   UNL     1       2.335   5.808   0.748  1.00  0.00    -0.206 F 
ATOM     92  C   UNL     1       4.629   7.861  -1.150  1.00  0.00     0.022 A 
BRANCH  89  93
ATOM     93  S   UNL     1       4.445   9.328  -3.515  1.00  0.00     0.124 S 
ATOM     94  O   UNL     1       4.170   8.476  -4.668  1.00  0.00    -0.237 OA
ATOM     95  O   UNL     1       3.660  10.556  -3.428  1.00  0.00    -0.237 OA
ATOM     96  O   UNL     1       5.859   9.473  -3.173  1.00  0.00    -0.744 OA
ENDBRANCH  89  93
ENDBRANCH  63  86
ENDBRANCH  37  38
ENDBRANCH  30  32
ENDBRANCH  29  30
ENDBRANCH  28  29
ENDBRANCH   1  28
TORSDOF 17
