REMARK SMILES O=C(OCCOC(=O)c1cc([C@@H]2C=NN=C2c2ccc(F)cc2)c2c(ccc3ccccc32)n1)c1ccc(-c2c3nc(c(-c4cc(S(=O)(=O)[O-])ccc4F)c4ccc([nH]4)c(-c4cc(S(=O)(=O)[O-])ccc4F)c4nc(c(-c5cc(S(=O)(=O)[O-])ccc5F)c5ccc2[nH]5)C=C4)C=C3)cc1
REMARK SMILES IDX 4 1 3 2 2 3 1 4 35 5 36 6 97 7 37 8 96 9 38 10 39 11 40 12
REMARK SMILES IDX 90 13 41 14 95 15 89 16 91 17 42 18 94 19 88 20 87 21 43 23
REMARK SMILES IDX 75 24 55 25 74 26 56 27 59 28 73 29 92 30 57 31 58 32 72 34
REMARK SMILES IDX 93 35 60 36 44 37 45 38 53 39 46 40 52 41 54 42 51 43 47 44
REMARK SMILES IDX 48 45 49 46 50 47 76 48 77 49 85 50 78 51 84 52 86 53 83 54
REMARK SMILES IDX 79 55 80 56 81 57 82 58 61 59 62 60 70 61 63 62 69 63 71 64
REMARK SMILES IDX 68 65 64 66 65 67 66 68 67 69 5 70 6 71 7 72 8 73 9 74 10 75
REMARK SMILES IDX 34 76 11 77 25 78 24 79 26 80 33 81 27 82 28 83 32 84 29 85
REMARK SMILES IDX 31 86 30 87 12 88 13 89 16 90 14 91 15 92 17 93 18 94 23 95
REMARK SMILES IDX 19 96 22 97 20 98 21 99
REMARK H PARENT 91 22 59 33
REMARK Flexibility Score: inf
ROOT
ATOM      1  C   UNL     1       4.683  -1.074  -0.670  1.00  0.00     0.275 C 
ENDROOT
BRANCH   1   2
ATOM      2  O   UNL     1       3.523  -1.694  -0.082  1.00  0.00    -0.458 OA
BRANCH   2   3
ATOM      3  C   UNL     1       2.407  -0.949   0.092  1.00  0.00     0.338 C 
ATOM      4  O   UNL     1       1.542  -0.811  -0.757  1.00  0.00    -0.246 OA
BRANCH   3   5
ATOM      5  C   UNL     1       2.282  -0.473   1.490  1.00  0.00     0.060 A 
ATOM      6  C   UNL     1       3.396  -0.343   2.329  1.00  0.00     0.016 A 
ATOM      7  C   UNL     1       1.004  -0.163   1.968  1.00  0.00     0.016 A 
ATOM      8  C   UNL     1       3.229   0.012   3.658  1.00  0.00     0.010 A 
ATOM      9  C   UNL     1       0.835   0.190   3.302  1.00  0.00     0.010 A 
ATOM     10  C   UNL     1       1.945   0.237   4.152  1.00  0.00    -0.014 A 
BRANCH  10  11
ATOM     11  C   UNL     1       1.816   0.609   5.560  1.00  0.00     0.031 A 
ATOM     12  C   UNL     1       2.389   1.933   5.936  1.00  0.00     0.074 A 
ATOM     13  C   UNL     1       1.067  -0.099   6.428  1.00  0.00     0.049 A 
ATOM     14  N   UNL     1       3.264   2.230   6.840  1.00  0.00    -0.248 NA
ATOM     15  C   UNL     1       1.967   3.085   5.129  1.00  0.00     0.031 C 
ATOM     16  C   UNL     1       0.220  -1.256   6.133  1.00  0.00     0.029 A 
ATOM     17  N   UNL     1       0.801   0.154   7.740  1.00  0.00    -0.354 N 
ATOM     18  C   UNL     1       3.337   3.623   6.859  1.00  0.00     0.074 A 
ATOM     19  C   UNL     1       2.639   4.087   5.690  1.00  0.00     0.031 C 
ATOM     20  C   UNL     1      -0.632  -1.454   7.161  1.00  0.00     0.029 A 
ATOM     21  C   UNL     1      -0.311  -0.522   8.230  1.00  0.00     0.049 A 
ATOM     22  H   UNL     1       1.346   0.761   8.291  1.00  0.00     0.167 HD
ATOM     23  C   UNL     1       3.766   4.316   7.949  1.00  0.00     0.034 A 
ATOM     24  C   UNL     1      -0.968  -0.279   9.394  1.00  0.00     0.034 A 
ATOM     25  C   UNL     1       4.575   3.505   8.820  1.00  0.00     0.049 A 
ATOM     26  C   UNL     1      -0.013   0.431  10.282  1.00  0.00     0.074 A 
ATOM     27  C   UNL     1       5.723   2.756   8.641  1.00  0.00     0.029 A 
ATOM     28  N   UNL     1       4.029   3.057   9.999  1.00  0.00    -0.354 N 
ATOM     29  N   UNL     1       1.097  -0.094  10.727  1.00  0.00    -0.248 NA
ATOM     30  C   UNL     1      -0.077   1.883  10.334  1.00  0.00     0.031 C 
ATOM     31  C   UNL     1       5.504   1.571   9.402  1.00  0.00     0.029 A 
ATOM     32  C   UNL     1       4.276   1.706  10.052  1.00  0.00     0.049 A 
ATOM     33  H   UNL     1       3.555   3.597  10.672  1.00  0.00     0.167 HD
ATOM     34  C   UNL     1       2.012   0.947  10.723  1.00  0.00     0.074 A 
ATOM     35  C   UNL     1       1.209   2.156  10.567  1.00  0.00     0.031 C 
ATOM     36  C   UNL     1       3.350   0.722  10.575  1.00  0.00     0.034 A 
BRANCH  23  37
ATOM     37  C   UNL     1       3.178   5.641   8.370  1.00  0.00     0.023 A 
ATOM     38  C   UNL     1       3.816   6.380   9.384  1.00  0.00     0.031 A 
ATOM     39  C   UNL     1       1.880   6.076   8.008  1.00  0.00     0.131 A 
ATOM     40  C   UNL     1       3.159   7.461  10.004  1.00  0.00     0.055 A 
ATOM     41  C   UNL     1       1.263   7.191   8.577  1.00  0.00     0.041 A 
ATOM     42  F   UNL     1       1.105   5.386   7.160  1.00  0.00    -0.206 F 
ATOM     43  C   UNL     1       1.894   7.880   9.596  1.00  0.00     0.022 A 
BRANCH  40  44
ATOM     44  S   UNL     1       3.924   8.229  11.457  1.00  0.00     0.124 S 
ATOM     45  O   UNL     1       4.026   7.095  12.370  1.00  0.00    -0.237 OA
ATOM     46  O   UNL     1       5.180   8.730  10.910  1.00  0.00    -0.237 OA
ATOM     47  O   UNL     1       2.961   9.257  11.845  1.00  0.00    -0.744 OA
ENDBRANCH  40  44
ENDBRANCH  23  37
BRANCH  24  48
ATOM     48  C   UNL     1      -2.436  -0.351   9.650  1.00  0.00     0.023 A 
ATOM     49  C   UNL     1      -2.965  -0.271  10.956  1.00  0.00     0.031 A 
ATOM     50  C   UNL     1      -3.367  -0.256   8.590  1.00  0.00     0.131 A 
ATOM     51  C   UNL     1      -4.354  -0.101  11.157  1.00  0.00     0.055 A 
ATOM     52  C   UNL     1      -4.741  -0.107   8.794  1.00  0.00     0.041 A 
ATOM     53  F   UNL     1      -2.971  -0.211   7.309  1.00  0.00    -0.206 F 
ATOM     54  C   UNL     1      -5.241  -0.016  10.082  1.00  0.00     0.022 A 
BRANCH  51  55
ATOM     55  S   UNL     1      -5.021   0.156  12.832  1.00  0.00     0.124 S 
ATOM     56  O   UNL     1      -5.110  -1.210  13.336  1.00  0.00    -0.237 OA
ATOM     57  O   UNL     1      -4.013   1.010  13.450  1.00  0.00    -0.237 OA
ATOM     58  O   UNL     1      -6.306   0.810  12.585  1.00  0.00    -0.744 OA
ENDBRANCH  51  55
ENDBRANCH  24  48
BRANCH  36  59
ATOM     59  C   UNL     1       3.886  -0.684  10.733  1.00  0.00     0.023 A 
ATOM     60  C   UNL     1       3.560  -1.774   9.896  1.00  0.00     0.031 A 
ATOM     61  C   UNL     1       4.915  -0.865  11.675  1.00  0.00     0.131 A 
ATOM     62  C   UNL     1       4.264  -2.990  10.022  1.00  0.00     0.055 A 
ATOM     63  C   UNL     1       5.621  -2.062  11.784  1.00  0.00     0.041 A 
ATOM     64  F   UNL     1       5.291   0.149  12.474  1.00  0.00    -0.206 F 
ATOM     65  C   UNL     1       5.298  -3.130  10.956  1.00  0.00     0.022 A 
BRANCH  62  66
ATOM     66  S   UNL     1       3.881  -4.404   8.936  1.00  0.00     0.124 S 
ATOM     67  O   UNL     1       2.480  -4.679   9.232  1.00  0.00    -0.237 OA
ATOM     68  O   UNL     1       4.168  -3.877   7.605  1.00  0.00    -0.237 OA
ATOM     69  O   UNL     1       4.811  -5.443   9.385  1.00  0.00    -0.744 OA
ENDBRANCH  62  66
ENDBRANCH  36  59
ENDBRANCH  10  11
ENDBRANCH   3   5
ENDBRANCH   2   3
ENDBRANCH   1   2
BRANCH   1  70
ATOM     70  C   UNL     1       4.439   0.136  -1.567  1.00  0.00     0.275 C 
BRANCH  70  71
ATOM     71  O   UNL     1       3.936   1.232  -0.784  1.00  0.00    -0.457 OA
BRANCH  71  72
ATOM     72  C   UNL     1       2.905   1.921  -1.342  1.00  0.00     0.357 C 
ATOM     73  O   UNL     1       2.433   1.779  -2.456  1.00  0.00    -0.244 OA
BRANCH  72  74
ATOM     74  C   UNL     1       2.623   3.081  -0.476  1.00  0.00     0.149 A 
ATOM     75  C   UNL     1       3.366   4.208  -0.707  1.00  0.00     0.041 A 
ATOM     76  N   UNL     1       1.624   3.030   0.412  1.00  0.00    -0.241 NA
ATOM     77  C   UNL     1       3.081   5.399  -0.007  1.00  0.00    -0.021 A 
ATOM     78  C   UNL     1       1.347   4.142   1.108  1.00  0.00     0.072 A 
ATOM     79  C   UNL     1       2.003   5.409   0.966  1.00  0.00     0.012 A 
ATOM     80  C   UNL     1       0.314   3.979   2.004  1.00  0.00     0.029 A 
ATOM     81  C   UNL     1       1.475   6.515   1.794  1.00  0.00    -0.009 A 
ATOM     82  C   UNL     1      -0.105   4.998   2.847  1.00  0.00     0.011 A 
ATOM     83  C   UNL     1       0.468   6.257   2.763  1.00  0.00    -0.018 A 
ATOM     84  C   UNL     1       1.851   7.878   1.722  1.00  0.00     0.009 A 
ATOM     85  C   UNL     1       0.001   7.249   3.645  1.00  0.00     0.009 A 
ATOM     86  C   UNL     1       1.375   8.874   2.583  1.00  0.00     0.001 A 
ATOM     87  C   UNL     1       0.465   8.554   3.568  1.00  0.00     0.001 A 
BRANCH  77  88
ATOM     88  C   UNL     1       3.951   6.527  -0.503  1.00  0.00     0.115 C 
ATOM     89  C   UNL     1       4.718   7.374   0.437  1.00  0.00     0.123 C 
ATOM     90  C   UNL     1       3.361   7.606  -1.353  1.00  0.00     0.083 C 
ATOM     91  N   UNL     1       4.746   8.616   0.066  1.00  0.00    -0.162 NA
ATOM     92  N   UNL     1       3.887   8.767  -1.085  1.00  0.00    -0.154 NA
BRANCH  90  93
ATOM     93  C   UNL     1       2.420   7.358  -2.461  1.00  0.00    -0.001 A 
ATOM     94  C   UNL     1       2.743   7.851  -3.730  1.00  0.00     0.013 A 
ATOM     95  C   UNL     1       1.225   6.654  -2.272  1.00  0.00     0.013 A 
ATOM     96  C   UNL     1       1.890   7.602  -4.809  1.00  0.00     0.040 A 
ATOM     97  C   UNL     1       0.379   6.399  -3.353  1.00  0.00     0.040 A 
ATOM     98  C   UNL     1       0.721   6.872  -4.612  1.00  0.00     0.123 A 
ATOM     99  F   UNL     1      -0.091   6.634  -5.650  1.00  0.00    -0.207 F 
ENDBRANCH  90  93
ENDBRANCH  77  88
ENDBRANCH  72  74
ENDBRANCH  71  72
ENDBRANCH  70  71
ENDBRANCH   1  70
TORSDOF 16
