REMARK SMILES O=C(Cc1ccccc1C(=O)OCCOC(=O)c1ccc(-c2c3nc(c(-c4cc(S(=O)(=O)[O-])ccc4F)c4ccc([nH]4)c(-c4cc(S(=O)(=O)[O-])ccc4F)c4nc(c(-c5cc(S(=O)(=O)[O-])ccc5F)c5ccc2[nH]5)C=C4)C=C3)cc1)Nc1ccc(S(=O)(=O)N2CCCC2)cc1
REMARK SMILES IDX 13 1 12 2 10 3 11 4 9 5 4 6 5 7 6 8 8 9 7 10 3 11 2 12 1 13
REMARK SMILES IDX 81 14 82 16 83 17 95 18 84 19 94 20 85 21 86 22 87 23 88 24
REMARK SMILES IDX 89 25 90 26 93 27 91 28 92 29 14 30 15 31 16 32 17 33 18 34
REMARK SMILES IDX 19 35 80 36 20 37 79 38 21 39 22 40 23 41 73 42 24 43 78 44
REMARK SMILES IDX 72 45 74 46 25 47 77 48 71 49 70 50 26 52 58 53 38 54 57 55
REMARK SMILES IDX 39 56 42 57 56 58 75 59 40 60 41 61 55 63 76 64 43 65 27 66
REMARK SMILES IDX 28 67 36 68 29 69 35 70 37 71 34 72 30 73 31 74 32 75 33 76
REMARK SMILES IDX 59 77 60 78 68 79 61 80 67 81 69 82 66 83 62 84 63 85 64 86
REMARK SMILES IDX 65 87 44 88 45 89 53 90 46 91 52 92 54 93 51 94 47 95 48 96
REMARK SMILES IDX 49 97 50 98
REMARK H PARENT 81 15 74 51 42 62
REMARK Flexibility Score: inf
ROOT
ATOM      1  C   UNL     1       5.061   3.651   2.184  1.00  0.00     0.275 C 
ENDROOT
BRANCH   1   2
ATOM      2  O   UNL     1       4.684   2.263   2.269  1.00  0.00    -0.458 OA
BRANCH   2   3
ATOM      3  C   UNL     1       5.659   1.337   2.088  1.00  0.00     0.338 C 
ATOM      4  O   UNL     1       6.844   1.553   1.906  1.00  0.00    -0.246 OA
BRANCH   3   5
ATOM      5  C   UNL     1       5.078  -0.029   2.225  1.00  0.00     0.063 A 
ATOM      6  C   UNL     1       3.830  -0.390   1.678  1.00  0.00    -0.024 A 
ATOM      7  C   UNL     1       3.289  -1.647   2.011  1.00  0.00     0.005 A 
ATOM      8  C   UNL     1       4.016  -2.558   2.779  1.00  0.00     0.000 A 
ATOM      9  C   UNL     1       5.820  -0.968   2.958  1.00  0.00     0.016 A 
ATOM     10  C   UNL     1       5.288  -2.227   3.237  1.00  0.00     0.001 A 
BRANCH   6  11
ATOM     11  C   UNL     1       3.078   0.562   0.777  1.00  0.00     0.136 C 
BRANCH  11  12
ATOM     12  C   UNL     1       2.270  -0.044  -0.345  1.00  0.00     0.228 C 
ATOM     13  O   UNL     1       1.157   0.414  -0.607  1.00  0.00    -0.274 OA
ATOM     14  N   UNL     1       2.906  -1.061  -1.049  1.00  0.00    -0.326 N 
ATOM     15  H   UNL     1       3.788  -1.366  -0.736  1.00  0.00     0.169 HD
BRANCH  14  16
ATOM     16  C   UNL     1       2.352  -1.673  -2.185  1.00  0.00     0.041 A 
ATOM     17  C   UNL     1       2.618  -3.021  -2.439  1.00  0.00     0.027 A 
ATOM     18  C   UNL     1       1.496  -0.970  -3.029  1.00  0.00     0.027 A 
ATOM     19  C   UNL     1       1.886  -3.697  -3.425  1.00  0.00     0.024 A 
ATOM     20  C   UNL     1       0.809  -1.628  -4.038  1.00  0.00     0.024 A 
ATOM     21  C   UNL     1       0.947  -3.002  -4.194  1.00  0.00     0.082 A 
BRANCH  21  22
ATOM     22  S   UNL     1      -0.174  -3.921  -5.232  1.00  0.00     0.243 S 
ATOM     23  O   UNL     1       0.502  -4.150  -6.484  1.00  0.00    -0.207 OA
ATOM     24  O   UNL     1      -0.667  -5.015  -4.421  1.00  0.00    -0.207 OA
BRANCH  22  25
ATOM     25  N   UNL     1      -1.490  -2.905  -5.522  1.00  0.00    -0.198 NA
ATOM     26  C   UNL     1      -1.456  -1.902  -6.589  1.00  0.00     0.102 C 
ATOM     27  C   UNL     1      -2.381  -2.498  -4.428  1.00  0.00     0.102 C 
ATOM     28  C   UNL     1      -2.055  -0.637  -5.995  1.00  0.00     0.018 C 
ATOM     29  C   UNL     1      -2.753  -1.046  -4.707  1.00  0.00     0.018 C 
ENDBRANCH  22  25
ENDBRANCH  21  22
ENDBRANCH  14  16
ENDBRANCH  11  12
ENDBRANCH   6  11
ENDBRANCH   3   5
ENDBRANCH   2   3
ENDBRANCH   1   2
BRANCH   1  30
ATOM     30  C   UNL     1       4.571   4.390   3.427  1.00  0.00     0.275 C 
BRANCH  30  31
ATOM     31  O   UNL     1       5.242   3.837   4.571  1.00  0.00    -0.458 OA
BRANCH  31  32
ATOM     32  C   UNL     1       4.445   3.227   5.479  1.00  0.00     0.338 C 
ATOM     33  O   UNL     1       3.229   3.245   5.539  1.00  0.00    -0.246 OA
BRANCH  32  34
ATOM     34  C   UNL     1       5.297   2.412   6.356  1.00  0.00     0.060 A 
ATOM     35  C   UNL     1       5.804   1.220   5.845  1.00  0.00     0.016 A 
ATOM     36  C   UNL     1       5.510   2.757   7.688  1.00  0.00     0.016 A 
ATOM     37  C   UNL     1       6.487   0.336   6.673  1.00  0.00     0.010 A 
ATOM     38  C   UNL     1       6.253   1.894   8.506  1.00  0.00     0.010 A 
ATOM     39  C   UNL     1       6.723   0.659   8.016  1.00  0.00    -0.014 A 
BRANCH  39  40
ATOM     40  C   UNL     1       7.374  -0.343   8.910  1.00  0.00     0.031 A 
ATOM     41  C   UNL     1       6.618  -0.904  10.088  1.00  0.00     0.074 A 
ATOM     42  C   UNL     1       8.614  -0.800   8.638  1.00  0.00     0.049 A 
ATOM     43  N   UNL     1       7.033  -1.701  11.040  1.00  0.00    -0.248 NA
ATOM     44  C   UNL     1       5.211  -0.498  10.218  1.00  0.00     0.031 C 
ATOM     45  C   UNL     1       9.442  -0.377   7.507  1.00  0.00     0.029 A 
ATOM     46  N   UNL     1       9.386  -1.740   9.277  1.00  0.00    -0.354 N 
ATOM     47  C   UNL     1       5.957  -1.848  11.911  1.00  0.00     0.074 A 
ATOM     48  C   UNL     1       4.878  -1.042  11.379  1.00  0.00     0.031 C 
ATOM     49  C   UNL     1      10.580  -1.089   7.503  1.00  0.00     0.029 A 
ATOM     50  C   UNL     1      10.603  -1.960   8.674  1.00  0.00     0.049 A 
ATOM     51  H   UNL     1       9.095  -2.211  10.091  1.00  0.00     0.167 HD
ATOM     52  C   UNL     1       5.877  -2.587  13.047  1.00  0.00     0.034 A 
ATOM     53  C   UNL     1      11.635  -2.749   9.035  1.00  0.00     0.034 A 
ATOM     54  C   UNL     1       6.945  -3.426  13.540  1.00  0.00     0.049 A 
ATOM     55  C   UNL     1      11.524  -3.555  10.304  1.00  0.00     0.074 A 
ATOM     56  C   UNL     1       6.968  -4.218  14.676  1.00  0.00     0.029 A 
ATOM     57  N   UNL     1       8.177  -3.594  12.920  1.00  0.00    -0.354 N 
ATOM     58  N   UNL     1      10.526  -3.628  11.154  1.00  0.00    -0.248 NA
ATOM     59  C   UNL     1      12.685  -4.378  10.664  1.00  0.00     0.031 C 
ATOM     60  C   UNL     1       8.228  -4.821  14.770  1.00  0.00     0.029 A 
ATOM     61  C   UNL     1       8.970  -4.462  13.657  1.00  0.00     0.049 A 
ATOM     62  H   UNL     1       8.448  -3.159  12.079  1.00  0.00     0.167 HD
ATOM     63  C   UNL     1      10.941  -4.508  12.149  1.00  0.00     0.074 A 
ATOM     64  C   UNL     1      12.261  -4.970  11.769  1.00  0.00     0.031 C 
ATOM     65  C   UNL     1      10.297  -4.891  13.282  1.00  0.00     0.034 A 
BRANCH  52  66
ATOM     66  C   UNL     1       4.610  -2.467  13.864  1.00  0.00     0.023 A 
ATOM     67  C   UNL     1       3.361  -2.892  13.379  1.00  0.00     0.031 A 
ATOM     68  C   UNL     1       4.652  -1.874  15.139  1.00  0.00     0.131 A 
ATOM     69  C   UNL     1       2.199  -2.649  14.129  1.00  0.00     0.055 A 
ATOM     70  C   UNL     1       3.503  -1.710  15.916  1.00  0.00     0.041 A 
ATOM     71  F   UNL     1       5.812  -1.429  15.648  1.00  0.00    -0.206 F 
ATOM     72  C   UNL     1       2.264  -2.083  15.404  1.00  0.00     0.022 A 
BRANCH  69  73
ATOM     73  S   UNL     1       0.587  -2.945  13.352  1.00  0.00     0.124 S 
ATOM     74  O   UNL     1       0.654  -2.067  12.187  1.00  0.00    -0.237 OA
ATOM     75  O   UNL     1       0.628  -4.377  13.076  1.00  0.00    -0.237 OA
ATOM     76  O   UNL     1      -0.369  -2.534  14.379  1.00  0.00    -0.744 OA
ENDBRANCH  69  73
ENDBRANCH  52  66
BRANCH  53  77
ATOM     77  C   UNL     1      12.888  -2.778   8.225  1.00  0.00     0.023 A 
ATOM     78  C   UNL     1      13.320  -3.955   7.593  1.00  0.00     0.031 A 
ATOM     79  C   UNL     1      13.697  -1.633   8.110  1.00  0.00     0.131 A 
ATOM     80  C   UNL     1      14.545  -3.970   6.907  1.00  0.00     0.055 A 
ATOM     81  C   UNL     1      14.886  -1.639   7.379  1.00  0.00     0.041 A 
ATOM     82  F   UNL     1      13.332  -0.482   8.697  1.00  0.00    -0.206 F 
ATOM     83  C   UNL     1      15.323  -2.816   6.782  1.00  0.00     0.022 A 
BRANCH  80  84
ATOM     84  S   UNL     1      15.151  -5.546   6.240  1.00  0.00     0.124 S 
ATOM     85  O   UNL     1      15.224  -6.369   7.442  1.00  0.00    -0.237 OA
ATOM     86  O   UNL     1      14.102  -5.894   5.287  1.00  0.00    -0.237 OA
ATOM     87  O   UNL     1      16.437  -5.192   5.645  1.00  0.00    -0.744 OA
ENDBRANCH  80  84
ENDBRANCH  53  77
BRANCH  65  88
ATOM     88  C   UNL     1      11.023  -5.874  14.169  1.00  0.00     0.023 A 
ATOM     89  C   UNL     1      12.217  -5.526  14.827  1.00  0.00     0.031 A 
ATOM     90  C   UNL     1      10.550  -7.190  14.311  1.00  0.00     0.131 A 
ATOM     91  C   UNL     1      12.939  -6.502  15.530  1.00  0.00     0.055 A 
ATOM     92  C   UNL     1      11.240  -8.140  15.066  1.00  0.00     0.041 A 
ATOM     93  F   UNL     1       9.417  -7.578  13.704  1.00  0.00    -0.206 F 
ATOM     94  C   UNL     1      12.451  -7.804  15.664  1.00  0.00     0.022 A 
BRANCH  91  95
ATOM     95  S   UNL     1      14.590  -6.081  16.153  1.00  0.00     0.124 S 
ATOM     96  O   UNL     1      15.261  -5.612  14.945  1.00  0.00    -0.237 OA
ATOM     97  O   UNL     1      14.294  -5.062  17.154  1.00  0.00    -0.237 OA
ATOM     98  O   UNL     1      15.089  -7.348  16.686  1.00  0.00    -0.744 OA
ENDBRANCH  91  95
ENDBRANCH  65  88
ENDBRANCH  39  40
ENDBRANCH  32  34
ENDBRANCH  31  32
ENDBRANCH  30  31
ENDBRANCH   1  30
TORSDOF 19
