REMARK SMILES COCCCC(=O)N[C@H]1CC[C@@H](C(=O)OCCOC(=O)c2ccc(-c3c4nc(c(-c5cc(S(=O)(=O)[O-])ccc5F)c5ccc([nH]5)c(-c5cc(S(=O)(=O)[O-])ccc5F)c5nc(c(-c6cc(S(=O)(=O)[O-])ccc6F)c6ccc3[nH]6)C=C5)C=C4)cc2)CC1
REMARK SMILES IDX 16 1 15 2 13 3 14 4 12 5 9 6 10 7 85 8 11 9 84 10 8 11 6 12
REMARK SMILES IDX 7 13 5 15 4 16 3 17 2 18 1 19 17 20 18 21 19 22 20 23 21 24
REMARK SMILES IDX 22 25 83 26 23 27 82 28 24 29 25 30 26 31 76 32 27 33 81 34
REMARK SMILES IDX 75 35 77 36 28 37 80 38 74 39 73 40 29 42 61 43 41 44 60 45
REMARK SMILES IDX 42 46 45 47 59 48 78 49 43 50 44 51 58 53 79 54 46 55 30 56
REMARK SMILES IDX 31 57 39 58 32 59 38 60 40 61 37 62 33 63 34 64 35 65 36 66
REMARK SMILES IDX 62 67 63 68 71 69 64 70 70 71 72 72 69 73 65 74 66 75 67 76
REMARK SMILES IDX 68 77 47 78 48 79 56 80 49 81 55 82 57 83 54 84 50 85 51 86
REMARK SMILES IDX 52 87 53 88
REMARK H PARENT 8 14 77 41 45 52
REMARK Flexibility Score: inf
ROOT
ATOM      1  C   UNL     1       3.205  -2.312   3.323  1.00  0.00     0.274 C 
ENDROOT
BRANCH   1   2
ATOM      2  O   UNL     1       2.937  -2.184   1.916  1.00  0.00    -0.462 OA
BRANCH   2   3
ATOM      3  C   UNL     1       2.961  -3.300   1.148  1.00  0.00     0.309 C 
ATOM      4  O   UNL     1       3.316  -4.405   1.534  1.00  0.00    -0.252 OA
BRANCH   3   5
ATOM      5  C   UNL     1       2.517  -3.018  -0.287  1.00  0.00     0.099 C 
ATOM      6  C   UNL     1       3.096  -0.261  -1.361  1.00  0.00     0.082 C 
ATOM      7  C   UNL     1       4.209  -1.321  -1.210  1.00  0.00     0.026 C 
ATOM      8  C   UNL     1       2.057  -0.513  -0.282  1.00  0.00     0.026 C 
ATOM      9  C   UNL     1       3.695  -2.764  -1.229  1.00  0.00     0.017 C 
ATOM     10  C   UNL     1       1.470  -1.914  -0.409  1.00  0.00     0.017 C 
BRANCH   6  11
ATOM     11  N   UNL     1       3.693   1.075  -1.319  1.00  0.00    -0.353 N 
ATOM     12  C   UNL     1       3.182   2.333  -1.343  1.00  0.00     0.220 C 
ATOM     13  O   UNL     1       3.977   3.254  -1.561  1.00  0.00    -0.275 OA
ATOM     14  H   UNL     1       4.676   1.058  -1.259  1.00  0.00     0.163 HD
BRANCH  12  15
ATOM     15  C   UNL     1       1.723   2.640  -1.066  1.00  0.00     0.102 C 
BRANCH  15  16
ATOM     16  C   UNL     1       0.796   2.472  -2.271  1.00  0.00     0.038 C 
BRANCH  16  17
ATOM     17  C   UNL     1      -0.297   1.405  -2.163  1.00  0.00     0.160 C 
BRANCH  17  18
ATOM     18  O   UNL     1      -1.316   1.810  -1.254  1.00  0.00    -0.385 OA
ATOM     19  C   UNL     1      -1.306   1.148   0.004  1.00  0.00     0.194 C 
ENDBRANCH  17  18
ENDBRANCH  16  17
ENDBRANCH  15  16
ENDBRANCH  12  15
ENDBRANCH   6  11
ENDBRANCH   3   5
ENDBRANCH   2   3
ENDBRANCH   1   2
BRANCH   1  20
ATOM     20  C   UNL     1       1.929  -2.029   4.117  1.00  0.00     0.275 C 
BRANCH  20  21
ATOM     21  O   UNL     1       0.975  -3.086   3.909  1.00  0.00    -0.458 OA
BRANCH  21  22
ATOM     22  C   UNL     1      -0.032  -2.811   3.051  1.00  0.00     0.338 C 
ATOM     23  O   UNL     1      -0.272  -1.740   2.508  1.00  0.00    -0.246 OA
BRANCH  22  24
ATOM     24  C   UNL     1      -0.751  -4.057   2.751  1.00  0.00     0.060 A 
ATOM     25  C   UNL     1      -0.707  -4.566   1.449  1.00  0.00     0.016 A 
ATOM     26  C   UNL     1      -1.498  -4.702   3.738  1.00  0.00     0.016 A 
ATOM     27  C   UNL     1      -1.414  -5.721   1.126  1.00  0.00     0.010 A 
ATOM     28  C   UNL     1      -2.202  -5.865   3.414  1.00  0.00     0.010 A 
ATOM     29  C   UNL     1      -2.171  -6.377   2.104  1.00  0.00    -0.014 A 
BRANCH  29  30
ATOM     30  C   UNL     1      -2.975  -7.570   1.745  1.00  0.00     0.031 A 
ATOM     31  C   UNL     1      -4.468  -7.452   1.637  1.00  0.00     0.074 A 
ATOM     32  C   UNL     1      -2.365  -8.748   1.514  1.00  0.00     0.049 A 
ATOM     33  N   UNL     1      -5.362  -8.385   1.439  1.00  0.00    -0.248 NA
ATOM     34  C   UNL     1      -5.026  -6.099   1.777  1.00  0.00     0.031 C 
ATOM     35  C   UNL     1      -0.918  -8.966   1.544  1.00  0.00     0.029 A 
ATOM     36  N   UNL     1      -2.884  -9.982   1.219  1.00  0.00    -0.354 N 
ATOM     37  C   UNL     1      -6.593  -7.738   1.447  1.00  0.00     0.074 A 
ATOM     38  C   UNL     1      -6.327  -6.336   1.697  1.00  0.00     0.031 C 
ATOM     39  C   UNL     1      -0.666 -10.259   1.282  1.00  0.00     0.029 A 
ATOM     40  C   UNL     1      -1.931 -10.970   1.121  1.00  0.00     0.049 A 
ATOM     41  H   UNL     1      -3.846 -10.146   1.089  1.00  0.00     0.167 HD
ATOM     42  C   UNL     1      -7.828  -8.268   1.260  1.00  0.00     0.034 A 
ATOM     43  C   UNL     1      -2.067 -12.302   0.958  1.00  0.00     0.034 A 
ATOM     44  C   UNL     1      -8.068  -9.671   1.018  1.00  0.00     0.049 A 
ATOM     45  C   UNL     1      -3.455 -12.880   0.833  1.00  0.00     0.074 A 
ATOM     46  C   UNL     1      -9.275 -10.317   0.809  1.00  0.00     0.029 A 
ATOM     47  N   UNL     1      -7.082 -10.649   0.962  1.00  0.00    -0.354 N 
ATOM     48  N   UNL     1      -4.613 -12.261   0.856  1.00  0.00    -0.248 NA
ATOM     49  C   UNL     1      -3.553 -14.334   0.657  1.00  0.00     0.031 C 
ATOM     50  C   UNL     1      -9.025 -11.689   0.695  1.00  0.00     0.029 A 
ATOM     51  C   UNL     1      -7.656 -11.895   0.753  1.00  0.00     0.049 A 
ATOM     52  H   UNL     1      -6.117 -10.482   1.056  1.00  0.00     0.167 HD
ATOM     53  C   UNL     1      -5.575 -13.250   0.669  1.00  0.00     0.074 A 
ATOM     54  C   UNL     1      -4.860 -14.501   0.522  1.00  0.00     0.031 C 
ATOM     55  C   UNL     1      -6.928 -13.135   0.620  1.00  0.00     0.034 A 
BRANCH  42  56
ATOM     56  C   UNL     1      -9.008  -7.332   1.374  1.00  0.00     0.023 A 
ATOM     57  C   UNL     1      -9.203  -6.270   0.474  1.00  0.00     0.031 A 
ATOM     58  C   UNL     1      -9.933  -7.486   2.422  1.00  0.00     0.131 A 
ATOM     59  C   UNL     1     -10.253  -5.361   0.682  1.00  0.00     0.055 A 
ATOM     60  C   UNL     1     -11.022  -6.625   2.576  1.00  0.00     0.041 A 
ATOM     61  F   UNL     1      -9.786  -8.467   3.326  1.00  0.00    -0.206 F 
ATOM     62  C   UNL     1     -11.178  -5.546   1.712  1.00  0.00     0.022 A 
BRANCH  59  63
ATOM     63  S   UNL     1     -10.308  -3.854  -0.326  1.00  0.00     0.124 S 
ATOM     64  O   UNL     1      -9.014  -3.248  -0.021  1.00  0.00    -0.237 OA
ATOM     65  O   UNL     1     -10.464  -4.383  -1.676  1.00  0.00    -0.237 OA
ATOM     66  O   UNL     1     -11.465  -3.132   0.199  1.00  0.00    -0.744 OA
ENDBRANCH  59  63
ENDBRANCH  42  56
BRANCH  43  67
ATOM     67  C   UNL     1      -0.868 -13.188   0.957  1.00  0.00     0.023 A 
ATOM     68  C   UNL     1      -0.519 -13.938  -0.177  1.00  0.00     0.031 A 
ATOM     69  C   UNL     1      -0.077 -13.332   2.111  1.00  0.00     0.131 A 
ATOM     70  C   UNL     1       0.565 -14.829  -0.119  1.00  0.00     0.055 A 
ATOM     71  C   UNL     1       1.032 -14.178   2.146  1.00  0.00     0.041 A 
ATOM     72  F   UNL     1      -0.367 -12.639   3.224  1.00  0.00    -0.206 F 
ATOM     73  C   UNL     1       1.351 -14.943   1.029  1.00  0.00     0.022 A 
BRANCH  70  74
ATOM     74  S   UNL     1       0.883 -15.903  -1.546  1.00  0.00     0.124 S 
ATOM     75  O   UNL     1      -0.382 -16.617  -1.669  1.00  0.00    -0.237 OA
ATOM     76  O   UNL     1       1.177 -14.932  -2.596  1.00  0.00    -0.237 OA
ATOM     77  O   UNL     1       2.020 -16.714  -1.115  1.00  0.00    -0.744 OA
ENDBRANCH  70  74
ENDBRANCH  43  67
BRANCH  55  78
ATOM     78  C   UNL     1      -7.711 -14.396   0.346  1.00  0.00     0.023 A 
ATOM     79  C   UNL     1      -7.769 -15.450   1.275  1.00  0.00     0.031 A 
ATOM     80  C   UNL     1      -8.399 -14.548  -0.871  1.00  0.00     0.131 A 
ATOM     81  C   UNL     1      -8.453 -16.631   0.949  1.00  0.00     0.055 A 
ATOM     82  C   UNL     1      -9.127 -15.701  -1.165  1.00  0.00     0.041 A 
ATOM     83  F   UNL     1      -8.375 -13.574  -1.795  1.00  0.00    -0.206 F 
ATOM     84  C   UNL     1      -9.146 -16.757  -0.258  1.00  0.00     0.022 A 
BRANCH  81  85
ATOM     85  S   UNL     1      -8.352 -18.041   2.086  1.00  0.00     0.124 S 
ATOM     86  O   UNL     1      -6.914 -18.280   2.145  1.00  0.00    -0.237 OA
ATOM     87  O   UNL     1      -8.960 -17.506   3.301  1.00  0.00    -0.237 OA
ATOM     88  O   UNL     1      -9.127 -19.081   1.413  1.00  0.00    -0.744 OA
ENDBRANCH  81  85
ENDBRANCH  55  78
ENDBRANCH  29  30
ENDBRANCH  22  24
ENDBRANCH  21  22
ENDBRANCH  20  21
ENDBRANCH   1  20
TORSDOF 19
