REMARK SMILES C[C@H](O)[C@@H](NS(=O)(=O)c1ccc(F)cc1)C(=O)OCCOC(=O)c1ccc(-c2c3nc(c(-c4cc(S(=O)(=O)[O-])ccc4F)c4ccc([nH]4)c(-c4cc(S(=O)(=O)[O-])ccc4F)c4nc(c(-c5cc(S(=O)(=O)[O-])ccc5F)c5ccc2[nH]5)C=C4)C=C3)cc1
REMARK SMILES IDX 19 1 18 2 16 3 17 4 4 5 2 6 1 7 3 8 5 10 6 12 7 13 8 14 9 15
REMARK SMILES IDX 10 16 15 17 11 18 14 19 12 20 13 21 20 22 21 23 22 24 23 25
REMARK SMILES IDX 24 26 25 27 86 28 26 29 85 30 27 31 28 32 29 33 79 34 30 35
REMARK SMILES IDX 84 36 78 37 80 38 31 39 83 40 77 41 76 42 32 44 64 45 44 46
REMARK SMILES IDX 63 47 45 48 48 49 62 50 81 51 46 52 47 53 61 55 82 56 49 57
REMARK SMILES IDX 33 58 34 59 42 60 35 61 41 62 43 63 40 64 36 65 37 66 38 67
REMARK SMILES IDX 39 68 65 69 66 70 74 71 67 72 73 73 75 74 72 75 68 76 69 77
REMARK SMILES IDX 70 78 71 79 50 80 51 81 59 82 52 83 58 84 60 85 57 86 53 87
REMARK SMILES IDX 54 88 55 89 56 90
REMARK H PARENT 3 9 5 11 80 43 48 54
REMARK Flexibility Score: inf
ROOT
ATOM      1  C   UNL     1      -1.210  -3.756   3.732  1.00  0.00     0.274 C 
ENDROOT
BRANCH   1   2
ATOM      2  O   UNL     1      -0.655  -2.991   2.640  1.00  0.00    -0.461 OA
BRANCH   2   3
ATOM      3  C   UNL     1      -1.450  -1.983   2.192  1.00  0.00     0.326 C 
ATOM      4  O   UNL     1      -2.485  -1.642   2.753  1.00  0.00    -0.250 OA
BRANCH   3   5
ATOM      5  C   UNL     1      -1.017  -1.377   0.865  1.00  0.00     0.208 C 
BRANCH   5   6
ATOM      6  C   UNL     1       0.507  -1.399   0.619  1.00  0.00     0.140 C 
ATOM      7  C   UNL     1       1.235  -0.358   1.464  1.00  0.00     0.040 C 
BRANCH   6   8
ATOM      8  O   UNL     1       0.747  -1.107  -0.774  1.00  0.00    -0.391 OA
ATOM      9  H   UNL     1       0.399  -0.226  -0.984  1.00  0.00     0.211 HD
ENDBRANCH   6   8
ENDBRANCH   5   6
BRANCH   5  10
ATOM     10  N   UNL     1      -1.709  -2.066  -0.271  1.00  0.00    -0.194 NA
ATOM     11  H   UNL     1      -1.640  -3.070  -0.107  1.00  0.00     0.142 HD
BRANCH  10  12
ATOM     12  S   UNL     1      -3.345  -1.703  -0.522  1.00  0.00     0.241 S 
ATOM     13  O   UNL     1      -3.553  -0.321  -0.140  1.00  0.00    -0.207 OA
ATOM     14  O   UNL     1      -3.663  -2.186  -1.843  1.00  0.00    -0.207 OA
BRANCH  12  15
ATOM     15  C   UNL     1      -4.189  -2.763   0.626  1.00  0.00     0.082 A 
ATOM     16  C   UNL     1      -3.904  -4.133   0.616  1.00  0.00     0.025 A 
ATOM     17  C   UNL     1      -5.052  -2.214   1.584  1.00  0.00     0.025 A 
ATOM     18  C   UNL     1      -4.452  -4.950   1.604  1.00  0.00     0.040 A 
ATOM     19  C   UNL     1      -5.584  -3.037   2.578  1.00  0.00     0.040 A 
ATOM     20  C   UNL     1      -5.273  -4.394   2.583  1.00  0.00     0.123 A 
ATOM     21  F   UNL     1      -5.750  -5.177   3.559  1.00  0.00    -0.207 F 
ENDBRANCH  12  15
ENDBRANCH  10  12
ENDBRANCH   5  10
ENDBRANCH   3   5
ENDBRANCH   2   3
ENDBRANCH   1   2
BRANCH   1  22
ATOM     22  C   UNL     1      -0.914  -3.188   5.127  1.00  0.00     0.275 C 
BRANCH  22  23
ATOM     23  O   UNL     1      -1.515  -1.899   5.348  1.00  0.00    -0.458 OA
BRANCH  23  24
ATOM     24  C   UNL     1      -0.693  -0.844   5.134  1.00  0.00     0.338 C 
ATOM     25  O   UNL     1       0.495  -0.896   4.859  1.00  0.00    -0.246 OA
BRANCH  24  26
ATOM     26  C   UNL     1      -1.455   0.417   5.122  1.00  0.00     0.060 A 
ATOM     27  C   UNL     1      -1.625   1.075   3.900  1.00  0.00     0.016 A 
ATOM     28  C   UNL     1      -1.895   1.009   6.305  1.00  0.00     0.016 A 
ATOM     29  C   UNL     1      -2.242   2.319   3.844  1.00  0.00     0.010 A 
ATOM     30  C   UNL     1      -2.498   2.272   6.252  1.00  0.00     0.010 A 
ATOM     31  C   UNL     1      -2.664   2.937   5.023  1.00  0.00    -0.014 A 
BRANCH  31  32
ATOM     32  C   UNL     1      -3.180   4.325   4.972  1.00  0.00     0.031 A 
ATOM     33  C   UNL     1      -2.284   5.455   5.392  1.00  0.00     0.074 A 
ATOM     34  C   UNL     1      -4.414   4.576   4.499  1.00  0.00     0.049 A 
ATOM     35  N   UNL     1      -2.570   6.719   5.557  1.00  0.00    -0.248 NA
ATOM     36  C   UNL     1      -0.877   5.113   5.655  1.00  0.00     0.031 C 
ATOM     37  C   UNL     1      -5.330   3.574   3.954  1.00  0.00     0.029 A 
ATOM     38  N   UNL     1      -5.107   5.756   4.395  1.00  0.00    -0.354 N 
ATOM     39  C   UNL     1      -1.386   7.324   5.962  1.00  0.00     0.074 A 
ATOM     40  C   UNL     1      -0.380   6.285   6.026  1.00  0.00     0.031 C 
ATOM     41  C   UNL     1      -6.466   4.182   3.573  1.00  0.00     0.029 A 
ATOM     42  C   UNL     1      -6.382   5.603   3.904  1.00  0.00     0.049 A 
ATOM     43  H   UNL     1      -4.728   6.628   4.649  1.00  0.00     0.167 HD
ATOM     44  C   UNL     1      -1.166   8.627   6.258  1.00  0.00     0.034 A 
ATOM     45  C   UNL     1      -7.380   6.499   3.774  1.00  0.00     0.034 A 
ATOM     46  C   UNL     1      -2.179   9.648   6.183  1.00  0.00     0.049 A 
ATOM     47  C   UNL     1      -7.148   7.920   4.218  1.00  0.00     0.074 A 
ATOM     48  C   UNL     1      -2.072  10.993   6.492  1.00  0.00     0.029 A 
ATOM     49  N   UNL     1      -3.486   9.439   5.764  1.00  0.00    -0.354 N 
ATOM     50  N   UNL     1      -6.056   8.462   4.705  1.00  0.00    -0.248 NA
ATOM     51  C   UNL     1      -8.284   8.845   4.113  1.00  0.00     0.031 C 
ATOM     52  C   UNL     1      -3.326  11.585   6.310  1.00  0.00     0.029 A 
ATOM     53  C   UNL     1      -4.200  10.624   5.827  1.00  0.00     0.049 A 
ATOM     54  H   UNL     1      -3.851   8.575   5.466  1.00  0.00     0.167 HD
ATOM     55  C   UNL     1      -6.369   9.795   4.948  1.00  0.00     0.074 A 
ATOM     56  C   UNL     1      -7.752   9.977   4.554  1.00  0.00     0.031 C 
ATOM     57  C   UNL     1      -5.582  10.782   5.444  1.00  0.00     0.034 A 
BRANCH  44  58
ATOM     58  C   UNL     1       0.204   9.006   6.752  1.00  0.00     0.023 A 
ATOM     59  C   UNL     1       1.323   9.016   5.903  1.00  0.00     0.031 A 
ATOM     60  C   UNL     1       0.387   9.370   8.098  1.00  0.00     0.131 A 
ATOM     61  C   UNL     1       2.585   9.348   6.420  1.00  0.00     0.055 A 
ATOM     62  C   UNL     1       1.633   9.756   8.592  1.00  0.00     0.041 A 
ATOM     63  F   UNL     1      -0.647   9.354   8.955  1.00  0.00    -0.206 F 
ATOM     64  C   UNL     1       2.743   9.740   7.753  1.00  0.00     0.022 A 
BRANCH  61  65
ATOM     65  S   UNL     1       4.038   9.190   5.347  1.00  0.00     0.124 S 
ATOM     66  O   UNL     1       4.085   7.747   5.125  1.00  0.00    -0.237 OA
ATOM     67  O   UNL     1       3.672  10.002   4.193  1.00  0.00    -0.237 OA
ATOM     68  O   UNL     1       5.127   9.724   6.163  1.00  0.00    -0.744 OA
ENDBRANCH  61  65
ENDBRANCH  44  58
BRANCH  45  69
ATOM     69  C   UNL     1      -8.711   6.063   3.269  1.00  0.00     0.023 A 
ATOM     70  C   UNL     1      -9.197   6.501   2.028  1.00  0.00     0.031 A 
ATOM     71  C   UNL     1      -9.521   5.203   4.033  1.00  0.00     0.131 A 
ATOM     72  C   UNL     1     -10.467   6.090   1.593  1.00  0.00     0.055 A 
ATOM     73  C   UNL     1     -10.765   4.766   3.579  1.00  0.00     0.041 A 
ATOM     74  F   UNL     1      -9.100   4.758   5.228  1.00  0.00    -0.206 F 
ATOM     75  C   UNL     1     -11.247   5.214   2.353  1.00  0.00     0.022 A 
BRANCH  72  76
ATOM     76  S   UNL     1     -11.107   6.741   0.026  1.00  0.00     0.124 S 
ATOM     77  O   UNL     1     -11.247   8.160   0.329  1.00  0.00    -0.237 OA
ATOM     78  O   UNL     1     -10.045   6.386  -0.910  1.00  0.00    -0.237 OA
ATOM     79  O   UNL     1     -12.362   6.014  -0.157  1.00  0.00    -0.744 OA
ENDBRANCH  72  76
ENDBRANCH  45  69
BRANCH  57  80
ATOM     80  C   UNL     1      -6.183  12.156   5.558  1.00  0.00     0.023 A 
ATOM     81  C   UNL     1      -7.112  12.472   6.562  1.00  0.00     0.031 A 
ATOM     82  C   UNL     1      -5.780  13.173   4.674  1.00  0.00     0.131 A 
ATOM     83  C   UNL     1      -7.629  13.773   6.645  1.00  0.00     0.055 A 
ATOM     84  C   UNL     1      -6.267  14.475   4.787  1.00  0.00     0.041 A 
ATOM     85  F   UNL     1      -4.891  12.919   3.701  1.00  0.00    -0.206 F 
ATOM     86  C   UNL     1      -7.200  14.780   5.775  1.00  0.00     0.022 A 
BRANCH  83  87
ATOM     87  S   UNL     1      -8.888  14.137   7.899  1.00  0.00     0.124 S 
ATOM     88  O   UNL     1     -10.016  13.337   7.434  1.00  0.00    -0.237 OA
ATOM     89  O   UNL     1      -8.250  13.684   9.131  1.00  0.00    -0.237 OA
ATOM     90  O   UNL     1      -9.068  15.584   7.794  1.00  0.00    -0.744 OA
ENDBRANCH  83  87
ENDBRANCH  57  80
ENDBRANCH  31  32
ENDBRANCH  24  26
ENDBRANCH  23  24
ENDBRANCH  22  23
ENDBRANCH   1  22
TORSDOF 19
