REMARK SMILES CCC[NH2+][C@@H]1COC[C@@H]1C(=O)N[C@@](C)(CC)C(=O)OCCOC(=O)c1ccc(-c2c3nc(c(-c4cc(S(=O)(=O)[O-])ccc4F)c4ccc([nH]4)c(-c4cc(S(=O)(=O)[O-])ccc4F)c4nc(c(-c5cc(S(=O)(=O)[O-])ccc5F)c5ccc2[nH]5)C=C4)C=C3)cc1
REMARK SMILES IDX 20 1 19 2 17 3 18 4 13 5 14 6 12 7 10 8 11 9 9 11 5 12 6 13
REMARK SMILES IDX 7 14 8 15 4 16 3 19 2 20 1 21 15 22 16 23 21 24 22 25 23 26
REMARK SMILES IDX 24 27 25 28 26 29 87 30 27 31 86 32 28 33 29 34 30 35 80 36
REMARK SMILES IDX 31 37 85 38 79 39 81 40 32 41 84 42 78 43 77 44 33 46 65 47
REMARK SMILES IDX 45 48 64 49 46 50 49 51 63 52 82 53 47 54 48 55 62 57 83 58
REMARK SMILES IDX 50 59 34 60 35 61 43 62 36 63 42 64 44 65 41 66 37 67 38 68
REMARK SMILES IDX 39 69 40 70 66 71 67 72 75 73 68 74 74 75 76 76 73 77 69 78
REMARK SMILES IDX 70 79 71 80 72 81 51 82 52 83 60 84 53 85 59 86 61 87 58 88
REMARK SMILES IDX 54 89 55 90 56 91 57 92
REMARK H PARENT 12 10 4 17 4 18 81 45 49 56
REMARK Flexibility Score: inf
ROOT
ATOM      1  C   UNL     1       1.490  -0.656   7.108  1.00  0.00     0.274 C 
ENDROOT
BRANCH   1   2
ATOM      2  O   UNL     1       0.204  -0.391   6.529  1.00  0.00    -0.460 OA
BRANCH   2   3
ATOM      3  C   UNL     1       0.210   0.443   5.452  1.00  0.00     0.331 C 
ATOM      4  O   UNL     1       1.179   1.114   5.111  1.00  0.00    -0.249 OA
BRANCH   3   5
ATOM      5  C   UNL     1      -1.127   0.361   4.678  1.00  0.00     0.135 C 
ATOM      6  C   UNL     1      -1.071   1.300   3.458  1.00  0.00     0.047 C 
BRANCH   5   7
ATOM      7  N   UNL     1      -1.460  -1.007   4.204  1.00  0.00    -0.340 N 
ATOM      8  C   UNL     1      -0.742  -1.896   3.440  1.00  0.00     0.232 C 
ATOM      9  O   UNL     1      -1.398  -2.607   2.675  1.00  0.00    -0.274 OA
ATOM     10  H   UNL     1      -2.346  -1.332   4.485  1.00  0.00     0.164 HD
BRANCH   8  11
ATOM     11  C   UNL     1       0.759  -2.107   3.643  1.00  0.00     0.164 C 
ATOM     12  C   UNL     1       1.633  -2.027   2.391  1.00  0.00     0.223 C 
ATOM     13  C   UNL     1       1.894  -3.493   2.042  1.00  0.00     0.225 C 
ATOM     14  O   UNL     1       2.048  -4.116   3.318  1.00  0.00    -0.374 OA
ATOM     15  C   UNL     1       1.026  -3.532   4.135  1.00  0.00     0.180 C 
BRANCH  12  16
ATOM     16  N   UNL     1       1.126  -1.094   1.398  1.00  0.00    -0.341 N 
ATOM     17  H   UNL     1       0.135  -0.940   1.582  1.00  0.00     0.346 HD
ATOM     18  H   UNL     1       1.686  -0.245   1.486  1.00  0.00     0.346 HD
BRANCH  16  19
ATOM     19  C   UNL     1       1.269  -1.540   0.018  1.00  0.00     0.260 C 
BRANCH  19  20
ATOM     20  C   UNL     1       0.529  -0.600  -0.931  1.00  0.00     0.058 C 
ATOM     21  C   UNL     1       0.975   0.850  -0.826  1.00  0.00     0.010 C 
ENDBRANCH  19  20
ENDBRANCH  16  19
ENDBRANCH  12  16
ENDBRANCH   8  11
ENDBRANCH   5   7
BRANCH   5  22
ATOM     22  C   UNL     1      -2.249   0.935   5.611  1.00  0.00     0.037 C 
ATOM     23  C   UNL     1      -2.913  -0.029   6.585  1.00  0.00     0.007 C 
ENDBRANCH   5  22
ENDBRANCH   3   5
ENDBRANCH   2   3
ENDBRANCH   1   2
BRANCH   1  24
ATOM     24  C   UNL     1       1.367  -1.818   8.095  1.00  0.00     0.275 C 
BRANCH  24  25
ATOM     25  O   UNL     1       0.760  -2.961   7.458  1.00  0.00    -0.458 OA
BRANCH  25  26
ATOM     26  C   UNL     1      -0.561  -3.155   7.714  1.00  0.00     0.338 C 
ATOM     27  O   UNL     1      -1.244  -2.539   8.517  1.00  0.00    -0.246 OA
BRANCH  26  28
ATOM     28  C   UNL     1      -1.106  -4.122   6.734  1.00  0.00     0.060 A 
ATOM     29  C   UNL     1      -2.201  -3.728   5.959  1.00  0.00     0.016 A 
ATOM     30  C   UNL     1      -0.524  -5.375   6.527  1.00  0.00     0.016 A 
ATOM     31  C   UNL     1      -2.677  -4.546   4.931  1.00  0.00     0.010 A 
ATOM     32  C   UNL     1      -1.021  -6.211   5.515  1.00  0.00     0.010 A 
ATOM     33  C   UNL     1      -2.091  -5.795   4.698  1.00  0.00    -0.014 A 
BRANCH  33  34
ATOM     34  C   UNL     1      -2.722  -6.740   3.740  1.00  0.00     0.031 A 
ATOM     35  C   UNL     1      -3.766  -7.672   4.277  1.00  0.00     0.074 A 
ATOM     36  C   UNL     1      -2.411  -6.770   2.431  1.00  0.00     0.049 A 
ATOM     37  N   UNL     1      -4.432  -8.620   3.673  1.00  0.00    -0.248 NA
ATOM     38  C   UNL     1      -4.101  -7.499   5.698  1.00  0.00     0.031 C 
ATOM     39  C   UNL     1      -1.479  -5.868   1.763  1.00  0.00     0.029 A 
ATOM     40  N   UNL     1      -2.844  -7.601   1.424  1.00  0.00    -0.354 N 
ATOM     41  C   UNL     1      -5.285  -9.144   4.635  1.00  0.00     0.074 A 
ATOM     42  C   UNL     1      -5.007  -8.444   5.872  1.00  0.00     0.031 C 
ATOM     43  C   UNL     1      -1.384  -6.210   0.466  1.00  0.00     0.029 A 
ATOM     44  C   UNL     1      -2.226  -7.377   0.214  1.00  0.00     0.049 A 
ATOM     45  H   UNL     1      -3.532  -8.293   1.557  1.00  0.00     0.167 HD
ATOM     46  C   UNL     1      -6.223 -10.113   4.502  1.00  0.00     0.034 A 
ATOM     47  C   UNL     1      -2.309  -8.053  -0.951  1.00  0.00     0.034 A 
ATOM     48  C   UNL     1      -6.436 -10.858   3.288  1.00  0.00     0.049 A 
ATOM     49  C   UNL     1      -3.237  -9.242  -1.039  1.00  0.00     0.074 A 
ATOM     50  C   UNL     1      -7.306 -11.908   3.057  1.00  0.00     0.029 A 
ATOM     51  N   UNL     1      -5.742 -10.649   2.101  1.00  0.00    -0.354 N 
ATOM     52  N   UNL     1      -4.037  -9.738  -0.122  1.00  0.00    -0.248 NA
ATOM     53  C   UNL     1      -3.276  -9.962  -2.320  1.00  0.00     0.031 C 
ATOM     54  C   UNL     1      -7.089 -12.377   1.756  1.00  0.00     0.029 A 
ATOM     55  C   UNL     1      -6.136 -11.575   1.147  1.00  0.00     0.049 A 
ATOM     56  H   UNL     1      -5.067  -9.946   1.959  1.00  0.00     0.167 HD
ATOM     57  C   UNL     1      -4.694 -10.807  -0.726  1.00  0.00     0.074 A 
ATOM     58  C   UNL     1      -4.202 -10.882  -2.086  1.00  0.00     0.031 C 
ATOM     59  C   UNL     1      -5.628 -11.645  -0.204  1.00  0.00     0.034 A 
BRANCH  46  60
ATOM     60  C   UNL     1      -7.000 -10.448   5.750  1.00  0.00     0.023 A 
ATOM     61  C   UNL     1      -7.820  -9.488   6.373  1.00  0.00     0.031 A 
ATOM     62  C   UNL     1      -6.791 -11.670   6.409  1.00  0.00     0.131 A 
ATOM     63  C   UNL     1      -8.296  -9.719   7.671  1.00  0.00     0.055 A 
ATOM     64  C   UNL     1      -7.349 -11.930   7.661  1.00  0.00     0.041 A 
ATOM     65  F   UNL     1      -5.994 -12.608   5.874  1.00  0.00    -0.206 F 
ATOM     66  C   UNL     1      -8.085 -10.942   8.312  1.00  0.00     0.022 A 
BRANCH  63  67
ATOM     67  S   UNL     1      -8.995  -8.320   8.594  1.00  0.00     0.124 S 
ATOM     68  O   UNL     1      -7.892  -7.362   8.559  1.00  0.00    -0.237 OA
ATOM     69  O   UNL     1     -10.169  -7.974   7.803  1.00  0.00    -0.237 OA
ATOM     70  O   UNL     1      -9.274  -8.885   9.913  1.00  0.00    -0.744 OA
ENDBRANCH  63  67
ENDBRANCH  46  60
BRANCH  47  71
ATOM     71  C   UNL     1      -1.445  -7.680  -2.112  1.00  0.00     0.023 A 
ATOM     72  C   UNL     1      -1.991  -7.219  -3.322  1.00  0.00     0.031 A 
ATOM     73  C   UNL     1      -0.050  -7.853  -2.045  1.00  0.00     0.131 A 
ATOM     74  C   UNL     1      -1.152  -6.985  -4.425  1.00  0.00     0.055 A 
ATOM     75  C   UNL     1       0.784  -7.576  -3.130  1.00  0.00     0.041 A 
ATOM     76  F   UNL     1       0.525  -8.301  -0.917  1.00  0.00    -0.206 F 
ATOM     77  C   UNL     1       0.232  -7.150  -4.333  1.00  0.00     0.022 A 
BRANCH  74  78
ATOM     78  S   UNL     1      -1.899  -6.527  -6.015  1.00  0.00     0.124 S 
ATOM     79  O   UNL     1      -2.724  -7.694  -6.304  1.00  0.00    -0.237 OA
ATOM     80  O   UNL     1      -2.614  -5.301  -5.676  1.00  0.00    -0.237 OA
ATOM     81  O   UNL     1      -0.745  -6.345  -6.894  1.00  0.00    -0.744 OA
ENDBRANCH  74  78
ENDBRANCH  47  71
BRANCH  59  82
ATOM     82  C   UNL     1      -6.213 -12.686  -1.127  1.00  0.00     0.023 A 
ATOM     83  C   UNL     1      -5.455 -13.771  -1.603  1.00  0.00     0.031 A 
ATOM     84  C   UNL     1      -7.560 -12.596  -1.522  1.00  0.00     0.131 A 
ATOM     85  C   UNL     1      -6.040 -14.701  -2.476  1.00  0.00     0.055 A 
ATOM     86  C   UNL     1      -8.150 -13.552  -2.349  1.00  0.00     0.041 A 
ATOM     87  F   UNL     1      -8.329 -11.580  -1.098  1.00  0.00    -0.206 F 
ATOM     88  C   UNL     1      -7.387 -14.608  -2.838  1.00  0.00     0.022 A 
BRANCH  85  89
ATOM     89  S   UNL     1      -5.002 -16.008  -3.189  1.00  0.00     0.124 S 
ATOM     90  O   UNL     1      -3.993 -15.236  -3.908  1.00  0.00    -0.237 OA
ATOM     91  O   UNL     1      -4.535 -16.719  -2.003  1.00  0.00    -0.237 OA
ATOM     92  O   UNL     1      -5.927 -16.759  -4.036  1.00  0.00    -0.744 OA
ENDBRANCH  85  89
ENDBRANCH  59  82
ENDBRANCH  33  34
ENDBRANCH  26  28
ENDBRANCH  25  26
ENDBRANCH  24  25
ENDBRANCH   1  24
TORSDOF 20
