REMARK SMILES CC1(C)CC[N@@H+]([C@H](CC(=O)OCCOC(=O)c2ccc(-c3c4nc(c(-c5cc(S(=O)(=O)[O-])ccc5F)c5ccc([nH]5)c(-c5cc(S(=O)(=O)[O-])ccc5F)c5nc(c(-c6cc(S(=O)(=O)[O-])ccc6F)c6ccc3[nH]6)C=C5)C=C4)cc2)C(F)(F)F)C1
REMARK SMILES IDX 13 1 12 2 11 3 9 4 10 5 8 6 7 7 6 8 1 9 2 10 3 11 4 12 84 13
REMARK SMILES IDX 5 14 80 16 81 17 82 18 83 19 14 20 15 21 16 22 17 23 18 24
REMARK SMILES IDX 79 25 19 26 78 27 20 28 21 29 22 30 72 31 23 32 77 33 71 34
REMARK SMILES IDX 73 35 24 36 76 37 70 38 69 39 25 41 57 42 37 43 56 44 38 45
REMARK SMILES IDX 41 46 55 47 74 48 39 49 40 50 54 52 75 53 42 54 26 55 27 56
REMARK SMILES IDX 35 57 28 58 34 59 36 60 33 61 29 62 30 63 31 64 32 65 58 66
REMARK SMILES IDX 59 67 67 68 60 69 66 70 68 71 65 72 61 73 62 74 63 75 64 76
REMARK SMILES IDX 43 77 44 78 52 79 45 80 51 81 53 82 50 83 46 84 47 85 48 86
REMARK SMILES IDX 49 87
REMARK H PARENT 6 15 73 40 41 51
REMARK Flexibility Score: inf
ROOT
ATOM      1  C   UNL     1       2.636  -3.731   0.165  1.00  0.00     0.275 C 
ENDROOT
BRANCH   1   2
ATOM      2  C   UNL     1       2.863  -2.745  -1.001  1.00  0.00     0.274 C 
BRANCH   2   3
ATOM      3  O   UNL     1       3.165  -1.396  -0.550  1.00  0.00    -0.462 OA
BRANCH   3   4
ATOM      4  C   UNL     1       2.296  -0.421  -0.905  1.00  0.00     0.312 C 
ATOM      5  O   UNL     1       1.319  -0.612  -1.627  1.00  0.00    -0.252 OA
BRANCH   4   6
ATOM      6  C   UNL     1       2.685   0.988  -0.497  1.00  0.00     0.197 C 
BRANCH   6   7
ATOM      7  C   UNL     1       3.636   1.346   0.666  1.00  0.00     0.302 C 
BRANCH   7   8
ATOM      8  N   UNL     1       3.081   1.424   2.033  1.00  0.00    -0.324 N 
ATOM      9  C   UNL     1      -0.116   1.148   1.808  1.00  0.00     0.017 C 
ATOM     10  C   UNL     1       0.863   1.533   2.921  1.00  0.00     0.019 C 
ATOM     11  C   UNL     1       0.064   2.275   3.999  1.00  0.00     0.017 C 
ATOM     12  C   UNL     1       1.578   0.315   3.523  1.00  0.00     0.073 C 
ATOM     13  C   UNL     1       2.017   2.366   2.353  1.00  0.00     0.269 C 
ATOM     14  C   UNL     1       2.920   0.203   2.800  1.00  0.00     0.263 C 
ATOM     15  H   UNL     1       3.935   1.876   2.358  1.00  0.00     0.348 HD
ENDBRANCH   7   8
BRANCH   7  16
ATOM     16  C   UNL     1       5.020   0.657   0.528  1.00  0.00     0.441 C 
ATOM     17  F   UNL     1       5.454   0.713  -0.758  1.00  0.00    -0.165 F 
ATOM     18  F   UNL     1       5.954   1.303   1.272  1.00  0.00    -0.165 F 
ATOM     19  F   UNL     1       5.044  -0.635   0.910  1.00  0.00    -0.165 F 
ENDBRANCH   7  16
ENDBRANCH   6   7
ENDBRANCH   4   6
ENDBRANCH   3   4
ENDBRANCH   2   3
ENDBRANCH   1   2
BRANCH   1  20
ATOM     20  O   UNL     1       1.242  -3.909   0.530  1.00  0.00    -0.458 OA
BRANCH  20  21
ATOM     21  C   UNL     1       0.729  -2.829   1.143  1.00  0.00     0.338 C 
ATOM     22  O   UNL     1       1.330  -1.783   1.334  1.00  0.00    -0.246 OA
BRANCH  21  23
ATOM     23  C   UNL     1      -0.661  -2.906   1.588  1.00  0.00     0.060 A 
ATOM     24  C   UNL     1      -1.489  -1.898   1.099  1.00  0.00     0.016 A 
ATOM     25  C   UNL     1      -1.015  -3.620   2.737  1.00  0.00     0.016 A 
ATOM     26  C   UNL     1      -2.611  -1.520   1.827  1.00  0.00     0.010 A 
ATOM     27  C   UNL     1      -2.194  -3.281   3.425  1.00  0.00     0.010 A 
ATOM     28  C   UNL     1      -2.979  -2.193   3.006  1.00  0.00    -0.014 A 
BRANCH  28  29
ATOM     29  C   UNL     1      -4.157  -1.688   3.776  1.00  0.00     0.031 A 
ATOM     30  C   UNL     1      -4.023  -1.168   5.189  1.00  0.00     0.074 A 
ATOM     31  C   UNL     1      -5.347  -1.580   3.151  1.00  0.00     0.049 A 
ATOM     32  N   UNL     1      -4.961  -0.742   6.000  1.00  0.00    -0.248 NA
ATOM     33  C   UNL     1      -2.672  -1.122   5.768  1.00  0.00     0.031 C 
ATOM     34  C   UNL     1      -5.610  -1.993   1.770  1.00  0.00     0.029 A 
ATOM     35  N   UNL     1      -6.540  -1.042   3.564  1.00  0.00    -0.354 N 
ATOM     36  C   UNL     1      -4.327  -0.429   7.199  1.00  0.00     0.074 A 
ATOM     37  C   UNL     1      -2.917  -0.703   7.004  1.00  0.00     0.031 C 
ATOM     38  C   UNL     1      -6.843  -1.604   1.421  1.00  0.00     0.029 A 
ATOM     39  C   UNL     1      -7.500  -1.014   2.580  1.00  0.00     0.049 A 
ATOM     40  H   UNL     1      -6.692  -0.707   4.478  1.00  0.00     0.167 HD
ATOM     41  C   UNL     1      -4.872   0.030   8.355  1.00  0.00     0.034 A 
ATOM     42  C   UNL     1      -8.780  -0.595   2.605  1.00  0.00     0.034 A 
ATOM     43  C   UNL     1      -6.270   0.352   8.528  1.00  0.00     0.049 A 
ATOM     44  C   UNL     1      -9.359  -0.094   3.895  1.00  0.00     0.074 A 
ATOM     45  C   UNL     1      -6.918   0.808   9.665  1.00  0.00     0.029 A 
ATOM     46  N   UNL     1      -7.234   0.275   7.533  1.00  0.00    -0.354 N 
ATOM     47  N   UNL     1      -8.769   0.059   5.056  1.00  0.00    -0.248 NA
ATOM     48  C   UNL     1     -10.785   0.251   3.885  1.00  0.00     0.031 C 
ATOM     49  C   UNL     1      -8.278   0.965   9.369  1.00  0.00     0.029 A 
ATOM     50  C   UNL     1      -8.471   0.657   8.034  1.00  0.00     0.049 A 
ATOM     51  H   UNL     1      -7.066  -0.010   6.606  1.00  0.00     0.167 HD
ATOM     52  C   UNL     1      -9.765   0.481   5.928  1.00  0.00     0.074 A 
ATOM     53  C   UNL     1     -10.979   0.609   5.146  1.00  0.00     0.031 C 
ATOM     54  C   UNL     1      -9.687   0.721   7.260  1.00  0.00     0.034 A 
BRANCH  41  55
ATOM     55  C   UNL     1      -3.969   0.142   9.559  1.00  0.00     0.023 A 
ATOM     56  C   UNL     1      -2.995   1.147   9.680  1.00  0.00     0.031 A 
ATOM     57  C   UNL     1      -4.110  -0.775  10.618  1.00  0.00     0.131 A 
ATOM     58  C   UNL     1      -2.178   1.191  10.822  1.00  0.00     0.055 A 
ATOM     59  C   UNL     1      -3.330  -0.694  11.772  1.00  0.00     0.041 A 
ATOM     60  F   UNL     1      -5.015  -1.764  10.546  1.00  0.00    -0.206 F 
ATOM     61  C   UNL     1      -2.352   0.289  11.876  1.00  0.00     0.022 A 
BRANCH  58  62
ATOM     62  S   UNL     1      -0.819   2.392  10.881  1.00  0.00     0.124 S 
ATOM     63  O   UNL     1      -0.051   2.030   9.693  1.00  0.00    -0.237 OA
ATOM     64  O   UNL     1      -1.523   3.667  10.824  1.00  0.00    -0.237 OA
ATOM     65  O   UNL     1      -0.159   2.101  12.152  1.00  0.00    -0.744 OA
ENDBRANCH  58  62
ENDBRANCH  41  55
BRANCH  42  66
ATOM     66  C   UNL     1      -9.625  -0.728   1.388  1.00  0.00     0.023 A 
ATOM     67  C   UNL     1     -10.082   0.400   0.692  1.00  0.00     0.031 A 
ATOM     68  C   UNL     1      -9.979  -2.001   0.903  1.00  0.00     0.131 A 
ATOM     69  C   UNL     1     -10.882   0.232  -0.450  1.00  0.00     0.055 A 
ATOM     70  C   UNL     1     -10.736  -2.162  -0.255  1.00  0.00     0.041 A 
ATOM     71  F   UNL     1      -9.561  -3.108   1.537  1.00  0.00    -0.206 F 
ATOM     72  C   UNL     1     -11.197  -1.040  -0.936  1.00  0.00     0.022 A 
BRANCH  69  73
ATOM     73  S   UNL     1     -11.535   1.705  -1.282  1.00  0.00     0.124 S 
ATOM     74  O   UNL     1     -12.388   2.279  -0.246  1.00  0.00    -0.237 OA
ATOM     75  O   UNL     1     -10.317   2.446  -1.593  1.00  0.00    -0.237 OA
ATOM     76  O   UNL     1     -12.240   1.158  -2.439  1.00  0.00    -0.744 OA
ENDBRANCH  69  73
ENDBRANCH  42  66
BRANCH  54  77
ATOM     77  C   UNL     1     -10.970   1.112   7.942  1.00  0.00     0.023 A 
ATOM     78  C   UNL     1     -11.997   0.171   8.138  1.00  0.00     0.031 A 
ATOM     79  C   UNL     1     -11.193   2.438   8.345  1.00  0.00     0.131 A 
ATOM     80  C   UNL     1     -13.226   0.582   8.675  1.00  0.00     0.055 A 
ATOM     81  C   UNL     1     -12.404   2.833   8.916  1.00  0.00     0.041 A 
ATOM     82  F   UNL     1     -10.246   3.373   8.173  1.00  0.00    -0.206 F 
ATOM     83  C   UNL     1     -13.433   1.906   9.072  1.00  0.00     0.022 A 
BRANCH  80  84
ATOM     84  S   UNL     1     -14.584  -0.617   8.760  1.00  0.00     0.124 S 
ATOM     85  O   UNL     1     -14.690  -1.059   7.373  1.00  0.00    -0.237 OA
ATOM     86  O   UNL     1     -14.071  -1.603   9.706  1.00  0.00    -0.237 OA
ATOM     87  O   UNL     1     -15.712   0.176   9.243  1.00  0.00    -0.744 OA
ENDBRANCH  80  84
ENDBRANCH  54  77
ENDBRANCH  28  29
ENDBRANCH  21  23
ENDBRANCH  20  21
ENDBRANCH   1  20
TORSDOF 17
