REMARK SMILES C[C@@H](NC(=O)CCCN1C(=O)/C(=C/c2c3ccccc3cc3ccccc23)SC1=S)C(=O)OCCOC(=O)c1ccc(-c2c3nc(c(-c4cc(S(=O)(=O)[O-])ccc4F)c4ccc([nH]4)c(-c4cc(S(=O)(=O)[O-])ccc4F)c4nc(c(-c5cc(S(=O)(=O)[O-])ccc5F)c5ccc2[nH]5)C=C4)C=C3)cc1
REMARK SMILES IDX 33 1 31 2 32 3 2 4 1 5 3 6 4 7 5 9 6 10 7 11 8 12 9 13 10 14
REMARK SMILES IDX 29 15 11 16 12 17 28 18 30 19 13 20 14 21 15 22 27 23 16 24
REMARK SMILES IDX 20 25 22 26 26 27 17 28 19 29 21 30 23 31 25 32 18 33 24 34
REMARK SMILES IDX 34 35 35 36 36 37 37 38 38 39 39 40 40 41 101 42 41 43
REMARK SMILES IDX 100 44 42 45 43 46 44 47 94 48 45 49 99 50 93 51 95 52 46 53
REMARK SMILES IDX 98 54 92 55 91 56 47 58 79 59 59 60 78 61 60 62 63 63 77 64
REMARK SMILES IDX 96 65 61 66 62 67 76 69 97 70 64 71 48 72 49 73 57 74 50 75
REMARK SMILES IDX 56 76 58 77 55 78 51 79 52 80 53 81 54 82 80 83 81 84 89 85
REMARK SMILES IDX 82 86 88 87 90 88 87 89 83 90 84 91 85 92 86 93 65 94 66 95
REMARK SMILES IDX 74 96 67 97 73 98 75 99 72 100 68 101 69 102 70 103 71 104
REMARK H PARENT 3 8 95 57 63 68
REMARK Flexibility Score: inf
ROOT
ATOM      1  O   UNL     1      -2.101   2.276  -1.146  1.00  0.00    -0.461 OA
ENDROOT
BRANCH   1   2
ATOM      2  C   UNL     1      -1.368   3.325  -1.612  1.00  0.00     0.328 C 
ATOM      3  O   UNL     1      -1.893   4.337  -2.060  1.00  0.00    -0.250 OA
BRANCH   2   4
ATOM      4  C   UNL     1       0.235   3.070  -1.599  1.00  0.00     0.189 C 
ATOM      5  C   UNL     1       1.045   2.003  -0.823  1.00  0.00     0.043 C 
BRANCH   4   6
ATOM      6  N   UNL     1       0.708   2.973  -2.944  1.00  0.00    -0.343 N 
ATOM      7  C   UNL     1       0.407   1.895  -3.716  1.00  0.00     0.220 C 
ATOM      8  H   UNL     1       1.261   3.697  -3.317  1.00  0.00     0.164 HD
ATOM      9  O   UNL     1       1.087   1.684  -4.718  1.00  0.00    -0.275 OA
BRANCH   7  10
ATOM     10  C   UNL     1      -0.871   1.099  -3.389  1.00  0.00     0.102 C 
BRANCH  10  11
ATOM     11  C   UNL     1      -1.125   0.044  -2.246  1.00  0.00     0.032 C 
BRANCH  11  12
ATOM     12  C   UNL     1      -0.936  -0.093  -0.637  1.00  0.00     0.128 C 
BRANCH  12  13
ATOM     13  N   UNL     1      -1.601   0.605   0.567  1.00  0.00    -0.293 N 
ATOM     14  C   UNL     1      -2.692  -0.587   1.504  1.00  0.00     0.266 C 
ATOM     15  C   UNL     1      -1.440   2.293   1.312  1.00  0.00     0.148 C 
ATOM     16  O   UNL     1      -3.009  -1.715   1.137  1.00  0.00    -0.268 OA
ATOM     17  C   UNL     1      -3.345   0.277   3.188  1.00  0.00     0.081 C 
ATOM     18  S   UNL     1      -2.797   2.480   3.198  1.00  0.00    -0.054 SA
ATOM     19  S   UNL     1      -0.633   3.787   1.244  1.00  0.00    -0.052 S 
ATOM     20  C   UNL     1      -3.805  -0.204   4.386  1.00  0.00     0.030 C 
BRANCH  20  21
ATOM     21  C   UNL     1      -3.949   0.600   5.700  1.00  0.00    -0.009 A 
ATOM     22  C   UNL     1      -4.682   1.831   5.697  1.00  0.00    -0.010 A 
ATOM     23  C   UNL     1      -3.100   0.291   6.850  1.00  0.00    -0.010 A 
ATOM     24  C   UNL     1      -5.664   2.172   4.737  1.00  0.00     0.009 A 
ATOM     25  C   UNL     1      -4.353   2.830   6.649  1.00  0.00    -0.017 A 
ATOM     26  C   UNL     1      -2.883   1.305   7.832  1.00  0.00    -0.017 A 
ATOM     27  C   UNL     1      -2.335  -0.894   7.040  1.00  0.00     0.009 A 
ATOM     28  C   UNL     1      -6.183   3.468   4.642  1.00  0.00     0.001 A 
ATOM     29  C   UNL     1      -4.859   4.133   6.529  1.00  0.00     0.009 A 
ATOM     30  C   UNL     1      -3.471   2.556   7.691  1.00  0.00     0.017 A 
ATOM     31  C   UNL     1      -1.987   1.132   8.904  1.00  0.00     0.009 A 
ATOM     32  C   UNL     1      -1.432  -1.053   8.110  1.00  0.00     0.001 A 
ATOM     33  C   UNL     1      -5.752   4.457   5.516  1.00  0.00     0.001 A 
ATOM     34  C   UNL     1      -1.261  -0.041   9.043  1.00  0.00     0.001 A 
ENDBRANCH  20  21
ENDBRANCH  12  13
ENDBRANCH  11  12
ENDBRANCH  10  11
ENDBRANCH   7  10
ENDBRANCH   4   6
ENDBRANCH   2   4
ENDBRANCH   1   2
BRANCH   1  35
ATOM     35  C   UNL     1      -3.499   2.382  -0.724  1.00  0.00     0.274 C 
BRANCH  35  36
ATOM     36  C   UNL     1      -3.879   1.256   0.311  1.00  0.00     0.275 C 
BRANCH  36  37
ATOM     37  O   UNL     1      -2.825   1.214   1.677  1.00  0.00    -0.458 OA
BRANCH  37  38
ATOM     38  C   UNL     1      -1.271   0.569   2.573  1.00  0.00     0.338 C 
ATOM     39  O   UNL     1      -0.709  -0.530   2.334  1.00  0.00    -0.246 OA
BRANCH  38  40
ATOM     40  C   UNL     1      -0.323   1.275   3.546  1.00  0.00     0.060 A 
ATOM     41  C   UNL     1       0.992   1.658   3.218  1.00  0.00     0.016 A 
ATOM     42  C   UNL     1      -0.705   1.333   4.864  1.00  0.00     0.016 A 
ATOM     43  C   UNL     1       1.820   2.240   4.184  1.00  0.00     0.010 A 
ATOM     44  C   UNL     1       0.053   1.949   5.807  1.00  0.00     0.010 A 
ATOM     45  C   UNL     1       1.330   2.378   5.479  1.00  0.00    -0.014 A 
BRANCH  45  46
ATOM     46  C   UNL     1       2.041   2.874   6.655  1.00  0.00     0.031 A 
ATOM     47  C   UNL     1       2.407   1.844   7.688  1.00  0.00     0.074 A 
ATOM     48  C   UNL     1       1.821   4.171   6.929  1.00  0.00     0.049 A 
ATOM     49  N   UNL     1       2.640   1.984   8.961  1.00  0.00    -0.248 NA
ATOM     50  C   UNL     1       2.342   0.440   7.239  1.00  0.00     0.031 C 
ATOM     51  C   UNL     1       1.197   5.133   6.008  1.00  0.00     0.029 A 
ATOM     52  N   UNL     1       1.998   4.878   8.077  1.00  0.00    -0.354 N 
ATOM     53  C   UNL     1       2.642   0.691   9.487  1.00  0.00     0.074 A 
ATOM     54  C   UNL     1       2.367  -0.209   8.391  1.00  0.00     0.031 C 
ATOM     55  C   UNL     1       1.081   6.319   6.624  1.00  0.00     0.029 A 
ATOM     56  C   UNL     1       1.624   6.194   7.966  1.00  0.00     0.049 A 
ATOM     57  H   UNL     1       2.358   4.485   8.905  1.00  0.00     0.167 HD
ATOM     58  C   UNL     1       2.824   0.332  10.785  1.00  0.00     0.034 A 
ATOM     59  C   UNL     1       1.782   7.184   8.859  1.00  0.00     0.034 A 
ATOM     60  C   UNL     1       3.135   1.331  11.785  1.00  0.00     0.049 A 
ATOM     61  C   UNL     1       2.410   6.793  10.166  1.00  0.00     0.074 A 
ATOM     62  C   UNL     1       3.545   1.170  13.095  1.00  0.00     0.029 A 
ATOM     63  N   UNL     1       3.079   2.705  11.554  1.00  0.00    -0.354 N 
ATOM     64  N   UNL     1       2.579   5.585  10.661  1.00  0.00    -0.248 NA
ATOM     65  C   UNL     1       2.933   7.873  11.000  1.00  0.00     0.031 C 
ATOM     66  C   UNL     1       3.705   2.444  13.660  1.00  0.00     0.029 A 
ATOM     67  C   UNL     1       3.471   3.400  12.681  1.00  0.00     0.049 A 
ATOM     68  H   UNL     1       2.800   3.121  10.706  1.00  0.00     0.167 HD
ATOM     69  C   UNL     1       3.267   5.755  11.851  1.00  0.00     0.074 A 
ATOM     70  C   UNL     1       3.502   7.185  11.979  1.00  0.00     0.031 C 
ATOM     71  C   UNL     1       3.667   4.829  12.761  1.00  0.00     0.034 A 
BRANCH  58  72
ATOM     72  C   UNL     1       2.664  -1.129  11.177  1.00  0.00     0.023 A 
ATOM     73  C   UNL     1       3.308  -2.175  10.490  1.00  0.00     0.031 A 
ATOM     74  C   UNL     1       1.806  -1.499  12.231  1.00  0.00     0.131 A 
ATOM     75  C   UNL     1       2.986  -3.515  10.767  1.00  0.00     0.055 A 
ATOM     76  C   UNL     1       1.590  -2.836  12.588  1.00  0.00     0.041 A 
ATOM     77  F   UNL     1       1.127  -0.571  12.923  1.00  0.00    -0.206 F 
ATOM     78  C   UNL     1       2.161  -3.856  11.837  1.00  0.00     0.022 A 
BRANCH  75  79
ATOM     79  S   UNL     1       3.510  -4.792   9.586  1.00  0.00     0.124 S 
ATOM     80  O   UNL     1       2.742  -4.417   8.400  1.00  0.00    -0.237 OA
ATOM     81  O   UNL     1       4.950  -4.580   9.504  1.00  0.00    -0.237 OA
ATOM     82  O   UNL     1       3.097  -6.040  10.223  1.00  0.00    -0.744 OA
ENDBRANCH  75  79
ENDBRANCH  58  72
BRANCH  59  83
ATOM     83  C   UNL     1       1.603   8.594   8.432  1.00  0.00     0.023 A 
ATOM     84  C   UNL     1       2.744   9.380   8.206  1.00  0.00     0.031 A 
ATOM     85  C   UNL     1       0.349   9.162   8.167  1.00  0.00     0.131 A 
ATOM     86  C   UNL     1       2.615  10.710   7.790  1.00  0.00     0.055 A 
ATOM     87  C   UNL     1       0.224  10.478   7.706  1.00  0.00     0.041 A 
ATOM     88  F   UNL     1      -0.772   8.438   8.315  1.00  0.00    -0.206 F 
ATOM     89  C   UNL     1       1.362  11.264   7.530  1.00  0.00     0.022 A 
BRANCH  86  90
ATOM     90  S   UNL     1       4.117  11.717   7.669  1.00  0.00     0.124 S 
ATOM     91  O   UNL     1       4.705  11.536   8.991  1.00  0.00    -0.237 OA
ATOM     92  O   UNL     1       4.820  11.078   6.562  1.00  0.00    -0.237 OA
ATOM     93  O   UNL     1       3.604  13.057   7.392  1.00  0.00    -0.744 OA
ENDBRANCH  86  90
ENDBRANCH  59  83
BRANCH  71  94
ATOM     94  C   UNL     1       4.415   5.357  13.950  1.00  0.00     0.023 A 
ATOM     95  C   UNL     1       3.793   6.205  14.880  1.00  0.00     0.031 A 
ATOM     96  C   UNL     1       5.770   5.037  14.131  1.00  0.00     0.131 A 
ATOM     97  C   UNL     1       4.551   6.780  15.904  1.00  0.00     0.055 A 
ATOM     98  C   UNL     1       6.501   5.554  15.199  1.00  0.00     0.041 A 
ATOM     99  F   UNL     1       6.404   4.230  13.266  1.00  0.00    -0.206 F 
ATOM    100  C   UNL     1       5.897   6.446  16.081  1.00  0.00     0.022 A 
BRANCH  97 101
ATOM    101  S   UNL     1       3.781   8.069  16.916  1.00  0.00     0.124 S 
ATOM    102  O   UNL     1       3.390   9.050  15.908  1.00  0.00    -0.237 OA
ATOM    103  O   UNL     1       2.688   7.348  17.560  1.00  0.00    -0.237 OA
ATOM    104  O   UNL     1       4.859   8.491  17.808  1.00  0.00    -0.744 OA
ENDBRANCH  97 101
ENDBRANCH  71  94
ENDBRANCH  45  46
ENDBRANCH  38  40
ENDBRANCH  37  38
ENDBRANCH  36  37
ENDBRANCH  35  36
ENDBRANCH   1  35
TORSDOF 20
