REMARK SMILES O=C(Cc1cccc(NS(=O)(=O)c2cccc(Cl)c2)c1)OCCOC(=O)c1ccc(-c2c3nc(c(-c4cc(S(=O)(=O)[O-])ccc4F)c4ccc([nH]4)c(-c4cc(S(=O)(=O)[O-])ccc4F)c4nc(c(-c5cc(S(=O)(=O)[O-])ccc5F)c5ccc2[nH]5)C=C4)C=C3)cc1
REMARK SMILES IDX 22 1 21 2 2 3 1 4 3 5 4 6 5 7 20 8 6 9 8 10 7 11 9 12 10 14
REMARK SMILES IDX 11 15 12 16 13 17 14 18 19 19 15 20 17 21 16 22 18 23 23 24
REMARK SMILES IDX 24 25 25 26 26 27 27 28 28 29 89 30 29 31 88 32 30 33 31 34
REMARK SMILES IDX 32 35 82 36 33 37 87 38 81 39 83 40 34 41 86 42 80 43 79 44
REMARK SMILES IDX 35 46 67 47 47 48 66 49 48 50 51 51 65 52 84 53 49 54 50 55
REMARK SMILES IDX 64 57 85 58 52 59 36 60 37 61 45 62 38 63 44 64 46 65 43 66
REMARK SMILES IDX 39 67 40 68 41 69 42 70 68 71 69 72 77 73 70 74 76 75 78 76
REMARK SMILES IDX 75 77 71 78 72 79 73 80 74 81 53 82 54 83 62 84 55 85 61 86
REMARK SMILES IDX 63 87 60 88 56 89 57 90 58 91 59 92
REMARK H PARENT 9 13 83 45 51 56
REMARK Flexibility Score: inf
ROOT
ATOM      1  C   UNL     1       4.385   0.921   0.608  1.00  0.00     0.274 C 
ENDROOT
BRANCH   1   2
ATOM      2  O   UNL     1       3.056   1.206   0.113  1.00  0.00    -0.462 OA
BRANCH   2   3
ATOM      3  C   UNL     1       2.353   0.504  -0.807  1.00  0.00     0.310 C 
ATOM      4  O   UNL     1       1.414   1.041  -1.393  1.00  0.00    -0.252 OA
BRANCH   3   5
ATOM      5  C   UNL     1       2.692  -0.943  -1.071  1.00  0.00     0.158 C 
BRANCH   5   6
ATOM      6  C   UNL     1       3.989  -1.252  -1.777  1.00  0.00    -0.035 A 
ATOM      7  C   UNL     1       4.531  -2.538  -1.610  1.00  0.00     0.004 A 
ATOM      8  C   UNL     1       4.713  -0.290  -2.500  1.00  0.00     0.031 A 
ATOM      9  C   UNL     1       5.827  -2.816  -2.030  1.00  0.00     0.002 A 
ATOM     10  C   UNL     1       6.031  -0.556  -2.873  1.00  0.00     0.049 A 
ATOM     11  C   UNL     1       6.593  -1.807  -2.607  1.00  0.00     0.027 A 
BRANCH  10  12
ATOM     12  N   UNL     1       6.847   0.481  -3.439  1.00  0.00    -0.280 N 
ATOM     13  H   UNL     1       7.215   1.194  -2.870  1.00  0.00     0.180 HD
BRANCH  12  14
ATOM     14  S   UNL     1       7.166   0.455  -5.113  1.00  0.00     0.261 S 
ATOM     15  O   UNL     1       5.972   0.941  -5.771  1.00  0.00    -0.201 OA
ATOM     16  O   UNL     1       8.428   1.145  -5.293  1.00  0.00    -0.201 OA
BRANCH  14  17
ATOM     17  C   UNL     1       7.392  -1.242  -5.560  1.00  0.00     0.089 A 
ATOM     18  C   UNL     1       6.270  -2.032  -5.838  1.00  0.00     0.022 A 
ATOM     19  C   UNL     1       8.681  -1.780  -5.617  1.00  0.00     0.042 A 
ATOM     20  C   UNL     1       6.434  -3.391  -6.096  1.00  0.00     0.003 A 
ATOM     21  C   UNL     1       8.831  -3.136  -5.895  1.00  0.00     0.042 A 
ATOM     22  C   UNL     1       7.715  -3.945  -6.118  1.00  0.00     0.020 A 
ATOM     23  Cl  UNL     1      10.407  -3.826  -5.940  1.00  0.00    -0.084 Cl
ENDBRANCH  14  17
ENDBRANCH  12  14
ENDBRANCH  10  12
ENDBRANCH   5   6
ENDBRANCH   3   5
ENDBRANCH   2   3
ENDBRANCH   1   2
BRANCH   1  24
ATOM     24  C   UNL     1       4.394   0.635   2.106  1.00  0.00     0.275 C 
BRANCH  24  25
ATOM     25  O   UNL     1       3.971  -0.719   2.330  1.00  0.00    -0.458 OA
BRANCH  25  26
ATOM     26  C   UNL     1       2.654  -0.878   2.603  1.00  0.00     0.338 C 
ATOM     27  O   UNL     1       1.841   0.012   2.786  1.00  0.00    -0.246 OA
BRANCH  26  28
ATOM     28  C   UNL     1       2.298  -2.304   2.430  1.00  0.00     0.060 A 
ATOM     29  C   UNL     1       1.031  -2.595   1.908  1.00  0.00     0.016 A 
ATOM     30  C   UNL     1       3.198  -3.338   2.715  1.00  0.00     0.016 A 
ATOM     31  C   UNL     1       0.654  -3.918   1.688  1.00  0.00     0.010 A 
ATOM     32  C   UNL     1       2.815  -4.664   2.501  1.00  0.00     0.010 A 
ATOM     33  C   UNL     1       1.534  -4.960   2.008  1.00  0.00    -0.014 A 
BRANCH  33  34
ATOM     34  C   UNL     1       1.048  -6.359   1.988  1.00  0.00     0.031 A 
ATOM     35  C   UNL     1       0.539  -6.955   3.269  1.00  0.00     0.074 A 
ATOM     36  C   UNL     1       1.046  -7.077   0.851  1.00  0.00     0.049 A 
ATOM     37  N   UNL     1       0.061  -8.150   3.498  1.00  0.00    -0.248 NA
ATOM     38  C   UNL     1       0.582  -6.082   4.452  1.00  0.00     0.031 C 
ATOM     39  C   UNL     1       1.491  -6.596  -0.455  1.00  0.00     0.029 A 
ATOM     40  N   UNL     1       0.657  -8.372   0.619  1.00  0.00    -0.354 N 
ATOM     41  C   UNL     1      -0.271  -8.169   4.848  1.00  0.00     0.074 A 
ATOM     42  C   UNL     1       0.114  -6.885   5.394  1.00  0.00     0.031 C 
ATOM     43  C   UNL     1       1.359  -7.589  -1.353  1.00  0.00     0.029 A 
ATOM     44  C   UNL     1       0.844  -8.781  -0.680  1.00  0.00     0.049 A 
ATOM     45  H   UNL     1       0.279  -8.954   1.317  1.00  0.00     0.167 HD
ATOM     46  C   UNL     1      -0.857  -9.160   5.562  1.00  0.00     0.034 A 
ATOM     47  C   UNL     1       0.637  -9.984  -1.252  1.00  0.00     0.034 A 
ATOM     48  C   UNL     1      -1.203 -10.447   5.013  1.00  0.00     0.049 A 
ATOM     49  C   UNL     1       0.077 -11.109  -0.413  1.00  0.00     0.074 A 
ATOM     50  C   UNL     1      -1.809 -11.520   5.642  1.00  0.00     0.029 A 
ATOM     51  N   UNL     1      -0.952 -10.844   3.705  1.00  0.00    -0.354 N 
ATOM     52  N   UNL     1      -0.267 -11.105   0.855  1.00  0.00    -0.248 NA
ATOM     53  C   UNL     1      -0.131 -12.398  -1.087  1.00  0.00     0.031 C 
ATOM     54  C   UNL     1      -1.857 -12.587   4.738  1.00  0.00     0.029 A 
ATOM     55  C   UNL     1      -1.354 -12.158   3.520  1.00  0.00     0.049 A 
ATOM     56  H   UNL     1      -0.547 -10.275   3.011  1.00  0.00     0.167 HD
ATOM     57  C   UNL     1      -0.763 -12.380   1.119  1.00  0.00     0.074 A 
ATOM     58  C   UNL     1      -0.681 -13.122  -0.122  1.00  0.00     0.031 C 
ATOM     59  C   UNL     1      -1.252 -12.890   2.279  1.00  0.00     0.034 A 
BRANCH  46  60
ATOM     60  C   UNL     1      -1.106  -8.891   7.026  1.00  0.00     0.023 A 
ATOM     61  C   UNL     1      -1.984  -7.877   7.448  1.00  0.00     0.031 A 
ATOM     62  C   UNL     1      -0.415  -9.617   8.011  1.00  0.00     0.131 A 
ATOM     63  C   UNL     1      -2.086  -7.563   8.811  1.00  0.00     0.055 A 
ATOM     64  C   UNL     1      -0.584  -9.354   9.371  1.00  0.00     0.041 A 
ATOM     65  F   UNL     1       0.456 -10.579   7.666  1.00  0.00    -0.206 F 
ATOM     66  C   UNL     1      -1.410  -8.311   9.778  1.00  0.00     0.022 A 
BRANCH  63  67
ATOM     67  S   UNL     1      -2.987  -6.062   9.288  1.00  0.00     0.124 S 
ATOM     68  O   UNL     1      -2.261  -5.035   8.545  1.00  0.00    -0.237 OA
ATOM     69  O   UNL     1      -4.340  -6.348   8.828  1.00  0.00    -0.237 OA
ATOM     70  O   UNL     1      -2.818  -6.008  10.739  1.00  0.00    -0.744 OA
ENDBRANCH  63  67
ENDBRANCH  46  60
BRANCH  47  71
ATOM     71  C   UNL     1       0.987 -10.212  -2.683  1.00  0.00     0.023 A 
ATOM     72  C   UNL     1      -0.000 -10.518  -3.634  1.00  0.00     0.031 A 
ATOM     73  C   UNL     1       2.327 -10.186  -3.108  1.00  0.00     0.131 A 
ATOM     74  C   UNL     1       0.371 -10.833  -4.950  1.00  0.00     0.055 A 
ATOM     75  C   UNL     1       2.687 -10.454  -4.430  1.00  0.00     0.041 A 
ATOM     76  F   UNL     1       3.309  -9.896  -2.240  1.00  0.00    -0.206 F 
ATOM     77  C   UNL     1       1.707 -10.793  -5.357  1.00  0.00     0.022 A 
BRANCH  74  78
ATOM     78  S   UNL     1      -0.914 -11.376  -6.110  1.00  0.00     0.124 S 
ATOM     79  O   UNL     1      -1.437 -12.560  -5.439  1.00  0.00    -0.237 OA
ATOM     80  O   UNL     1      -1.797 -10.214  -6.146  1.00  0.00    -0.237 OA
ATOM     81  O   UNL     1      -0.172 -11.630  -7.343  1.00  0.00    -0.744 OA
ENDBRANCH  74  78
ENDBRANCH  47  71
BRANCH  59  82
ATOM     82  C   UNL     1      -1.775 -14.306   2.244  1.00  0.00     0.023 A 
ATOM     83  C   UNL     1      -0.923 -15.407   2.046  1.00  0.00     0.031 A 
ATOM     84  C   UNL     1      -3.149 -14.555   2.412  1.00  0.00     0.131 A 
ATOM     85  C   UNL     1      -1.461 -16.702   1.972  1.00  0.00     0.055 A 
ATOM     86  C   UNL     1      -3.670 -15.849   2.395  1.00  0.00     0.041 A 
ATOM     87  F   UNL     1      -4.008 -13.540   2.602  1.00  0.00    -0.206 F 
ATOM     88  C   UNL     1      -2.826 -16.931   2.162  1.00  0.00     0.022 A 
BRANCH  85  89
ATOM     89  S   UNL     1      -0.362 -18.079   1.542  1.00  0.00     0.124 S 
ATOM     90  O   UNL     1       0.153 -17.662   0.241  1.00  0.00    -0.237 OA
ATOM     91  O   UNL     1       0.598 -18.068   2.641  1.00  0.00    -0.237 OA
ATOM     92  O   UNL     1      -1.256 -19.236   1.513  1.00  0.00    -0.744 OA
ENDBRANCH  85  89
ENDBRANCH  59  82
ENDBRANCH  33  34
ENDBRANCH  26  28
ENDBRANCH  25  26
ENDBRANCH  24  25
ENDBRANCH   1  24
TORSDOF 18
