REMARK SMILES CSCc1ccc(C(=O)N[C@H]2C=C[C@@H](C(=O)OCCOC(=O)c3ccc(-c4c5nc(c(-c6cc(S(=O)(=O)[O-])ccc6F)c6ccc([nH]6)c(-c6cc(S(=O)(=O)[O-])ccc6F)c6nc(c(-c7cc(S(=O)(=O)[O-])ccc7F)c7ccc4[nH]7)C=C6)C=C5)cc3)C2)o1
REMARK SMILES IDX 18 1 17 2 15 3 16 4 14 5 11 6 12 7 86 8 13 9 10 10 8 11 9 12
REMARK SMILES IDX 7 14 4 15 5 16 87 17 6 18 3 19 2 20 1 21 19 22 20 23 21 24
REMARK SMILES IDX 22 25 23 26 24 27 85 28 25 29 84 30 26 31 27 32 28 33 78 34
REMARK SMILES IDX 29 35 83 36 77 37 79 38 30 39 82 40 76 41 75 42 31 44 63 45
REMARK SMILES IDX 43 46 62 47 44 48 47 49 61 50 80 51 45 52 46 53 60 55 81 56
REMARK SMILES IDX 48 57 32 58 33 59 41 60 34 61 40 62 42 63 39 64 35 65 36 66
REMARK SMILES IDX 37 67 38 68 64 69 65 70 73 71 66 72 72 73 74 74 71 75 67 76
REMARK SMILES IDX 68 77 69 78 70 79 49 80 50 81 58 82 51 83 57 84 59 85 56 86
REMARK SMILES IDX 52 87 53 88 54 89 55 90
REMARK H PARENT 10 13 79 43 47 54
REMARK Flexibility Score: inf
ROOT
ATOM      1  C   UNL     1       3.302   4.096   4.035  1.00  0.00     0.274 C 
ENDROOT
BRANCH   1   2
ATOM      2  O   UNL     1       2.244   4.993   3.654  1.00  0.00    -0.462 OA
BRANCH   2   3
ATOM      3  C   UNL     1       0.978   4.495   3.610  1.00  0.00     0.312 C 
ATOM      4  O   UNL     1       0.695   3.307   3.699  1.00  0.00    -0.252 OA
BRANCH   3   5
ATOM      5  C   UNL     1      -0.048   5.633   3.610  1.00  0.00     0.124 C 
ATOM      6  C   UNL     1      -0.731   6.934   1.647  1.00  0.00     0.106 C 
ATOM      7  C   UNL     1      -1.728   5.893   1.967  1.00  0.00    -0.006 C 
ATOM      8  C   UNL     1       0.345   6.818   2.725  1.00  0.00     0.048 C 
ATOM      9  C   UNL     1      -1.382   5.208   3.065  1.00  0.00    -0.014 C 
BRANCH   6  10
ATOM     10  N   UNL     1      -0.199   6.922   0.299  1.00  0.00    -0.343 N 
ATOM     11  C   UNL     1       0.415   6.053  -0.565  1.00  0.00     0.287 C 
ATOM     12  O   UNL     1       1.052   6.629  -1.457  1.00  0.00    -0.266 OA
ATOM     13  H   UNL     1      -0.311   7.805  -0.122  1.00  0.00     0.164 HD
BRANCH  11  14
ATOM     14  C   UNL     1       0.301   4.606  -0.534  1.00  0.00     0.191 A 
ATOM     15  C   UNL     1       0.594   2.612  -1.507  1.00  0.00     0.114 A 
ATOM     16  C   UNL     1      -0.153   2.394  -0.376  1.00  0.00     0.047 A 
ATOM     17  O   UNL     1       0.878   3.943  -1.604  1.00  0.00    -0.455 OA
ATOM     18  C   UNL     1      -0.290   3.648   0.262  1.00  0.00     0.056 A 
BRANCH  15  19
ATOM     19  C   UNL     1       1.118   1.759  -2.604  1.00  0.00     0.144 C 
BRANCH  19  20
ATOM     20  S   UNL     1       0.750  -0.018  -2.428  1.00  0.00    -0.157 SA
ATOM     21  C   UNL     1       1.755  -0.400  -0.969  1.00  0.00     0.085 C 
ENDBRANCH  19  20
ENDBRANCH  15  19
ENDBRANCH  11  14
ENDBRANCH   6  10
ENDBRANCH   3   5
ENDBRANCH   2   3
ENDBRANCH   1   2
BRANCH   1  22
ATOM     22  C   UNL     1       3.857   4.533   5.391  1.00  0.00     0.275 C 
BRANCH  22  23
ATOM     23  O   UNL     1       2.877   4.316   6.425  1.00  0.00    -0.458 OA
BRANCH  23  24
ATOM     24  C   UNL     1       2.090   5.382   6.699  1.00  0.00     0.338 C 
ATOM     25  O   UNL     1       2.154   6.499   6.216  1.00  0.00    -0.246 OA
BRANCH  24  26
ATOM     26  C   UNL     1       1.032   4.977   7.631  1.00  0.00     0.060 A 
ATOM     27  C   UNL     1      -0.157   4.455   7.117  1.00  0.00     0.016 A 
ATOM     28  C   UNL     1       1.166   5.238   8.993  1.00  0.00     0.016 A 
ATOM     29  C   UNL     1      -1.248   4.264   7.958  1.00  0.00     0.010 A 
ATOM     30  C   UNL     1       0.092   4.971   9.847  1.00  0.00     0.010 A 
ATOM     31  C   UNL     1      -1.134   4.511   9.333  1.00  0.00    -0.014 A 
BRANCH  31  32
ATOM     32  C   UNL     1      -2.308   4.318  10.223  1.00  0.00     0.031 A 
ATOM     33  C   UNL     1      -2.907   5.494  10.945  1.00  0.00     0.074 A 
ATOM     34  C   UNL     1      -2.841   3.090  10.370  1.00  0.00     0.049 A 
ATOM     35  N   UNL     1      -3.834   5.516  11.867  1.00  0.00    -0.248 NA
ATOM     36  C   UNL     1      -2.380   6.820  10.589  1.00  0.00     0.031 C 
ATOM     37  C   UNL     1      -2.375   1.879   9.690  1.00  0.00     0.029 A 
ATOM     38  N   UNL     1      -3.892   2.654  11.137  1.00  0.00    -0.354 N 
ATOM     39  C   UNL     1      -3.975   6.851  12.233  1.00  0.00     0.074 A 
ATOM     40  C   UNL     1      -3.023   7.604  11.443  1.00  0.00     0.031 C 
ATOM     41  C   UNL     1      -3.148   0.845  10.053  1.00  0.00     0.029 A 
ATOM     42  C   UNL     1      -4.114   1.300  11.046  1.00  0.00     0.049 A 
ATOM     43  H   UNL     1      -4.435   3.253  11.698  1.00  0.00     0.167 HD
ATOM     44  C   UNL     1      -4.822   7.394  13.145  1.00  0.00     0.034 A 
ATOM     45  C   UNL     1      -4.969   0.505  11.718  1.00  0.00     0.034 A 
ATOM     46  C   UNL     1      -5.781   6.628  13.904  1.00  0.00     0.049 A 
ATOM     47  C   UNL     1      -5.870   1.123  12.752  1.00  0.00     0.074 A 
ATOM     48  C   UNL     1      -6.691   7.072  14.848  1.00  0.00     0.029 A 
ATOM     49  N   UNL     1      -5.957   5.253  13.804  1.00  0.00    -0.354 N 
ATOM     50  N   UNL     1      -5.958   2.379  13.125  1.00  0.00    -0.248 NA
ATOM     51  C   UNL     1      -6.781   0.216  13.461  1.00  0.00     0.031 C 
ATOM     52  C   UNL     1      -7.379   5.962  15.354  1.00  0.00     0.029 A 
ATOM     53  C   UNL     1      -6.944   4.831  14.682  1.00  0.00     0.049 A 
ATOM     54  H   UNL     1      -5.453   4.663  13.197  1.00  0.00     0.167 HD
ATOM     55  C   UNL     1      -6.944   2.414  14.105  1.00  0.00     0.074 A 
ATOM     56  C   UNL     1      -7.434   1.057  14.249  1.00  0.00     0.031 C 
ATOM     57  C   UNL     1      -7.403   3.470  14.824  1.00  0.00     0.034 A 
BRANCH  44  58
ATOM     58  C   UNL     1      -4.698   8.876  13.408  1.00  0.00     0.023 A 
ATOM     59  C   UNL     1      -4.994   9.836  12.424  1.00  0.00     0.031 A 
ATOM     60  C   UNL     1      -4.236   9.334  14.655  1.00  0.00     0.131 A 
ATOM     61  C   UNL     1      -4.757  11.196  12.679  1.00  0.00     0.055 A 
ATOM     62  C   UNL     1      -4.075  10.693  14.928  1.00  0.00     0.041 A 
ATOM     63  F   UNL     1      -3.917   8.464  15.626  1.00  0.00    -0.206 F 
ATOM     64  C   UNL     1      -4.321  11.633  13.932  1.00  0.00     0.022 A 
BRANCH  61  65
ATOM     65  S   UNL     1      -4.891  12.373  11.305  1.00  0.00     0.124 S 
ATOM     66  O   UNL     1      -3.915  11.836  10.360  1.00  0.00    -0.237 OA
ATOM     67  O   UNL     1      -6.291  12.248  10.918  1.00  0.00    -0.237 OA
ATOM     68  O   UNL     1      -4.522  13.651  11.911  1.00  0.00    -0.744 OA
ENDBRANCH  61  65
ENDBRANCH  44  58
BRANCH  45  69
ATOM     69  C   UNL     1      -4.969  -0.966  11.480  1.00  0.00     0.023 A 
ATOM     70  C   UNL     1      -6.081  -1.611  10.919  1.00  0.00     0.031 A 
ATOM     71  C   UNL     1      -3.856  -1.751  11.832  1.00  0.00     0.131 A 
ATOM     72  C   UNL     1      -6.069  -3.005  10.755  1.00  0.00     0.055 A 
ATOM     73  C   UNL     1      -3.829  -3.130  11.622  1.00  0.00     0.041 A 
ATOM     74  F   UNL     1      -2.765  -1.181  12.368  1.00  0.00    -0.206 F 
ATOM     75  C   UNL     1      -4.946  -3.766  11.089  1.00  0.00     0.022 A 
BRANCH  72  76
ATOM     76  S   UNL     1      -7.572  -3.822  10.154  1.00  0.00     0.124 S 
ATOM     77  O   UNL     1      -8.550  -3.424  11.161  1.00  0.00    -0.237 OA
ATOM     78  O   UNL     1      -7.733  -3.226   8.832  1.00  0.00    -0.237 OA
ATOM     79  O   UNL     1      -7.214  -5.239  10.158  1.00  0.00    -0.744 OA
ENDBRANCH  72  76
ENDBRANCH  45  69
BRANCH  57  80
ATOM     80  C   UNL     1      -8.513   3.187  15.802  1.00  0.00     0.023 A 
ATOM     81  C   UNL     1      -8.291   2.435  16.969  1.00  0.00     0.031 A 
ATOM     82  C   UNL     1      -9.815   3.650  15.546  1.00  0.00     0.131 A 
ATOM     83  C   UNL     1      -9.368   2.122  17.811  1.00  0.00     0.055 A 
ATOM     84  C   UNL     1     -10.873   3.378  16.414  1.00  0.00     0.041 A 
ATOM     85  F   UNL     1     -10.080   4.370  14.444  1.00  0.00    -0.206 F 
ATOM     86  C   UNL     1     -10.655   2.599  17.548  1.00  0.00     0.022 A 
BRANCH  83  87
ATOM     87  S   UNL     1      -9.081   1.007  19.213  1.00  0.00     0.124 S 
ATOM     88  O   UNL     1      -8.591  -0.197  18.549  1.00  0.00    -0.237 OA
ATOM     89  O   UNL     1      -8.101   1.744  20.003  1.00  0.00    -0.237 OA
ATOM     90  O   UNL     1     -10.402   0.881  19.827  1.00  0.00    -0.744 OA
ENDBRANCH  83  87
ENDBRANCH  57  80
ENDBRANCH  31  32
ENDBRANCH  24  26
ENDBRANCH  23  24
ENDBRANCH  22  23
ENDBRANCH   1  22
TORSDOF 18
