REMARK SMILES O=C(COc1cc(-c2ccccc2)nc(Nc2ccccc2Br)n1)OCCOC(=O)c1ccc(-c2c3nc(c(-c4cc(S(=O)(=O)[O-])ccc4F)c4ccc([nH]4)c(-c4cc(S(=O)(=O)[O-])ccc4F)c4nc(c(-c5cc(S(=O)(=O)[O-])ccc5F)c5ccc2[nH]5)C=C4)C=C3)cc1
REMARK SMILES IDX 26 1 25 2 2 3 1 4 3 5 4 6 5 7 6 8 24 9 7 10 15 11 14 12 8 13
REMARK SMILES IDX 9 14 13 15 10 16 12 17 11 18 16 19 17 21 18 22 22 23 19 24
REMARK SMILES IDX 21 25 23 26 20 27 27 28 28 29 29 30 30 31 31 32 32 33 93 34
REMARK SMILES IDX 33 35 92 36 34 37 35 38 36 39 86 40 37 41 91 42 85 43 87 44
REMARK SMILES IDX 38 45 90 46 84 47 83 48 39 50 71 51 51 52 70 53 52 54 55 55
REMARK SMILES IDX 69 56 88 57 53 58 54 59 68 61 89 62 56 63 40 64 41 65 49 66
REMARK SMILES IDX 42 67 48 68 50 69 47 70 43 71 44 72 45 73 46 74 72 75 73 76
REMARK SMILES IDX 81 77 74 78 80 79 82 80 79 81 75 82 76 83 77 84 78 85 57 86
REMARK SMILES IDX 58 87 66 88 59 89 65 90 67 91 64 92 60 93 61 94 62 95 63 96
REMARK H PARENT 16 20 87 49 55 60
REMARK Flexibility Score: inf
ROOT
ATOM      1  C   UNL     1       4.657  -0.212  -1.119  1.00  0.00     0.274 C 
ENDROOT
BRANCH   1   2
ATOM      2  O   UNL     1       3.281  -0.584  -0.898  1.00  0.00    -0.460 OA
BRANCH   2   3
ATOM      3  C   UNL     1       2.557  -0.165   0.171  1.00  0.00     0.344 C 
ATOM      4  O   UNL     1       1.331  -0.249   0.158  1.00  0.00    -0.248 OA
BRANCH   3   5
ATOM      5  C   UNL     1       3.310   0.292   1.413  1.00  0.00     0.353 C 
BRANCH   5   6
ATOM      6  O   UNL     1       4.205  -0.706   1.899  1.00  0.00    -0.466 OA
BRANCH   6   7
ATOM      7  C   UNL     1       3.552  -1.536   2.770  1.00  0.00     0.219 A 
ATOM      8  C   UNL     1       2.606  -2.413   2.327  1.00  0.00     0.097 A 
ATOM      9  N   UNL     1       3.920  -1.426   4.041  1.00  0.00    -0.177 NA
ATOM     10  C   UNL     1       1.958  -3.144   3.296  1.00  0.00     0.080 A 
ATOM     11  C   UNL     1       3.254  -2.173   4.934  1.00  0.00     0.231 A 
ATOM     12  N   UNL     1       2.270  -3.034   4.608  1.00  0.00    -0.212 NA
BRANCH  10  13
ATOM     13  C   UNL     1       0.847  -4.024   2.897  1.00  0.00     0.000 A 
ATOM     14  C   UNL     1      -0.402  -3.958   3.532  1.00  0.00     0.010 A 
ATOM     15  C   UNL     1       0.963  -4.853   1.761  1.00  0.00     0.010 A 
ATOM     16  C   UNL     1      -1.503  -4.653   3.019  1.00  0.00     0.001 A 
ATOM     17  C   UNL     1      -0.135  -5.544   1.246  1.00  0.00     0.001 A 
ATOM     18  C   UNL     1      -1.372  -5.433   1.871  1.00  0.00     0.000 A 
ENDBRANCH  10  13
BRANCH  11  19
ATOM     19  N   UNL     1       3.622  -2.072   6.273  1.00  0.00    -0.323 N 
ATOM     20  H   UNL     1       3.224  -2.725   6.894  1.00  0.00     0.170 HD
BRANCH  19  21
ATOM     21  C   UNL     1       4.504  -1.130   6.822  1.00  0.00     0.055 A 
ATOM     22  C   UNL     1       5.705  -1.588   7.385  1.00  0.00     0.027 A 
ATOM     23  C   UNL     1       4.237   0.251   6.868  1.00  0.00     0.041 A 
ATOM     24  C   UNL     1       6.647  -0.693   7.904  1.00  0.00     0.002 A 
ATOM     25  C   UNL     1       5.176   1.147   7.393  1.00  0.00     0.018 A 
ATOM     26  Br  UNL     1       2.590   0.979   6.261  1.00  0.00    -0.049 Br
ATOM     27  C   UNL     1       6.386   0.675   7.898  1.00  0.00     0.001 A 
ENDBRANCH  19  21
ENDBRANCH  11  19
ENDBRANCH   6   7
ENDBRANCH   5   6
ENDBRANCH   3   5
ENDBRANCH   2   3
ENDBRANCH   1   2
BRANCH   1  28
ATOM     28  C   UNL     1       4.747   1.094  -1.908  1.00  0.00     0.275 C 
BRANCH  28  29
ATOM     29  O   UNL     1       4.210   2.176  -1.124  1.00  0.00    -0.458 OA
BRANCH  29  30
ATOM     30  C   UNL     1       2.934   2.536  -1.420  1.00  0.00     0.338 C 
ATOM     31  O   UNL     1       2.267   2.122  -2.353  1.00  0.00    -0.246 OA
BRANCH  30  32
ATOM     32  C   UNL     1       2.394   3.358  -0.312  1.00  0.00     0.060 A 
ATOM     33  C   UNL     1       1.072   3.134   0.090  1.00  0.00     0.016 A 
ATOM     34  C   UNL     1       3.172   4.321   0.341  1.00  0.00     0.016 A 
ATOM     35  C   UNL     1       0.514   3.897   1.118  1.00  0.00     0.010 A 
ATOM     36  C   UNL     1       2.609   5.086   1.369  1.00  0.00     0.010 A 
ATOM     37  C   UNL     1       1.268   4.899   1.743  1.00  0.00    -0.014 A 
BRANCH  37  38
ATOM     38  C   UNL     1       0.599   5.842   2.676  1.00  0.00     0.031 A 
ATOM     39  C   UNL     1       0.128   7.171   2.151  1.00  0.00     0.074 A 
ATOM     40  C   UNL     1       0.369   5.506   3.958  1.00  0.00     0.049 A 
ATOM     41  N   UNL     1      -0.529   8.122   2.764  1.00  0.00    -0.248 NA
ATOM     42  C   UNL     1       0.443   7.465   0.744  1.00  0.00     0.031 C 
ATOM     43  C   UNL     1       0.763   4.245   4.585  1.00  0.00     0.029 A 
ATOM     44  N   UNL     1      -0.255   6.200   4.965  1.00  0.00    -0.354 N 
ATOM     45  C   UNL     1      -0.736   9.113   1.811  1.00  0.00     0.074 A 
ATOM     46  C   UNL     1      -0.074   8.675   0.600  1.00  0.00     0.031 C 
ATOM     47  C   UNL     1       0.376   4.260   5.872  1.00  0.00     0.029 A 
ATOM     48  C   UNL     1      -0.276   5.534   6.168  1.00  0.00     0.049 A 
ATOM     49  H   UNL     1      -0.651   7.093   4.838  1.00  0.00     0.167 HD
ATOM     50  C   UNL     1      -1.433  10.271   1.926  1.00  0.00     0.034 A 
ATOM     51  C   UNL     1      -0.760   5.908   7.370  1.00  0.00     0.034 A 
ATOM     52  C   UNL     1      -2.058  10.719   3.146  1.00  0.00     0.049 A 
ATOM     53  C   UNL     1      -1.463   7.240   7.495  1.00  0.00     0.074 A 
ATOM     54  C   UNL     1      -2.778  11.880   3.371  1.00  0.00     0.029 A 
ATOM     55  N   UNL     1      -2.028  10.034   4.354  1.00  0.00    -0.354 N 
ATOM     56  N   UNL     1      -1.682   8.152   6.575  1.00  0.00    -0.248 NA
ATOM     57  C   UNL     1      -2.006   7.579   8.817  1.00  0.00     0.031 C 
ATOM     58  C   UNL     1      -3.126  11.927   4.726  1.00  0.00     0.029 A 
ATOM     59  C   UNL     1      -2.690  10.761   5.333  1.00  0.00     0.049 A 
ATOM     60  H   UNL     1      -1.599   9.159   4.495  1.00  0.00     0.167 HD
ATOM     61  C   UNL     1      -2.413   9.158   7.204  1.00  0.00     0.074 A 
ATOM     62  C   UNL     1      -2.619   8.726   8.571  1.00  0.00     0.031 C 
ATOM     63  C   UNL     1      -2.874  10.332   6.699  1.00  0.00     0.034 A 
BRANCH  50  64
ATOM     64  C   UNL     1      -1.521  11.141   0.696  1.00  0.00     0.023 A 
ATOM     65  C   UNL     1      -2.198  10.710  -0.459  1.00  0.00     0.031 A 
ATOM     66  C   UNL     1      -0.900  12.401   0.665  1.00  0.00     0.131 A 
ATOM     67  C   UNL     1      -2.183  11.502  -1.616  1.00  0.00     0.055 A 
ATOM     68  C   UNL     1      -0.951  13.218  -0.466  1.00  0.00     0.041 A 
ATOM     69  F   UNL     1      -0.219  12.853   1.730  1.00  0.00    -0.206 F 
ATOM     70  C   UNL     1      -1.585  12.764  -1.620  1.00  0.00     0.022 A 
BRANCH  67  71
ATOM     71  S   UNL     1      -2.844  10.806  -3.155  1.00  0.00     0.124 S 
ATOM     72  O   UNL     1      -1.986   9.639  -3.344  1.00  0.00    -0.237 OA
ATOM     73  O   UNL     1      -4.233  10.530  -2.806  1.00  0.00    -0.237 OA
ATOM     74  O   UNL     1      -2.647  11.879  -4.128  1.00  0.00    -0.744 OA
ENDBRANCH  67  71
ENDBRANCH  50  64
BRANCH  51  75
ATOM     75  C   UNL     1      -0.577   5.037   8.568  1.00  0.00     0.023 A 
ATOM     76  C   UNL     1      -1.675   4.499   9.258  1.00  0.00     0.031 A 
ATOM     77  C   UNL     1       0.709   4.801   9.090  1.00  0.00     0.131 A 
ATOM     78  C   UNL     1      -1.474   3.805  10.462  1.00  0.00     0.055 A 
ATOM     79  C   UNL     1       0.907   4.062  10.257  1.00  0.00     0.041 A 
ATOM     80  F   UNL     1       1.794   5.295   8.472  1.00  0.00    -0.206 F 
ATOM     81  C   UNL     1      -0.189   3.574  10.960  1.00  0.00     0.022 A 
BRANCH  78  82
ATOM     82  S   UNL     1      -2.924   3.303  11.430  1.00  0.00     0.124 S 
ATOM     83  O   UNL     1      -3.610   4.576  11.621  1.00  0.00    -0.237 OA
ATOM     84  O   UNL     1      -3.573   2.353  10.533  1.00  0.00    -0.237 OA
ATOM     85  O   UNL     1      -2.342   2.720  12.638  1.00  0.00    -0.744 OA
ENDBRANCH  78  82
ENDBRANCH  51  75
BRANCH  63  86
ATOM     86  C   UNL     1      -3.674  11.211   7.633  1.00  0.00     0.023 A 
ATOM     87  C   UNL     1      -3.096  11.793   8.776  1.00  0.00     0.031 A 
ATOM     88  C   UNL     1      -5.041  11.438   7.398  1.00  0.00     0.131 A 
ATOM     89  C   UNL     1      -3.897  12.512   9.677  1.00  0.00     0.055 A 
ATOM     90  C   UNL     1      -5.819  12.210   8.264  1.00  0.00     0.041 A 
ATOM     91  F   UNL     1      -5.648  10.909   6.324  1.00  0.00    -0.206 F 
ATOM     92  C   UNL     1      -5.251  12.737   9.420  1.00  0.00     0.022 A 
BRANCH  89  93
ATOM     93  S   UNL     1      -3.170  13.051  11.250  1.00  0.00     0.124 S 
ATOM     94  O   UNL     1      -2.675  11.794  11.803  1.00  0.00    -0.237 OA
ATOM     95  O   UNL     1      -2.150  13.999  10.812  1.00  0.00    -0.237 OA
ATOM     96  O   UNL     1      -4.299  13.642  11.965  1.00  0.00    -0.744 OA
ENDBRANCH  89  93
ENDBRANCH  63  86
ENDBRANCH  37  38
ENDBRANCH  30  32
ENDBRANCH  29  30
ENDBRANCH  28  29
ENDBRANCH   1  28
TORSDOF 19
