REMARK SMILES Cc1cc(OC(F)(F)F)cc2c1O[C@H](C(F)(F)F)C(C(=O)OCCOC(=O)c1ccc(-c3c4nc(c(-c5cc(S(=O)(=O)[O-])ccc5F)c5ccc([nH]5)c(-c5cc(S(=O)(=O)[O-])ccc5F)c5nc(c(-c6cc(S(=O)(=O)[O-])ccc6F)c6ccc3[nH]6)C=C5)C=C4)cc1)=C2
REMARK SMILES IDX 24 1 23 2 22 3 20 4 21 5 19 6 1 7 2 8 3 9 12 10 4 11 11 12
REMARK SMILES IDX 13 13 10 14 91 15 14 16 5 17 6 18 7 19 8 20 9 21 15 22 16 23
REMARK SMILES IDX 17 24 18 25 25 26 26 27 27 28 28 29 29 30 90 31 30 32 89 33
REMARK SMILES IDX 31 34 32 35 33 36 83 37 34 38 88 39 82 40 84 41 35 42 87 43
REMARK SMILES IDX 81 44 80 45 36 47 68 48 48 49 67 50 49 51 52 52 66 53 85 54
REMARK SMILES IDX 50 55 51 56 65 58 86 59 53 60 37 61 38 62 46 63 39 64 45 65
REMARK SMILES IDX 47 66 44 67 40 68 41 69 42 70 43 71 69 72 70 73 78 74 71 75
REMARK SMILES IDX 77 76 79 77 76 78 72 79 73 80 74 81 75 82 54 83 55 84 63 85
REMARK SMILES IDX 56 86 62 87 64 88 61 89 57 90 58 91 59 92 60 93
REMARK H PARENT 84 46 52 57
REMARK Flexibility Score: inf
ROOT
ATOM      1  C   UNL     1       0.967  -7.527   5.080  1.00  0.00     0.275 C 
ENDROOT
BRANCH   1   2
ATOM      2  C   UNL     1       0.234  -7.321   3.755  1.00  0.00     0.275 C 
BRANCH   2   3
ATOM      3  O   UNL     1       0.507  -6.014   3.206  1.00  0.00    -0.459 OA
BRANCH   3   4
ATOM      4  C   UNL     1      -0.475  -5.099   3.379  1.00  0.00     0.338 C 
ATOM      5  O   UNL     1      -1.567  -5.289   3.884  1.00  0.00    -0.246 OA
BRANCH   4   6
ATOM      6  C   UNL     1      -0.054  -3.786   2.857  1.00  0.00     0.087 C 
ATOM      7  C   UNL     1       1.136   0.148  -0.214  1.00  0.00     0.048 C 
ATOM      8  C   UNL     1       0.635  -0.015   1.193  1.00  0.00    -0.005 A 
ATOM      9  C   UNL     1       0.354   1.131   1.964  1.00  0.00     0.054 A 
ATOM     10  C   UNL     1       0.477  -1.286   1.762  1.00  0.00     0.131 A 
ATOM     11  C   UNL     1      -0.094   1.016   3.281  1.00  0.00     0.130 A 
ATOM     12  C   UNL     1       0.018  -1.403   3.073  1.00  0.00     0.021 A 
ATOM     13  O   UNL     1       0.807  -2.370   0.993  1.00  0.00    -0.475 OA
ATOM     14  C   UNL     1      -0.254  -0.257   3.830  1.00  0.00     0.058 A 
ATOM     15  C   UNL     1      -0.221  -2.716   3.640  1.00  0.00     0.027 C 
ATOM     16  C   UNL     1       0.399  -3.696   1.431  1.00  0.00     0.316 C 
BRANCH  11  17
ATOM     17  O   UNL     1      -0.412   2.036   4.130  1.00  0.00    -0.406 OA
BRANCH  17  18
ATOM     18  C   UNL     1      -0.359   3.360   3.631  1.00  0.00     0.573 C 
ATOM     19  F   UNL     1       0.898   3.687   3.259  1.00  0.00    -0.132 F 
ATOM     20  F   UNL     1      -1.187   3.514   2.573  1.00  0.00    -0.132 F 
ATOM     21  F   UNL     1      -0.750   4.216   4.598  1.00  0.00    -0.132 F 
ENDBRANCH  17  18
ENDBRANCH  11  17
BRANCH  16  22
ATOM     22  C   UNL     1      -0.669  -4.233   0.466  1.00  0.00     0.430 C 
ATOM     23  F   UNL     1      -0.259  -4.132  -0.823  1.00  0.00    -0.167 F 
ATOM     24  F   UNL     1      -0.923  -5.546   0.682  1.00  0.00    -0.167 F 
ATOM     25  F   UNL     1      -1.841  -3.569   0.570  1.00  0.00    -0.167 F 
ENDBRANCH  16  22
ENDBRANCH   4   6
ENDBRANCH   3   4
ENDBRANCH   2   3
ENDBRANCH   1   2
BRANCH   1  26
ATOM     26  O   UNL     1       0.431  -6.660   6.095  1.00  0.00    -0.458 OA
BRANCH  26  27
ATOM     27  C   UNL     1       1.154  -5.546   6.344  1.00  0.00     0.338 C 
ATOM     28  O   UNL     1       2.213  -5.220   5.832  1.00  0.00    -0.246 OA
BRANCH  27  29
ATOM     29  C   UNL     1       0.446  -4.702   7.314  1.00  0.00     0.060 A 
ATOM     30  C   UNL     1      -0.720  -4.055   6.916  1.00  0.00     0.016 A 
ATOM     31  C   UNL     1       1.008  -4.435   8.560  1.00  0.00     0.016 A 
ATOM     32  C   UNL     1      -1.252  -3.040   7.700  1.00  0.00     0.010 A 
ATOM     33  C   UNL     1       0.386  -3.514   9.411  1.00  0.00     0.010 A 
ATOM     34  C   UNL     1      -0.728  -2.776   8.975  1.00  0.00    -0.014 A 
BRANCH  34  35
ATOM     35  C   UNL     1      -1.385  -1.756   9.836  1.00  0.00     0.031 A 
ATOM     36  C   UNL     1      -0.629  -0.554  10.337  1.00  0.00     0.074 A 
ATOM     37  C   UNL     1      -2.691  -1.905  10.142  1.00  0.00     0.049 A 
ATOM     38  N   UNL     1      -1.049   0.414  11.111  1.00  0.00    -0.248 NA
ATOM     39  C   UNL     1       0.779  -0.423   9.929  1.00  0.00     0.031 C 
ATOM     40  C   UNL     1      -3.527  -3.030   9.714  1.00  0.00     0.029 A 
ATOM     41  N   UNL     1      -3.552  -1.110  10.856  1.00  0.00    -0.354 N 
ATOM     42  C   UNL     1       0.046   1.248  11.310  1.00  0.00     0.074 A 
ATOM     43  C   UNL     1       1.157   0.660  10.596  1.00  0.00     0.031 C 
ATOM     44  C   UNL     1      -4.787  -2.822  10.116  1.00  0.00     0.029 A 
ATOM     45  C   UNL     1      -4.837  -1.599  10.907  1.00  0.00     0.049 A 
ATOM     46  H   UNL     1      -3.276  -0.271  11.290  1.00  0.00     0.167 HD
ATOM     47  C   UNL     1       0.110   2.404  12.013  1.00  0.00     0.034 A 
ATOM     48  C   UNL     1      -5.936  -1.133  11.535  1.00  0.00     0.034 A 
ATOM     49  C   UNL     1      -1.016   2.998  12.689  1.00  0.00     0.049 A 
ATOM     50  C   UNL     1      -5.834   0.147  12.313  1.00  0.00     0.074 A 
ATOM     51  C   UNL     1      -1.058   4.187  13.396  1.00  0.00     0.029 A 
ATOM     52  N   UNL     1      -2.295   2.462  12.737  1.00  0.00    -0.354 N 
ATOM     53  N   UNL     1      -4.797   0.938  12.462  1.00  0.00    -0.248 NA
ATOM     54  C   UNL     1      -7.043   0.601  13.012  1.00  0.00     0.031 C 
ATOM     55  C   UNL     1      -2.344   4.342  13.918  1.00  0.00     0.029 A 
ATOM     56  C   UNL     1      -3.125   3.281  13.486  1.00  0.00     0.049 A 
ATOM     57  H   UNL     1      -2.572   1.622  12.303  1.00  0.00     0.167 HD
ATOM     58  C   UNL     1      -5.228   1.983  13.271  1.00  0.00     0.074 A 
ATOM     59  C   UNL     1      -6.631   1.745  13.543  1.00  0.00     0.031 C 
ATOM     60  C   UNL     1      -4.521   3.034  13.755  1.00  0.00     0.034 A 
BRANCH  47  61
ATOM     61  C   UNL     1       1.430   3.130  12.096  1.00  0.00     0.023 A 
ATOM     62  C   UNL     1       2.071   3.277  13.340  1.00  0.00     0.031 A 
ATOM     63  C   UNL     1       1.983   3.783  10.981  1.00  0.00     0.131 A 
ATOM     64  C   UNL     1       3.207   4.090  13.447  1.00  0.00     0.055 A 
ATOM     65  C   UNL     1       3.137   4.561  11.085  1.00  0.00     0.041 A 
ATOM     66  F   UNL     1       1.410   3.669   9.771  1.00  0.00    -0.206 F 
ATOM     67  C   UNL     1       3.747   4.727  12.325  1.00  0.00     0.022 A 
BRANCH  64  68
ATOM     68  S   UNL     1       3.999   4.386  15.051  1.00  0.00     0.124 S 
ATOM     69  O   UNL     1       5.388   4.025  14.774  1.00  0.00    -0.237 OA
ATOM     70  O   UNL     1       3.754   5.811  15.252  1.00  0.00    -0.237 OA
ATOM     71  O   UNL     1       3.298   3.487  15.960  1.00  0.00    -0.744 OA
ENDBRANCH  64  68
ENDBRANCH  47  61
BRANCH  48  72
ATOM     72  C   UNL     1      -7.215  -1.891  11.414  1.00  0.00     0.023 A 
ATOM     73  C   UNL     1      -7.320  -3.209  11.895  1.00  0.00     0.031 A 
ATOM     74  C   UNL     1      -8.304  -1.353  10.710  1.00  0.00     0.131 A 
ATOM     75  C   UNL     1      -8.457  -3.970  11.598  1.00  0.00     0.055 A 
ATOM     76  C   UNL     1      -9.466  -2.093  10.478  1.00  0.00     0.041 A 
ATOM     77  F   UNL     1      -8.246  -0.104  10.225  1.00  0.00    -0.206 F 
ATOM     78  C   UNL     1      -9.538  -3.415  10.907  1.00  0.00     0.022 A 
BRANCH  75  79
ATOM     79  S   UNL     1      -8.518  -5.739  11.994  1.00  0.00     0.124 S 
ATOM     80  O   UNL     1      -9.739  -5.835  12.787  1.00  0.00    -0.237 OA
ATOM     81  O   UNL     1      -8.582  -6.338  10.662  1.00  0.00    -0.237 OA
ATOM     82  O   UNL     1      -7.275  -5.974  12.721  1.00  0.00    -0.744 OA
ENDBRANCH  75  79
ENDBRANCH  48  72
BRANCH  60  83
ATOM     83  C   UNL     1      -5.234   4.015  14.651  1.00  0.00     0.023 A 
ATOM     84  C   UNL     1      -5.402   5.352  14.247  1.00  0.00     0.031 A 
ATOM     85  C   UNL     1      -5.639   3.652  15.947  1.00  0.00     0.131 A 
ATOM     86  C   UNL     1      -5.932   6.287  15.144  1.00  0.00     0.055 A 
ATOM     87  C   UNL     1      -6.209   4.578  16.821  1.00  0.00     0.041 A 
ATOM     88  F   UNL     1      -5.491   2.390  16.379  1.00  0.00    -0.206 F 
ATOM     89  C   UNL     1      -6.347   5.905  16.425  1.00  0.00     0.022 A 
BRANCH  86  90
ATOM     90  S   UNL     1      -6.047   8.043  14.707  1.00  0.00     0.124 S 
ATOM     91  O   UNL     1      -7.477   8.302  14.864  1.00  0.00    -0.237 OA
ATOM     92  O   UNL     1      -5.187   8.665  15.711  1.00  0.00    -0.237 OA
ATOM     93  O   UNL     1      -5.553   8.099  13.335  1.00  0.00    -0.744 OA
ENDBRANCH  86  90
ENDBRANCH  60  83
ENDBRANCH  34  35
ENDBRANCH  27  29
ENDBRANCH  26  27
ENDBRANCH   1  26
TORSDOF 17
