REMARK SMILES C[C@H](C(=O)OCCOC(=O)c1ccc(-c2c3nc(c(-c4cc(S(=O)(=O)[O-])ccc4F)c4ccc([nH]4)c(-c4cc(S(=O)(=O)[O-])ccc4F)c4nc(c(-c5cc(S(=O)(=O)[O-])ccc5F)c5ccc2[nH]5)C=C4)C=C3)cc1)c1ccc2c3cc(Cl)ccc3n(C(=O)c3cocn3)c2c1
REMARK SMILES IDX 6 1 5 2 3 3 4 4 2 5 1 6 74 7 75 8 94 9 76 10 93 11 77 12
REMARK SMILES IDX 85 13 78 14 84 15 79 16 83 17 80 18 82 19 81 20 86 21 87 22
REMARK SMILES IDX 88 23 89 24 92 25 90 26 91 27 7 28 8 29 9 30 10 31 11 32
REMARK SMILES IDX 12 33 73 34 13 35 72 36 14 37 15 38 16 39 66 40 17 41 71 42
REMARK SMILES IDX 65 43 67 44 18 45 70 46 64 47 63 48 19 50 51 51 31 52 50 53
REMARK SMILES IDX 32 54 35 55 49 56 68 57 33 58 34 59 48 61 69 62 36 63 20 64
REMARK SMILES IDX 21 65 29 66 22 67 28 68 30 69 27 70 23 71 24 72 25 73 26 74
REMARK SMILES IDX 52 75 53 76 61 77 54 78 60 79 62 80 59 81 55 82 56 83 57 84
REMARK SMILES IDX 58 85 37 86 38 87 46 88 39 89 45 90 47 91 44 92 40 93 41 94
REMARK SMILES IDX 42 95 43 96
REMARK H PARENT 67 49 35 60
REMARK Flexibility Score: inf
ROOT
ATOM      1  C   UNL     1       1.961  -1.793  -0.702  1.00  0.00     0.274 C 
ENDROOT
BRANCH   1   2
ATOM      2  O   UNL     1       1.160  -0.631  -0.984  1.00  0.00    -0.462 OA
BRANCH   2   3
ATOM      3  C   UNL     1       0.776   0.079   0.114  1.00  0.00     0.313 C 
ATOM      4  O   UNL     1       0.900  -0.320   1.267  1.00  0.00    -0.252 OA
BRANCH   3   5
ATOM      5  C   UNL     1       0.148   1.426  -0.237  1.00  0.00     0.126 C 
ATOM      6  C   UNL     1       0.589   1.956  -1.604  1.00  0.00     0.025 C 
BRANCH   5   7
ATOM      7  C   UNL     1      -1.359   1.449  -0.092  1.00  0.00    -0.032 A 
ATOM      8  C   UNL     1      -2.031   2.673  -0.170  1.00  0.00     0.005 A 
ATOM      9  C   UNL     1      -2.085   0.276   0.147  1.00  0.00     0.032 A 
ATOM     10  C   UNL     1      -3.423   2.728  -0.151  1.00  0.00     0.011 A 
ATOM     11  C   UNL     1      -3.478   0.356   0.277  1.00  0.00     0.058 A 
ATOM     12  C   UNL     1      -4.154   1.541   0.034  1.00  0.00     0.008 A 
ATOM     13  N   UNL     1      -4.405  -0.623   0.641  1.00  0.00    -0.274 N 
ATOM     14  C   UNL     1      -5.535   1.231   0.021  1.00  0.00     0.009 A 
ATOM     15  C   UNL     1      -5.689  -0.093   0.461  1.00  0.00     0.057 A 
ATOM     16  C   UNL     1      -6.664   2.011  -0.299  1.00  0.00     0.031 A 
ATOM     17  C   UNL     1      -6.974  -0.600   0.731  1.00  0.00     0.029 A 
ATOM     18  C   UNL     1      -7.931   1.479  -0.100  1.00  0.00     0.041 A 
ATOM     19  C   UNL     1      -8.085   0.207   0.438  1.00  0.00     0.023 A 
ATOM     20  Cl  UNL     1      -9.314   2.425  -0.495  1.00  0.00    -0.084 Cl
BRANCH  13  21
ATOM     21  C   UNL     1      -4.016  -1.885   1.167  1.00  0.00     0.284 C 
ATOM     22  O   UNL     1      -2.999  -1.882   1.852  1.00  0.00    -0.266 OA
BRANCH  21  23
ATOM     23  C   UNL     1      -4.676  -3.159   0.895  1.00  0.00     0.167 A 
ATOM     24  C   UNL     1      -5.529  -3.509  -0.127  1.00  0.00     0.231 A 
ATOM     25  N   UNL     1      -4.356  -4.310   1.610  1.00  0.00    -0.211 NA
ATOM     26  O   UNL     1      -5.751  -4.856  -0.065  1.00  0.00    -0.451 OA
ATOM     27  C   UNL     1      -5.000  -5.267   0.992  1.00  0.00     0.308 A 
ENDBRANCH  21  23
ENDBRANCH  13  21
ENDBRANCH   5   7
ENDBRANCH   3   5
ENDBRANCH   2   3
ENDBRANCH   1   2
BRANCH   1  28
ATOM     28  C   UNL     1       3.442  -1.446  -0.853  1.00  0.00     0.275 C 
BRANCH  28  29
ATOM     29  O   UNL     1       3.755  -0.284  -0.058  1.00  0.00    -0.458 OA
BRANCH  29  30
ATOM     30  C   UNL     1       4.132   0.817  -0.751  1.00  0.00     0.338 C 
ATOM     31  O   UNL     1       4.385   0.868  -1.947  1.00  0.00    -0.246 OA
BRANCH  30  32
ATOM     32  C   UNL     1       4.133   2.024   0.109  1.00  0.00     0.060 A 
ATOM     33  C   UNL     1       3.178   2.207   1.107  1.00  0.00     0.016 A 
ATOM     34  C   UNL     1       5.006   3.068  -0.191  1.00  0.00     0.016 A 
ATOM     35  C   UNL     1       2.996   3.460   1.692  1.00  0.00     0.010 A 
ATOM     36  C   UNL     1       4.933   4.269   0.526  1.00  0.00     0.010 A 
ATOM     37  C   UNL     1       3.906   4.498   1.459  1.00  0.00    -0.014 A 
BRANCH  37  38
ATOM     38  C   UNL     1       3.826   5.796   2.201  1.00  0.00     0.031 A 
ATOM     39  C   UNL     1       3.906   7.108   1.457  1.00  0.00     0.074 A 
ATOM     40  C   UNL     1       3.748   5.810   3.550  1.00  0.00     0.049 A 
ATOM     41  N   UNL     1       4.171   8.307   1.911  1.00  0.00    -0.248 NA
ATOM     42  C   UNL     1       3.688   7.055   0.003  1.00  0.00     0.031 C 
ATOM     43  C   UNL     1       3.609   4.634   4.413  1.00  0.00     0.029 A 
ATOM     44  N   UNL     1       3.795   6.857   4.442  1.00  0.00    -0.354 N 
ATOM     45  C   UNL     1       4.222   9.139   0.795  1.00  0.00     0.074 A 
ATOM     46  C   UNL     1       3.970   8.299  -0.358  1.00  0.00     0.031 C 
ATOM     47  C   UNL     1       3.547   5.022   5.693  1.00  0.00     0.029 A 
ATOM     48  C   UNL     1       3.779   6.456   5.760  1.00  0.00     0.049 A 
ATOM     49  H   UNL     1       3.836   7.801   4.165  1.00  0.00     0.167 HD
ATOM     50  C   UNL     1       4.466  10.473   0.743  1.00  0.00     0.034 A 
ATOM     51  C   UNL     1       4.003   7.137   6.901  1.00  0.00     0.034 A 
ATOM     52  C   UNL     1       4.671  11.298   1.912  1.00  0.00     0.049 A 
ATOM     53  C   UNL     1       4.343   8.599   6.816  1.00  0.00     0.074 A 
ATOM     54  C   UNL     1       4.893  12.664   1.976  1.00  0.00     0.029 A 
ATOM     55  N   UNL     1       4.678  10.838   3.224  1.00  0.00    -0.354 N 
ATOM     56  N   UNL     1       4.450   9.362   5.753  1.00  0.00    -0.248 NA
ATOM     57  C   UNL     1       4.605   9.289   8.085  1.00  0.00     0.031 C 
ATOM     58  C   UNL     1       5.108  13.014   3.313  1.00  0.00     0.029 A 
ATOM     59  C   UNL     1       4.932  11.886   4.097  1.00  0.00     0.049 A 
ATOM     60  H   UNL     1       4.524   9.903   3.494  1.00  0.00     0.167 HD
ATOM     61  C   UNL     1       4.762  10.631   6.231  1.00  0.00     0.074 A 
ATOM     62  C   UNL     1       4.809  10.532   7.675  1.00  0.00     0.031 C 
ATOM     63  C   UNL     1       4.985  11.776   5.536  1.00  0.00     0.034 A 
BRANCH  50  64
ATOM     64  C   UNL     1       4.588  11.117  -0.622  1.00  0.00     0.023 A 
ATOM     65  C   UNL     1       3.517  11.163  -1.531  1.00  0.00     0.031 A 
ATOM     66  C   UNL     1       5.812  11.686  -1.024  1.00  0.00     0.131 A 
ATOM     67  C   UNL     1       3.711  11.697  -2.816  1.00  0.00     0.055 A 
ATOM     68  C   UNL     1       5.973  12.292  -2.271  1.00  0.00     0.041 A 
ATOM     69  F   UNL     1       6.879  11.656  -0.210  1.00  0.00    -0.206 F 
ATOM     70  C   UNL     1       4.923  12.287  -3.182  1.00  0.00     0.022 A 
BRANCH  67  71
ATOM     71  S   UNL     1       2.401  11.477  -4.052  1.00  0.00     0.124 S 
ATOM     72  O   UNL     1       2.261  10.023  -4.079  1.00  0.00    -0.237 OA
ATOM     73  O   UNL     1       1.288  12.215  -3.468  1.00  0.00    -0.237 OA
ATOM     74  O   UNL     1       2.971  12.063  -5.264  1.00  0.00    -0.744 OA
ENDBRANCH  67  71
ENDBRANCH  50  64
BRANCH  51  75
ATOM     75  C   UNL     1       3.989   6.431   8.216  1.00  0.00     0.023 A 
ATOM     76  C   UNL     1       3.059   6.779   9.208  1.00  0.00     0.031 A 
ATOM     77  C   UNL     1       4.925   5.424   8.517  1.00  0.00     0.131 A 
ATOM     78  C   UNL     1       3.113   6.159  10.465  1.00  0.00     0.055 A 
ATOM     79  C   UNL     1       4.929   4.761   9.745  1.00  0.00     0.041 A 
ATOM     80  F   UNL     1       5.841   5.053   7.608  1.00  0.00    -0.206 F 
ATOM     81  C   UNL     1       4.028   5.138  10.734  1.00  0.00     0.022 A 
BRANCH  78  82
ATOM     82  S   UNL     1       2.031   6.779  11.781  1.00  0.00     0.124 S 
ATOM     83  O   UNL     1       2.426   8.181  11.852  1.00  0.00    -0.237 OA
ATOM     84  O   UNL     1       0.705   6.512  11.235  1.00  0.00    -0.237 OA
ATOM     85  O   UNL     1       2.402   5.966  12.938  1.00  0.00    -0.744 OA
ENDBRANCH  78  82
ENDBRANCH  51  75
BRANCH  63  86
ATOM     86  C   UNL     1       5.238  13.025   6.345  1.00  0.00     0.023 A 
ATOM     87  C   UNL     1       6.387  13.176   7.141  1.00  0.00     0.031 A 
ATOM     88  C   UNL     1       4.296  14.069   6.338  1.00  0.00     0.131 A 
ATOM     89  C   UNL     1       6.535  14.317   7.944  1.00  0.00     0.055 A 
ATOM     90  C   UNL     1       4.482  15.232   7.087  1.00  0.00     0.041 A 
ATOM     91  F   UNL     1       3.177  13.976   5.603  1.00  0.00    -0.206 F 
ATOM     92  C   UNL     1       5.599  15.354   7.908  1.00  0.00     0.022 A 
BRANCH  89  93
ATOM     93  S   UNL     1       7.914  14.381   9.120  1.00  0.00     0.124 S 
ATOM     94  O   UNL     1       7.672  13.196   9.937  1.00  0.00    -0.237 OA
ATOM     95  O   UNL     1       9.078  14.323   8.241  1.00  0.00    -0.237 OA
ATOM     96  O   UNL     1       7.721  15.657   9.807  1.00  0.00    -0.744 OA
ENDBRANCH  89  93
ENDBRANCH  63  86
ENDBRANCH  37  38
ENDBRANCH  30  32
ENDBRANCH  29  30
ENDBRANCH  28  29
ENDBRANCH   1  28
TORSDOF 17
