REMARK SMILES CC(C)(Br)[C@H](Br)C(=O)OCCOC(=O)c1ccc(-c2c3nc(c(-c4cc(S(=O)(=O)[O-])ccc4F)c4ccc([nH]4)c(-c4cc(S(=O)(=O)[O-])ccc4F)c4nc(c(-c5cc(S(=O)(=O)[O-])ccc5F)c5ccc2[nH]5)C=C4)C=C3)cc1
REMARK SMILES IDX 11 1 10 2 9 3 7 4 8 5 5 6 6 7 2 8 1 9 3 10 4 11 12 12 13 13
REMARK SMILES IDX 14 14 15 15 16 16 77 17 17 18 76 19 18 20 19 21 20 22 70 23
REMARK SMILES IDX 21 24 75 25 69 26 71 27 22 28 74 29 68 30 67 31 23 33 55 34
REMARK SMILES IDX 35 35 54 36 36 37 39 38 53 39 72 40 37 41 38 42 52 44 73 45
REMARK SMILES IDX 40 46 24 47 25 48 33 49 26 50 32 51 34 52 31 53 27 54 28 55
REMARK SMILES IDX 29 56 30 57 56 58 57 59 65 60 58 61 64 62 66 63 63 64 59 65
REMARK SMILES IDX 60 66 61 67 62 68 41 69 42 70 50 71 43 72 49 73 51 74 48 75
REMARK SMILES IDX 44 76 45 77 46 78 47 79
REMARK H PARENT 71 32 39 43
REMARK Flexibility Score: inf
ROOT
ATOM      1  C   UNL     1       5.133   0.062   1.785  1.00  0.00     0.275 C 
ENDROOT
BRANCH   1   2
ATOM      2  C   UNL     1       4.646  -1.193   1.048  1.00  0.00     0.274 C 
BRANCH   2   3
ATOM      3  O   UNL     1       3.219  -1.196   0.830  1.00  0.00    -0.461 OA
BRANCH   3   4
ATOM      4  C   UNL     1       2.481  -1.779   1.809  1.00  0.00     0.321 C 
ATOM      5  O   UNL     1       2.971  -2.333   2.790  1.00  0.00    -0.251 OA
BRANCH   4   6
ATOM      6  C   UNL     1       0.978  -1.705   1.612  1.00  0.00     0.183 C 
ATOM      7  Br  UNL     1       0.489   0.043   0.854  1.00  0.00    -0.075 Br
BRANCH   6   8
ATOM      8  C   UNL     1       0.239  -2.888   0.951  1.00  0.00     0.043 C 
ATOM      9  C   UNL     1      -0.117  -2.728  -0.533  1.00  0.00     0.025 C 
ATOM     10  C   UNL     1      -1.041  -3.198   1.752  1.00  0.00     0.025 C 
ATOM     11  Br  UNL     1       1.322  -4.564   1.044  1.00  0.00    -0.084 Br
ENDBRANCH   6   8
ENDBRANCH   4   6
ENDBRANCH   3   4
ENDBRANCH   2   3
ENDBRANCH   1   2
BRANCH   1  12
ATOM     12  O   UNL     1       4.695   0.094   3.157  1.00  0.00    -0.458 OA
BRANCH  12  13
ATOM     13  C   UNL     1       3.631   0.895   3.405  1.00  0.00     0.338 C 
ATOM     14  O   UNL     1       3.044   1.599   2.603  1.00  0.00    -0.246 OA
BRANCH  13  15
ATOM     15  C   UNL     1       3.174   0.716   4.794  1.00  0.00     0.060 A 
ATOM     16  C   UNL     1       1.933   0.109   5.003  1.00  0.00     0.016 A 
ATOM     17  C   UNL     1       3.897   1.231   5.870  1.00  0.00     0.016 A 
ATOM     18  C   UNL     1       1.407   0.006   6.288  1.00  0.00     0.010 A 
ATOM     19  C   UNL     1       3.365   1.133   7.162  1.00  0.00     0.010 A 
ATOM     20  C   UNL     1       2.113   0.529   7.377  1.00  0.00    -0.014 A 
BRANCH  20  21
ATOM     21  C   UNL     1       1.498   0.503   8.728  1.00  0.00     0.031 A 
ATOM     22  C   UNL     1       0.914   1.763   9.302  1.00  0.00     0.074 A 
ATOM     23  C   UNL     1       1.435  -0.650   9.418  1.00  0.00     0.049 A 
ATOM     24  N   UNL     1       0.410   1.978  10.489  1.00  0.00    -0.248 NA
ATOM     25  C   UNL     1       0.898   2.937   8.417  1.00  0.00     0.031 C 
ATOM     26  C   UNL     1       1.914  -1.946   8.938  1.00  0.00     0.029 A 
ATOM     27  N   UNL     1       0.946  -0.917  10.672  1.00  0.00    -0.354 N 
ATOM     28  C   UNL     1       0.032   3.316  10.505  1.00  0.00     0.074 A 
ATOM     29  C   UNL     1       0.386   3.865   9.211  1.00  0.00     0.031 C 
ATOM     30  C   UNL     1       1.700  -2.870   9.889  1.00  0.00     0.029 A 
ATOM     31  C   UNL     1       1.117  -2.224  11.062  1.00  0.00     0.049 A 
ATOM     32  H   UNL     1       0.513  -0.238  11.238  1.00  0.00     0.167 HD
ATOM     33  C   UNL     1      -0.556   4.019  11.506  1.00  0.00     0.034 A 
ATOM     34  C   UNL     1       0.867  -2.824  12.243  1.00  0.00     0.034 A 
ATOM     35  C   UNL     1      -0.899   3.455  12.790  1.00  0.00     0.049 A 
ATOM     36  C   UNL     1       0.285  -2.006  13.368  1.00  0.00     0.074 A 
ATOM     37  C   UNL     1      -1.496   4.074  13.874  1.00  0.00     0.029 A 
ATOM     38  N   UNL     1      -0.669   2.137  13.166  1.00  0.00    -0.354 N 
ATOM     39  N   UNL     1      -0.039  -0.733  13.382  1.00  0.00    -0.248 NA
ATOM     40  C   UNL     1       0.038  -2.704  14.636  1.00  0.00     0.031 C 
ATOM     41  C   UNL     1      -1.573   3.149  14.923  1.00  0.00     0.029 A 
ATOM     42  C   UNL     1      -1.086   1.933  14.473  1.00  0.00     0.049 A 
ATOM     43  H   UNL     1      -0.269   1.448  12.588  1.00  0.00     0.167 HD
ATOM     44  C   UNL     1      -0.547  -0.485  14.654  1.00  0.00     0.074 A 
ATOM     45  C   UNL     1      -0.499  -1.742  15.372  1.00  0.00     0.031 C 
ATOM     46  C   UNL     1      -1.014   0.676  15.180  1.00  0.00     0.034 A 
BRANCH  33  47
ATOM     47  C   UNL     1      -0.798   5.489  11.265  1.00  0.00     0.023 A 
ATOM     48  C   UNL     1      -1.708   5.943  10.295  1.00  0.00     0.031 A 
ATOM     49  C   UNL     1      -0.076   6.451  11.994  1.00  0.00     0.131 A 
ATOM     50  C   UNL     1      -1.822   7.318  10.033  1.00  0.00     0.055 A 
ATOM     51  C   UNL     1      -0.247   7.819  11.779  1.00  0.00     0.041 A 
ATOM     52  F   UNL     1       0.822   6.075  12.918  1.00  0.00    -0.206 F 
ATOM     53  C   UNL     1      -1.114   8.260  10.783  1.00  0.00     0.022 A 
BRANCH  50  54
ATOM     54  S   UNL     1      -2.807   7.852   8.606  1.00  0.00     0.124 S 
ATOM     55  O   UNL     1      -2.135   7.162   7.508  1.00  0.00    -0.237 OA
ATOM     56  O   UNL     1      -4.140   7.369   8.944  1.00  0.00    -0.237 OA
ATOM     57  O   UNL     1      -2.651   9.306   8.606  1.00  0.00    -0.744 OA
ENDBRANCH  50  54
ENDBRANCH  33  47
BRANCH  34  58
ATOM     58  C   UNL     1       1.221  -4.256  12.449  1.00  0.00     0.023 A 
ATOM     59  C   UNL     1       0.234  -5.226  12.682  1.00  0.00     0.031 A 
ATOM     60  C   UNL     1       2.567  -4.668  12.456  1.00  0.00     0.131 A 
ATOM     61  C   UNL     1       0.607  -6.553  12.946  1.00  0.00     0.055 A 
ATOM     62  C   UNL     1       2.930  -5.997  12.672  1.00  0.00     0.041 A 
ATOM     63  F   UNL     1       3.550  -3.779  12.240  1.00  0.00    -0.206 F 
ATOM     64  C   UNL     1       1.948  -6.947  12.930  1.00  0.00     0.022 A 
BRANCH  61  65
ATOM     65  S   UNL     1      -0.684  -7.750  13.382  1.00  0.00     0.124 S 
ATOM     66  O   UNL     1      -1.271  -7.137  14.568  1.00  0.00    -0.237 OA
ATOM     67  O   UNL     1      -1.515  -7.750  12.182  1.00  0.00    -0.237 OA
ATOM     68  O   UNL     1       0.062  -8.984  13.621  1.00  0.00    -0.744 OA
ENDBRANCH  61  65
ENDBRANCH  34  58
BRANCH  46  69
ATOM     69  C   UNL     1      -1.544   0.617  16.591  1.00  0.00     0.023 A 
ATOM     70  C   UNL     1      -0.693   0.413  17.691  1.00  0.00     0.031 A 
ATOM     71  C   UNL     1      -2.922   0.749  16.833  1.00  0.00     0.131 A 
ATOM     72  C   UNL     1      -1.236   0.294  18.980  1.00  0.00     0.055 A 
ATOM     73  C   UNL     1      -3.451   0.681  18.123  1.00  0.00     0.041 A 
ATOM     74  F   UNL     1      -3.778   0.944  15.817  1.00  0.00    -0.206 F 
ATOM     75  C   UNL     1      -2.607   0.441  19.204  1.00  0.00     0.022 A 
BRANCH  72  76
ATOM     76  S   UNL     1      -0.133  -0.136  20.355  1.00  0.00     0.124 S 
ATOM     77  O   UNL     1       0.413  -1.417  19.918  1.00  0.00    -0.237 OA
ATOM     78  O   UNL     1       0.802   0.984  20.369  1.00  0.00    -0.237 OA
ATOM     79  O   UNL     1      -1.031  -0.206  21.506  1.00  0.00    -0.744 OA
ENDBRANCH  72  76
ENDBRANCH  46  69
ENDBRANCH  20  21
ENDBRANCH  13  15
ENDBRANCH  12  13
ENDBRANCH   1  12
TORSDOF 15
