REMARK SMILES Cc1c(NC(=O)c2ccc(-c3cccc(Cl)c3)o2)cccc1C(=O)OCCOC(=O)c1ccc(-c2c3nc(c(-c4cc(S(=O)(=O)[O-])ccc4F)c4ccc([nH]4)c(-c4cc(S(=O)(=O)[O-])ccc4F)c4nc(c(-c5cc(S(=O)(=O)[O-])ccc5F)c5ccc2[nH]5)C=C4)C=C3)cc1
REMARK SMILES IDX 26 1 25 2 23 3 24 4 22 5 1 6 2 7 3 8 19 9 21 10 20 11 4 12
REMARK SMILES IDX 5 13 6 15 7 16 8 17 18 18 9 19 10 20 11 21 12 22 17 23 13 24
REMARK SMILES IDX 15 25 14 26 16 27 27 28 28 29 29 30 30 31 31 32 32 33 93 34
REMARK SMILES IDX 33 35 92 36 34 37 35 38 36 39 86 40 37 41 91 42 85 43 87 44
REMARK SMILES IDX 38 45 90 46 84 47 83 48 39 50 71 51 51 52 70 53 52 54 55 55
REMARK SMILES IDX 69 56 88 57 53 58 54 59 68 61 89 62 56 63 40 64 41 65 49 66
REMARK SMILES IDX 42 67 48 68 50 69 47 70 43 71 44 72 45 73 46 74 72 75 73 76
REMARK SMILES IDX 81 77 74 78 80 79 82 80 79 81 75 82 76 83 77 84 78 85 57 86
REMARK SMILES IDX 58 87 66 88 59 89 65 90 67 91 64 92 60 93 61 94 62 95 63 96
REMARK H PARENT 4 14 87 49 55 60
REMARK Flexibility Score: inf
ROOT
ATOM      1  C   UNL     1       3.266   2.952  -2.196  1.00  0.00     0.275 C 
ENDROOT
BRANCH   1   2
ATOM      2  O   UNL     1       2.214   1.975  -2.167  1.00  0.00    -0.458 OA
BRANCH   2   3
ATOM      3  C   UNL     1       2.266   1.224  -1.038  1.00  0.00     0.338 C 
ATOM      4  O   UNL     1       3.123   1.319  -0.172  1.00  0.00    -0.246 OA
BRANCH   3   5
ATOM      5  C   UNL     1       1.199   0.205  -0.924  1.00  0.00     0.065 A 
ATOM      6  C   UNL     1       2.959  -1.572  -0.462  1.00  0.00     0.047 C 
ATOM      7  C   UNL     1       1.529  -1.088  -0.464  1.00  0.00    -0.013 A 
ATOM      8  C   UNL     1       0.484  -1.946  -0.065  1.00  0.00     0.045 A 
ATOM      9  C   UNL     1      -0.806  -1.424   0.066  1.00  0.00     0.026 A 
ATOM     10  C   UNL     1      -0.139   0.590  -1.052  1.00  0.00     0.016 A 
ATOM     11  C   UNL     1      -1.136  -0.190  -0.482  1.00  0.00     0.003 A 
BRANCH   8  12
ATOM     12  N   UNL     1       0.780  -3.303   0.179  1.00  0.00    -0.319 N 
ATOM     13  C   UNL     1      -0.018  -4.431   0.204  1.00  0.00     0.291 C 
ATOM     14  H   UNL     1       1.730  -3.479   0.367  1.00  0.00     0.170 HD
ATOM     15  O   UNL     1       0.524  -5.498   0.502  1.00  0.00    -0.265 OA
BRANCH  13  16
ATOM     16  C   UNL     1      -1.406  -4.348  -0.181  1.00  0.00     0.192 A 
ATOM     17  C   UNL     1      -2.047  -3.824  -1.292  1.00  0.00     0.057 A 
ATOM     18  O   UNL     1      -2.338  -4.821   0.700  1.00  0.00    -0.451 OA
ATOM     19  C   UNL     1      -3.436  -3.905  -1.032  1.00  0.00     0.052 A 
ATOM     20  C   UNL     1      -3.565  -4.538   0.186  1.00  0.00     0.135 A 
BRANCH  20  21
ATOM     21  C   UNL     1      -4.699  -4.974   0.976  1.00  0.00     0.019 A 
ATOM     22  C   UNL     1      -5.774  -5.610   0.340  1.00  0.00     0.012 A 
ATOM     23  C   UNL     1      -4.740  -4.779   2.363  1.00  0.00     0.032 A 
ATOM     24  C   UNL     1      -6.872  -6.055   1.075  1.00  0.00     0.002 A 
ATOM     25  C   UNL     1      -5.846  -5.215   3.091  1.00  0.00     0.041 A 
ATOM     26  C   UNL     1      -6.909  -5.855   2.453  1.00  0.00     0.020 A 
ATOM     27  Cl  UNL     1      -5.908  -4.969   4.793  1.00  0.00    -0.084 Cl
ENDBRANCH  20  21
ENDBRANCH  13  16
ENDBRANCH   8  12
ENDBRANCH   3   5
ENDBRANCH   2   3
ENDBRANCH   1   2
BRANCH   1  28
ATOM     28  C   UNL     1       2.929   4.231  -2.973  1.00  0.00     0.275 C 
BRANCH  28  29
ATOM     29  O   UNL     1       1.636   4.878  -2.855  1.00  0.00    -0.458 OA
BRANCH  29  30
ATOM     30  C   UNL     1       0.607   4.348  -2.154  1.00  0.00     0.338 C 
ATOM     31  O   UNL     1      -0.359   3.809  -2.693  1.00  0.00    -0.246 OA
BRANCH  30  32
ATOM     32  C   UNL     1       0.825   4.326  -0.691  1.00  0.00     0.060 A 
ATOM     33  C   UNL     1      -0.017   3.541   0.115  1.00  0.00     0.016 A 
ATOM     34  C   UNL     1       1.993   4.872  -0.171  1.00  0.00     0.016 A 
ATOM     35  C   UNL     1       0.379   3.171   1.391  1.00  0.00     0.010 A 
ATOM     36  C   UNL     1       2.468   4.386   1.017  1.00  0.00     0.010 A 
ATOM     37  C   UNL     1       1.638   3.583   1.812  1.00  0.00    -0.014 A 
BRANCH  37  38
ATOM     38  C   UNL     1       2.028   3.601   3.207  1.00  0.00     0.031 A 
ATOM     39  C   UNL     1       2.603   2.417   3.854  1.00  0.00     0.074 A 
ATOM     40  C   UNL     1       1.893   4.853   3.703  1.00  0.00     0.049 A 
ATOM     41  N   UNL     1       2.628   2.236   5.123  1.00  0.00    -0.248 NA
ATOM     42  C   UNL     1       3.159   1.275   3.130  1.00  0.00     0.031 C 
ATOM     43  C   UNL     1       2.368   5.498   4.908  1.00  0.00     0.029 A 
ATOM     44  N   UNL     1       1.049   5.815   3.140  1.00  0.00    -0.354 N 
ATOM     45  C   UNL     1       3.513   1.205   5.381  1.00  0.00     0.074 A 
ATOM     46  C   UNL     1       3.677   0.537   4.120  1.00  0.00     0.031 C 
ATOM     47  C   UNL     1       1.591   6.580   5.142  1.00  0.00     0.029 A 
ATOM     48  C   UNL     1       0.510   6.580   4.155  1.00  0.00     0.049 A 
ATOM     49  H   UNL     1       0.868   5.928   2.178  1.00  0.00     0.167 HD
ATOM     50  C   UNL     1       4.136   1.196   6.595  1.00  0.00     0.034 A 
ATOM     51  C   UNL     1      -0.818   6.372   4.413  1.00  0.00     0.034 A 
ATOM     52  C   UNL     1       3.596   2.289   7.404  1.00  0.00     0.049 A 
ATOM     53  C   UNL     1      -0.950   5.649   5.734  1.00  0.00     0.074 A 
ATOM     54  C   UNL     1       4.036   3.586   7.607  1.00  0.00     0.029 A 
ATOM     55  N   UNL     1       2.254   2.260   7.758  1.00  0.00    -0.354 N 
ATOM     56  N   UNL     1      -0.108   4.752   6.183  1.00  0.00    -0.248 NA
ATOM     57  C   UNL     1      -1.960   6.033   6.708  1.00  0.00     0.031 C 
ATOM     58  C   UNL     1       2.901   4.366   7.963  1.00  0.00     0.029 A 
ATOM     59  C   UNL     1       1.787   3.539   7.983  1.00  0.00     0.049 A 
ATOM     60  H   UNL     1       1.712   1.442   7.837  1.00  0.00     0.167 HD
ATOM     61  C   UNL     1      -0.372   4.527   7.510  1.00  0.00     0.074 A 
ATOM     62  C   UNL     1      -1.551   5.340   7.781  1.00  0.00     0.031 C 
ATOM     63  C   UNL     1       0.396   3.749   8.336  1.00  0.00     0.034 A 
BRANCH  50  64
ATOM     64  C   UNL     1       5.405   0.467   6.986  1.00  0.00     0.023 A 
ATOM     65  C   UNL     1       6.100   0.928   8.130  1.00  0.00     0.031 A 
ATOM     66  C   UNL     1       6.021  -0.602   6.309  1.00  0.00     0.131 A 
ATOM     67  C   UNL     1       7.344   0.398   8.516  1.00  0.00     0.055 A 
ATOM     68  C   UNL     1       7.266  -1.133   6.692  1.00  0.00     0.041 A 
ATOM     69  F   UNL     1       5.452  -1.205   5.259  1.00  0.00    -0.206 F 
ATOM     70  C   UNL     1       7.939  -0.629   7.795  1.00  0.00     0.022 A 
BRANCH  67  71
ATOM     71  S   UNL     1       8.177   1.096   9.968  1.00  0.00     0.124 S 
ATOM     72  O   UNL     1       8.396   2.481   9.562  1.00  0.00    -0.237 OA
ATOM     73  O   UNL     1       7.195   0.879  11.025  1.00  0.00    -0.237 OA
ATOM     74  O   UNL     1       9.392   0.290  10.083  1.00  0.00    -0.744 OA
ENDBRANCH  67  71
ENDBRANCH  50  64
BRANCH  51  75
ATOM     75  C   UNL     1      -1.675   6.166   3.184  1.00  0.00     0.023 A 
ATOM     76  C   UNL     1      -1.506   7.072   2.104  1.00  0.00     0.031 A 
ATOM     77  C   UNL     1      -2.431   5.016   2.920  1.00  0.00     0.131 A 
ATOM     78  C   UNL     1      -1.944   6.758   0.805  1.00  0.00     0.055 A 
ATOM     79  C   UNL     1      -2.932   4.737   1.632  1.00  0.00     0.041 A 
ATOM     80  F   UNL     1      -2.635   4.095   3.872  1.00  0.00    -0.206 F 
ATOM     81  C   UNL     1      -2.661   5.591   0.560  1.00  0.00     0.022 A 
BRANCH  78  82
ATOM     82  S   UNL     1      -1.325   7.763  -0.583  1.00  0.00     0.124 S 
ATOM     83  O   UNL     1      -2.240   8.899  -0.571  1.00  0.00    -0.237 OA
ATOM     84  O   UNL     1       0.052   8.045  -0.180  1.00  0.00    -0.237 OA
ATOM     85  O   UNL     1      -1.446   6.870  -1.731  1.00  0.00    -0.744 OA
ENDBRANCH  78  82
ENDBRANCH  51  75
BRANCH  63  86
ATOM     86  C   UNL     1      -0.100   3.180   9.641  1.00  0.00     0.023 A 
ATOM     87  C   UNL     1      -1.459   3.151   9.955  1.00  0.00     0.031 A 
ATOM     88  C   UNL     1       0.761   2.550  10.572  1.00  0.00     0.131 A 
ATOM     89  C   UNL     1      -1.904   2.688  11.195  1.00  0.00     0.055 A 
ATOM     90  C   UNL     1       0.295   1.949  11.743  1.00  0.00     0.041 A 
ATOM     91  F   UNL     1       2.087   2.477  10.386  1.00  0.00    -0.206 F 
ATOM     92  C   UNL     1      -1.045   2.049  12.081  1.00  0.00     0.022 A 
BRANCH  89  93
ATOM     93  S   UNL     1      -3.599   3.103  11.660  1.00  0.00     0.124 S 
ATOM     94  O   UNL     1      -3.560   4.564  11.637  1.00  0.00    -0.237 OA
ATOM     95  O   UNL     1      -4.380   2.477  10.598  1.00  0.00    -0.237 OA
ATOM     96  O   UNL     1      -3.747   2.505  12.984  1.00  0.00    -0.744 OA
ENDBRANCH  89  93
ENDBRANCH  63  86
ENDBRANCH  37  38
ENDBRANCH  30  32
ENDBRANCH  29  30
ENDBRANCH  28  29
ENDBRANCH   1  28
TORSDOF 17
