REMARK SMILES C=C[C@@H]1[C@@H](O)C[C@H]2[C@]3(CC[C@]4(C)[C@@H]([C@H](C)CCC=C(C)C)CC[C@]24C)C[C@]13CCC(=O)OCCOC(=O)c1ccc(-c2c3nc(c(-c4cc(S(=O)(=O)[O-])ccc4F)c4ccc([nH]4)c(-c4cc(S(=O)(=O)[O-])ccc4F)c4nc(c(-c5cc(S(=O)(=O)[O-])ccc5F)c5ccc2[nH]5)C=C4)C=C3)cc1
REMARK SMILES IDX 32 1 30 2 31 3 29 4 28 5 27 6 3 7 4 8 6 9 8 10 26 11 7 12
REMARK SMILES IDX 9 13 24 14 10 15 11 16 23 17 25 18 13 19 12 20 22 21 2 22
REMARK SMILES IDX 1 23 5 24 14 26 15 27 16 28 17 29 18 30 19 31 20 32 21 33
REMARK SMILES IDX 33 34 34 35 35 36 36 37 37 38 38 39 39 40 100 41 40 42 99 43
REMARK SMILES IDX 41 44 42 45 43 46 93 47 44 48 98 49 92 50 94 51 45 52 97 53
REMARK SMILES IDX 91 54 90 55 46 57 78 58 58 59 77 60 59 61 62 62 76 63 95 64
REMARK SMILES IDX 60 65 61 66 75 68 96 69 63 70 47 71 48 72 56 73 49 74 55 75
REMARK SMILES IDX 57 76 54 77 50 78 51 79 52 80 53 81 79 82 80 83 88 84 81 85
REMARK SMILES IDX 87 86 89 87 86 88 82 89 83 90 84 91 85 92 64 93 65 94 73 95
REMARK SMILES IDX 66 96 72 97 74 98 71 99 67 100 68 101 69 102 70 103
REMARK H PARENT 5 25 94 56 62 67
REMARK Flexibility Score: inf
ROOT
ATOM      1  O   UNL     1       0.554  -0.380   1.786  1.00  0.00    -0.462 OA
ENDROOT
BRANCH   1   2
ATOM      2  C   UNL     1       0.370  -1.719   1.819  1.00  0.00     0.305 C 
ATOM      3  O   UNL     1       1.154  -2.526   2.306  1.00  0.00    -0.252 OA
BRANCH   2   4
ATOM      4  C   UNL     1      -0.929  -2.150   1.185  1.00  0.00     0.123 C 
BRANCH   4   5
ATOM      5  C   UNL     1      -1.872  -1.034   0.735  1.00  0.00     0.020 C 
BRANCH   5   6
ATOM      6  C   UNL     1      -1.523  -0.248  -0.545  1.00  0.00    -0.014 C 
ATOM      7  C   UNL     1      -0.781  -1.073  -1.622  1.00  0.00     0.047 C 
ATOM      8  C   UNL     1      -1.258  -0.885  -3.078  1.00  0.00     0.122 C 
ATOM      9  C   UNL     1      -1.850   0.483  -3.361  1.00  0.00     0.037 C 
ATOM     10  C   UNL     1      -2.595   0.816  -0.947  1.00  0.00    -0.019 C 
ATOM     11  C   UNL     1      -1.237   1.250  -0.475  1.00  0.00     0.016 C 
ATOM     12  C   UNL     1      -3.029   0.813  -2.419  1.00  0.00     0.005 C 
ATOM     13  C   UNL     1      -3.717   1.181   0.012  1.00  0.00     0.008 C 
ATOM     14  C   UNL     1      -3.816   2.127  -2.847  1.00  0.00    -0.023 C 
ATOM     15  C   UNL     1      -4.359   2.513  -0.357  1.00  0.00     0.008 C 
ATOM     16  C   UNL     1      -4.921   2.556  -1.785  1.00  0.00    -0.024 C 
ATOM     17  C   UNL     1      -4.702   1.829  -4.093  1.00  0.00     0.008 C 
ATOM     18  C   UNL     1      -2.800   3.238  -3.196  1.00  0.00     0.012 C 
ATOM     19  C   UNL     1      -6.022   1.468  -2.046  1.00  0.00    -0.002 C 
ATOM     20  C   UNL     1      -5.432   3.997  -2.049  1.00  0.00     0.012 C 
ATOM     21  C   UNL     1      -6.087   1.405  -3.581  1.00  0.00     0.005 C 
BRANCH   7  22
ATOM     22  C   UNL     1       0.744  -1.097  -1.556  1.00  0.00    -0.028 C 
ATOM     23  C   UNL     1       1.601  -0.094  -1.325  1.00  0.00     0.004 C 
ENDBRANCH   7  22
BRANCH   8  24
ATOM     24  O   UNL     1      -2.228  -1.881  -3.437  1.00  0.00    -0.392 OA
ATOM     25  H   UNL     1      -3.021  -1.771  -2.889  1.00  0.00     0.210 HD
ENDBRANCH   8  24
BRANCH  19  26
ATOM     26  C   UNL     1      -7.435   1.436  -1.379  1.00  0.00    -0.010 C 
ATOM     27  C   UNL     1      -8.041   2.793  -1.024  1.00  0.00     0.008 C 
BRANCH  26  28
ATOM     28  C   UNL     1      -7.491   0.532  -0.112  1.00  0.00     0.008 C 
BRANCH  28  29
ATOM     29  C   UNL     1      -7.728  -0.968  -0.375  1.00  0.00     0.027 C 
BRANCH  29  30
ATOM     30  C   UNL     1      -6.656  -1.664  -1.163  1.00  0.00    -0.028 C 
ATOM     31  C   UNL     1      -5.728  -2.521  -0.694  1.00  0.00    -0.080 C 
ATOM     32  C   UNL     1      -4.697  -3.115  -1.612  1.00  0.00     0.039 C 
ATOM     33  C   UNL     1      -5.626  -2.927   0.750  1.00  0.00     0.039 C 
ENDBRANCH  29  30
ENDBRANCH  28  29
ENDBRANCH  26  28
ENDBRANCH  19  26
ENDBRANCH   5   6
ENDBRANCH   4   5
ENDBRANCH   2   4
ENDBRANCH   1   2
BRANCH   1  34
ATOM     34  C   UNL     1       1.736   0.137   2.419  1.00  0.00     0.274 C 
BRANCH  34  35
ATOM     35  C   UNL     1       1.334   1.183   3.456  1.00  0.00     0.275 C 
BRANCH  35  36
ATOM     36  O   UNL     1       0.626   0.550   4.537  1.00  0.00    -0.458 OA
BRANCH  36  37
ATOM     37  C   UNL     1      -0.725   0.575   4.430  1.00  0.00     0.338 C 
ATOM     38  O   UNL     1      -1.395   1.184   3.617  1.00  0.00    -0.246 OA
BRANCH  37  39
ATOM     39  C   UNL     1      -1.275  -0.416   5.364  1.00  0.00     0.060 A 
ATOM     40  C   UNL     1      -1.864  -1.563   4.826  1.00  0.00     0.016 A 
ATOM     41  C   UNL     1      -1.241  -0.212   6.742  1.00  0.00     0.016 A 
ATOM     42  C   UNL     1      -2.419  -2.525   5.663  1.00  0.00     0.010 A 
ATOM     43  C   UNL     1      -1.802  -1.175   7.583  1.00  0.00     0.010 A 
ATOM     44  C   UNL     1      -2.400  -2.333   7.048  1.00  0.00    -0.014 A 
BRANCH  44  45
ATOM     45  C   UNL     1      -3.090  -3.296   7.938  1.00  0.00     0.031 A 
ATOM     46  C   UNL     1      -4.371  -2.883   8.599  1.00  0.00     0.074 A 
ATOM     47  C   UNL     1      -2.570  -4.517   8.150  1.00  0.00     0.049 A 
ATOM     48  N   UNL     1      -5.053  -3.479   9.540  1.00  0.00    -0.248 NA
ATOM     49  C   UNL     1      -4.948  -1.610   8.145  1.00  0.00     0.031 C 
ATOM     50  C   UNL     1      -1.360  -5.039   7.515  1.00  0.00     0.029 A 
ATOM     51  N   UNL     1      -2.982  -5.532   8.974  1.00  0.00    -0.354 N 
ATOM     52  C   UNL     1      -6.122  -2.635   9.823  1.00  0.00     0.074 A 
ATOM     53  C   UNL     1      -5.977  -1.476   8.966  1.00  0.00     0.031 C 
ATOM     54  C   UNL     1      -1.117  -6.272   7.987  1.00  0.00     0.029 A 
ATOM     55  C   UNL     1      -2.117  -6.600   9.000  1.00  0.00     0.049 A 
ATOM     56  H   UNL     1      -3.817  -5.500   9.496  1.00  0.00     0.167 HD
ATOM     57  C   UNL     1      -7.124  -2.815  10.720  1.00  0.00     0.034 A 
ATOM     58  C   UNL     1      -2.102  -7.692   9.789  1.00  0.00     0.034 A 
ATOM     59  C   UNL     1      -7.238  -3.987  11.556  1.00  0.00     0.049 A 
ATOM     60  C   UNL     1      -3.190  -7.853  10.818  1.00  0.00     0.074 A 
ATOM     61  C   UNL     1      -8.212  -4.296  12.489  1.00  0.00     0.029 A 
ATOM     62  N   UNL     1      -6.333  -5.046  11.565  1.00  0.00    -0.354 N 
ATOM     63  N   UNL     1      -4.185  -7.042  11.101  1.00  0.00    -0.248 NA
ATOM     64  C   UNL     1      -3.155  -9.073  11.631  1.00  0.00     0.031 C 
ATOM     65  C   UNL     1      -7.861  -5.503  13.107  1.00  0.00     0.029 A 
ATOM     66  C   UNL     1      -6.709  -5.990  12.509  1.00  0.00     0.049 A 
ATOM     67  H   UNL     1      -5.541  -5.114  10.985  1.00  0.00     0.167 HD
ATOM     68  C   UNL     1      -4.902  -7.660  12.121  1.00  0.00     0.074 A 
ATOM     69  C   UNL     1      -4.234  -8.920  12.386  1.00  0.00     0.031 C 
ATOM     70  C   UNL     1      -6.012  -7.229  12.776  1.00  0.00     0.034 A 
BRANCH  57  71
ATOM     71  C   UNL     1      -8.110  -1.679  10.883  1.00  0.00     0.023 A 
ATOM     72  C   UNL     1      -8.914  -1.230   9.820  1.00  0.00     0.031 A 
ATOM     73  C   UNL     1      -8.178  -0.973  12.098  1.00  0.00     0.131 A 
ATOM     74  C   UNL     1      -9.662  -0.050   9.957  1.00  0.00     0.055 A 
ATOM     75  C   UNL     1      -8.998   0.146  12.257  1.00  0.00     0.041 A 
ATOM     76  F   UNL     1      -7.420  -1.337  13.145  1.00  0.00    -0.206 F 
ATOM     77  C   UNL     1      -9.728   0.629  11.175  1.00  0.00     0.022 A 
BRANCH  74  78
ATOM     78  S   UNL     1     -10.383   0.695   8.466  1.00  0.00     0.124 S 
ATOM     79  O   UNL     1      -9.208   0.834   7.607  1.00  0.00    -0.237 OA
ATOM     80  O   UNL     1     -11.360  -0.306   8.056  1.00  0.00    -0.237 OA
ATOM     81  O   UNL     1     -10.943   1.955   8.949  1.00  0.00    -0.744 OA
ENDBRANCH  74  78
ENDBRANCH  57  71
BRANCH  58  82
ATOM     82  C   UNL     1      -0.982  -8.668   9.681  1.00  0.00     0.023 A 
ATOM     83  C   UNL     1      -1.187  -9.970   9.201  1.00  0.00     0.031 A 
ATOM     84  C   UNL     1       0.325  -8.295  10.047  1.00  0.00     0.131 A 
ATOM     85  C   UNL     1      -0.103 -10.859   9.114  1.00  0.00     0.055 A 
ATOM     86  C   UNL     1       1.406  -9.168   9.918  1.00  0.00     0.041 A 
ATOM     87  F   UNL     1       0.574  -7.059  10.508  1.00  0.00    -0.206 F 
ATOM     88  C   UNL     1       1.193 -10.462   9.454  1.00  0.00     0.022 A 
BRANCH  85  89
ATOM     89  S   UNL     1      -0.413 -12.564   8.576  1.00  0.00     0.124 S 
ATOM     90  O   UNL     1      -1.311 -13.047   9.618  1.00  0.00    -0.237 OA
ATOM     91  O   UNL     1      -1.008 -12.364   7.258  1.00  0.00    -0.237 OA
ATOM     92  O   UNL     1       0.918 -13.167   8.569  1.00  0.00    -0.744 OA
ENDBRANCH  85  89
ENDBRANCH  58  82
BRANCH  70  93
ATOM     93  C   UNL     1      -6.583  -8.154  13.823  1.00  0.00     0.023 A 
ATOM     94  C   UNL     1      -5.901  -8.423  15.023  1.00  0.00     0.031 A 
ATOM     95  C   UNL     1      -7.820  -8.786  13.607  1.00  0.00     0.131 A 
ATOM     96  C   UNL     1      -6.437  -9.341  15.939  1.00  0.00     0.055 A 
ATOM     97  C   UNL     1      -8.376  -9.653  14.549  1.00  0.00     0.041 A 
ATOM     98  F   UNL     1      -8.511  -8.568  12.477  1.00  0.00    -0.206 F 
ATOM     99  C   UNL     1      -7.678  -9.944  15.717  1.00  0.00     0.022 A 
BRANCH  96 100
ATOM    100  S   UNL     1      -5.447  -9.808  17.385  1.00  0.00     0.124 S 
ATOM    101  O   UNL     1      -4.239 -10.345  16.764  1.00  0.00    -0.237 OA
ATOM    102  O   UNL     1      -5.294  -8.537  18.084  1.00  0.00    -0.237 OA
ATOM    103  O   UNL     1      -6.282 -10.794  18.068  1.00  0.00    -0.744 OA
ENDBRANCH  96 100
ENDBRANCH  70  93
ENDBRANCH  44  45
ENDBRANCH  37  39
ENDBRANCH  36  37
ENDBRANCH  35  36
ENDBRANCH  34  35
ENDBRANCH   1  34
TORSDOF 22
