REMARK SMILES COc1cccc2cc(/C=C/c3cc(C(=O)OCCOC(=O)c4ccc(-c5c6nc(c(-c7cc(S(=O)(=O)[O-])ccc7F)c7ccc([nH]7)c(-c7cc(S(=O)(=O)[O-])ccc7F)c7nc(c(-c8cc(S(=O)(=O)[O-])ccc8F)c8ccc5[nH]8)C=C7)C=C6)cc4)ncn3)oc12
REMARK SMILES IDX 18 1 17 2 15 3 16 4 14 5 12 6 13 7 88 8 87 9 86 10 11 11
REMARK SMILES IDX 10 12 9 13 3 14 4 15 90 16 5 17 7 18 89 19 6 20 8 21 2 22
REMARK SMILES IDX 1 23 19 24 20 25 21 26 22 27 23 28 24 29 85 30 25 31 84 32
REMARK SMILES IDX 26 33 27 34 28 35 78 36 29 37 83 38 77 39 79 40 30 41 82 42
REMARK SMILES IDX 76 43 75 44 31 46 63 47 43 48 62 49 44 50 47 51 61 52 80 53
REMARK SMILES IDX 45 54 46 55 60 57 81 58 48 59 32 60 33 61 41 62 34 63 40 64
REMARK SMILES IDX 42 65 39 66 35 67 36 68 37 69 38 70 64 71 65 72 73 73 66 74
REMARK SMILES IDX 72 75 74 76 71 77 67 78 68 79 69 80 70 81 49 82 50 83 58 84
REMARK SMILES IDX 51 85 57 86 59 87 56 88 52 89 53 90 54 91 55 92
REMARK H PARENT 79 45 47 56
REMARK Flexibility Score: inf
ROOT
ATOM      1  C   UNL     1      -9.133   3.479  -0.612  1.00  0.00     0.275 C 
ENDROOT
BRANCH   1   2
ATOM      2  O   UNL     1      -8.032   3.823  -1.478  1.00  0.00    -0.457 OA
BRANCH   2   3
ATOM      3  C   UNL     1      -8.260   3.664  -2.812  1.00  0.00     0.357 C 
ATOM      4  O   UNL     1      -9.266   3.187  -3.304  1.00  0.00    -0.244 OA
BRANCH   3   5
ATOM      5  C   UNL     1      -7.124   4.226  -3.609  1.00  0.00     0.152 A 
ATOM      6  C   UNL     1      -4.899   4.791  -3.965  1.00  0.00     0.067 A 
ATOM      7  C   UNL     1      -5.847   4.274  -3.107  1.00  0.00     0.064 A 
ATOM      8  N   UNL     1      -5.190   5.310  -5.171  1.00  0.00    -0.237 NA
ATOM      9  C   UNL     1      -6.464   5.218  -5.559  1.00  0.00     0.223 A 
ATOM     10  N   UNL     1      -7.445   4.654  -4.852  1.00  0.00    -0.229 NA
BRANCH   6  11
ATOM     11  C   UNL     1      -3.473   4.767  -3.650  1.00  0.00     0.032 C 
ATOM     12  C   UNL     1      -2.888   3.637  -3.229  1.00  0.00     0.049 C 
BRANCH  12  13
ATOM     13  C   UNL     1      -1.498   3.520  -2.983  1.00  0.00     0.128 A 
ATOM     14  C   UNL     1       1.244   1.543  -1.827  1.00  0.00     0.162 A 
ATOM     15  C   UNL     1       2.598   1.894  -1.788  1.00  0.00     0.050 A 
ATOM     16  C   UNL     1       0.364   2.502  -2.329  1.00  0.00     0.176 A 
ATOM     17  C   UNL     1       3.024   3.157  -2.211  1.00  0.00     0.005 A 
ATOM     18  C   UNL     1       0.751   3.761  -2.760  1.00  0.00     0.025 A 
ATOM     19  O   UNL     1      -0.978   2.358  -2.461  1.00  0.00    -0.453 OA
ATOM     20  C   UNL     1       2.113   4.104  -2.701  1.00  0.00     0.012 A 
ATOM     21  C   UNL     1      -0.442   4.402  -3.182  1.00  0.00     0.059 A 
BRANCH  14  22
ATOM     22  O   UNL     1       0.799   0.295  -1.476  1.00  0.00    -0.493 OA
ATOM     23  C   UNL     1       1.033   0.024  -0.097  1.00  0.00     0.278 C 
ENDBRANCH  14  22
ENDBRANCH  12  13
ENDBRANCH   6  11
ENDBRANCH   3   5
ENDBRANCH   2   3
ENDBRANCH   1   2
BRANCH   1  24
ATOM     24  C   UNL     1      -9.885   4.723  -0.128  1.00  0.00     0.275 C 
BRANCH  24  25
ATOM     25  O   UNL     1     -10.618   5.361  -1.191  1.00  0.00    -0.458 OA
BRANCH  25  26
ATOM     26  C   UNL     1      -9.964   6.369  -1.817  1.00  0.00     0.338 C 
ATOM     27  O   UNL     1      -8.853   6.797  -1.549  1.00  0.00    -0.246 OA
BRANCH  26  28
ATOM     28  C   UNL     1     -10.730   6.791  -3.000  1.00  0.00     0.060 A 
ATOM     29  C   UNL     1     -10.206   6.461  -4.248  1.00  0.00     0.016 A 
ATOM     30  C   UNL     1     -11.897   7.547  -2.910  1.00  0.00     0.016 A 
ATOM     31  C   UNL     1     -10.828   6.878  -5.416  1.00  0.00     0.010 A 
ATOM     32  C   UNL     1     -12.541   7.952  -4.089  1.00  0.00     0.010 A 
ATOM     33  C   UNL     1     -12.010   7.620  -5.350  1.00  0.00    -0.014 A 
BRANCH  33  34
ATOM     34  C   UNL     1     -12.663   8.053  -6.610  1.00  0.00     0.031 A 
ATOM     35  C   UNL     1     -12.663   9.504  -6.994  1.00  0.00     0.074 A 
ATOM     36  C   UNL     1     -13.216   7.134  -7.425  1.00  0.00     0.049 A 
ATOM     37  N   UNL     1     -13.271  10.098  -7.987  1.00  0.00    -0.248 NA
ATOM     38  C   UNL     1     -11.874  10.405  -6.143  1.00  0.00     0.031 C 
ATOM     39  C   UNL     1     -13.213   5.688  -7.189  1.00  0.00     0.029 A 
ATOM     40  N   UNL     1     -13.889   7.275  -8.612  1.00  0.00    -0.354 N 
ATOM     41  C   UNL     1     -12.966  11.449  -7.866  1.00  0.00     0.074 A 
ATOM     42  C   UNL     1     -12.128  11.584  -6.692  1.00  0.00     0.031 C 
ATOM     43  C   UNL     1     -13.850   5.077  -8.200  1.00  0.00     0.029 A 
ATOM     44  C   UNL     1     -14.369   6.088  -9.116  1.00  0.00     0.049 A 
ATOM     45  H   UNL     1     -14.015   8.142  -9.061  1.00  0.00     0.167 HD
ATOM     46  C   UNL     1     -13.354  12.476  -8.663  1.00  0.00     0.034 A 
ATOM     47  C   UNL     1     -15.178   5.845 -10.166  1.00  0.00     0.034 A 
ATOM     48  C   UNL     1     -14.181  12.312  -9.835  1.00  0.00     0.049 A 
ATOM     49  C   UNL     1     -15.666   7.009 -10.986  1.00  0.00     0.074 A 
ATOM     50  C   UNL     1     -14.621  13.278 -10.724  1.00  0.00     0.029 A 
ATOM     51  N   UNL     1     -14.699  11.101 -10.280  1.00  0.00    -0.354 N 
ATOM     52  N   UNL     1     -15.403   8.288 -10.841  1.00  0.00    -0.248 NA
ATOM     53  C   UNL     1     -16.568   6.701 -12.103  1.00  0.00     0.031 C 
ATOM     54  C   UNL     1     -15.457  12.663 -11.664  1.00  0.00     0.029 A 
ATOM     55  C   UNL     1     -15.484  11.301 -11.406  1.00  0.00     0.049 A 
ATOM     56  H   UNL     1     -14.533  10.228  -9.857  1.00  0.00     0.167 HD
ATOM     57  C   UNL     1     -16.101   8.936 -11.855  1.00  0.00     0.074 A 
ATOM     58  C   UNL     1     -16.779   7.905 -12.616  1.00  0.00     0.031 C 
ATOM     59  C   UNL     1     -16.174  10.262 -12.134  1.00  0.00     0.034 A 
BRANCH  46  60
ATOM     60  C   UNL     1     -12.947  13.867  -8.243  1.00  0.00     0.023 A 
ATOM     61  C   UNL     1     -11.602  14.277  -8.214  1.00  0.00     0.031 A 
ATOM     62  C   UNL     1     -13.925  14.787  -7.823  1.00  0.00     0.131 A 
ATOM     63  C   UNL     1     -11.268  15.543  -7.708  1.00  0.00     0.055 A 
ATOM     64  C   UNL     1     -13.591  16.072  -7.392  1.00  0.00     0.041 A 
ATOM     65  F   UNL     1     -15.223  14.445  -7.808  1.00  0.00    -0.206 F 
ATOM     66  C   UNL     1     -12.255  16.452  -7.317  1.00  0.00     0.022 A 
BRANCH  63  67
ATOM     67  S   UNL     1      -9.518  15.935  -7.432  1.00  0.00     0.124 S 
ATOM     68  O   UNL     1      -9.113  14.862  -6.527  1.00  0.00    -0.237 OA
ATOM     69  O   UNL     1      -8.965  15.877  -8.780  1.00  0.00    -0.237 OA
ATOM     70  O   UNL     1      -9.555  17.266  -6.829  1.00  0.00    -0.744 OA
ENDBRANCH  63  67
ENDBRANCH  46  60
BRANCH  47  71
ATOM     71  C   UNL     1     -15.644   4.457 -10.447  1.00  0.00     0.023 A 
ATOM     72  C   UNL     1     -15.296   3.792 -11.632  1.00  0.00     0.031 A 
ATOM     73  C   UNL     1     -16.477   3.785  -9.532  1.00  0.00     0.131 A 
ATOM     74  C   UNL     1     -15.801   2.506 -11.885  1.00  0.00     0.055 A 
ATOM     75  C   UNL     1     -16.935   2.488  -9.765  1.00  0.00     0.041 A 
ATOM     76  F   UNL     1     -16.845   4.378  -8.385  1.00  0.00    -0.206 F 
ATOM     77  C   UNL     1     -16.605   1.844 -10.953  1.00  0.00     0.022 A 
BRANCH  74  78
ATOM     78  S   UNL     1     -15.450   1.731 -13.487  1.00  0.00     0.124 S 
ATOM     79  O   UNL     1     -16.017   2.700 -14.418  1.00  0.00    -0.237 OA
ATOM     80  O   UNL     1     -13.994   1.637 -13.466  1.00  0.00    -0.237 OA
ATOM     81  O   UNL     1     -16.156   0.454 -13.410  1.00  0.00    -0.744 OA
ENDBRANCH  74  78
ENDBRANCH  47  71
BRANCH  59  82
ATOM     82  C   UNL     1     -17.002  10.658 -13.331  1.00  0.00     0.023 A 
ATOM     83  C   UNL     1     -18.403  10.544 -13.326  1.00  0.00     0.031 A 
ATOM     84  C   UNL     1     -16.378  11.141 -14.494  1.00  0.00     0.131 A 
ATOM     85  C   UNL     1     -19.133  10.866 -14.480  1.00  0.00     0.055 A 
ATOM     86  C   UNL     1     -17.114  11.508 -15.621  1.00  0.00     0.041 A 
ATOM     87  F   UNL     1     -15.043  11.266 -14.551  1.00  0.00    -0.206 F 
ATOM     88  C   UNL     1     -18.498  11.362 -15.622  1.00  0.00     0.022 A 
BRANCH  85  89
ATOM     89  S   UNL     1     -20.921  10.561 -14.496  1.00  0.00     0.124 S 
ATOM     90  O   UNL     1     -20.985   9.117 -14.293  1.00  0.00    -0.237 OA
ATOM     91  O   UNL     1     -21.389  11.383 -13.384  1.00  0.00    -0.237 OA
ATOM     92  O   UNL     1     -21.335  11.020 -15.821  1.00  0.00    -0.744 OA
ENDBRANCH  85  89
ENDBRANCH  59  82
ENDBRANCH  33  34
ENDBRANCH  26  28
ENDBRANCH  25  26
ENDBRANCH  24  25
ENDBRANCH   1  24
TORSDOF 17
