REMARK SMILES Cc1cc2c(c(C)c1Cl)C=C(C(=O)OCCOC(=O)c1ccc(-c3c4nc(c(-c5cc(S(=O)(=O)[O-])ccc5F)c5ccc([nH]5)c(-c5cc(S(=O)(=O)[O-])ccc5F)c5nc(c(-c6cc(S(=O)(=O)[O-])ccc6F)c6ccc3[nH]6)C=C5)C=C4)cc1)[C@@H](C(F)(F)F)O2
REMARK SMILES IDX 16 1 15 2 14 3 12 4 13 5 11 6 1 7 2 8 3 9 8 10 4 11 6 12
REMARK SMILES IDX 9 13 5 14 88 15 7 16 10 17 83 18 84 19 85 20 86 21 87 22
REMARK SMILES IDX 17 23 18 24 19 25 20 26 21 27 82 28 22 29 81 30 23 31 24 32
REMARK SMILES IDX 25 33 75 34 26 35 80 36 74 37 76 38 27 39 79 40 73 41 72 42
REMARK SMILES IDX 28 44 60 45 40 46 59 47 41 48 44 49 58 50 77 51 42 52 43 53
REMARK SMILES IDX 57 55 78 56 45 57 29 58 30 59 38 60 31 61 37 62 39 63 36 64
REMARK SMILES IDX 32 65 33 66 34 67 35 68 61 69 62 70 70 71 63 72 69 73 71 74
REMARK SMILES IDX 68 75 64 76 65 77 66 78 67 79 46 80 47 81 55 82 48 83 54 84
REMARK SMILES IDX 56 85 53 86 49 87 50 88 51 89 52 90
REMARK H PARENT 76 43 44 54
REMARK Flexibility Score: inf
ROOT
ATOM      1  C   UNL     1      -1.183   7.211   7.484  1.00  0.00     0.275 C 
ENDROOT
BRANCH   1   2
ATOM      2  C   UNL     1      -2.339   6.327   7.016  1.00  0.00     0.275 C 
BRANCH   2   3
ATOM      3  O   UNL     1      -1.863   5.194   6.258  1.00  0.00    -0.459 OA
BRANCH   3   4
ATOM      4  C   UNL     1      -2.027   5.281   4.916  1.00  0.00     0.338 C 
ATOM      5  O   UNL     1      -2.547   6.203   4.307  1.00  0.00    -0.246 OA
BRANCH   4   6
ATOM      6  C   UNL     1      -1.490   4.081   4.248  1.00  0.00     0.087 C 
ATOM      7  C   UNL     1       0.784  -0.481   0.221  1.00  0.00     0.046 C 
ATOM      8  C   UNL     1       0.448   0.777   0.975  1.00  0.00    -0.028 A 
ATOM      9  C   UNL     1      -0.311   0.688   2.149  1.00  0.00     0.052 A 
ATOM     10  C   UNL     1       0.876   2.043   0.530  1.00  0.00     0.047 A 
ATOM     11  C   UNL     1      -0.663   1.831   2.862  1.00  0.00     0.128 A 
ATOM     12  C   UNL     1       0.537   3.215   1.244  1.00  0.00    -0.021 A 
ATOM     13  Cl  UNL     1       1.820   2.131  -0.927  1.00  0.00    -0.084 Cl
ATOM     14  C   UNL     1      -0.253   3.093   2.419  1.00  0.00     0.022 A 
ATOM     15  O   UNL     1      -1.399   1.609   3.994  1.00  0.00    -0.475 OA
ATOM     16  C   UNL     1       1.010   4.575   0.786  1.00  0.00     0.047 C 
ATOM     17  C   UNL     1      -0.689   4.254   3.190  1.00  0.00     0.027 C 
ATOM     18  C   UNL     1      -1.977   2.739   4.697  1.00  0.00     0.316 C 
BRANCH  18  19
ATOM     19  C   UNL     1      -3.510   2.645   4.619  1.00  0.00     0.430 C 
ATOM     20  F   UNL     1      -3.950   1.421   4.999  1.00  0.00    -0.167 F 
ATOM     21  F   UNL     1      -4.107   3.537   5.449  1.00  0.00    -0.167 F 
ATOM     22  F   UNL     1      -3.981   2.876   3.373  1.00  0.00    -0.167 F 
ENDBRANCH  18  19
ENDBRANCH   4   6
ENDBRANCH   3   4
ENDBRANCH   2   3
ENDBRANCH   1   2
BRANCH   1  23
ATOM     23  O   UNL     1      -0.529   7.812   6.352  1.00  0.00    -0.458 OA
BRANCH  23  24
ATOM     24  C   UNL     1       0.694   7.309   6.062  1.00  0.00     0.338 C 
ATOM     25  O   UNL     1       1.308   6.462   6.687  1.00  0.00    -0.246 OA
BRANCH  24  26
ATOM     26  C   UNL     1       1.193   7.877   4.798  1.00  0.00     0.060 A 
ATOM     27  C   UNL     1       0.481   7.637   3.631  1.00  0.00     0.016 A 
ATOM     28  C   UNL     1       2.459   8.452   4.732  1.00  0.00     0.016 A 
ATOM     29  C   UNL     1       1.103   7.802   2.397  1.00  0.00     0.010 A 
ATOM     30  C   UNL     1       3.020   8.754   3.482  1.00  0.00     0.010 A 
ATOM     31  C   UNL     1       2.382   8.367   2.290  1.00  0.00    -0.014 A 
BRANCH  31  32
ATOM     32  C   UNL     1       3.064   8.481   0.959  1.00  0.00     0.031 A 
ATOM     33  C   UNL     1       4.479   7.967   0.779  1.00  0.00     0.074 A 
ATOM     34  C   UNL     1       2.425   8.992  -0.117  1.00  0.00     0.049 A 
ATOM     35  N   UNL     1       5.322   8.187  -0.199  1.00  0.00    -0.248 NA
ATOM     36  C   UNL     1       5.021   7.107   1.844  1.00  0.00     0.031 C 
ATOM     37  C   UNL     1       1.034   9.453  -0.145  1.00  0.00     0.029 A 
ATOM     38  N   UNL     1       2.852   9.188  -1.410  1.00  0.00    -0.354 N 
ATOM     39  C   UNL     1       6.510   7.557   0.166  1.00  0.00     0.074 A 
ATOM     40  C   UNL     1       6.279   6.946   1.457  1.00  0.00     0.031 C 
ATOM     41  C   UNL     1       0.701   9.792  -1.397  1.00  0.00     0.029 A 
ATOM     42  C   UNL     1       1.890   9.728  -2.236  1.00  0.00     0.049 A 
ATOM     43  H   UNL     1       3.760   8.964  -1.717  1.00  0.00     0.167 HD
ATOM     44  C   UNL     1       7.682   7.497  -0.514  1.00  0.00     0.034 A 
ATOM     45  C   UNL     1       1.957  10.191  -3.500  1.00  0.00     0.034 A 
ATOM     46  C   UNL     1       7.876   8.043  -1.835  1.00  0.00     0.049 A 
ATOM     47  C   UNL     1       3.284  10.188  -4.206  1.00  0.00     0.074 A 
ATOM     48  C   UNL     1       9.026   8.038  -2.607  1.00  0.00     0.029 A 
ATOM     49  N   UNL     1       6.894   8.665  -2.593  1.00  0.00    -0.354 N 
ATOM     50  N   UNL     1       4.437   9.724  -3.787  1.00  0.00    -0.248 NA
ATOM     51  C   UNL     1       3.328  10.807  -5.537  1.00  0.00     0.031 C 
ATOM     52  C   UNL     1       8.755   8.707  -3.805  1.00  0.00     0.029 A 
ATOM     53  C   UNL     1       7.418   9.068  -3.811  1.00  0.00     0.049 A 
ATOM     54  H   UNL     1       5.962   8.801  -2.307  1.00  0.00     0.167 HD
ATOM     55  C   UNL     1       5.344   9.991  -4.806  1.00  0.00     0.074 A 
ATOM     56  C   UNL     1       4.601  10.639  -5.868  1.00  0.00     0.031 C 
ATOM     57  C   UNL     1       6.673   9.728  -4.855  1.00  0.00     0.034 A 
BRANCH  44  58
ATOM     58  C   UNL     1       8.872   6.869   0.171  1.00  0.00     0.023 A 
ATOM     59  C   UNL     1       8.957   5.490   0.418  1.00  0.00     0.031 A 
ATOM     60  C   UNL     1       9.967   7.676   0.539  1.00  0.00     0.131 A 
ATOM     61  C   UNL     1      10.099   4.963   1.046  1.00  0.00     0.055 A 
ATOM     62  C   UNL     1      11.124   7.138   1.104  1.00  0.00     0.041 A 
ATOM     63  F   UNL     1       9.933   9.003   0.340  1.00  0.00    -0.206 F 
ATOM     64  C   UNL     1      11.192   5.774   1.366  1.00  0.00     0.022 A 
BRANCH  61  65
ATOM     65  S   UNL     1      10.114   3.209   1.506  1.00  0.00     0.124 S 
ATOM     66  O   UNL     1       9.032   3.153   2.486  1.00  0.00    -0.237 OA
ATOM     67  O   UNL     1       9.858   2.544   0.234  1.00  0.00    -0.237 OA
ATOM     68  O   UNL     1      11.454   3.009   2.055  1.00  0.00    -0.744 OA
ENDBRANCH  61  65
ENDBRANCH  44  58
BRANCH  45  69
ATOM     69  C   UNL     1       0.749  10.789  -4.142  1.00  0.00     0.023 A 
ATOM     70  C   UNL     1       0.159  10.196  -5.268  1.00  0.00     0.031 A 
ATOM     71  C   UNL     1       0.165  11.963  -3.631  1.00  0.00     0.131 A 
ATOM     72  C   UNL     1      -0.975  10.785  -5.852  1.00  0.00     0.055 A 
ATOM     73  C   UNL     1      -0.992  12.514  -4.181  1.00  0.00     0.041 A 
ATOM     74  F   UNL     1       0.695  12.574  -2.558  1.00  0.00    -0.206 F 
ATOM     75  C   UNL     1      -1.566  11.927  -5.303  1.00  0.00     0.022 A 
BRANCH  72  76
ATOM     76  S   UNL     1      -1.651  10.060  -7.370  1.00  0.00     0.124 S 
ATOM     77  O   UNL     1      -0.547  10.248  -8.305  1.00  0.00    -0.237 OA
ATOM     78  O   UNL     1      -1.919   8.686  -6.960  1.00  0.00    -0.237 OA
ATOM     79  O   UNL     1      -2.838  10.871  -7.635  1.00  0.00    -0.744 OA
ENDBRANCH  72  76
ENDBRANCH  45  69
BRANCH  57  80
ATOM     80  C   UNL     1       7.407  10.119  -6.110  1.00  0.00     0.023 A 
ATOM     81  C   UNL     1       7.644  11.466  -6.429  1.00  0.00     0.031 A 
ATOM     82  C   UNL     1       7.891   9.132  -6.986  1.00  0.00     0.131 A 
ATOM     83  C   UNL     1       8.315  11.793  -7.616  1.00  0.00     0.055 A 
ATOM     84  C   UNL     1       8.603   9.461  -8.139  1.00  0.00     0.041 A 
ATOM     85  F   UNL     1       7.690   7.830  -6.725  1.00  0.00    -0.206 F 
ATOM     86  C   UNL     1       8.812  10.799  -8.464  1.00  0.00     0.022 A 
BRANCH  83  87
ATOM     87  S   UNL     1       8.486  13.541  -8.067  1.00  0.00     0.124 S 
ATOM     88  O   UNL     1       7.094  13.947  -8.235  1.00  0.00    -0.237 OA
ATOM     89  O   UNL     1       9.177  14.099  -6.910  1.00  0.00    -0.237 OA
ATOM     90  O   UNL     1       9.273  13.502  -9.298  1.00  0.00    -0.744 OA
ENDBRANCH  83  87
ENDBRANCH  57  80
ENDBRANCH  31  32
ENDBRANCH  24  26
ENDBRANCH  23  24
ENDBRANCH   1  23
TORSDOF 15
