REMARK SMILES N#C[C@@H]1CN(C(=O)NCCCC(=O)OCCOC(=O)c2ccc(-c3c4nc(c(-c5cc(S(=O)(=O)[O-])ccc5F)c5ccc([nH]5)c(-c5cc(S(=O)(=O)[O-])ccc5F)c5nc(c(-c6cc(S(=O)(=O)[O-])ccc6F)c6ccc3[nH]6)C=C5)C=C4)cc2)CCO1
REMARK SMILES IDX 15 1 14 2 12 3 13 4 11 5 10 6 9 7 8 8 6 9 7 10 5 12 3 13
REMARK SMILES IDX 4 14 85 15 84 16 83 17 2 18 1 19 16 20 17 21 18 22 19 23
REMARK SMILES IDX 20 24 21 25 82 26 22 27 81 28 23 29 24 30 25 31 75 32 26 33
REMARK SMILES IDX 80 34 74 35 76 36 27 37 79 38 73 39 72 40 28 42 60 43 40 44
REMARK SMILES IDX 59 45 41 46 44 47 58 48 77 49 42 50 43 51 57 53 78 54 45 55
REMARK SMILES IDX 29 56 30 57 38 58 31 59 37 60 39 61 36 62 32 63 33 64 34 65
REMARK SMILES IDX 35 66 61 67 62 68 70 69 63 70 69 71 71 72 68 73 64 74 65 75
REMARK SMILES IDX 66 76 67 77 46 78 47 79 55 80 48 81 54 82 56 83 53 84 49 85
REMARK SMILES IDX 50 86 51 87 52 88
REMARK H PARENT 8 11 76 41 44 52
REMARK Flexibility Score: inf
ROOT
ATOM      1  C   UNL     1      -0.672   5.901  -0.808  1.00  0.00     0.274 C 
ENDROOT
BRANCH   1   2
ATOM      2  O   UNL     1       0.385   5.330  -1.599  1.00  0.00    -0.462 OA
BRANCH   2   3
ATOM      3  C   UNL     1       1.072   6.144  -2.436  1.00  0.00     0.305 C 
ATOM      4  O   UNL     1       0.806   7.318  -2.645  1.00  0.00    -0.252 OA
BRANCH   3   5
ATOM      5  C   UNL     1       2.194   5.401  -3.135  1.00  0.00     0.124 C 
BRANCH   5   6
ATOM      6  C   UNL     1       3.066   4.555  -2.203  1.00  0.00     0.033 C 
BRANCH   6   7
ATOM      7  C   UNL     1       2.407   3.244  -1.774  1.00  0.00     0.118 C 
BRANCH   7   8
ATOM      8  N   UNL     1       2.466   2.266  -2.845  1.00  0.00    -0.338 N 
ATOM      9  C   UNL     1       3.120   1.137  -3.145  1.00  0.00     0.317 C 
ATOM     10  O   UNL     1       2.822   0.634  -4.232  1.00  0.00    -0.249 OA
ATOM     11  H   UNL     1       1.838   2.504  -3.566  1.00  0.00     0.165 HD
BRANCH   9  12
ATOM     12  N   UNL     1       4.015   0.543  -2.313  1.00  0.00    -0.319 N 
ATOM     13  C   UNL     1       3.691  -0.004   0.043  1.00  0.00     0.240 C 
ATOM     14  C   UNL     1       4.398   0.912  -0.957  1.00  0.00     0.169 C 
ATOM     15  O   UNL     1       4.163  -1.370  -0.220  1.00  0.00    -0.360 OA
ATOM     16  C   UNL     1       3.883  -1.794  -1.577  1.00  0.00     0.183 C 
ATOM     17  C   UNL     1       4.453  -0.822  -2.627  1.00  0.00     0.150 C 
BRANCH  13  18
ATOM     18  C   UNL     1       2.171  -0.004   0.043  1.00  0.00     0.096 C 
ATOM     19  N   UNL     1       0.910  -0.004   0.043  1.00  0.00    -0.195 NA
ENDBRANCH  13  18
ENDBRANCH   9  12
ENDBRANCH   7   8
ENDBRANCH   6   7
ENDBRANCH   5   6
ENDBRANCH   3   5
ENDBRANCH   2   3
ENDBRANCH   1   2
BRANCH   1  20
ATOM     20  C   UNL     1      -0.184   6.174   0.615  1.00  0.00     0.275 C 
BRANCH  20  21
ATOM     21  O   UNL     1       0.704   7.306   0.631  1.00  0.00    -0.458 OA
BRANCH  21  22
ATOM     22  C   UNL     1       2.025   7.020   0.674  1.00  0.00     0.338 C 
ATOM     23  O   UNL     1       2.536   5.915   0.801  1.00  0.00    -0.246 OA
BRANCH  22  24
ATOM     24  C   UNL     1       2.785   8.249   0.398  1.00  0.00     0.060 A 
ATOM     25  C   UNL     1       3.566   8.309  -0.761  1.00  0.00     0.016 A 
ATOM     26  C   UNL     1       2.748   9.325   1.286  1.00  0.00     0.016 A 
ATOM     27  C   UNL     1       4.312   9.452  -1.040  1.00  0.00     0.010 A 
ATOM     28  C   UNL     1       3.496  10.472   1.002  1.00  0.00     0.010 A 
ATOM     29  C   UNL     1       4.287  10.540  -0.158  1.00  0.00    -0.014 A 
BRANCH  29  30
ATOM     30  C   UNL     1       5.130  11.731  -0.425  1.00  0.00     0.031 A 
ATOM     31  C   UNL     1       6.374  11.955   0.384  1.00  0.00     0.074 A 
ATOM     32  C   UNL     1       4.784  12.598  -1.394  1.00  0.00     0.049 A 
ATOM     33  N   UNL     1       7.203  12.966   0.372  1.00  0.00    -0.248 NA
ATOM     34  C   UNL     1       6.726  10.895   1.340  1.00  0.00     0.031 C 
ATOM     35  C   UNL     1       3.624  12.459  -2.275  1.00  0.00     0.029 A 
ATOM     36  N   UNL     1       5.372  13.770  -1.798  1.00  0.00    -0.354 N 
ATOM     37  C   UNL     1       8.172  12.673   1.325  1.00  0.00     0.074 A 
ATOM     38  C   UNL     1       7.803  11.403   1.919  1.00  0.00     0.031 C 
ATOM     39  C   UNL     1       3.586  13.506  -3.115  1.00  0.00     0.029 A 
ATOM     40  C   UNL     1       4.686  14.414  -2.801  1.00  0.00     0.049 A 
ATOM     41  H   UNL     1       6.206  14.118  -1.406  1.00  0.00     0.167 HD
ATOM     42  C   UNL     1       9.270  13.393   1.666  1.00  0.00     0.034 A 
ATOM     43  C   UNL     1       4.902  15.613  -3.377  1.00  0.00     0.034 A 
ATOM     44  C   UNL     1       9.613  14.664   1.071  1.00  0.00     0.049 A 
ATOM     45  C   UNL     1       6.076  16.440  -2.918  1.00  0.00     0.074 A 
ATOM     46  C   UNL     1      10.698  15.480   1.339  1.00  0.00     0.029 A 
ATOM     47  N   UNL     1       8.865  15.311   0.093  1.00  0.00    -0.354 N 
ATOM     48  N   UNL     1       6.978  16.162  -2.004  1.00  0.00    -0.248 NA
ATOM     49  C   UNL     1       6.260  17.744  -3.568  1.00  0.00     0.031 C 
ATOM     50  C   UNL     1      10.573  16.646   0.574  1.00  0.00     0.029 A 
ATOM     51  C   UNL     1       9.449  16.528  -0.228  1.00  0.00     0.049 A 
ATOM     52  H   UNL     1       8.041  14.957  -0.312  1.00  0.00     0.167 HD
ATOM     53  C   UNL     1       7.850  17.247  -1.988  1.00  0.00     0.074 A 
ATOM     54  C   UNL     1       7.372  18.177  -2.993  1.00  0.00     0.031 C 
ATOM     55  C   UNL     1       8.949  17.454  -1.219  1.00  0.00     0.034 A 
BRANCH  42  56
ATOM     56  C   UNL     1      10.136  12.842   2.774  1.00  0.00     0.023 A 
ATOM     57  C   UNL     1      10.817  11.618   2.642  1.00  0.00     0.031 A 
ATOM     58  C   UNL     1      10.238  13.522   4.000  1.00  0.00     0.131 A 
ATOM     59  C   UNL     1      11.497  11.073   3.743  1.00  0.00     0.055 A 
ATOM     60  C   UNL     1      10.986  13.015   5.064  1.00  0.00     0.041 A 
ATOM     61  F   UNL     1       9.593  14.683   4.194  1.00  0.00    -0.206 F 
ATOM     62  C   UNL     1      11.606  11.774   4.945  1.00  0.00     0.022 A 
BRANCH  59  63
ATOM     63  S   UNL     1      12.096   9.364   3.631  1.00  0.00     0.124 S 
ATOM     64  O   UNL     1      10.866   8.638   3.322  1.00  0.00    -0.237 OA
ATOM     65  O   UNL     1      13.078   9.444   2.556  1.00  0.00    -0.237 OA
ATOM     66  O   UNL     1      12.645   9.105   4.960  1.00  0.00    -0.744 OA
ENDBRANCH  59  63
ENDBRANCH  42  56
BRANCH  43  67
ATOM     67  C   UNL     1       3.966  16.128  -4.416  1.00  0.00     0.023 A 
ATOM     68  C   UNL     1       4.390  16.334  -5.737  1.00  0.00     0.031 A 
ATOM     69  C   UNL     1       2.638  16.457  -4.088  1.00  0.00     0.131 A 
ATOM     70  C   UNL     1       3.505  16.888  -6.676  1.00  0.00     0.055 A 
ATOM     71  C   UNL     1       1.748  16.961  -5.037  1.00  0.00     0.041 A 
ATOM     72  F   UNL     1       2.183  16.280  -2.838  1.00  0.00    -0.206 F 
ATOM     73  C   UNL     1       2.184  17.189  -6.339  1.00  0.00     0.022 A 
BRANCH  70  74
ATOM     74  S   UNL     1       4.128  17.273  -8.336  1.00  0.00     0.124 S 
ATOM     75  O   UNL     1       5.196  18.222  -8.040  1.00  0.00    -0.237 OA
ATOM     76  O   UNL     1       4.549  15.961  -8.815  1.00  0.00    -0.237 OA
ATOM     77  O   UNL     1       2.962  17.836  -9.014  1.00  0.00    -0.744 OA
ENDBRANCH  70  74
ENDBRANCH  43  67
BRANCH  55  78
ATOM     78  C   UNL     1       9.728  18.722  -1.470  1.00  0.00     0.023 A 
ATOM     79  C   UNL     1       9.201  19.989  -1.162  1.00  0.00     0.031 A 
ATOM     80  C   UNL     1      11.010  18.660  -2.045  1.00  0.00     0.131 A 
ATOM     81  C   UNL     1       9.931  21.145  -1.478  1.00  0.00     0.055 A 
ATOM     82  C   UNL     1      11.755  19.811  -2.305  1.00  0.00     0.041 A 
ATOM     83  F   UNL     1      11.560  17.477  -2.361  1.00  0.00    -0.206 F 
ATOM     84  C   UNL     1      11.211  21.063  -2.034  1.00  0.00     0.022 A 
BRANCH  81  85
ATOM     85  S   UNL     1       9.151  22.765  -1.233  1.00  0.00     0.124 S 
ATOM     86  O   UNL     1       7.968  22.663  -2.080  1.00  0.00    -0.237 OA
ATOM     87  O   UNL     1       8.906  22.779   0.205  1.00  0.00    -0.237 OA
ATOM     88  O   UNL     1      10.166  23.708  -1.697  1.00  0.00    -0.744 OA
ENDBRANCH  81  85
ENDBRANCH  55  78
ENDBRANCH  29  30
ENDBRANCH  22  24
ENDBRANCH  21  22
ENDBRANCH  20  21
ENDBRANCH   1  20
TORSDOF 19
