REMARK SMILES CC(C)C[C@@H](CNc1ccc(C(=O)N(C)C)nn1)C(=O)OCCOC(=O)c1ccc(-c2c3nc(c(-c4cc(S(=O)(=O)[O-])ccc4F)c4ccc([nH]4)c(-c4cc(S(=O)(=O)[O-])ccc4F)c4nc(c(-c5cc(S(=O)(=O)[O-])ccc5F)c5ccc2[nH]5)C=C4)C=C3)cc1
REMARK SMILES IDX 22 1 21 2 19 3 20 4 5 5 4 6 2 7 1 8 3 9 6 10 7 11 8 13 9 14
REMARK SMILES IDX 18 15 10 16 17 17 11 18 12 19 13 20 14 21 15 22 16 23 23 24
REMARK SMILES IDX 24 25 25 26 26 27 27 28 28 29 89 30 29 31 88 32 30 33 31 34
REMARK SMILES IDX 32 35 82 36 33 37 87 38 81 39 83 40 34 41 86 42 80 43 79 44
REMARK SMILES IDX 35 46 67 47 47 48 66 49 48 50 51 51 65 52 84 53 49 54 50 55
REMARK SMILES IDX 64 57 85 58 52 59 36 60 37 61 45 62 38 63 44 64 46 65 43 66
REMARK SMILES IDX 39 67 40 68 41 69 42 70 68 71 69 72 77 73 70 74 76 75 78 76
REMARK SMILES IDX 75 77 71 78 72 79 73 80 74 81 53 82 54 83 62 84 55 85 61 86
REMARK SMILES IDX 63 87 60 88 56 89 57 90 58 91 59 92
REMARK H PARENT 7 12 83 45 51 56
REMARK Flexibility Score: inf
ROOT
ATOM      1  C   UNL     1      -4.996  -1.427  -1.537  1.00  0.00     0.274 C 
ENDROOT
BRANCH   1   2
ATOM      2  O   UNL     1      -3.568  -1.534  -1.369  1.00  0.00    -0.462 OA
BRANCH   2   3
ATOM      3  C   UNL     1      -2.825  -0.531  -1.905  1.00  0.00     0.310 C 
ATOM      4  O   UNL     1      -3.281   0.431  -2.514  1.00  0.00    -0.252 OA
BRANCH   3   5
ATOM      5  C   UNL     1      -1.329  -0.720  -1.711  1.00  0.00     0.118 C 
BRANCH   5   6
ATOM      6  C   UNL     1      -0.929  -1.646  -0.547  1.00  0.00     0.020 C 
BRANCH   6   7
ATOM      7  C   UNL     1       0.578  -1.628  -0.193  1.00  0.00    -0.017 C 
ATOM      8  C   UNL     1       1.083  -0.234   0.193  1.00  0.00     0.007 C 
ATOM      9  C   UNL     1       0.863  -2.603   0.952  1.00  0.00     0.007 C 
ENDBRANCH   6   7
ENDBRANCH   5   6
BRANCH   5  10
ATOM     10  C   UNL     1      -0.681  -1.058  -3.054  1.00  0.00     0.129 C 
BRANCH  10  11
ATOM     11  N   UNL     1      -1.226  -2.254  -3.667  1.00  0.00    -0.368 N 
ATOM     12  H   UNL     1      -0.958  -3.124  -3.291  1.00  0.00     0.162 HD
BRANCH  11  13
ATOM     13  C   UNL     1      -2.091  -2.259  -4.736  1.00  0.00     0.148 A 
ATOM     14  C   UNL     1      -2.226  -1.205  -5.627  1.00  0.00     0.051 A 
ATOM     15  N   UNL     1      -2.842  -3.365  -4.914  1.00  0.00    -0.132 NA
ATOM     16  C   UNL     1      -3.161  -1.269  -6.660  1.00  0.00     0.040 A 
ATOM     17  N   UNL     1      -3.760  -3.453  -5.948  1.00  0.00    -0.143 NA
ATOM     18  C   UNL     1      -3.905  -2.422  -6.807  1.00  0.00     0.151 A 
BRANCH  18  19
ATOM     19  C   UNL     1      -4.961  -2.579  -7.850  1.00  0.00     0.273 C 
ATOM     20  O   UNL     1      -6.008  -3.147  -7.533  1.00  0.00    -0.267 OA
ATOM     21  N   UNL     1      -4.771  -2.078  -9.148  1.00  0.00    -0.343 N 
ATOM     22  C   UNL     1      -3.507  -1.634  -9.719  1.00  0.00     0.146 C 
ATOM     23  C   UNL     1      -5.899  -2.145 -10.060  1.00  0.00     0.146 C 
ENDBRANCH  18  19
ENDBRANCH  11  13
ENDBRANCH  10  11
ENDBRANCH   5  10
ENDBRANCH   3   5
ENDBRANCH   2   3
ENDBRANCH   1   2
BRANCH   1  24
ATOM     24  C   UNL     1      -5.685  -0.955  -0.254  1.00  0.00     0.275 C 
BRANCH  24  25
ATOM     25  O   UNL     1      -5.278   0.376   0.112  1.00  0.00    -0.458 OA
BRANCH  25  26
ATOM     26  C   UNL     1      -4.258   0.429   0.998  1.00  0.00     0.338 C 
ATOM     27  O   UNL     1      -3.694  -0.515   1.533  1.00  0.00    -0.246 OA
BRANCH  26  28
ATOM     28  C   UNL     1      -3.800   1.815   1.155  1.00  0.00     0.060 A 
ATOM     29  C   UNL     1      -2.548   2.151   0.635  1.00  0.00     0.016 A 
ATOM     30  C   UNL     1      -4.524   2.735   1.913  1.00  0.00     0.016 A 
ATOM     31  C   UNL     1      -1.996   3.401   0.889  1.00  0.00     0.010 A 
ATOM     32  C   UNL     1      -3.970   3.994   2.167  1.00  0.00     0.010 A 
ATOM     33  C   UNL     1      -2.692   4.323   1.678  1.00  0.00    -0.014 A 
BRANCH  33  34
ATOM     34  C   UNL     1      -2.018   5.579   2.089  1.00  0.00     0.031 A 
ATOM     35  C   UNL     1      -1.492   5.704   3.491  1.00  0.00     0.074 A 
ATOM     36  C   UNL     1      -1.835   6.573   1.203  1.00  0.00     0.049 A 
ATOM     37  N   UNL     1      -0.930   6.727   4.082  1.00  0.00    -0.248 NA
ATOM     38  C   UNL     1      -1.624   4.513   4.343  1.00  0.00     0.031 C 
ATOM     39  C   UNL     1      -2.245   6.538  -0.201  1.00  0.00     0.029 A 
ATOM     40  N   UNL     1      -1.252   7.805   1.352  1.00  0.00    -0.354 N 
ATOM     41  C   UNL     1      -0.664   6.314   5.383  1.00  0.00     0.074 A 
ATOM     42  C   UNL     1      -1.151   4.954   5.497  1.00  0.00     0.031 C 
ATOM     43  C   UNL     1      -1.897   7.696  -0.786  1.00  0.00     0.029 A 
ATOM     44  C   UNL     1      -1.283   8.570   0.210  1.00  0.00     0.049 A 
ATOM     45  H   UNL     1      -0.850   8.113   2.196  1.00  0.00     0.167 HD
ATOM     46  C   UNL     1      -0.066   7.005   6.386  1.00  0.00     0.034 A 
ATOM     47  C   UNL     1      -0.885   9.840   0.002  1.00  0.00     0.034 A 
ATOM     48  C   UNL     1       0.414   8.360   6.250  1.00  0.00     0.049 A 
ATOM     49  C   UNL     1      -0.284  10.613   1.147  1.00  0.00     0.074 A 
ATOM     50  C   UNL     1       1.031   9.159   7.197  1.00  0.00     0.029 A 
ATOM     51  N   UNL     1       0.327   9.120   5.089  1.00  0.00    -0.354 N 
ATOM     52  N   UNL     1      -0.068  10.227   2.383  1.00  0.00    -0.248 NA
ATOM     53  C   UNL     1       0.127  11.994   0.865  1.00  0.00     0.031 C 
ATOM     54  C   UNL     1       1.263  10.418   6.627  1.00  0.00     0.029 A 
ATOM     55  C   UNL     1       0.855  10.385   5.303  1.00  0.00     0.049 A 
ATOM     56  H   UNL     1      -0.056   8.806   4.238  1.00  0.00     0.167 HD
ATOM     57  C   UNL     1       0.530  11.310   3.020  1.00  0.00     0.074 A 
ATOM     58  C   UNL     1       0.647  12.360   2.027  1.00  0.00     0.031 C 
ATOM     59  C   UNL     1       0.951  11.425   4.306  1.00  0.00     0.034 A 
BRANCH  46  60
ATOM     60  C   UNL     1       0.028   6.318   7.728  1.00  0.00     0.023 A 
ATOM     61  C   UNL     1       0.781   5.145   7.913  1.00  0.00     0.031 A 
ATOM     62  C   UNL     1      -0.708   6.805   8.823  1.00  0.00     0.131 A 
ATOM     63  C   UNL     1       0.710   4.451   9.131  1.00  0.00     0.055 A 
ATOM     64  C   UNL     1      -0.708   6.155  10.059  1.00  0.00     0.041 A 
ATOM     65  F   UNL     1      -1.464   7.908   8.703  1.00  0.00    -0.206 F 
ATOM     66  C   UNL     1      -0.012   4.960  10.213  1.00  0.00     0.022 A 
BRANCH  63  67
ATOM     67  S   UNL     1       1.430   2.788   9.224  1.00  0.00     0.124 S 
ATOM     68  O   UNL     1       0.742   2.106   8.131  1.00  0.00    -0.237 OA
ATOM     69  O   UNL     1       2.850   3.049   9.022  1.00  0.00    -0.237 OA
ATOM     70  O   UNL     1       1.063   2.330  10.563  1.00  0.00    -0.744 OA
ENDBRANCH  63  67
ENDBRANCH  46  60
BRANCH  47  71
ATOM     71  C   UNL     1      -1.076  10.475  -1.332  1.00  0.00     0.023 A 
ATOM     72  C   UNL     1       0.022  10.832  -2.128  1.00  0.00     0.031 A 
ATOM     73  C   UNL     1      -2.366  10.756  -1.816  1.00  0.00     0.131 A 
ATOM     74  C   UNL     1      -0.189  11.479  -3.356  1.00  0.00     0.055 A 
ATOM     75  C   UNL     1      -2.572  11.361  -3.056  1.00  0.00     0.041 A 
ATOM     76  F   UNL     1      -3.449  10.430  -1.092  1.00  0.00    -0.206 F 
ATOM     77  C   UNL     1      -1.478  11.735  -3.830  1.00  0.00     0.022 A 
BRANCH  74  78
ATOM     78  S   UNL     1       1.254  12.027  -4.310  1.00  0.00     0.124 S 
ATOM     79  O   UNL     1       1.879  12.968  -3.389  1.00  0.00    -0.237 OA
ATOM     80  O   UNL     1       1.967  10.772  -4.529  1.00  0.00    -0.237 OA
ATOM     81  O   UNL     1       0.664  12.621  -5.508  1.00  0.00    -0.744 OA
ENDBRANCH  74  78
ENDBRANCH  47  71
BRANCH  59  82
ATOM     82  C   UNL     1       1.623  12.721   4.687  1.00  0.00     0.023 A 
ATOM     83  C   UNL     1       0.914  13.933   4.754  1.00  0.00     0.031 A 
ATOM     84  C   UNL     1       3.002  12.744   4.960  1.00  0.00     0.131 A 
ATOM     85  C   UNL     1       1.597  15.127   5.031  1.00  0.00     0.055 A 
ATOM     86  C   UNL     1       3.666  13.926   5.289  1.00  0.00     0.041 A 
ATOM     87  F   UNL     1       3.728  11.615   4.908  1.00  0.00    -0.206 F 
ATOM     88  C   UNL     1       2.966  15.129   5.312  1.00  0.00     0.022 A 
BRANCH  85  89
ATOM     89  S   UNL     1       0.691  16.695   4.925  1.00  0.00     0.124 S 
ATOM     90  O   UNL     1       0.183  16.662   3.558  1.00  0.00    -0.237 OA
ATOM     91  O   UNL     1      -0.307  16.551   5.980  1.00  0.00    -0.237 OA
ATOM     92  O   UNL     1       1.719  17.703   5.180  1.00  0.00    -0.744 OA
ENDBRANCH  85  89
ENDBRANCH  59  82
ENDBRANCH  33  34
ENDBRANCH  26  28
ENDBRANCH  25  26
ENDBRANCH  24  25
ENDBRANCH   1  24
TORSDOF 20
