REMARK SMILES Cc1nn(C)c(=O)c(C(=O)N2CCCC[C@H]2C(=O)OCCOC(=O)c2ccc(-c3c4nc(c(-c5cc(S(=O)(=O)[O-])ccc5F)c5ccc([nH]5)c(-c5cc(S(=O)(=O)[O-])ccc5F)c5nc(c(-c6cc(S(=O)(=O)[O-])ccc6F)c6ccc3[nH]6)C=C5)C=C4)cc2)c1C
REMARK SMILES IDX 21 1 20 2 19 3 17 4 18 5 16 6 11 7 12 8 13 9 15 10 14 11
REMARK SMILES IDX 9 12 10 13 8 14 1 15 2 16 3 17 88 18 4 19 89 20 5 21 6 22
REMARK SMILES IDX 7 23 22 24 23 25 24 26 25 27 26 28 87 29 27 30 86 31 28 32
REMARK SMILES IDX 29 33 30 34 80 35 31 36 85 37 79 38 81 39 32 40 84 41 78 42
REMARK SMILES IDX 77 43 33 45 65 46 45 47 64 48 46 49 49 50 63 51 82 52 47 53
REMARK SMILES IDX 48 54 62 56 83 57 50 58 34 59 35 60 43 61 36 62 42 63 44 64
REMARK SMILES IDX 41 65 37 66 38 67 39 68 40 69 66 70 67 71 75 72 68 73 74 74
REMARK SMILES IDX 76 75 73 76 69 77 70 78 71 79 72 80 51 81 52 82 60 83 53 84
REMARK SMILES IDX 59 85 61 86 58 87 54 88 55 89 56 90 57 91
REMARK H PARENT 81 44 49 55
REMARK Flexibility Score: inf
ROOT
ATOM      1  C   UNL     1       2.599   2.172  -4.212  1.00  0.00     0.275 C 
ENDROOT
BRANCH   1   2
ATOM      2  C   UNL     1       3.386   2.962  -3.161  1.00  0.00     0.274 C 
BRANCH   2   3
ATOM      3  O   UNL     1       2.462   3.452  -2.165  1.00  0.00    -0.461 OA
BRANCH   3   4
ATOM      4  C   UNL     1       2.549   4.742  -1.750  1.00  0.00     0.328 C 
ATOM      5  O   UNL     1       3.385   5.524  -2.181  1.00  0.00    -0.250 OA
BRANCH   4   6
ATOM      6  C   UNL     1       1.539   5.018  -0.583  1.00  0.00     0.195 C 
ATOM      7  N   UNL     1       2.193   4.934   0.744  1.00  0.00    -0.325 N 
ATOM      8  C   UNL     1       3.282   5.906   0.922  1.00  0.00     0.121 C 
ATOM      9  C   UNL     1       2.785   7.343   0.768  1.00  0.00     0.022 C 
ATOM     10  C   UNL     1       0.920   6.433  -0.678  1.00  0.00     0.037 C 
ATOM     11  C   UNL     1       1.955   7.551  -0.497  1.00  0.00     0.005 C 
BRANCH   7  12
ATOM     12  C   UNL     1       1.657   4.365   1.898  1.00  0.00     0.260 C 
ATOM     13  O   UNL     1       1.994   4.807   3.003  1.00  0.00    -0.269 OA
BRANCH  12  14
ATOM     14  C   UNL     1       0.771   3.137   1.907  1.00  0.00     0.111 A 
ATOM     15  C   UNL     1       0.320  -0.421   0.626  1.00  0.00     0.069 C 
ATOM     16  C   UNL     1       0.254   0.789   1.538  1.00  0.00     0.062 A 
ATOM     17  N   UNL     1      -0.420   0.639   2.628  1.00  0.00    -0.175 NA
ATOM     18  C   UNL     1       1.001   2.031   1.168  1.00  0.00    -0.010 A 
ATOM     19  N   UNL     1      -0.574   1.731   3.427  1.00  0.00    -0.232 N 
ATOM     20  C   UNL     1       2.021   1.841   0.103  1.00  0.00     0.047 C 
ATOM     21  C   UNL     1      -1.283   1.482   4.670  1.00  0.00     0.178 C 
ATOM     22  C   UNL     1      -0.206   3.022   3.052  1.00  0.00     0.279 A 
ATOM     23  O   UNL     1      -0.626   4.020   3.635  1.00  0.00    -0.267 OA
ENDBRANCH  12  14
ENDBRANCH   7  12
ENDBRANCH   4   6
ENDBRANCH   3   4
ENDBRANCH   2   3
ENDBRANCH   1   2
BRANCH   1  24
ATOM     24  O   UNL     1       1.912   3.084  -5.086  1.00  0.00    -0.458 OA
BRANCH  24  25
ATOM     25  C   UNL     1       0.744   3.562  -4.593  1.00  0.00     0.338 C 
ATOM     26  O   UNL     1       0.128   3.158  -3.623  1.00  0.00    -0.246 OA
BRANCH  25  27
ATOM     27  C   UNL     1       0.481   4.856  -5.237  1.00  0.00     0.060 A 
ATOM     28  C   UNL     1       0.557   5.980  -4.418  1.00  0.00     0.016 A 
ATOM     29  C   UNL     1       0.161   4.983  -6.584  1.00  0.00     0.016 A 
ATOM     30  C   UNL     1       0.273   7.242  -4.911  1.00  0.00     0.010 A 
ATOM     31  C   UNL     1      -0.099   6.260  -7.095  1.00  0.00     0.010 A 
ATOM     32  C   UNL     1      -0.055   7.392  -6.258  1.00  0.00    -0.014 A 
BRANCH  32  33
ATOM     33  C   UNL     1      -0.416   8.734  -6.766  1.00  0.00     0.031 A 
ATOM     34  C   UNL     1      -1.841   9.018  -7.130  1.00  0.00     0.074 A 
ATOM     35  C   UNL     1       0.512   9.707  -6.827  1.00  0.00     0.049 A 
ATOM     36  N   UNL     1      -2.347  10.048  -7.753  1.00  0.00    -0.248 NA
ATOM     37  C   UNL     1      -2.829   8.002  -6.735  1.00  0.00     0.031 C 
ATOM     38  C   UNL     1       1.899   9.584  -6.370  1.00  0.00     0.029 A 
ATOM     39  N   UNL     1       0.425  10.997  -7.282  1.00  0.00    -0.354 N 
ATOM     40  C   UNL     1      -3.708   9.791  -7.860  1.00  0.00     0.074 A 
ATOM     41  C   UNL     1      -3.946   8.505  -7.238  1.00  0.00     0.031 C 
ATOM     42  C   UNL     1       2.523  10.759  -6.546  1.00  0.00     0.029 A 
ATOM     43  C   UNL     1       1.611  11.687  -7.206  1.00  0.00     0.049 A 
ATOM     44  H   UNL     1      -0.408  11.391  -7.629  1.00  0.00     0.167 HD
ATOM     45  C   UNL     1      -4.663  10.560  -8.437  1.00  0.00     0.034 A 
ATOM     46  C   UNL     1       1.938  12.911  -7.664  1.00  0.00     0.034 A 
ATOM     47  C   UNL     1      -4.391  11.841  -9.041  1.00  0.00     0.049 A 
ATOM     48  C   UNL     1       0.893  13.704  -8.400  1.00  0.00     0.074 A 
ATOM     49  C   UNL     1      -5.257  12.681  -9.718  1.00  0.00     0.029 A 
ATOM     50  N   UNL     1      -3.152  12.473  -9.030  1.00  0.00    -0.354 N 
ATOM     51  N   UNL     1      -0.359  13.391  -8.641  1.00  0.00    -0.248 NA
ATOM     52  C   UNL     1       1.310  14.999  -8.950  1.00  0.00     0.031 C 
ATOM     53  C   UNL     1      -4.531  13.794 -10.159  1.00  0.00     0.029 A 
ATOM     54  C   UNL     1      -3.227  13.683  -9.701  1.00  0.00     0.049 A 
ATOM     55  H   UNL     1      -2.340  12.113  -8.607  1.00  0.00     0.167 HD
ATOM     56  C   UNL     1      -0.885  14.456  -9.363  1.00  0.00     0.074 A 
ATOM     57  C   UNL     1       0.186  15.423  -9.511  1.00  0.00     0.031 C 
ATOM     58  C   UNL     1      -2.139  14.621  -9.854  1.00  0.00     0.034 A 
BRANCH  45  59
ATOM     59  C   UNL     1      -6.053   9.985  -8.515  1.00  0.00     0.023 A 
ATOM     60  C   UNL     1      -6.839   9.774  -7.369  1.00  0.00     0.031 A 
ATOM     61  C   UNL     1      -6.580   9.593  -9.759  1.00  0.00     0.131 A 
ATOM     62  C   UNL     1      -8.082   9.130  -7.485  1.00  0.00     0.055 A 
ATOM     63  C   UNL     1      -7.846   9.018  -9.875  1.00  0.00     0.041 A 
ATOM     64  F   UNL     1      -5.860   9.744 -10.883  1.00  0.00    -0.206 F 
ATOM     65  C   UNL     1      -8.600   8.772  -8.732  1.00  0.00     0.022 A 
BRANCH  62  66
ATOM     66  S   UNL     1      -8.960   8.652  -5.972  1.00  0.00     0.124 S 
ATOM     67  O   UNL     1      -8.021   7.707  -5.374  1.00  0.00    -0.237 OA
ATOM     68  O   UNL     1      -9.114   9.926  -5.279  1.00  0.00    -0.237 OA
ATOM     69  O   UNL     1     -10.201   8.059  -6.468  1.00  0.00    -0.744 OA
ENDBRANCH  62  66
ENDBRANCH  45  59
BRANCH  46  70
ATOM     70  C   UNL     1       3.329  13.415  -7.501  1.00  0.00     0.023 A 
ATOM     71  C   UNL     1       3.620  14.479  -6.635  1.00  0.00     0.031 A 
ATOM     72  C   UNL     1       4.396  12.809  -8.191  1.00  0.00     0.131 A 
ATOM     73  C   UNL     1       4.948  14.909  -6.483  1.00  0.00     0.055 A 
ATOM     74  C   UNL     1       5.718  13.217  -8.009  1.00  0.00     0.041 A 
ATOM     75  F   UNL     1       4.168  11.783  -9.026  1.00  0.00    -0.206 F 
ATOM     76  C   UNL     1       5.999  14.275  -7.151  1.00  0.00     0.022 A 
BRANCH  73  77
ATOM     77  S   UNL     1       5.293  16.318  -5.393  1.00  0.00     0.124 S 
ATOM     78  O   UNL     1       4.661  17.415  -6.117  1.00  0.00    -0.237 OA
ATOM     79  O   UNL     1       4.646  15.911  -4.150  1.00  0.00    -0.237 OA
ATOM     80  O   UNL     1       6.753  16.360  -5.344  1.00  0.00    -0.744 OA
ENDBRANCH  73  77
ENDBRANCH  46  70
BRANCH  58  81
ATOM     81  C   UNL     1      -2.426  15.913 -10.571  1.00  0.00     0.023 A 
ATOM     82  C   UNL     1      -1.902  16.180 -11.846  1.00  0.00     0.031 A 
ATOM     83  C   UNL     1      -3.255  16.879  -9.973  1.00  0.00     0.131 A 
ATOM     84  C   UNL     1      -2.184  17.403 -12.471  1.00  0.00     0.055 A 
ATOM     85  C   UNL     1      -3.571  18.073 -10.620  1.00  0.00     0.041 A 
ATOM     86  F   UNL     1      -3.780  16.668  -8.756  1.00  0.00    -0.206 F 
ATOM     87  C   UNL     1      -3.028  18.344 -11.873  1.00  0.00     0.022 A 
BRANCH  84  88
ATOM     88  S   UNL     1      -1.393  17.774 -14.060  1.00  0.00     0.124 S 
ATOM     89  O   UNL     1       0.020  17.794 -13.696  1.00  0.00    -0.237 OA
ATOM     90  O   UNL     1      -1.821  16.655 -14.894  1.00  0.00    -0.237 OA
ATOM     91  O   UNL     1      -1.956  19.071 -14.429  1.00  0.00    -0.744 OA
ENDBRANCH  84  88
ENDBRANCH  58  81
ENDBRANCH  32  33
ENDBRANCH  25  27
ENDBRANCH  24  25
ENDBRANCH   1  24
TORSDOF 16
