REMARK SMILES CCCCCCNC(=O)Oc1cccc(-c2ccc([C@@H](C)C(=O)OCCOC(=O)c3ccc(-c4c5nc(c(-c6cc(S(=O)(=O)[O-])ccc6F)c6ccc([nH]6)c(-c6cc(S(=O)(=O)[O-])ccc6F)c6nc(c(-c7cc(S(=O)(=O)[O-])ccc7F)c7ccc4[nH]7)C=C6)C=C5)cc3)cc2[N+](=O)[O-])c1
REMARK SMILES IDX 20 1 21 2 19 3 16 4 17 5 94 6 18 7 93 8 15 9 11 10 12 11
REMARK SMILES IDX 98 12 13 13 14 14 10 15 8 16 7 17 9 19 6 20 5 21 4 22 3 23
REMARK SMILES IDX 2 24 1 25 95 26 96 27 97 28 22 29 23 30 24 31 25 32 26 33
REMARK SMILES IDX 27 34 28 35 29 36 30 37 31 38 92 39 32 40 91 41 33 42 34 43
REMARK SMILES IDX 35 44 85 45 36 46 90 47 84 48 86 49 37 50 89 51 83 52 82 53
REMARK SMILES IDX 38 55 70 56 50 57 69 58 51 59 54 60 68 61 87 62 52 63 53 64
REMARK SMILES IDX 67 66 88 67 55 68 39 69 40 70 48 71 41 72 47 73 49 74 46 75
REMARK SMILES IDX 42 76 43 77 44 78 45 79 71 80 72 81 80 82 73 83 79 84 81 85
REMARK SMILES IDX 78 86 74 87 75 88 76 89 77 90 56 91 57 92 65 93 58 94 64 95
REMARK SMILES IDX 66 96 63 97 59 98 60 99 61 100 62 101
REMARK H PARENT 7 18 86 54 54 65
REMARK Flexibility Score: inf
ROOT
ATOM      1  C   UNL     1      -4.643 -10.217  -9.527  1.00  0.00     0.126 C 
ATOM      2  C   UNL     1      -5.857 -10.595 -10.372  1.00  0.00     0.025 C 
ENDROOT
BRANCH   1   3
ATOM      3  C   UNL     1      -4.716  -8.780  -9.028  1.00  0.00    -0.027 A 
ATOM      4  C   UNL     1      -4.864  -6.088  -8.047  1.00  0.00     0.060 A 
ATOM      5  C   UNL     1      -4.843  -6.376  -9.425  1.00  0.00     0.016 A 
ATOM      6  C   UNL     1      -4.809  -7.190  -7.177  1.00  0.00     0.277 A 
ATOM      7  C   UNL     1      -4.781  -7.691  -9.906  1.00  0.00     0.006 A 
ATOM      8  C   UNL     1      -4.735  -8.514  -7.651  1.00  0.00     0.091 A 
BRANCH   4   9
ATOM      9  C   UNL     1      -4.963  -4.681  -7.622  1.00  0.00    -0.008 A 
ATOM     10  C   UNL     1      -4.113  -2.732  -6.459  1.00  0.00     0.133 A 
ATOM     11  C   UNL     1      -5.234  -1.989  -6.824  1.00  0.00     0.047 A 
ATOM     12  C   UNL     1      -3.969  -4.068  -6.843  1.00  0.00     0.056 A 
ATOM     13  C   UNL     1      -6.221  -2.582  -7.603  1.00  0.00     0.004 A 
ATOM     14  C   UNL     1      -6.086  -3.916  -7.995  1.00  0.00     0.009 A 
BRANCH  10  15
ATOM     15  O   UNL     1      -3.214  -2.118  -5.572  1.00  0.00    -0.410 OA
BRANCH  15  16
ATOM     16  C   UNL     1      -1.867  -2.107  -5.897  1.00  0.00     0.412 C 
ATOM     17  N   UNL     1      -1.085  -1.566  -4.913  1.00  0.00    -0.321 N 
ATOM     18  H   UNL     1      -0.116  -1.536  -5.086  1.00  0.00     0.167 HD
ATOM     19  O   UNL     1      -1.379  -2.492  -6.953  1.00  0.00    -0.224 OA
BRANCH  17  20
ATOM     20  C   UNL     1      -1.534  -1.032  -3.640  1.00  0.00     0.119 C 
BRANCH  20  21
ATOM     21  C   UNL     1      -0.903  -1.748  -2.447  1.00  0.00     0.021 C 
BRANCH  21  22
ATOM     22  C   UNL     1       0.624  -1.642  -2.356  1.00  0.00     0.002 C 
BRANCH  22  23
ATOM     23  C   UNL     1       1.192  -0.219  -2.317  1.00  0.00    -0.000 C 
BRANCH  23  24
ATOM     24  C   UNL     1       0.700   0.658  -1.164  1.00  0.00    -0.003 C 
ATOM     25  C   UNL     1       1.083   0.124   0.207  1.00  0.00     0.004 C 
ENDBRANCH  23  24
ENDBRANCH  22  23
ENDBRANCH  21  22
ENDBRANCH  20  21
ENDBRANCH  17  20
ENDBRANCH  15  16
ENDBRANCH  10  15
ENDBRANCH   4   9
BRANCH   6  26
ATOM     26  N   UNL     1      -4.896  -7.018  -5.732  1.00  0.00     0.063 N 
ATOM     27  O   UNL     1      -4.056  -7.614  -5.046  1.00  0.00    -0.258 OA
ATOM     28  O   UNL     1      -5.843  -6.351  -5.293  1.00  0.00    -0.258 OA
ENDBRANCH   6  26
ENDBRANCH   1   3
BRANCH   1  29
ATOM     29  C   UNL     1      -3.362 -10.617 -10.253  1.00  0.00     0.313 C 
ATOM     30  O   UNL     1      -2.956 -11.775 -10.270  1.00  0.00    -0.252 OA
BRANCH  29  31
ATOM     31  O   UNL     1      -2.762  -9.593 -10.915  1.00  0.00    -0.462 OA
BRANCH  31  32
ATOM     32  C   UNL     1      -1.509  -9.881 -11.564  1.00  0.00     0.274 C 
BRANCH  32  33
ATOM     33  C   UNL     1      -0.323  -9.349 -10.753  1.00  0.00     0.275 C 
BRANCH  33  34
ATOM     34  O   UNL     1      -0.136 -10.097  -9.539  1.00  0.00    -0.458 OA
BRANCH  34  35
ATOM     35  C   UNL     1      -0.772  -9.588  -8.457  1.00  0.00     0.338 C 
ATOM     36  O   UNL     1      -1.432  -8.564  -8.411  1.00  0.00    -0.246 OA
BRANCH  35  37
ATOM     37  C   UNL     1      -0.690 -10.538  -7.338  1.00  0.00     0.060 A 
ATOM     38  C   UNL     1      -1.889 -11.045  -6.832  1.00  0.00     0.016 A 
ATOM     39  C   UNL     1       0.527 -10.860  -6.736  1.00  0.00     0.016 A 
ATOM     40  C   UNL     1      -1.885 -11.853  -5.701  1.00  0.00     0.010 A 
ATOM     41  C   UNL     1       0.531 -11.683  -5.604  1.00  0.00     0.010 A 
ATOM     42  C   UNL     1      -0.677 -12.166  -5.069  1.00  0.00    -0.014 A 
BRANCH  42  43
ATOM     43  C   UNL     1      -0.707 -12.937  -3.803  1.00  0.00     0.031 A 
ATOM     44  C   UNL     1      -0.457 -12.234  -2.499  1.00  0.00     0.074 A 
ATOM     45  C   UNL     1      -1.000 -14.250  -3.825  1.00  0.00     0.049 A 
ATOM     46  N   UNL     1      -0.409 -12.724  -1.287  1.00  0.00    -0.248 NA
ATOM     47  C   UNL     1      -0.219 -10.787  -2.576  1.00  0.00     0.031 C 
ATOM     48  C   UNL     1      -1.288 -15.026  -5.032  1.00  0.00     0.029 A 
ATOM     49  N   UNL     1      -1.102 -15.162  -2.806  1.00  0.00    -0.354 N 
ATOM     50  C   UNL     1      -0.121 -11.647  -0.454  1.00  0.00     0.074 A 
ATOM     51  C   UNL     1       0.035 -10.489  -1.311  1.00  0.00     0.031 C 
ATOM     52  C   UNL     1      -1.530 -16.300  -4.683  1.00  0.00     0.029 A 
ATOM     53  C   UNL     1      -1.375 -16.438  -3.237  1.00  0.00     0.049 A 
ATOM     54  H   UNL     1      -0.992 -14.925  -1.857  1.00  0.00     0.167 HD
ATOM     55  C   UNL     1      -0.007 -11.629   0.898  1.00  0.00     0.034 A 
ATOM     56  C   UNL     1      -1.461 -17.593  -2.549  1.00  0.00     0.034 A 
ATOM     57  C   UNL     1      -0.164 -12.800   1.729  1.00  0.00     0.049 A 
ATOM     58  C   UNL     1      -1.285 -17.563  -1.054  1.00  0.00     0.074 A 
ATOM     59  C   UNL     1      -0.090 -12.900   3.108  1.00  0.00     0.029 A 
ATOM     60  N   UNL     1      -0.415 -14.085   1.256  1.00  0.00    -0.354 N 
ATOM     61  N   UNL     1      -1.016 -16.540  -0.275  1.00  0.00    -0.248 NA
ATOM     62  C   UNL     1      -1.433 -18.839  -0.344  1.00  0.00     0.031 C 
ATOM     63  C   UNL     1      -0.229 -14.248   3.462  1.00  0.00     0.029 A 
ATOM     64  C   UNL     1      -0.465 -14.985   2.311  1.00  0.00     0.049 A 
ATOM     65  H   UNL     1      -0.539 -14.321   0.308  1.00  0.00     0.167 HD
ATOM     66  C   UNL     1      -0.976 -17.048   1.020  1.00  0.00     0.074 A 
ATOM     67  C   UNL     1      -1.266 -18.465   0.916  1.00  0.00     0.031 C 
ATOM     68  C   UNL     1      -0.727 -16.402   2.188  1.00  0.00     0.034 A 
BRANCH  55  69
ATOM     69  C   UNL     1       0.369 -10.310   1.538  1.00  0.00     0.023 A 
ATOM     70  C   UNL     1      -0.450  -9.170   1.438  1.00  0.00     0.031 A 
ATOM     71  C   UNL     1       1.603 -10.173   2.200  1.00  0.00     0.131 A 
ATOM     72  C   UNL     1       0.013  -7.930   1.907  1.00  0.00     0.055 A 
ATOM     73  C   UNL     1       2.019  -8.955   2.741  1.00  0.00     0.041 A 
ATOM     74  F   UNL     1       2.440 -11.217   2.309  1.00  0.00    -0.206 F 
ATOM     75  C   UNL     1       1.232  -7.819   2.579  1.00  0.00     0.022 A 
BRANCH  72  76
ATOM     76  S   UNL     1      -0.916  -6.431   1.473  1.00  0.00     0.124 S 
ATOM     77  O   UNL     1      -0.936  -6.506   0.015  1.00  0.00    -0.237 OA
ATOM     78  O   UNL     1      -2.192  -6.646   2.146  1.00  0.00    -0.237 OA
ATOM     79  O   UNL     1      -0.099  -5.349   2.019  1.00  0.00    -0.744 OA
ENDBRANCH  72  76
ENDBRANCH  55  69
BRANCH  56  80
ATOM     80  C   UNL     1      -1.673 -18.874  -3.277  1.00  0.00     0.023 A 
ATOM     81  C   UNL     1      -2.862 -19.607  -3.147  1.00  0.00     0.031 A 
ATOM     82  C   UNL     1      -0.670 -19.381  -4.125  1.00  0.00     0.131 A 
ATOM     83  C   UNL     1      -3.010 -20.821  -3.837  1.00  0.00     0.055 A 
ATOM     84  C   UNL     1      -0.840 -20.567  -4.840  1.00  0.00     0.041 A 
ATOM     85  F   UNL     1       0.483 -18.713  -4.287  1.00  0.00    -0.206 F 
ATOM     86  C   UNL     1      -2.013 -21.298  -4.692  1.00  0.00     0.022 A 
BRANCH  83  87
ATOM     87  S   UNL     1      -4.515 -21.798  -3.570  1.00  0.00     0.124 S 
ATOM     88  O   UNL     1      -4.439 -22.080  -2.141  1.00  0.00    -0.237 OA
ATOM     89  O   UNL     1      -5.559 -20.868  -3.986  1.00  0.00    -0.237 OA
ATOM     90  O   UNL     1      -4.331 -22.954  -4.445  1.00  0.00    -0.744 OA
ENDBRANCH  83  87
ENDBRANCH  56  80
BRANCH  68  91
ATOM     91  C   UNL     1      -0.785 -17.230   3.449  1.00  0.00     0.023 A 
ATOM     92  C   UNL     1       0.171 -18.224   3.726  1.00  0.00     0.031 A 
ATOM     93  C   UNL     1      -1.823 -17.032   4.377  1.00  0.00     0.131 A 
ATOM     94  C   UNL     1       0.041 -19.017   4.877  1.00  0.00     0.055 A 
ATOM     95  C   UNL     1      -1.916 -17.787   5.547  1.00  0.00     0.041 A 
ATOM     96  F   UNL     1      -2.764 -16.100   4.161  1.00  0.00    -0.206 F 
ATOM     97  C   UNL     1      -0.988 -18.794   5.796  1.00  0.00     0.022 A 
BRANCH  94  98
ATOM     98  S   UNL     1       1.187 -20.403   5.117  1.00  0.00     0.124 S 
ATOM     99  O   UNL     1       0.951 -21.203   3.919  1.00  0.00    -0.237 OA
ATOM    100  O   UNL     1       2.480 -19.731   5.191  1.00  0.00    -0.237 OA
ATOM    101  O   UNL     1       0.733 -21.011   6.366  1.00  0.00    -0.744 OA
ENDBRANCH  94  98
ENDBRANCH  68  91
ENDBRANCH  42  43
ENDBRANCH  35  37
ENDBRANCH  34  35
ENDBRANCH  33  34
ENDBRANCH  32  33
ENDBRANCH  31  32
ENDBRANCH  29  31
ENDBRANCH   1  29
TORSDOF 24
