REMARK SMILES C[C@H](NC(=O)c1cc(S(=O)(=O)N(C)C)cs1)C(=O)OCCOC(=O)c1ccc(-c2c3nc(c(-c4cc(S(=O)(=O)[O-])ccc4F)c4ccc([nH]4)c(-c4cc(S(=O)(=O)[O-])ccc4F)c4nc(c(-c5cc(S(=O)(=O)[O-])ccc5F)c5ccc2[nH]5)C=C4)C=C3)cc1
REMARK SMILES IDX 20 1 19 2 17 3 18 4 2 5 1 6 3 7 4 8 5 10 6 11 7 12 16 13
REMARK SMILES IDX 8 14 15 15 9 16 10 17 11 18 12 19 13 20 14 21 21 22 22 23
REMARK SMILES IDX 23 24 24 25 25 26 26 27 87 28 27 29 86 30 28 31 29 32 30 33
REMARK SMILES IDX 80 34 31 35 85 36 79 37 81 38 32 39 84 40 78 41 77 42 33 44
REMARK SMILES IDX 65 45 45 46 64 47 46 48 49 49 63 50 82 51 47 52 48 53 62 55
REMARK SMILES IDX 83 56 50 57 34 58 35 59 43 60 36 61 42 62 44 63 41 64 37 65
REMARK SMILES IDX 38 66 39 67 40 68 66 69 67 70 75 71 68 72 74 73 76 74 73 75
REMARK SMILES IDX 69 76 70 77 71 78 72 79 51 80 52 81 60 82 53 83 59 84 61 85
REMARK SMILES IDX 58 86 54 87 55 88 56 89 57 90
REMARK H PARENT 3 9 81 43 49 54
REMARK Flexibility Score: inf
ROOT
ATOM      1  C   UNL     1      -3.209   0.727  -0.595  1.00  0.00     0.274 C 
ENDROOT
BRANCH   1   2
ATOM      2  O   UNL     1      -1.778   0.879  -0.607  1.00  0.00    -0.461 OA
BRANCH   2   3
ATOM      3  C   UNL     1      -1.318   2.122  -0.300  1.00  0.00     0.328 C 
ATOM      4  O   UNL     1      -2.031   3.105  -0.127  1.00  0.00    -0.250 OA
BRANCH   3   5
ATOM      5  C   UNL     1       0.212   2.206  -0.310  1.00  0.00     0.189 C 
ATOM      6  C   UNL     1       0.623   2.892  -1.611  1.00  0.00     0.043 C 
BRANCH   5   7
ATOM      7  N   UNL     1       0.918   0.927  -0.155  1.00  0.00    -0.338 N 
ATOM      8  C   UNL     1       2.258   0.725   0.122  1.00  0.00     0.262 C 
ATOM      9  H   UNL     1       0.372   0.116  -0.262  1.00  0.00     0.164 HD
ATOM     10  O   UNL     1       2.726  -0.400  -0.036  1.00  0.00    -0.268 OA
BRANCH   8  11
ATOM     11  C   UNL     1       3.034   1.873   0.560  1.00  0.00     0.093 A 
ATOM     12  C   UNL     1       2.732   2.791   1.546  1.00  0.00     0.047 A 
ATOM     13  S   UNL     1       4.524   2.251  -0.200  1.00  0.00    -0.137 S 
ATOM     14  C   UNL     1       3.566   3.941   1.470  1.00  0.00     0.094 A 
ATOM     15  C   UNL     1       4.609   3.774   0.587  1.00  0.00     0.087 A 
BRANCH  14  16
ATOM     16  S   UNL     1       3.203   5.427   2.289  1.00  0.00     0.243 S 
ATOM     17  O   UNL     1       4.464   5.859   2.830  1.00  0.00    -0.207 OA
ATOM     18  O   UNL     1       2.501   6.160   1.251  1.00  0.00    -0.207 OA
BRANCH  16  19
ATOM     19  N   UNL     1       2.111   5.073   3.544  1.00  0.00    -0.204 NA
ATOM     20  C   UNL     1       2.716   4.407   4.722  1.00  0.00     0.124 C 
ATOM     21  C   UNL     1       1.229   6.190   3.942  1.00  0.00     0.124 C 
ENDBRANCH  16  19
ENDBRANCH  14  16
ENDBRANCH   8  11
ENDBRANCH   5   7
ENDBRANCH   3   5
ENDBRANCH   2   3
ENDBRANCH   1   2
BRANCH   1  22
ATOM     22  C   UNL     1      -3.667  -0.183   0.547  1.00  0.00     0.275 C 
BRANCH  22  23
ATOM     23  O   UNL     1      -3.238   0.299   1.833  1.00  0.00    -0.458 OA
BRANCH  23  24
ATOM     24  C   UNL     1      -2.008  -0.136   2.208  1.00  0.00     0.338 C 
ATOM     25  O   UNL     1      -1.273  -0.861   1.554  1.00  0.00    -0.246 OA
BRANCH  24  26
ATOM     26  C   UNL     1      -1.591   0.477   3.487  1.00  0.00     0.060 A 
ATOM     27  C   UNL     1      -0.235   0.782   3.635  1.00  0.00     0.016 A 
ATOM     28  C   UNL     1      -2.478   0.690   4.548  1.00  0.00     0.016 A 
ATOM     29  C   UNL     1       0.239   1.294   4.840  1.00  0.00     0.010 A 
ATOM     30  C   UNL     1      -1.997   1.190   5.767  1.00  0.00     0.010 A 
ATOM     31  C   UNL     1      -0.633   1.484   5.921  1.00  0.00    -0.014 A 
BRANCH  31  32
ATOM     32  C   UNL     1      -0.061   1.910   7.223  1.00  0.00     0.031 A 
ATOM     33  C   UNL     1       0.534   0.878   8.136  1.00  0.00     0.074 A 
ATOM     34  C   UNL     1       0.018   3.216   7.533  1.00  0.00     0.049 A 
ATOM     35  N   UNL     1       1.217   1.042   9.239  1.00  0.00    -0.248 NA
ATOM     36  C   UNL     1       0.328  -0.524   7.750  1.00  0.00     0.031 C 
ATOM     37  C   UNL     1      -0.511   4.303   6.714  1.00  0.00     0.029 A 
ATOM     38  N   UNL     1       0.621   3.853   8.589  1.00  0.00    -0.354 N 
ATOM     39  C   UNL     1       1.516  -0.238   9.691  1.00  0.00     0.074 A 
ATOM     40  C   UNL     1       0.936  -1.163   8.738  1.00  0.00     0.031 C 
ATOM     41  C   UNL     1      -0.147   5.476   7.261  1.00  0.00     0.029 A 
ATOM     42  C   UNL     1       0.609   5.225   8.485  1.00  0.00     0.049 A 
ATOM     43  H   UNL     1       1.024   3.374   9.349  1.00  0.00     0.167 HD
ATOM     44  C   UNL     1       2.195  -0.607  10.806  1.00  0.00     0.034 A 
ATOM     45  C   UNL     1       1.159   6.167   9.279  1.00  0.00     0.034 A 
ATOM     46  C   UNL     1       2.727   0.324  11.772  1.00  0.00     0.049 A 
ATOM     47  C   UNL     1       1.895   5.730  10.524  1.00  0.00     0.074 A 
ATOM     48  C   UNL     1       3.386   0.056  12.960  1.00  0.00     0.029 A 
ATOM     49  N   UNL     1       2.645   1.707  11.671  1.00  0.00    -0.354 N 
ATOM     50  N   UNL     1       2.167   4.515  10.941  1.00  0.00    -0.248 NA
ATOM     51  C   UNL     1       2.382   6.795  11.411  1.00  0.00     0.031 C 
ATOM     52  C   UNL     1       3.645   1.273  13.605  1.00  0.00     0.029 A 
ATOM     53  C   UNL     1       3.212   2.304  12.787  1.00  0.00     0.049 A 
ATOM     54  H   UNL     1       2.244   2.193  10.915  1.00  0.00     0.167 HD
ATOM     55  C   UNL     1       2.856   4.673  12.142  1.00  0.00     0.074 A 
ATOM     56  C   UNL     1       2.997   6.098  12.356  1.00  0.00     0.031 C 
ATOM     57  C   UNL     1       3.318   3.728  13.000  1.00  0.00     0.034 A 
BRANCH  44  58
ATOM     58  C   UNL     1       2.302  -2.087  11.075  1.00  0.00     0.023 A 
ATOM     59  C   UNL     1       3.038  -2.941  10.235  1.00  0.00     0.031 A 
ATOM     60  C   UNL     1       1.593  -2.661  12.144  1.00  0.00     0.131 A 
ATOM     61  C   UNL     1       2.984  -4.329  10.433  1.00  0.00     0.055 A 
ATOM     62  C   UNL     1       1.604  -4.037  12.381  1.00  0.00     0.041 A 
ATOM     63  F   UNL     1       0.851  -1.896  12.961  1.00  0.00    -0.206 F 
ATOM     64  C   UNL     1       2.289  -4.881  11.512  1.00  0.00     0.022 A 
BRANCH  61  65
ATOM     65  S   UNL     1       3.696  -5.414   9.165  1.00  0.00     0.124 S 
ATOM     66  O   UNL     1       2.973  -4.986   7.971  1.00  0.00    -0.237 OA
ATOM     67  O   UNL     1       5.112  -5.068   9.216  1.00  0.00    -0.237 OA
ATOM     68  O   UNL     1       3.364  -6.757   9.638  1.00  0.00    -0.744 OA
ENDBRANCH  61  65
ENDBRANCH  44  58
BRANCH  45  69
ATOM     69  C   UNL     1       1.040   7.617   8.949  1.00  0.00     0.023 A 
ATOM     70  C   UNL     1       2.186   8.396   8.716  1.00  0.00     0.031 A 
ATOM     71  C   UNL     1      -0.208   8.263   8.929  1.00  0.00     0.131 A 
ATOM     72  C   UNL     1       2.064   9.781   8.526  1.00  0.00     0.055 A 
ATOM     73  C   UNL     1      -0.328   9.631   8.680  1.00  0.00     0.041 A 
ATOM     74  F   UNL     1      -1.335   7.568   9.149  1.00  0.00    -0.206 F 
ATOM     75  C   UNL     1       0.814  10.402   8.491  1.00  0.00     0.022 A 
BRANCH  72  76
ATOM     76  S   UNL     1       3.576  10.779   8.420  1.00  0.00     0.124 S 
ATOM     77  O   UNL     1       4.215  10.483   9.697  1.00  0.00    -0.237 OA
ATOM     78  O   UNL     1       4.219  10.222   7.235  1.00  0.00    -0.237 OA
ATOM     79  O   UNL     1       3.073  12.143   8.273  1.00  0.00    -0.744 OA
ENDBRANCH  72  76
ENDBRANCH  45  69
BRANCH  57  80
ATOM     80  C   UNL     1       4.014   4.220  14.246  1.00  0.00     0.023 A 
ATOM     81  C   UNL     1       3.315   4.909  15.253  1.00  0.00     0.031 A 
ATOM     82  C   UNL     1       5.393   4.013  14.421  1.00  0.00     0.131 A 
ATOM     83  C   UNL     1       4.005   5.415  16.365  1.00  0.00     0.055 A 
ATOM     84  C   UNL     1       6.066   4.473  15.555  1.00  0.00     0.041 A 
ATOM     85  F   UNL     1       6.109   3.361  13.491  1.00  0.00    -0.206 F 
ATOM     86  C   UNL     1       5.375   5.189  16.528  1.00  0.00     0.022 A 
BRANCH  83  87
ATOM     87  S   UNL     1       3.105   6.445  17.557  1.00  0.00     0.124 S 
ATOM     88  O   UNL     1       2.605   7.524  16.711  1.00  0.00    -0.237 OA
ATOM     89  O   UNL     1       2.100   5.521  18.072  1.00  0.00    -0.237 OA
ATOM     90  O   UNL     1       4.135   6.838  18.518  1.00  0.00    -0.744 OA
ENDBRANCH  83  87
ENDBRANCH  57  80
ENDBRANCH  31  32
ENDBRANCH  24  26
ENDBRANCH  23  24
ENDBRANCH  22  23
ENDBRANCH   1  22
TORSDOF 18
