REMARK SMILES O=C(OCCOC(=O)[C@H]1CCCN(C(=O)C2CC[NH+](Cc3ccco3)CC2)C1)c1ccc(-c2c3nc(c(-c4cc(S(=O)(=O)[O-])ccc4F)c4ccc([nH]4)c(-c4cc(S(=O)(=O)[O-])ccc4F)c4nc(c(-c5cc(S(=O)(=O)[O-])ccc5F)c5ccc2[nH]5)C=C4)C=C3)cc1
REMARK SMILES IDX 5 1 4 2 3 3 2 4 1 5 29 6 30 7 91 8 31 9 90 10 32 11 33 12
REMARK SMILES IDX 34 13 84 14 35 15 89 16 83 17 85 18 36 19 88 20 82 21 81 22
REMARK SMILES IDX 37 24 69 25 49 26 68 27 50 28 53 29 67 30 86 31 51 32 52 33
REMARK SMILES IDX 66 35 87 36 54 37 38 38 39 39 47 40 40 41 46 42 48 43 45 44
REMARK SMILES IDX 41 45 42 46 43 47 44 48 70 49 71 50 79 51 72 52 78 53 80 54
REMARK SMILES IDX 77 55 73 56 74 57 75 58 76 59 55 60 56 61 64 62 57 63 63 64
REMARK SMILES IDX 65 65 62 66 58 67 59 68 60 69 61 70 6 71 7 72 8 73 9 74
REMARK SMILES IDX 10 75 28 76 11 77 13 78 12 79 14 80 15 81 16 82 17 83 27 84
REMARK SMILES IDX 18 85 26 86 19 87 20 89 21 90 22 91 25 92 23 93 24 94
REMARK H PARENT 85 23 53 34 19 88
REMARK Flexibility Score: inf
ROOT
ATOM      1  C   UNL     1       4.263   1.474  -6.173  1.00  0.00     0.274 C 
ENDROOT
BRANCH   1   2
ATOM      2  C   UNL     1       5.724   1.737  -5.770  1.00  0.00     0.275 C 
BRANCH   2   3
ATOM      3  O   UNL     1       6.191   1.008  -4.617  1.00  0.00    -0.458 OA
BRANCH   3   4
ATOM      4  C   UNL     1       6.236   1.315  -3.294  1.00  0.00     0.338 C 
ATOM      5  O   UNL     1       6.755   0.489  -2.541  1.00  0.00    -0.246 OA
BRANCH   4   6
ATOM      6  C   UNL     1       5.523   2.486  -2.661  1.00  0.00     0.060 A 
ATOM      7  C   UNL     1       5.104   3.651  -3.299  1.00  0.00     0.016 A 
ATOM      8  C   UNL     1       5.121   2.315  -1.322  1.00  0.00     0.016 A 
ATOM      9  C   UNL     1       4.139   4.495  -2.709  1.00  0.00     0.010 A 
ATOM     10  C   UNL     1       4.116   3.122  -0.763  1.00  0.00     0.010 A 
ATOM     11  C   UNL     1       3.514   4.157  -1.500  1.00  0.00    -0.014 A 
BRANCH  11  12
ATOM     12  C   UNL     1       2.369   4.972  -0.868  1.00  0.00     0.031 A 
ATOM     13  C   UNL     1       2.904   5.779   0.317  1.00  0.00     0.074 A 
ATOM     14  C   UNL     1       0.965   4.911  -1.140  1.00  0.00     0.049 A 
ATOM     15  N   UNL     1       2.315   6.296   1.366  1.00  0.00    -0.248 NA
ATOM     16  C   UNL     1       4.382   5.896   0.353  1.00  0.00     0.031 C 
ATOM     17  C   UNL     1      -0.535   3.861  -2.352  1.00  0.00     0.029 A 
ATOM     18  N   UNL     1      -0.178   5.560   0.200  1.00  0.00    -0.354 N 
ATOM     19  C   UNL     1       3.354   6.815   2.139  1.00  0.00     0.074 A 
ATOM     20  C   UNL     1       4.588   6.330   1.577  1.00  0.00     0.031 C 
ATOM     21  C   UNL     1      -2.019   4.003  -1.633  1.00  0.00     0.029 A 
ATOM     22  C   UNL     1      -1.884   4.994  -0.046  1.00  0.00     0.049 A 
ATOM     23  H   UNL     1       0.113   6.136   0.943  1.00  0.00     0.167 HD
ATOM     24  C   UNL     1       3.331   7.704   3.161  1.00  0.00     0.034 A 
ATOM     25  C   UNL     1      -2.966   5.089   0.756  1.00  0.00     0.034 A 
ATOM     26  C   UNL     1       2.123   8.151   3.791  1.00  0.00     0.049 A 
ATOM     27  C   UNL     1      -2.829   5.887   1.991  1.00  0.00     0.074 A 
ATOM     28  C   UNL     1       1.984   9.084   4.798  1.00  0.00     0.029 A 
ATOM     29  N   UNL     1       0.851   7.657   3.512  1.00  0.00    -0.354 N 
ATOM     30  N   UNL     1      -1.747   6.389   2.529  1.00  0.00    -0.248 NA
ATOM     31  C   UNL     1      -4.081   6.192   2.683  1.00  0.00     0.031 C 
ATOM     32  C   UNL     1       0.649   9.077   5.204  1.00  0.00     0.029 A 
ATOM     33  C   UNL     1      -0.069   8.227   4.374  1.00  0.00     0.049 A 
ATOM     34  H   UNL     1       0.639   7.002   2.809  1.00  0.00     0.167 HD
ATOM     35  C   UNL     1      -2.196   7.164   3.582  1.00  0.00     0.074 A 
ATOM     36  C   UNL     1      -3.640   6.994   3.639  1.00  0.00     0.031 C 
ATOM     37  C   UNL     1      -1.493   7.995   4.387  1.00  0.00     0.034 A 
BRANCH  24  38
ATOM     38  C   UNL     1       4.685   8.224   3.619  1.00  0.00     0.023 A 
ATOM     39  C   UNL     1       5.567   8.835   2.700  1.00  0.00     0.031 A 
ATOM     40  C   UNL     1       5.167   7.966   4.910  1.00  0.00     0.131 A 
ATOM     41  C   UNL     1       6.921   8.998   3.028  1.00  0.00     0.055 A 
ATOM     42  C   UNL     1       6.488   8.253   5.270  1.00  0.00     0.041 A 
ATOM     43  F   UNL     1       4.387   7.374   5.828  1.00  0.00    -0.206 F 
ATOM     44  C   UNL     1       7.383   8.738   4.318  1.00  0.00     0.022 A 
BRANCH  41  45
ATOM     45  S   UNL     1       8.102   9.293   1.677  1.00  0.00     0.124 S 
ATOM     46  O   UNL     1       7.893   8.113   0.840  1.00  0.00    -0.237 OA
ATOM     47  O   UNL     1       7.640  10.558   1.120  1.00  0.00    -0.237 OA
ATOM     48  O   UNL     1       9.395   9.343   2.357  1.00  0.00    -0.744 OA
ENDBRANCH  41  45
ENDBRANCH  24  38
BRANCH  25  49
ATOM     49  C   UNL     1      -4.235   4.382   0.408  1.00  0.00     0.023 A 
ATOM     50  C   UNL     1      -5.214   4.936  -0.430  1.00  0.00     0.031 A 
ATOM     51  C   UNL     1      -4.486   3.100   0.928  1.00  0.00     0.131 A 
ATOM     52  C   UNL     1      -6.353   4.177  -0.772  1.00  0.00     0.055 A 
ATOM     53  C   UNL     1      -5.553   2.308   0.490  1.00  0.00     0.041 A 
ATOM     54  F   UNL     1      -3.675   2.587   1.866  1.00  0.00    -0.206 F 
ATOM     55  C   UNL     1      -6.490   2.843  -0.381  1.00  0.00     0.022 A 
BRANCH  52  56
ATOM     56  S   UNL     1      -7.733   4.991  -1.628  1.00  0.00     0.124 S 
ATOM     57  O   UNL     1      -8.170   5.951  -0.621  1.00  0.00    -0.237 OA
ATOM     58  O   UNL     1      -7.081   5.549  -2.808  1.00  0.00    -0.237 OA
ATOM     59  O   UNL     1      -8.665   3.898  -1.893  1.00  0.00    -0.744 OA
ENDBRANCH  52  56
ENDBRANCH  25  49
BRANCH  37  60
ATOM     60  C   UNL     1      -2.308   8.845   5.311  1.00  0.00     0.023 A 
ATOM     61  C   UNL     1      -2.988   8.300   6.407  1.00  0.00     0.031 A 
ATOM     62  C   UNL     1      -2.392  10.227   5.073  1.00  0.00     0.131 A 
ATOM     63  C   UNL     1      -3.770   9.138   7.206  1.00  0.00     0.055 A 
ATOM     64  C   UNL     1      -3.102  11.067   5.923  1.00  0.00     0.041 A 
ATOM     65  F   UNL     1      -1.771  10.778   4.017  1.00  0.00    -0.206 F 
ATOM     66  C   UNL     1      -3.805  10.520   6.993  1.00  0.00     0.022 A 
BRANCH  63  67
ATOM     67  S   UNL     1      -4.824   8.378   8.464  1.00  0.00     0.124 S 
ATOM     68  O   UNL     1      -5.713   7.556   7.648  1.00  0.00    -0.237 OA
ATOM     69  O   UNL     1      -3.861   7.652   9.285  1.00  0.00    -0.237 OA
ATOM     70  O   UNL     1      -5.457   9.523   9.114  1.00  0.00    -0.744 OA
ENDBRANCH  63  67
ENDBRANCH  37  60
ENDBRANCH  11  12
ENDBRANCH   4   6
ENDBRANCH   3   4
ENDBRANCH   2   3
ENDBRANCH   1   2
BRANCH   1  71
ATOM     71  O   UNL     1       3.473   1.029  -5.067  1.00  0.00    -0.462 OA
BRANCH  71  72
ATOM     72  C   UNL     1       2.906  -0.224  -5.038  1.00  0.00     0.310 C 
ATOM     73  O   UNL     1       2.857  -0.980  -5.997  1.00  0.00    -0.252 OA
BRANCH  72  74
ATOM     74  C   UNL     1       2.453  -0.584  -3.608  1.00  0.00     0.119 C 
ATOM     75  C   UNL     1       2.743   0.646  -2.752  1.00  0.00     0.019 C 
ATOM     76  C   UNL     1       0.992  -1.111  -3.422  1.00  0.00     0.134 C 
ATOM     77  C   UNL     1       2.236   0.514  -1.363  1.00  0.00     0.022 C 
ATOM     78  N   UNL     1       0.462  -0.892  -2.040  1.00  0.00    -0.342 N 
ATOM     79  C   UNL     1       0.770   0.391  -1.557  1.00  0.00     0.119 C 
BRANCH  78  80
ATOM     80  C   UNL     1      -0.272  -1.754  -1.244  1.00  0.00     0.226 C 
ATOM     81  O   UNL     1      -0.485  -2.909  -1.628  1.00  0.00    -0.275 OA
BRANCH  80  82
ATOM     82  C   UNL     1      -0.893  -1.277   0.158  1.00  0.00     0.090 C 
ATOM     83  C   UNL     1      -2.103  -0.342   0.072  1.00  0.00     0.075 C 
ATOM     84  C   UNL     1       0.012  -0.812   1.324  1.00  0.00     0.075 C 
ATOM     85  C   UNL     1      -1.762   1.146  -0.024  1.00  0.00     0.263 C 
ATOM     86  C   UNL     1       0.145   0.715   1.591  1.00  0.00     0.263 C 
ATOM     87  N   UNL     1      -0.740   1.627   0.878  1.00  0.00    -0.329 N 
ATOM     88  H   UNL     1      -1.491   1.662   1.568  1.00  0.00     0.348 HD
BRANCH  87  89
ATOM     89  C   UNL     1      -0.284   3.032   0.794  1.00  0.00     0.338 C 
BRANCH  89  90
ATOM     90  C   UNL     1      -0.243   3.764  -0.626  1.00  0.00     0.157 A 
ATOM     91  C   UNL     1      -0.624   5.492  -1.668  1.00  0.00     0.052 A 
ATOM     92  O   UNL     1       1.073   3.100  -1.775  1.00  0.00    -0.463 OA
ATOM     93  C   UNL     1       0.511   5.492  -3.161  1.00  0.00     0.042 A 
ATOM     94  C   UNL     1       1.349   4.165  -3.206  1.00  0.00     0.195 A 
ENDBRANCH  89  90
ENDBRANCH  87  89
ENDBRANCH  80  82
ENDBRANCH  78  80
ENDBRANCH  72  74
ENDBRANCH  71  72
ENDBRANCH   1  71
TORSDOF 18
