REMARK SMILES Cc1ccc(S(=O)(=O)N2c3ccc(C(=O)OCCOC(=O)c4ccc(-c5c6nc(c(-c7cc(S(=O)(=O)[O-])ccc7F)c7ccc([nH]7)c(-c7cc(S(=O)(=O)[O-])ccc7F)c7nc(c(-c8cc(S(=O)(=O)[O-])ccc8F)c8ccc5[nH]8)C=C7)C=C6)cc4)cc3C[C@H]2C)cc1
REMARK SMILES IDX 18 1 17 2 16 3 14 4 15 5 13 6 9 7 10 8 88 9 11 10 86 11
REMARK SMILES IDX 87 12 89 13 12 14 85 15 6 16 7 17 8 18 5 19 1 20 2 21 3 22
REMARK SMILES IDX 91 23 4 24 90 25 19 26 20 27 21 28 22 29 23 30 84 31 24 32
REMARK SMILES IDX 83 33 25 34 26 35 27 36 77 37 28 38 82 39 76 40 78 41 29 42
REMARK SMILES IDX 81 43 75 44 74 45 30 47 62 48 42 49 61 50 43 51 46 52 60 53
REMARK SMILES IDX 79 54 44 55 45 56 59 58 80 59 47 60 31 61 32 62 40 63 33 64
REMARK SMILES IDX 39 65 41 66 38 67 34 68 35 69 36 70 37 71 63 72 64 73 72 74
REMARK SMILES IDX 65 75 71 76 73 77 70 78 66 79 67 80 68 81 69 82 48 83 49 84
REMARK SMILES IDX 57 85 50 86 56 87 58 88 55 89 51 90 52 91 53 92 54 93
REMARK H PARENT 78 46 46 57
REMARK Flexibility Score: inf
ROOT
ATOM      1  C   UNL     1     -12.049   4.529   2.034  1.00  0.00     0.275 C 
ENDROOT
BRANCH   1   2
ATOM      2  C   UNL     1     -11.338   3.168   2.103  1.00  0.00     0.275 C 
BRANCH   2   3
ATOM      3  O   UNL     1      -9.934   3.206   1.807  1.00  0.00    -0.458 OA
BRANCH   3   4
ATOM      4  C   UNL     1      -9.432   1.954   1.640  1.00  0.00     0.338 C 
ATOM      5  O   UNL     1     -10.064   0.916   1.789  1.00  0.00    -0.246 OA
BRANCH   4   6
ATOM      6  C   UNL     1      -7.973   1.927   1.393  1.00  0.00     0.060 A 
ATOM      7  N   UNL     1      -3.840   1.603   0.674  1.00  0.00    -0.263 N 
ATOM      8  C   UNL     1      -5.253   1.578   0.970  1.00  0.00     0.055 A 
ATOM      9  C   UNL     1      -3.643   2.916  -0.069  1.00  0.00     0.101 C 
ATOM     10  C   UNL     1      -5.902   0.705   1.819  1.00  0.00     0.028 A 
ATOM     11  C   UNL     1      -5.940   2.610   0.327  1.00  0.00    -0.021 A 
ATOM     12  C   UNL     1      -5.028   3.308  -0.633  1.00  0.00     0.063 C 
ATOM     13  C   UNL     1      -3.162   3.963   0.949  1.00  0.00     0.032 C 
ATOM     14  C   UNL     1      -7.274   0.865   2.003  1.00  0.00     0.018 A 
ATOM     15  C   UNL     1      -7.296   2.823   0.554  1.00  0.00     0.021 A 
BRANCH   7  16
ATOM     16  S   UNL     1      -3.305   0.174  -0.135  1.00  0.00     0.264 S 
ATOM     17  O   UNL     1      -3.606   0.325  -1.553  1.00  0.00    -0.201 OA
ATOM     18  O   UNL     1      -3.752  -0.973   0.613  1.00  0.00    -0.201 OA
BRANCH  16  19
ATOM     19  C   UNL     1      -1.521   0.128  -0.016  1.00  0.00     0.088 A 
ATOM     20  C   UNL     1       2.772  -0.226   0.019  1.00  0.00     0.044 C 
ATOM     21  C   UNL     1       1.278  -0.105   0.038  1.00  0.00    -0.051 A 
ATOM     22  C   UNL     1       0.480  -1.242  -0.122  1.00  0.00     0.005 A 
ATOM     23  C   UNL     1       0.661   1.138   0.218  1.00  0.00     0.005 A 
ATOM     24  C   UNL     1      -0.912  -1.128  -0.151  1.00  0.00     0.022 A 
ATOM     25  C   UNL     1      -0.732   1.254   0.199  1.00  0.00     0.022 A 
ENDBRANCH  16  19
ENDBRANCH   7  16
ENDBRANCH   4   6
ENDBRANCH   3   4
ENDBRANCH   2   3
ENDBRANCH   1   2
BRANCH   1  26
ATOM     26  O   UNL     1     -11.804   5.475   0.960  1.00  0.00    -0.458 OA
BRANCH  26  27
ATOM     27  C   UNL     1     -10.813   5.309   0.047  1.00  0.00     0.338 C 
ATOM     28  O   UNL     1      -9.793   5.982   0.047  1.00  0.00    -0.246 OA
BRANCH  27  29
ATOM     29  C   UNL     1     -11.035   4.157  -0.856  1.00  0.00     0.060 A 
ATOM     30  C   UNL     1      -9.938   3.617  -1.546  1.00  0.00     0.016 A 
ATOM     31  C   UNL     1     -12.250   3.484  -0.810  1.00  0.00     0.016 A 
ATOM     32  C   UNL     1     -10.002   2.325  -2.055  1.00  0.00     0.010 A 
ATOM     33  C   UNL     1     -12.276   2.166  -1.184  1.00  0.00     0.010 A 
ATOM     34  C   UNL     1     -11.166   1.598  -1.831  1.00  0.00    -0.014 A 
BRANCH  34  35
ATOM     35  C   UNL     1     -11.494   0.359  -2.507  1.00  0.00     0.031 A 
ATOM     36  C   UNL     1     -11.011  -0.961  -2.076  1.00  0.00     0.074 A 
ATOM     37  C   UNL     1     -12.423   0.561  -3.468  1.00  0.00     0.049 A 
ATOM     38  N   UNL     1     -11.130  -2.014  -2.802  1.00  0.00    -0.248 NA
ATOM     39  C   UNL     1     -10.328  -1.238  -0.815  1.00  0.00     0.031 C 
ATOM     40  C   UNL     1     -13.322  -0.354  -4.144  1.00  0.00     0.029 A 
ATOM     41  N   UNL     1     -12.667   1.761  -4.116  1.00  0.00    -0.354 N 
ATOM     42  C   UNL     1     -10.869  -3.115  -2.013  1.00  0.00     0.074 A 
ATOM     43  C   UNL     1     -10.268  -2.580  -0.818  1.00  0.00     0.031 C 
ATOM     44  C   UNL     1     -13.784   0.247  -5.261  1.00  0.00     0.029 A 
ATOM     45  C   UNL     1     -13.054   1.502  -5.414  1.00  0.00     0.049 A 
ATOM     46  H   UNL     1     -12.577   2.656  -3.715  1.00  0.00     0.167 HD
ATOM     47  C   UNL     1     -11.352  -4.319  -2.431  1.00  0.00     0.034 A 
ATOM     48  C   UNL     1     -12.163   1.781  -6.416  1.00  0.00     0.034 A 
ATOM     49  C   UNL     1     -11.972  -4.166  -3.743  1.00  0.00     0.049 A 
ATOM     50  C   UNL     1     -11.714   0.502  -7.087  1.00  0.00     0.074 A 
ATOM     51  C   UNL     1     -13.284  -3.970  -4.138  1.00  0.00     0.029 A 
ATOM     52  N   UNL     1     -11.171  -3.828  -4.820  1.00  0.00    -0.354 N 
ATOM     53  N   UNL     1     -11.572  -0.648  -6.482  1.00  0.00    -0.248 NA
ATOM     54  C   UNL     1     -11.519   0.418  -8.525  1.00  0.00     0.031 C 
ATOM     55  C   UNL     1     -13.257  -3.447  -5.458  1.00  0.00     0.029 A 
ATOM     56  C   UNL     1     -11.935  -3.348  -5.860  1.00  0.00     0.049 A 
ATOM     57  H   UNL     1     -10.191  -3.919  -4.840  1.00  0.00     0.167 HD
ATOM     58  C   UNL     1     -11.372  -1.629  -7.423  1.00  0.00     0.074 A 
ATOM     59  C   UNL     1     -11.332  -0.902  -8.682  1.00  0.00     0.031 C 
ATOM     60  C   UNL     1     -11.304  -2.962  -7.109  1.00  0.00     0.034 A 
BRANCH  47  61
ATOM     61  C   UNL     1     -11.534  -5.577  -1.618  1.00  0.00     0.023 A 
ATOM     62  C   UNL     1     -12.561  -6.468  -2.010  1.00  0.00     0.031 A 
ATOM     63  C   UNL     1     -10.798  -5.966  -0.488  1.00  0.00     0.131 A 
ATOM     64  C   UNL     1     -12.865  -7.631  -1.285  1.00  0.00     0.055 A 
ATOM     65  C   UNL     1     -11.103  -7.129   0.246  1.00  0.00     0.041 A 
ATOM     66  F   UNL     1      -9.740  -5.265  -0.062  1.00  0.00    -0.206 F 
ATOM     67  C   UNL     1     -12.145  -7.964  -0.146  1.00  0.00     0.022 A 
BRANCH  64  68
ATOM     68  S   UNL     1     -14.231  -8.677  -1.861  1.00  0.00     0.124 S 
ATOM     69  O   UNL     1     -15.373  -7.774  -1.766  1.00  0.00    -0.237 OA
ATOM     70  O   UNL     1     -13.805  -9.037  -3.209  1.00  0.00    -0.237 OA
ATOM     71  O   UNL     1     -14.239  -9.782  -0.902  1.00  0.00    -0.744 OA
ENDBRANCH  64  68
ENDBRANCH  47  61
BRANCH  48  72
ATOM     72  C   UNL     1     -11.292   2.981  -6.146  1.00  0.00     0.023 A 
ATOM     73  C   UNL     1     -11.937   4.185  -5.775  1.00  0.00     0.031 A 
ATOM     74  C   UNL     1      -9.914   2.896  -5.901  1.00  0.00     0.131 A 
ATOM     75  C   UNL     1     -11.260   5.166  -5.033  1.00  0.00     0.055 A 
ATOM     76  C   UNL     1      -9.221   3.919  -5.229  1.00  0.00     0.041 A 
ATOM     77  F   UNL     1      -9.228   1.787  -6.212  1.00  0.00    -0.206 F 
ATOM     78  C   UNL     1      -9.900   5.043  -4.758  1.00  0.00     0.022 A 
BRANCH  75  79
ATOM     79  S   UNL     1     -12.254   6.436  -4.189  1.00  0.00     0.124 S 
ATOM     80  O   UNL     1     -12.601   7.333  -5.286  1.00  0.00    -0.237 OA
ATOM     81  O   UNL     1     -13.352   5.647  -3.634  1.00  0.00    -0.237 OA
ATOM     82  O   UNL     1     -11.338   6.984  -3.194  1.00  0.00    -0.744 OA
ENDBRANCH  75  79
ENDBRANCH  48  72
BRANCH  60  83
ATOM     83  C   UNL     1     -10.734  -4.060  -7.985  1.00  0.00     0.023 A 
ATOM     84  C   UNL     1     -10.159  -3.809  -9.231  1.00  0.00     0.031 A 
ATOM     85  C   UNL     1     -10.674  -5.415  -7.560  1.00  0.00     0.131 A 
ATOM     86  C   UNL     1      -9.668  -4.845 -10.038  1.00  0.00     0.055 A 
ATOM     87  C   UNL     1     -10.093  -6.433  -8.321  1.00  0.00     0.041 A 
ATOM     88  F   UNL     1     -11.150  -5.821  -6.375  1.00  0.00    -0.206 F 
ATOM     89  C   UNL     1      -9.605  -6.156  -9.584  1.00  0.00     0.022 A 
BRANCH  86  90
ATOM     90  S   UNL     1      -9.201  -4.420 -11.731  1.00  0.00     0.124 S 
ATOM     91  O   UNL     1     -10.462  -3.917 -12.271  1.00  0.00    -0.237 OA
ATOM     92  O   UNL     1      -8.160  -3.418 -11.526  1.00  0.00    -0.237 OA
ATOM     93  O   UNL     1      -8.746  -5.690 -12.291  1.00  0.00    -0.744 OA
ENDBRANCH  86  90
ENDBRANCH  60  83
ENDBRANCH  34  35
ENDBRANCH  27  29
ENDBRANCH  26  27
ENDBRANCH   1  26
TORSDOF 16
