REMARK SMILES O=C(OCCOC(=O)c1nnn(-c2ccc(C(F)(F)F)cc2)c1-c1cccc(Cl)c1)c1ccc(-c2c3nc(c(-c4cc(S(=O)(=O)[O-])ccc4F)c4ccc([nH]4)c(-c4cc(S(=O)(=O)[O-])ccc4F)c4nc(c(-c5cc(S(=O)(=O)[O-])ccc5F)c5ccc2[nH]5)C=C4)C=C3)cc1
REMARK SMILES IDX 4 1 3 2 2 3 1 4 31 5 32 6 93 7 33 8 92 9 34 10 35 11 36 12
REMARK SMILES IDX 86 13 37 14 91 15 85 16 87 17 38 18 90 19 84 20 83 21 39 23
REMARK SMILES IDX 71 24 51 25 70 26 52 27 55 28 69 29 88 30 53 31 54 32 68 34
REMARK SMILES IDX 89 35 56 36 40 37 41 38 49 39 42 40 48 41 50 42 47 43 43 44
REMARK SMILES IDX 44 45 45 46 46 47 72 48 73 49 81 50 74 51 80 52 82 53 79 54
REMARK SMILES IDX 75 55 76 56 77 57 78 58 57 59 58 60 66 61 59 62 65 63 67 64
REMARK SMILES IDX 64 65 60 66 61 67 62 68 63 69 5 70 6 71 7 72 8 73 9 74 10 75
REMARK SMILES IDX 23 76 11 77 12 78 24 79 25 80 30 81 26 82 28 83 27 84 29 85
REMARK SMILES IDX 13 86 14 87 22 88 15 89 21 90 16 91 17 92 18 93 19 94 20 95
REMARK H PARENT 87 22 55 33
REMARK Flexibility Score: inf
ROOT
ATOM      1  C   UNL     1       4.669  -1.302   0.352  1.00  0.00     0.275 C 
ENDROOT
BRANCH   1   2
ATOM      2  O   UNL     1       3.576  -1.252   1.292  1.00  0.00    -0.458 OA
BRANCH   2   3
ATOM      3  C   UNL     1       2.432  -0.636   0.915  1.00  0.00     0.338 C 
ATOM      4  O   UNL     1       1.596  -1.126   0.176  1.00  0.00    -0.246 OA
BRANCH   3   5
ATOM      5  C   UNL     1       2.299   0.685   1.570  1.00  0.00     0.060 A 
ATOM      6  C   UNL     1       3.418   1.353   2.085  1.00  0.00     0.016 A 
ATOM      7  C   UNL     1       1.030   1.271   1.648  1.00  0.00     0.016 A 
ATOM      8  C   UNL     1       3.262   2.572   2.723  1.00  0.00     0.010 A 
ATOM      9  C   UNL     1       0.873   2.492   2.298  1.00  0.00     0.010 A 
ATOM     10  C   UNL     1       1.988   3.127   2.854  1.00  0.00    -0.014 A 
BRANCH  10  11
ATOM     11  C   UNL     1       1.891   4.410   3.543  1.00  0.00     0.031 A 
ATOM     12  C   UNL     1       2.425   5.597   2.823  1.00  0.00     0.074 A 
ATOM     13  C   UNL     1       1.258   4.565   4.721  1.00  0.00     0.049 A 
ATOM     14  N   UNL     1       3.334   6.429   3.216  1.00  0.00    -0.248 NA
ATOM     15  C   UNL     1       1.918   5.862   1.470  1.00  0.00     0.031 C 
ATOM     16  C   UNL     1       0.444   3.570   5.419  1.00  0.00     0.029 A 
ATOM     17  N   UNL     1       1.115   5.689   5.486  1.00  0.00    -0.354 N 
ATOM     18  C   UNL     1       3.359   7.450   2.269  1.00  0.00     0.074 A 
ATOM     19  C   UNL     1       2.575   6.979   1.158  1.00  0.00     0.031 C 
ATOM     20  C   UNL     1      -0.284   4.190   6.372  1.00  0.00     0.029 A 
ATOM     21  C   UNL     1       0.097   5.593   6.425  1.00  0.00     0.049 A 
ATOM     22  H   UNL     1       1.678   6.490   5.380  1.00  0.00     0.167 HD
ATOM     23  C   UNL     1       3.855   8.685   2.561  1.00  0.00     0.034 A 
ATOM     24  C   UNL     1      -0.461   6.599   7.144  1.00  0.00     0.034 A 
ATOM     25  C   UNL     1       4.757   8.642   3.691  1.00  0.00     0.049 A 
ATOM     26  C   UNL     1       0.510   7.716   7.202  1.00  0.00     0.074 A 
ATOM     27  C   UNL     1       5.896   7.917   3.994  1.00  0.00     0.029 A 
ATOM     28  N   UNL     1       4.376   9.221   4.880  1.00  0.00    -0.354 N 
ATOM     29  N   UNL     1       1.644   7.661   7.844  1.00  0.00    -0.248 NA
ATOM     30  C   UNL     1       0.407   8.789   6.225  1.00  0.00     0.031 C 
ATOM     31  C   UNL     1       5.834   7.691   5.400  1.00  0.00     0.029 A 
ATOM     32  C   UNL     1       4.689   8.330   5.876  1.00  0.00     0.049 A 
ATOM     33  H   UNL     1       3.958  10.105   4.995  1.00  0.00     0.167 HD
ATOM     34  C   UNL     1       2.529   8.398   7.075  1.00  0.00     0.074 A 
ATOM     35  C   UNL     1       1.685   9.173   6.173  1.00  0.00     0.031 C 
ATOM     36  C   UNL     1       3.861   8.097   7.044  1.00  0.00     0.034 A 
BRANCH  23  37
ATOM     37  C   UNL     1       3.266   9.987   2.046  1.00  0.00     0.023 A 
ATOM     38  C   UNL     1       3.864  11.185   2.486  1.00  0.00     0.031 A 
ATOM     39  C   UNL     1       2.004  10.132   1.426  1.00  0.00     0.131 A 
ATOM     40  C   UNL     1       3.168  12.405   2.439  1.00  0.00     0.055 A 
ATOM     41  C   UNL     1       1.351  11.364   1.304  1.00  0.00     0.041 A 
ATOM     42  F   UNL     1       1.290   9.091   0.983  1.00  0.00    -0.206 F 
ATOM     43  C   UNL     1       1.913  12.504   1.850  1.00  0.00     0.022 A 
BRANCH  40  44
ATOM     44  S   UNL     1       3.842  13.805   3.372  1.00  0.00     0.124 S 
ATOM     45  O   UNL     1       4.062  13.198   4.681  1.00  0.00    -0.237 OA
ATOM     46  O   UNL     1       5.038  14.128   2.601  1.00  0.00    -0.237 OA
ATOM     47  O   UNL     1       2.772  14.797   3.313  1.00  0.00    -0.744 OA
ENDBRANCH  40  44
ENDBRANCH  23  37
BRANCH  24  48
ATOM     48  C   UNL     1      -1.879   6.708   7.573  1.00  0.00     0.023 A 
ATOM     49  C   UNL     1      -2.291   7.568   8.608  1.00  0.00     0.031 A 
ATOM     50  C   UNL     1      -2.902   6.103   6.806  1.00  0.00     0.131 A 
ATOM     51  C   UNL     1      -3.667   7.776   8.853  1.00  0.00     0.055 A 
ATOM     52  C   UNL     1      -4.259   6.291   7.067  1.00  0.00     0.041 A 
ATOM     53  F   UNL     1      -2.618   5.371   5.716  1.00  0.00    -0.206 F 
ATOM     54  C   UNL     1      -4.648   7.135   8.092  1.00  0.00     0.022 A 
BRANCH  51  55
ATOM     55  S   UNL     1      -4.203   8.990  10.098  1.00  0.00     0.124 S 
ATOM     56  O   UNL     1      -3.918   8.299  11.349  1.00  0.00    -0.237 OA
ATOM     57  O   UNL     1      -3.370  10.147   9.790  1.00  0.00    -0.237 OA
ATOM     58  O   UNL     1      -5.626   9.170   9.804  1.00  0.00    -0.744 OA
ENDBRANCH  51  55
ENDBRANCH  24  48
BRANCH  36  59
ATOM     59  C   UNL     1       4.445   7.234   8.141  1.00  0.00     0.023 A 
ATOM     60  C   UNL     1       3.963   5.956   8.498  1.00  0.00     0.031 A 
ATOM     61  C   UNL     1       5.617   7.687   8.776  1.00  0.00     0.131 A 
ATOM     62  C   UNL     1       4.637   5.193   9.470  1.00  0.00     0.055 A 
ATOM     63  C   UNL     1       6.293   6.922   9.726  1.00  0.00     0.041 A 
ATOM     64  F   UNL     1       6.149   8.880   8.457  1.00  0.00    -0.206 F 
ATOM     65  C   UNL     1       5.799   5.673  10.083  1.00  0.00     0.022 A 
BRANCH  62  66
ATOM     66  S   UNL     1       4.002   3.561   9.968  1.00  0.00     0.124 S 
ATOM     67  O   UNL     1       2.569   3.779  10.118  1.00  0.00    -0.237 OA
ATOM     68  O   UNL     1       4.409   2.715   8.849  1.00  0.00    -0.237 OA
ATOM     69  O   UNL     1       4.712   3.291  11.220  1.00  0.00    -0.744 OA
ENDBRANCH  62  66
ENDBRANCH  36  59
ENDBRANCH  10  11
ENDBRANCH   3   5
ENDBRANCH   2   3
ENDBRANCH   1   2
BRANCH   1  70
ATOM     70  C   UNL     1       4.326  -1.106  -1.122  1.00  0.00     0.275 C 
BRANCH  70  71
ATOM     71  O   UNL     1       3.882   0.244  -1.339  1.00  0.00    -0.457 OA
BRANCH  71  72
ATOM     72  C   UNL     1       2.841   0.391  -2.211  1.00  0.00     0.361 C 
ATOM     73  O   UNL     1       2.296  -0.522  -2.818  1.00  0.00    -0.244 OA
BRANCH  72  74
ATOM     74  C   UNL     1       2.623   1.779  -2.546  1.00  0.00     0.198 A 
ATOM     75  N   UNL     1       1.732   2.631  -1.944  1.00  0.00    -0.122 NA
ATOM     76  C   UNL     1       3.317   2.455  -3.529  1.00  0.00     0.109 A 
ATOM     77  N   UNL     1       1.831   3.818  -2.543  1.00  0.00    -0.061 NA
ATOM     78  N   UNL     1       2.664   3.672  -3.595  1.00  0.00    -0.212 N 
BRANCH  76  79
ATOM     79  C   UNL     1       4.495   2.076  -4.302  1.00  0.00     0.004 A 
ATOM     80  C   UNL     1       5.640   2.888  -4.271  1.00  0.00     0.010 A 
ATOM     81  C   UNL     1       4.507   0.903  -5.062  1.00  0.00     0.031 A 
ATOM     82  C   UNL     1       6.773   2.545  -5.008  1.00  0.00     0.002 A 
ATOM     83  C   UNL     1       5.645   0.563  -5.792  1.00  0.00     0.041 A 
ATOM     84  C   UNL     1       6.774   1.380  -5.772  1.00  0.00     0.020 A 
ATOM     85  Cl  UNL     1       5.652  -0.877  -6.733  1.00  0.00    -0.084 Cl
ENDBRANCH  76  79
BRANCH  78  86
ATOM     86  C   UNL     1       2.788   4.619  -4.632  1.00  0.00     0.067 A 
ATOM     87  C   UNL     1       3.067   5.953  -4.340  1.00  0.00     0.029 A 
ATOM     88  C   UNL     1       2.797   4.153  -5.954  1.00  0.00     0.029 A 
ATOM     89  C   UNL     1       3.485   6.790  -5.382  1.00  0.00     0.015 A 
ATOM     90  C   UNL     1       3.180   4.999  -6.987  1.00  0.00     0.015 A 
ATOM     91  C   UNL     1       3.574   6.313  -6.706  1.00  0.00     0.056 A 
BRANCH  91  92
ATOM     92  C   UNL     1       4.143   7.180  -7.803  1.00  0.00     0.416 C 
ATOM     93  F   UNL     1       3.474   8.353  -7.958  1.00  0.00    -0.166 F 
ATOM     94  F   UNL     1       5.445   7.511  -7.577  1.00  0.00    -0.166 F 
ATOM     95  F   UNL     1       4.128   6.579  -9.028  1.00  0.00    -0.166 F 
ENDBRANCH  91  92
ENDBRANCH  78  86
ENDBRANCH  72  74
ENDBRANCH  71  72
ENDBRANCH  70  71
ENDBRANCH   1  70
TORSDOF 17
