REMARK SMILES CCCCCCCNC(=O)Oc1cccc(-c2ccc([C@@H](C)C(=O)OCCOC(=O)c3ccc(-c4c5nc(c(-c6cc(S(=O)(=O)[O-])ccc6F)c6ccc([nH]6)c(-c6cc(S(=O)(=O)[O-])ccc6F)c6nc(c(-c7cc(S(=O)(=O)[O-])ccc7F)c7ccc4[nH]7)C=C6)C=C5)cc3)cc2F)c1
REMARK SMILES IDX 21 1 22 2 20 3 17 4 18 5 95 6 19 7 94 8 96 9 16 10 12 11
REMARK SMILES IDX 13 12 97 13 14 14 15 15 11 16 9 17 8 18 10 20 7 21 6 22 5 23
REMARK SMILES IDX 4 24 3 25 2 26 1 27 23 28 24 29 25 30 26 31 27 32 28 33
REMARK SMILES IDX 29 34 30 35 31 36 32 37 93 38 33 39 92 40 34 41 35 42 36 43
REMARK SMILES IDX 86 44 37 45 91 46 85 47 87 48 38 49 90 50 84 51 83 52 39 54
REMARK SMILES IDX 71 55 51 56 70 57 52 58 55 59 69 60 88 61 53 62 54 63 68 65
REMARK SMILES IDX 89 66 56 67 40 68 41 69 49 70 42 71 48 72 50 73 47 74 43 75
REMARK SMILES IDX 44 76 45 77 46 78 72 79 73 80 81 81 74 82 80 83 82 84 79 85
REMARK SMILES IDX 75 86 76 87 77 88 78 89 57 90 58 91 66 92 59 93 65 94 67 95
REMARK SMILES IDX 64 96 60 97 61 98 62 99 63 100
REMARK H PARENT 8 19 87 53 55 64
REMARK Flexibility Score: inf
ROOT
ATOM      1  C   UNL     1     -10.650   9.763  -4.369  1.00  0.00     0.126 C 
ATOM      2  C   UNL     1     -11.405  11.074  -4.154  1.00  0.00     0.025 C 
ENDROOT
BRANCH   1   3
ATOM      3  C   UNL     1      -9.309   9.744  -3.651  1.00  0.00    -0.031 A 
ATOM      4  C   UNL     1      -6.826   9.681  -2.249  1.00  0.00     0.018 A 
ATOM      5  C   UNL     1      -7.100  10.673  -3.205  1.00  0.00     0.012 A 
ATOM      6  C   UNL     1      -7.816   8.717  -2.026  1.00  0.00     0.131 A 
ATOM      7  C   UNL     1      -8.321  10.709  -3.890  1.00  0.00     0.005 A 
ATOM      8  C   UNL     1      -9.035   8.745  -2.706  1.00  0.00     0.044 A 
ATOM      9  F   UNL     1      -7.629   7.753  -1.111  1.00  0.00    -0.206 F 
BRANCH   4  10
ATOM     10  C   UNL     1      -5.559   9.687  -1.498  1.00  0.00    -0.012 A 
ATOM     11  C   UNL     1      -3.554   8.587  -0.684  1.00  0.00     0.133 A 
ATOM     12  C   UNL     1      -3.158   9.739  -0.010  1.00  0.00     0.047 A 
ATOM     13  C   UNL     1      -4.747   8.544  -1.410  1.00  0.00     0.056 A 
ATOM     14  C   UNL     1      -3.952  10.878  -0.085  1.00  0.00     0.004 A 
ATOM     15  C   UNL     1      -5.139  10.851  -0.823  1.00  0.00     0.009 A 
BRANCH  11  16
ATOM     16  O   UNL     1      -2.769   7.440  -0.493  1.00  0.00    -0.410 OA
BRANCH  16  17
ATOM     17  C   UNL     1      -2.247   6.827  -1.622  1.00  0.00     0.412 C 
ATOM     18  N   UNL     1      -1.515   5.706  -1.334  1.00  0.00    -0.321 N 
ATOM     19  H   UNL     1      -1.144   5.214  -2.102  1.00  0.00     0.167 HD
ATOM     20  O   UNL     1      -2.359   7.224  -2.776  1.00  0.00    -0.224 OA
BRANCH  18  21
ATOM     21  C   UNL     1      -1.229   5.166  -0.018  1.00  0.00     0.119 C 
BRANCH  21  22
ATOM     22  C   UNL     1      -1.705   3.724   0.146  1.00  0.00     0.021 C 
BRANCH  22  23
ATOM     23  C   UNL     1      -1.061   2.711  -0.810  1.00  0.00     0.002 C 
BRANCH  23  24
ATOM     24  C   UNL     1       0.468   2.625  -0.756  1.00  0.00     0.000 C 
BRANCH  24  25
ATOM     25  C   UNL     1       1.060   2.230   0.601  1.00  0.00    -0.000 C 
BRANCH  25  26
ATOM     26  C   UNL     1       0.619   0.867   1.140  1.00  0.00    -0.003 C 
ATOM     27  C   UNL     1       0.998  -0.295   0.234  1.00  0.00     0.004 C 
ENDBRANCH  25  26
ENDBRANCH  24  25
ENDBRANCH  23  24
ENDBRANCH  22  23
ENDBRANCH  21  22
ENDBRANCH  18  21
ENDBRANCH  16  17
ENDBRANCH  11  16
ENDBRANCH   4  10
ENDBRANCH   1   3
BRANCH   1  28
ATOM     28  C   UNL     1     -10.626   9.423  -5.856  1.00  0.00     0.313 C 
ATOM     29  O   UNL     1     -11.596   8.936  -6.429  1.00  0.00    -0.252 OA
BRANCH  28  30
ATOM     30  O   UNL     1      -9.469   9.766  -6.481  1.00  0.00    -0.462 OA
BRANCH  30  31
ATOM     31  C   UNL     1      -9.354   9.414  -7.873  1.00  0.00     0.274 C 
BRANCH  31  32
ATOM     32  C   UNL     1      -8.504   8.155  -8.067  1.00  0.00     0.275 C 
BRANCH  32  33
ATOM     33  O   UNL     1      -9.185   6.978  -7.596  1.00  0.00    -0.458 OA
BRANCH  33  34
ATOM     34  C   UNL     1      -8.912   6.649  -6.311  1.00  0.00     0.338 C 
ATOM     35  O   UNL     1      -8.140   7.215  -5.559  1.00  0.00    -0.246 OA
BRANCH  34  36
ATOM     36  C   UNL     1      -9.791   5.555  -5.873  1.00  0.00     0.060 A 
ATOM     37  C   UNL     1     -10.664   5.805  -4.811  1.00  0.00     0.016 A 
ATOM     38  C   UNL     1      -9.680   4.274  -6.415  1.00  0.00     0.016 A 
ATOM     39  C   UNL     1     -11.407   4.769  -4.257  1.00  0.00     0.010 A 
ATOM     40  C   UNL     1     -10.435   3.233  -5.863  1.00  0.00     0.010 A 
ATOM     41  C   UNL     1     -11.281   3.470  -4.764  1.00  0.00    -0.014 A 
BRANCH  41  42
ATOM     42  C   UNL     1     -11.959   2.349  -4.069  1.00  0.00     0.031 A 
ATOM     43  C   UNL     1     -11.149   1.420  -3.207  1.00  0.00     0.074 A 
ATOM     44  C   UNL     1     -13.291   2.195  -4.174  1.00  0.00     0.049 A 
ATOM     45  N   UNL     1     -11.523   0.345  -2.564  1.00  0.00    -0.248 NA
ATOM     46  C   UNL     1      -9.724   1.749  -3.057  1.00  0.00     0.031 C 
ATOM     47  C   UNL     1     -14.183   3.070  -4.937  1.00  0.00     0.029 A 
ATOM     48  N   UNL     1     -14.127   1.250  -3.637  1.00  0.00    -0.354 N 
ATOM     49  C   UNL     1     -10.377  -0.145  -1.946  1.00  0.00     0.074 A 
ATOM     50  C   UNL     1      -9.291   0.739  -2.318  1.00  0.00     0.031 C 
ATOM     51  C   UNL     1     -15.443   2.620  -4.816  1.00  0.00     0.029 A 
ATOM     52  C   UNL     1     -15.442   1.403  -4.008  1.00  0.00     0.049 A 
ATOM     53  H   UNL     1     -13.815   0.530  -3.042  1.00  0.00     0.167 HD
ATOM     54  C   UNL     1     -10.245  -1.231  -1.143  1.00  0.00     0.034 A 
ATOM     55  C   UNL     1     -16.517   0.634  -3.746  1.00  0.00     0.034 A 
ATOM     56  C   UNL     1     -11.342  -2.102  -0.789  1.00  0.00     0.049 A 
ATOM     57  C   UNL     1     -16.340  -0.596  -2.893  1.00  0.00     0.074 A 
ATOM     58  C   UNL     1     -11.325  -3.243  -0.005  1.00  0.00     0.029 A 
ATOM     59  N   UNL     1     -12.659  -1.928  -1.202  1.00  0.00    -0.354 N 
ATOM     60  N   UNL     1     -15.245  -1.072  -2.345  1.00  0.00    -0.248 NA
ATOM     61  C   UNL     1     -17.545  -1.388  -2.617  1.00  0.00     0.031 C 
ATOM     62  C   UNL     1     -12.616  -3.785   0.013  1.00  0.00     0.029 A 
ATOM     63  C   UNL     1     -13.457  -2.947  -0.702  1.00  0.00     0.049 A 
ATOM     64  H   UNL     1     -12.979  -1.188  -1.767  1.00  0.00     0.167 HD
ATOM     65  C   UNL     1     -15.637  -2.204  -1.635  1.00  0.00     0.074 A 
ATOM     66  C   UNL     1     -17.069  -2.329  -1.815  1.00  0.00     0.031 C 
ATOM     67  C   UNL     1     -14.884  -3.060  -0.898  1.00  0.00     0.034 A 
BRANCH  54  68
ATOM     68  C   UNL     1      -8.852  -1.564  -0.660  1.00  0.00     0.023 A 
ATOM     69  C   UNL     1      -8.131  -0.707   0.191  1.00  0.00     0.031 A 
ATOM     70  C   UNL     1      -8.214  -2.736  -1.104  1.00  0.00     0.131 A 
ATOM     71  C   UNL     1      -6.794  -0.995   0.508  1.00  0.00     0.055 A 
ATOM     72  C   UNL     1      -6.910  -3.057  -0.721  1.00  0.00     0.041 A 
ATOM     73  F   UNL     1      -8.840  -3.582  -1.938  1.00  0.00    -0.206 F 
ATOM     74  C   UNL     1      -6.186  -2.176   0.077  1.00  0.00     0.022 A 
BRANCH  71  75
ATOM     75  S   UNL     1      -5.808   0.264   1.369  1.00  0.00     0.124 S 
ATOM     76  O   UNL     1      -5.889   1.389   0.441  1.00  0.00    -0.237 OA
ATOM     77  O   UNL     1      -6.525   0.419   2.629  1.00  0.00    -0.237 OA
ATOM     78  O   UNL     1      -4.485  -0.348   1.476  1.00  0.00    -0.744 OA
ENDBRANCH  71  75
ENDBRANCH  54  68
BRANCH  55  79
ATOM     79  C   UNL     1     -17.848   0.977  -4.323  1.00  0.00     0.023 A 
ATOM     80  C   UNL     1     -18.927   1.336  -3.502  1.00  0.00     0.031 A 
ATOM     81  C   UNL     1     -18.067   0.906  -5.711  1.00  0.00     0.131 A 
ATOM     82  C   UNL     1     -20.189   1.572  -4.071  1.00  0.00     0.055 A 
ATOM     83  C   UNL     1     -19.311   1.189  -6.276  1.00  0.00     0.041 A 
ATOM     84  F   UNL     1     -17.067   0.569  -6.540  1.00  0.00    -0.206 F 
ATOM     85  C   UNL     1     -20.385   1.513  -5.452  1.00  0.00     0.022 A 
BRANCH  82  86
ATOM     86  S   UNL     1     -21.595   1.887  -2.968  1.00  0.00     0.124 S 
ATOM     87  O   UNL     1     -21.613   0.676  -2.155  1.00  0.00    -0.237 OA
ATOM     88  O   UNL     1     -21.180   3.110  -2.289  1.00  0.00    -0.237 OA
ATOM     89  O   UNL     1     -22.721   2.039  -3.887  1.00  0.00    -0.744 OA
ENDBRANCH  82  86
ENDBRANCH  55  79
BRANCH  67  90
ATOM     90  C   UNL     1     -15.618  -4.170  -0.187  1.00  0.00     0.023 A 
ATOM     91  C   UNL     1     -16.240  -5.218  -0.889  1.00  0.00     0.031 A 
ATOM     92  C   UNL     1     -15.724  -4.158   1.215  1.00  0.00     0.131 A 
ATOM     93  C   UNL     1     -16.991  -6.177  -0.192  1.00  0.00     0.055 A 
ATOM     94  C   UNL     1     -16.425  -5.145   1.907  1.00  0.00     0.041 A 
ATOM     95  F   UNL     1     -15.151  -3.179   1.934  1.00  0.00    -0.206 F 
ATOM     96  C   UNL     1     -17.076  -6.154   1.203  1.00  0.00     0.022 A 
BRANCH  93  97
ATOM     97  S   UNL     1     -17.941  -7.399  -1.138  1.00  0.00     0.124 S 
ATOM     98  O   UNL     1     -18.765  -6.550  -1.992  1.00  0.00    -0.237 OA
ATOM     99  O   UNL     1     -16.891  -8.154  -1.813  1.00  0.00    -0.237 OA
ATOM    100  O   UNL     1     -18.671  -8.137  -0.109  1.00  0.00    -0.744 OA
ENDBRANCH  93  97
ENDBRANCH  67  90
ENDBRANCH  41  42
ENDBRANCH  34  36
ENDBRANCH  33  34
ENDBRANCH  32  33
ENDBRANCH  31  32
ENDBRANCH  30  31
ENDBRANCH  28  30
ENDBRANCH   1  28
TORSDOF 24
