REMARK SMILES CC(=O)C1=C(c2ccccc2)NC(=S)N[C@@H]1c1cc(Cl)ccc1OCC(=O)OCCOC(=O)c1ccc(-c2c3nc(c(-c4cc(S(=O)(=O)[O-])ccc4F)c4ccc([nH]4)c(-c4cc(S(=O)(=O)[O-])ccc4F)c4nc(c(-c5cc(S(=O)(=O)[O-])ccc5F)c5ccc2[nH]5)C=C4)C=C3)cc1
REMARK SMILES IDX 29 1 28 2 26 3 27 4 25 5 24 6 23 7 17 8 18 9 19 10 22 11
REMARK SMILES IDX 20 12 21 13 16 14 4 15 5 16 12 17 15 18 13 19 14 22 2 23
REMARK SMILES IDX 1 24 3 25 6 26 7 27 11 28 8 29 10 30 9 31 30 32 31 33 32 34
REMARK SMILES IDX 33 35 34 36 35 37 96 38 36 39 95 40 37 41 38 42 39 43 89 44
REMARK SMILES IDX 40 45 94 46 88 47 90 48 41 49 93 50 87 51 86 52 42 54 74 55
REMARK SMILES IDX 54 56 73 57 55 58 58 59 72 60 91 61 56 62 57 63 71 65 92 66
REMARK SMILES IDX 59 67 43 68 44 69 52 70 45 71 51 72 53 73 50 74 46 75 47 76
REMARK SMILES IDX 48 77 49 78 75 79 76 80 84 81 77 82 83 83 85 84 82 85 78 86
REMARK SMILES IDX 79 87 80 88 81 89 60 90 61 91 69 92 62 93 68 94 70 95 67 96
REMARK SMILES IDX 63 97 64 98 65 99 66 100
REMARK H PARENT 12 20 15 21 90 53 58 64
REMARK Flexibility Score: inf
ROOT
ATOM      1  C   UNL     1       3.761  -4.897  -5.371  1.00  0.00     0.274 C 
ENDROOT
BRANCH   1   2
ATOM      2  O   UNL     1       4.525  -4.131  -4.408  1.00  0.00    -0.460 OA
BRANCH   2   3
ATOM      3  C   UNL     1       5.051  -2.965  -4.866  1.00  0.00     0.344 C 
ATOM      4  O   UNL     1       5.041  -2.607  -6.040  1.00  0.00    -0.248 OA
BRANCH   3   5
ATOM      5  C   UNL     1       5.547  -2.023  -3.756  1.00  0.00     0.351 C 
BRANCH   5   6
ATOM      6  O   UNL     1       5.935  -2.449  -2.492  1.00  0.00    -0.482 OA
BRANCH   6   7
ATOM      7  C   UNL     1       5.139  -2.909  -1.498  1.00  0.00     0.125 A 
ATOM      8  C   UNL     1       3.756  -3.095  -1.334  1.00  0.00     0.023 A 
ATOM      9  C   UNL     1       3.393  -3.849  -0.174  1.00  0.00     0.030 A 
ATOM     10  C   UNL     1       4.266  -4.162   0.867  1.00  0.00     0.041 A 
ATOM     11  C   UNL     1       6.020  -3.271  -0.438  1.00  0.00     0.048 A 
ATOM     12  Cl  UNL     1       3.661  -4.871   2.310  1.00  0.00    -0.084 Cl
ATOM     13  C   UNL     1       5.593  -3.838   0.755  1.00  0.00     0.024 A 
BRANCH   8  14
ATOM     14  C   UNL     1       2.528  -2.349  -2.002  1.00  0.00     0.152 C 
ATOM     15  C   UNL     1       0.735  -2.991  -1.415  1.00  0.00     0.046 C 
ATOM     16  C   UNL     1      -0.458  -3.369  -2.494  1.00  0.00     0.057 C 
ATOM     17  N   UNL     1      -0.281  -2.866  -4.168  1.00  0.00    -0.332 N 
ATOM     18  N   UNL     1       2.561  -2.071  -3.905  1.00  0.00    -0.351 N 
ATOM     19  C   UNL     1       1.117  -2.109  -4.990  1.00  0.00     0.171 C 
ATOM     20  H   UNL     1      -1.067  -3.024  -4.738  1.00  0.00     0.169 HD
ATOM     21  H   UNL     1       3.435  -1.893  -4.322  1.00  0.00     0.163 HD
ATOM     22  S   UNL     1       1.112  -1.603  -6.578  1.00  0.00    -0.041 S 
BRANCH  15  23
ATOM     23  C   UNL     1       0.492  -2.626   0.044  1.00  0.00     0.160 C 
ATOM     24  C   UNL     1       1.347  -1.512   0.662  1.00  0.00     0.093 C 
ATOM     25  O   UNL     1      -0.440  -3.135   0.657  1.00  0.00    -0.295 OA
ENDBRANCH  15  23
BRANCH  16  26
ATOM     26  C   UNL     1      -1.955  -3.605  -2.295  1.00  0.00    -0.002 A 
ATOM     27  C   UNL     1      -2.508  -4.736  -1.718  1.00  0.00     0.010 A 
ATOM     28  C   UNL     1      -2.865  -2.593  -2.733  1.00  0.00     0.010 A 
ATOM     29  C   UNL     1      -3.895  -4.785  -1.476  1.00  0.00     0.001 A 
ATOM     30  C   UNL     1      -4.211  -2.586  -2.390  1.00  0.00     0.001 A 
ATOM     31  C   UNL     1      -4.729  -3.693  -1.750  1.00  0.00     0.000 A 
ENDBRANCH  16  26
ENDBRANCH   8  14
ENDBRANCH   6   7
ENDBRANCH   5   6
ENDBRANCH   3   5
ENDBRANCH   2   3
ENDBRANCH   1   2
BRANCH   1  32
ATOM     32  C   UNL     1       2.416  -5.322  -4.784  1.00  0.00     0.275 C 
BRANCH  32  33
ATOM     33  O   UNL     1       1.578  -4.142  -4.659  1.00  0.00    -0.458 OA
BRANCH  33  34
ATOM     34  C   UNL     1       1.437  -3.490  -3.349  1.00  0.00     0.338 C 
ATOM     35  O   UNL     1       1.824  -4.398  -2.564  1.00  0.00    -0.246 OA
BRANCH  34  36
ATOM     36  C   UNL     1       0.799  -1.494  -2.973  1.00  0.00     0.060 A 
ATOM     37  C   UNL     1       1.466  -0.155  -3.200  1.00  0.00     0.016 A 
ATOM     38  C   UNL     1      -0.385  -1.002  -2.215  1.00  0.00     0.016 A 
ATOM     39  C   UNL     1       1.215   1.084  -2.519  1.00  0.00     0.010 A 
ATOM     40  C   UNL     1      -0.788   0.212  -1.715  1.00  0.00     0.010 A 
ATOM     41  C   UNL     1       0.100   1.228  -1.710  1.00  0.00    -0.014 A 
BRANCH  41  42
ATOM     42  C   UNL     1      -0.485   2.426  -1.126  1.00  0.00     0.031 A 
ATOM     43  C   UNL     1      -0.910   2.472   0.328  1.00  0.00     0.074 A 
ATOM     44  C   UNL     1      -1.041   3.198  -2.072  1.00  0.00     0.049 A 
ATOM     45  N   UNL     1      -1.450   3.450   0.999  1.00  0.00    -0.248 NA
ATOM     46  C   UNL     1      -0.761   1.244   1.133  1.00  0.00     0.031 C 
ATOM     47  C   UNL     1      -0.937   2.949  -3.523  1.00  0.00     0.029 A 
ATOM     48  N   UNL     1      -1.859   4.270  -1.982  1.00  0.00    -0.354 N 
ATOM     49  C   UNL     1      -1.634   2.974   2.300  1.00  0.00     0.074 A 
ATOM     50  C   UNL     1      -1.204   1.603   2.327  1.00  0.00     0.031 C 
ATOM     51  C   UNL     1      -1.595   3.898  -4.184  1.00  0.00     0.029 A 
ATOM     52  C   UNL     1      -2.201   4.777  -3.208  1.00  0.00     0.049 A 
ATOM     53  H   UNL     1      -2.175   4.646  -1.129  1.00  0.00     0.167 HD
ATOM     54  C   UNL     1      -2.164   3.631   3.358  1.00  0.00     0.034 A 
ATOM     55  C   UNL     1      -2.917   5.868  -3.495  1.00  0.00     0.034 A 
ATOM     56  C   UNL     1      -2.790   4.914   3.175  1.00  0.00     0.049 A 
ATOM     57  C   UNL     1      -3.397   6.644  -2.315  1.00  0.00     0.074 A 
ATOM     58  C   UNL     1      -3.331   5.771   4.110  1.00  0.00     0.029 A 
ATOM     59  N   UNL     1      -3.020   5.484   1.922  1.00  0.00    -0.354 N 
ATOM     60  N   UNL     1      -3.325   6.324  -1.039  1.00  0.00    -0.248 NA
ATOM     61  C   UNL     1      -4.013   7.932  -2.600  1.00  0.00     0.031 C 
ATOM     62  C   UNL     1      -3.967   6.807   3.415  1.00  0.00     0.029 A 
ATOM     63  C   UNL     1      -3.731   6.657   2.053  1.00  0.00     0.049 A 
ATOM     64  H   UNL     1      -2.717   5.102   1.066  1.00  0.00     0.167 HD
ATOM     65  C   UNL     1      -3.885   7.387  -0.354  1.00  0.00     0.074 A 
ATOM     66  C   UNL     1      -4.242   8.369  -1.371  1.00  0.00     0.031 C 
ATOM     67  C   UNL     1      -4.102   7.549   0.978  1.00  0.00     0.034 A 
BRANCH  54  68
ATOM     68  C   UNL     1      -2.134   2.961   4.718  1.00  0.00     0.023 A 
ATOM     69  C   UNL     1      -0.919   2.544   5.302  1.00  0.00     0.031 A 
ATOM     70  C   UNL     1      -3.312   2.721   5.449  1.00  0.00     0.131 A 
ATOM     71  C   UNL     1      -0.913   1.874   6.538  1.00  0.00     0.055 A 
ATOM     72  C   UNL     1      -3.294   2.116   6.711  1.00  0.00     0.041 A 
ATOM     73  F   UNL     1      -4.510   3.053   4.943  1.00  0.00    -0.206 F 
ATOM     74  C   UNL     1      -2.091   1.680   7.260  1.00  0.00     0.022 A 
BRANCH  71  75
ATOM     75  S   UNL     1       0.643   1.147   7.131  1.00  0.00     0.124 S 
ATOM     76  O   UNL     1       0.987   0.246   6.033  1.00  0.00    -0.237 OA
ATOM     77  O   UNL     1       1.499   2.317   7.285  1.00  0.00    -0.237 OA
ATOM     78  O   UNL     1       0.262   0.485   8.377  1.00  0.00    -0.744 OA
ENDBRANCH  71  75
ENDBRANCH  54  68
BRANCH  55  79
ATOM     79  C   UNL     1      -3.033   6.299  -4.906  1.00  0.00     0.023 A 
ATOM     80  C   UNL     1      -2.367   7.452  -5.337  1.00  0.00     0.031 A 
ATOM     81  C   UNL     1      -3.694   5.513  -5.869  1.00  0.00     0.131 A 
ATOM     82  C   UNL     1      -2.419   7.822  -6.685  1.00  0.00     0.055 A 
ATOM     83  C   UNL     1      -3.681   5.847  -7.223  1.00  0.00     0.041 A 
ATOM     84  F   UNL     1      -4.297   4.367  -5.513  1.00  0.00    -0.206 F 
ATOM     85  C   UNL     1      -3.055   7.019  -7.636  1.00  0.00     0.022 A 
BRANCH  82  86
ATOM     86  S   UNL     1      -1.726   9.427  -7.154  1.00  0.00     0.124 S 
ATOM     87  O   UNL     1      -2.385  10.321  -6.209  1.00  0.00    -0.237 OA
ATOM     88  O   UNL     1      -0.298   9.213  -6.945  1.00  0.00    -0.237 OA
ATOM     89  O   UNL     1      -2.138   9.578  -8.547  1.00  0.00    -0.744 OA
ENDBRANCH  82  86
ENDBRANCH  55  79
BRANCH  67  90
ATOM     90  C   UNL     1      -4.775   8.832   1.357  1.00  0.00     0.023 A 
ATOM     91  C   UNL     1      -6.072   9.118   0.908  1.00  0.00     0.031 A 
ATOM     92  C   UNL     1      -4.091   9.795   2.114  1.00  0.00     0.131 A 
ATOM     93  C   UNL     1      -6.603  10.391   1.119  1.00  0.00     0.055 A 
ATOM     94  C   UNL     1      -4.673  11.021   2.417  1.00  0.00     0.041 A 
ATOM     95  F   UNL     1      -2.845   9.561   2.558  1.00  0.00    -0.206 F 
ATOM     96  C   UNL     1      -5.925  11.335   1.896  1.00  0.00     0.022 A 
BRANCH  93  97
ATOM     97  S   UNL     1      -8.094  10.847   0.201  1.00  0.00     0.124 S 
ATOM     98  O   UNL     1      -7.667  10.645  -1.180  1.00  0.00    -0.237 OA
ATOM     99  O   UNL     1      -9.077   9.896   0.709  1.00  0.00    -0.237 OA
ATOM    100  O   UNL     1      -8.317  12.239   0.587  1.00  0.00    -0.744 OA
ENDBRANCH  93  97
ENDBRANCH  67  90
ENDBRANCH  41  42
ENDBRANCH  34  36
ENDBRANCH  33  34
ENDBRANCH  32  33
ENDBRANCH   1  32
TORSDOF 19
