REMARK SMILES CCOc1cc(N2CCOCC2)ccc1[C@H]([NH3+])C(=O)OCCOC(=O)c1ccc(-c2c3nc(c(-c4cc(S(=O)(=O)[O-])ccc4F)c4ccc([nH]4)c(-c4cc(S(=O)(=O)[O-])ccc4F)c4nc(c(-c5cc(S(=O)(=O)[O-])ccc5F)c5ccc2[nH]5)C=C4)C=C3)cc1
REMARK SMILES IDX 21 1 20 2 18 3 19 4 16 5 15 6 4 7 5 8 6 9 14 10 13 11 3 12
REMARK SMILES IDX 2 13 1 14 7 15 8 16 12 17 9 18 11 19 10 20 17 21 22 25 23 26
REMARK SMILES IDX 24 27 25 28 26 29 27 30 88 31 28 32 87 33 29 34 30 35 31 36
REMARK SMILES IDX 81 37 32 38 86 39 80 40 82 41 33 42 85 43 79 44 78 45 34 47
REMARK SMILES IDX 66 48 46 49 65 50 47 51 50 52 64 53 83 54 48 55 49 56 63 58
REMARK SMILES IDX 84 59 51 60 35 61 36 62 44 63 37 64 43 65 45 66 42 67 38 68
REMARK SMILES IDX 39 69 40 70 41 71 67 72 68 73 76 74 69 75 75 76 77 77 74 78
REMARK SMILES IDX 70 79 71 80 72 81 73 82 52 83 53 84 61 85 54 86 60 87 62 88
REMARK SMILES IDX 59 89 55 90 56 91 57 92 58 93
REMARK H PARENT 17 22 17 23 17 24 82 46 50 57
REMARK Flexibility Score: inf
ROOT
ATOM      1  C   UNL     1       5.381  -1.384  -1.804  1.00  0.00     0.274 C 
ENDROOT
BRANCH   1   2
ATOM      2  O   UNL     1       4.865  -0.541  -0.761  1.00  0.00    -0.457 OA
BRANCH   2   3
ATOM      3  C   UNL     1       3.540  -0.223  -0.886  1.00  0.00     0.370 C 
ATOM      4  O   UNL     1       2.843  -0.586  -1.827  1.00  0.00    -0.245 OA
BRANCH   3   5
ATOM      5  C   UNL     1       3.012   0.567   0.343  1.00  0.00     0.326 C 
BRANCH   5   6
ATOM      6  C   UNL     1       3.213   2.059   0.178  1.00  0.00     0.063 A 
ATOM      7  C   UNL     1       2.824   2.719  -0.999  1.00  0.00     0.131 A 
ATOM      8  C   UNL     1       3.333   3.984  -1.298  1.00  0.00     0.072 A 
ATOM      9  C   UNL     1       4.206   4.619  -0.410  1.00  0.00     0.040 A 
ATOM     10  C   UNL     1       3.881   2.803   1.158  1.00  0.00     0.016 A 
ATOM     11  C   UNL     1       4.374   4.069   0.862  1.00  0.00     0.027 A 
BRANCH   7  12
ATOM     12  O   UNL     1       2.173   2.036  -1.991  1.00  0.00    -0.493 OA
BRANCH  12  13
ATOM     13  C   UNL     1       0.762   2.274  -2.055  1.00  0.00     0.226 C 
ATOM     14  C   UNL     1      -0.018   1.207  -1.302  1.00  0.00     0.049 C 
ENDBRANCH  12  13
ENDBRANCH   7  12
BRANCH   9  15
ATOM     15  N   UNL     1       5.005   5.655  -0.844  1.00  0.00    -0.367 N 
ATOM     16  C   UNL     1       6.459   5.545  -0.688  1.00  0.00     0.145 C 
ATOM     17  C   UNL     1       4.481   7.000  -1.044  1.00  0.00     0.145 C 
ATOM     18  C   UNL     1       6.956   6.546   0.361  1.00  0.00     0.181 C 
ATOM     19  C   UNL     1       5.071   7.937   0.026  1.00  0.00     0.181 C 
ATOM     20  O   UNL     1       6.513   7.883   0.061  1.00  0.00    -0.378 OA
ENDBRANCH   9  15
ENDBRANCH   5   6
BRANCH   5  21
ATOM     21  N   UNL     1       3.605   0.021   1.601  1.00  0.00    -0.342 N 
ATOM     22  H   UNL     1       4.619   0.131   1.575  1.00  0.00     0.345 HD
ATOM     23  H   UNL     1       3.373  -0.969   1.685  1.00  0.00     0.345 HD
ATOM     24  H   UNL     1       3.228   0.527   2.402  1.00  0.00     0.345 HD
ENDBRANCH   5  21
ENDBRANCH   3   5
ENDBRANCH   2   3
ENDBRANCH   1   2
BRANCH   1  25
ATOM     25  C   UNL     1       5.203  -2.875  -1.481  1.00  0.00     0.275 C 
BRANCH  25  26
ATOM     26  O   UNL     1       3.825  -3.303  -1.503  1.00  0.00    -0.458 OA
BRANCH  26  27
ATOM     27  C   UNL     1       3.157  -3.189  -0.327  1.00  0.00     0.338 C 
ATOM     28  O   UNL     1       3.635  -2.822   0.739  1.00  0.00    -0.246 OA
BRANCH  27  29
ATOM     29  C   UNL     1       1.702  -3.373  -0.530  1.00  0.00     0.060 A 
ATOM     30  C   UNL     1       0.838  -2.442   0.060  1.00  0.00     0.016 A 
ATOM     31  C   UNL     1       1.176  -4.444  -1.254  1.00  0.00     0.016 A 
ATOM     32  C   UNL     1      -0.542  -2.543  -0.103  1.00  0.00     0.010 A 
ATOM     33  C   UNL     1      -0.214  -4.572  -1.383  1.00  0.00     0.010 A 
ATOM     34  C   UNL     1      -1.079  -3.620  -0.811  1.00  0.00    -0.014 A 
BRANCH  34  35
ATOM     35  C   UNL     1      -2.550  -3.804  -0.840  1.00  0.00     0.031 A 
ATOM     36  C   UNL     1      -3.192  -4.683   0.194  1.00  0.00     0.074 A 
ATOM     37  C   UNL     1      -3.307  -3.154  -1.741  1.00  0.00     0.049 A 
ATOM     38  N   UNL     1      -4.446  -5.022   0.335  1.00  0.00    -0.248 NA
ATOM     39  C   UNL     1      -2.292  -5.247   1.210  1.00  0.00     0.031 C 
ATOM     40  C   UNL     1      -2.808  -2.196  -2.727  1.00  0.00     0.029 A 
ATOM     41  N   UNL     1      -4.660  -3.198  -1.969  1.00  0.00    -0.354 N 
ATOM     42  C   UNL     1      -4.490  -5.850   1.451  1.00  0.00     0.074 A 
ATOM     43  C   UNL     1      -3.130  -5.974   1.933  1.00  0.00     0.031 C 
ATOM     44  C   UNL     1      -3.843  -1.750  -3.461  1.00  0.00     0.029 A 
ATOM     45  C   UNL     1      -5.067  -2.425  -3.031  1.00  0.00     0.049 A 
ATOM     46  H   UNL     1      -5.281  -3.734  -1.424  1.00  0.00     0.167 HD
ATOM     47  C   UNL     1      -5.567  -6.454   2.014  1.00  0.00     0.034 A 
ATOM     48  C   UNL     1      -6.280  -2.304  -3.608  1.00  0.00     0.034 A 
ATOM     49  C   UNL     1      -6.910  -6.340   1.499  1.00  0.00     0.049 A 
ATOM     50  C   UNL     1      -7.438  -3.099  -3.050  1.00  0.00     0.074 A 
ATOM     51  C   UNL     1      -8.072  -6.911   1.989  1.00  0.00     0.029 A 
ATOM     52  N   UNL     1      -7.271  -5.627   0.362  1.00  0.00    -0.354 N 
ATOM     53  N   UNL     1      -7.471  -3.894  -2.003  1.00  0.00    -0.248 NA
ATOM     54  C   UNL     1      -8.722  -2.982  -3.753  1.00  0.00     0.031 C 
ATOM     55  C   UNL     1      -9.113  -6.622   1.099  1.00  0.00     0.029 A 
ATOM     56  C   UNL     1      -8.626  -5.786   0.107  1.00  0.00     0.049 A 
ATOM     57  H   UNL     1      -6.655  -5.087  -0.184  1.00  0.00     0.167 HD
ATOM     58  C   UNL     1      -8.788  -4.338  -1.903  1.00  0.00     0.074 A 
ATOM     59  C   UNL     1      -9.517  -3.718  -2.990  1.00  0.00     0.031 C 
ATOM     60  C   UNL     1      -9.345  -5.175  -0.989  1.00  0.00     0.034 A 
BRANCH  47  61
ATOM     61  C   UNL     1      -5.306  -7.361   3.193  1.00  0.00     0.023 A 
ATOM     62  C   UNL     1      -4.770  -6.881   4.401  1.00  0.00     0.031 A 
ATOM     63  C   UNL     1      -5.543  -8.743   3.083  1.00  0.00     0.131 A 
ATOM     64  C   UNL     1      -4.406  -7.784   5.412  1.00  0.00     0.055 A 
ATOM     65  C   UNL     1      -5.264  -9.625   4.128  1.00  0.00     0.041 A 
ATOM     66  F   UNL     1      -6.029  -9.265   1.946  1.00  0.00    -0.206 F 
ATOM     67  C   UNL     1      -4.674  -9.149   5.295  1.00  0.00     0.022 A 
BRANCH  64  68
ATOM     68  S   UNL     1      -3.413  -7.172   6.802  1.00  0.00     0.124 S 
ATOM     69  O   UNL     1      -2.267  -6.585   6.111  1.00  0.00    -0.237 OA
ATOM     70  O   UNL     1      -4.320  -6.232   7.449  1.00  0.00    -0.237 OA
ATOM     71  O   UNL     1      -3.115  -8.381   7.568  1.00  0.00    -0.744 OA
ENDBRANCH  64  68
ENDBRANCH  47  61
BRANCH  48  72
ATOM     72  C   UNL     1      -6.468  -1.440  -4.811  1.00  0.00     0.023 A 
ATOM     73  C   UNL     1      -7.341  -0.340  -4.784  1.00  0.00     0.031 A 
ATOM     74  C   UNL     1      -5.825  -1.741  -6.026  1.00  0.00     0.131 A 
ATOM     75  C   UNL     1      -7.579   0.393  -5.958  1.00  0.00     0.055 A 
ATOM     76  C   UNL     1      -6.022  -0.974  -7.176  1.00  0.00     0.041 A 
ATOM     77  F   UNL     1      -4.989  -2.788  -6.111  1.00  0.00    -0.206 F 
ATOM     78  C   UNL     1      -6.914   0.093  -7.149  1.00  0.00     0.022 A 
BRANCH  75  79
ATOM     79  S   UNL     1      -8.842   1.695  -5.929  1.00  0.00     0.124 S 
ATOM     80  O   UNL     1     -10.036   0.941  -5.566  1.00  0.00    -0.237 OA
ATOM     81  O   UNL     1      -8.320   2.601  -4.912  1.00  0.00    -0.237 OA
ATOM     82  O   UNL     1      -8.823   2.217  -7.294  1.00  0.00    -0.744 OA
ENDBRANCH  75  79
ENDBRANCH  48  72
BRANCH  60  83
ATOM     83  C   UNL     1     -10.833  -5.425  -1.093  1.00  0.00     0.023 A 
ATOM     84  C   UNL     1     -11.404  -6.095  -2.190  1.00  0.00     0.031 A 
ATOM     85  C   UNL     1     -11.695  -4.980  -0.074  1.00  0.00     0.131 A 
ATOM     86  C   UNL     1     -12.797  -6.251  -2.268  1.00  0.00     0.055 A 
ATOM     87  C   UNL     1     -13.073  -5.199  -0.123  1.00  0.00     0.041 A 
ATOM     88  F   UNL     1     -11.211  -4.328   0.995  1.00  0.00    -0.206 F 
ATOM     89  C   UNL     1     -13.633  -5.826  -1.232  1.00  0.00     0.022 A 
BRANCH  86  90
ATOM     90  S   UNL     1     -13.518  -6.928  -3.790  1.00  0.00     0.124 S 
ATOM     91  O   UNL     1     -13.032  -5.991  -4.798  1.00  0.00    -0.237 OA
ATOM     92  O   UNL     1     -12.945  -8.269  -3.837  1.00  0.00    -0.237 OA
ATOM     93  O   UNL     1     -14.957  -6.878  -3.540  1.00  0.00    -0.744 OA
ENDBRANCH  86  90
ENDBRANCH  60  83
ENDBRANCH  34  35
ENDBRANCH  27  29
ENDBRANCH  26  27
ENDBRANCH  25  26
ENDBRANCH   1  25
TORSDOF 19
