REMARK SMILES O=C(COc1csc(C(=O)OCCOC(=O)c2ccc(-c3c4nc(c(-c5cc(S(=O)(=O)[O-])ccc5F)c5ccc([nH]5)c(-c5cc(S(=O)(=O)[O-])ccc5F)c5nc(c(-c6cc(S(=O)(=O)[O-])ccc6F)c6ccc3[nH]6)C=C5)C=C4)cc2)c1)Nc1nccs1
REMARK SMILES IDX 12 1 11 2 9 3 10 4 8 5 5 6 6 7 80 8 7 9 4 10 3 11 2 12 1 13
REMARK SMILES IDX 81 14 82 16 83 17 86 18 84 19 85 20 13 21 14 22 15 23 16 24
REMARK SMILES IDX 17 25 18 26 79 27 19 28 78 29 20 30 21 31 22 32 72 33 23 34
REMARK SMILES IDX 77 35 71 36 73 37 24 38 76 39 70 40 69 41 25 43 57 44 37 45
REMARK SMILES IDX 56 46 38 47 41 48 55 49 74 50 39 51 40 52 54 54 75 55 42 56
REMARK SMILES IDX 26 57 27 58 35 59 28 60 34 61 36 62 33 63 29 64 30 65 31 66
REMARK SMILES IDX 32 67 58 68 59 69 67 70 60 71 66 72 68 73 65 74 61 75 62 76
REMARK SMILES IDX 63 77 64 78 43 79 44 80 52 81 45 82 51 83 53 84 50 85 46 86
REMARK SMILES IDX 47 87 48 88 49 89
REMARK H PARENT 81 15 73 42 41 53
REMARK Flexibility Score: inf
ROOT
ATOM      1  C   UNL     1       3.733   6.877   4.467  1.00  0.00     0.275 C 
ENDROOT
BRANCH   1   2
ATOM      2  O   UNL     1       3.749   5.707   3.621  1.00  0.00    -0.458 OA
BRANCH   2   3
ATOM      3  C   UNL     1       3.597   4.516   4.277  1.00  0.00     0.348 C 
ATOM      4  O   UNL     1       3.506   4.423   5.495  1.00  0.00    -0.245 OA
BRANCH   3   5
ATOM      5  C   UNL     1       3.506   3.405   3.342  1.00  0.00     0.116 A 
ATOM      6  C   UNL     1       3.524   1.987   1.478  1.00  0.00     0.131 A 
ATOM      7  C   UNL     1       2.811   1.239   2.383  1.00  0.00     0.112 A 
ATOM      8  C   UNL     1       3.890   3.264   2.016  1.00  0.00     0.074 A 
ATOM      9  S   UNL     1       2.856   1.926   3.936  1.00  0.00    -0.133 S 
BRANCH   6  10
ATOM     10  O   UNL     1       3.947   1.513   0.278  1.00  0.00    -0.483 OA
BRANCH  10  11
ATOM     11  C   UNL     1       2.909   1.185  -0.637  1.00  0.00     0.329 C 
BRANCH  11  12
ATOM     12  C   UNL     1       2.173  -0.161  -0.516  1.00  0.00     0.264 C 
ATOM     13  O   UNL     1       1.107  -0.324  -1.101  1.00  0.00    -0.271 OA
ATOM     14  N   UNL     1       2.842  -1.091   0.251  1.00  0.00    -0.299 N 
ATOM     15  H   UNL     1       3.774  -0.915   0.513  1.00  0.00     0.172 HD
BRANCH  14  16
ATOM     16  C   UNL     1       2.244  -2.254   0.657  1.00  0.00     0.189 A 
ATOM     17  N   UNL     1       1.095  -2.763   0.301  1.00  0.00    -0.229 NA
ATOM     18  S   UNL     1       3.104  -3.103   1.867  1.00  0.00    -0.105 S 
ATOM     19  C   UNL     1       0.823  -3.874   1.073  1.00  0.00     0.125 A 
ATOM     20  C   UNL     1       1.792  -4.205   1.997  1.00  0.00     0.088 A 
ENDBRANCH  14  16
ENDBRANCH  11  12
ENDBRANCH  10  11
ENDBRANCH   6  10
ENDBRANCH   3   5
ENDBRANCH   2   3
ENDBRANCH   1   2
BRANCH   1  21
ATOM     21  C   UNL     1       2.371   7.583   4.481  1.00  0.00     0.275 C 
BRANCH  21  22
ATOM     22  O   UNL     1       1.351   6.811   5.143  1.00  0.00    -0.458 OA
BRANCH  22  23
ATOM     23  C   UNL     1       0.591   6.058   4.312  1.00  0.00     0.338 C 
ATOM     24  O   UNL     1       0.710   5.971   3.100  1.00  0.00    -0.246 OA
BRANCH  23  25
ATOM     25  C   UNL     1      -0.338   5.210   5.076  1.00  0.00     0.060 A 
ATOM     26  C   UNL     1      -0.044   3.852   5.129  1.00  0.00     0.016 A 
ATOM     27  C   UNL     1      -1.547   5.680   5.585  1.00  0.00     0.016 A 
ATOM     28  C   UNL     1      -0.964   2.938   5.628  1.00  0.00     0.010 A 
ATOM     29  C   UNL     1      -2.461   4.764   6.134  1.00  0.00     0.010 A 
ATOM     30  C   UNL     1      -2.191   3.380   6.133  1.00  0.00    -0.014 A 
BRANCH  30  31
ATOM     31  C   UNL     1      -3.202   2.379   6.577  1.00  0.00     0.031 A 
ATOM     32  C   UNL     1      -4.507   2.251   5.833  1.00  0.00     0.074 A 
ATOM     33  C   UNL     1      -2.934   1.545   7.603  1.00  0.00     0.049 A 
ATOM     34  N   UNL     1      -5.562   1.532   6.123  1.00  0.00    -0.248 NA
ATOM     35  C   UNL     1      -4.641   3.044   4.602  1.00  0.00     0.031 C 
ATOM     36  C   UNL     1      -1.678   1.509   8.356  1.00  0.00     0.029 A 
ATOM     37  N   UNL     1      -3.694   0.560   8.186  1.00  0.00    -0.354 N 
ATOM     38  C   UNL     1      -6.498   1.811   5.131  1.00  0.00     0.074 A 
ATOM     39  C   UNL     1      -5.892   2.787   4.249  1.00  0.00     0.031 C 
ATOM     40  C   UNL     1      -1.747   0.541   9.282  1.00  0.00     0.029 A 
ATOM     41  C   UNL     1      -3.077  -0.058   9.250  1.00  0.00     0.049 A 
ATOM     42  H   UNL     1      -4.595   0.319   7.872  1.00  0.00     0.167 HD
ATOM     43  C   UNL     1      -7.743   1.295   4.970  1.00  0.00     0.034 A 
ATOM     44  C   UNL     1      -3.541  -0.970  10.129  1.00  0.00     0.034 A 
ATOM     45  C   UNL     1      -8.320   0.304   5.847  1.00  0.00     0.049 A 
ATOM     46  C   UNL     1      -4.961  -1.461   9.982  1.00  0.00     0.074 A 
ATOM     47  C   UNL     1      -9.574  -0.281   5.780  1.00  0.00     0.029 A 
ATOM     48  N   UNL     1      -7.683  -0.256   6.948  1.00  0.00    -0.354 N 
ATOM     49  N   UNL     1      -5.855  -1.147   9.073  1.00  0.00    -0.248 NA
ATOM     50  C   UNL     1      -5.435  -2.427  10.981  1.00  0.00     0.031 C 
ATOM     51  C   UNL     1      -9.721  -1.135   6.878  1.00  0.00     0.029 A 
ATOM     52  C   UNL     1      -8.528  -1.156   7.581  1.00  0.00     0.049 A 
ATOM     53  H   UNL     1      -6.766  -0.044   7.236  1.00  0.00     0.167 HD
ATOM     54  C   UNL     1      -6.982  -1.908   9.371  1.00  0.00     0.074 A 
ATOM     55  C   UNL     1      -6.649  -2.705  10.533  1.00  0.00     0.031 C 
ATOM     56  C   UNL     1      -8.183  -1.948   8.739  1.00  0.00     0.034 A 
BRANCH  43  57
ATOM     57  C   UNL     1      -8.585   1.840   3.839  1.00  0.00     0.023 A 
ATOM     58  C   UNL     1      -8.229   1.670   2.490  1.00  0.00     0.031 A 
ATOM     59  C   UNL     1      -9.763   2.557   4.121  1.00  0.00     0.131 A 
ATOM     60  C   UNL     1      -9.004   2.265   1.481  1.00  0.00     0.055 A 
ATOM     61  C   UNL     1     -10.573   3.076   3.109  1.00  0.00     0.041 A 
ATOM     62  F   UNL     1     -10.144   2.774   5.390  1.00  0.00    -0.206 F 
ATOM     63  C   UNL     1     -10.188   2.943   1.780  1.00  0.00     0.022 A 
BRANCH  60  64
ATOM     64  S   UNL     1      -8.370   2.262  -0.219  1.00  0.00     0.124 S 
ATOM     65  O   UNL     1      -7.100   2.966  -0.060  1.00  0.00    -0.237 OA
ATOM     66  O   UNL     1      -8.281   0.838  -0.520  1.00  0.00    -0.237 OA
ATOM     67  O   UNL     1      -9.390   2.995  -0.967  1.00  0.00    -0.744 OA
ENDBRANCH  60  64
ENDBRANCH  43  57
BRANCH  44  68
ATOM     68  C   UNL     1      -2.691  -1.439  11.264  1.00  0.00     0.023 A 
ATOM     69  C   UNL     1      -2.366  -2.797  11.417  1.00  0.00     0.031 A 
ATOM     70  C   UNL     1      -2.251  -0.545  12.258  1.00  0.00     0.131 A 
ATOM     71  C   UNL     1      -1.679  -3.228  12.563  1.00  0.00     0.055 A 
ATOM     72  C   UNL     1      -1.507  -0.969  13.360  1.00  0.00     0.041 A 
ATOM     73  F   UNL     1      -2.539   0.764  12.171  1.00  0.00    -0.206 F 
ATOM     74  C   UNL     1      -1.232  -2.321  13.526  1.00  0.00     0.022 A 
BRANCH  71  75
ATOM     75  S   UNL     1      -1.481  -5.011  12.837  1.00  0.00     0.124 S 
ATOM     76  O   UNL     1      -2.865  -5.470  12.808  1.00  0.00    -0.237 OA
ATOM     77  O   UNL     1      -0.651  -5.402  11.702  1.00  0.00    -0.237 OA
ATOM     78  O   UNL     1      -0.825  -5.084  14.141  1.00  0.00    -0.744 OA
ENDBRANCH  71  75
ENDBRANCH  44  68
BRANCH  56  79
ATOM     79  C   UNL     1      -9.199  -2.941   9.253  1.00  0.00     0.023 A 
ATOM     80  C   UNL     1      -9.774  -2.827  10.531  1.00  0.00     0.031 A 
ATOM     81  C   UNL     1      -9.584  -4.031   8.451  1.00  0.00     0.131 A 
ATOM     82  C   UNL     1     -10.653  -3.819  10.993  1.00  0.00     0.055 A 
ATOM     83  C   UNL     1     -10.511  -4.976   8.889  1.00  0.00     0.041 A 
ATOM     84  F   UNL     1      -9.064  -4.193   7.223  1.00  0.00    -0.206 F 
ATOM     85  C   UNL     1     -11.040  -4.882  10.173  1.00  0.00     0.022 A 
BRANCH  82  86
ATOM     86  S   UNL     1     -11.204  -3.760  12.720  1.00  0.00     0.124 S 
ATOM     87  O   UNL     1      -9.938  -3.789  13.444  1.00  0.00    -0.237 OA
ATOM     88  O   UNL     1     -11.938  -2.500  12.771  1.00  0.00    -0.237 OA
ATOM     89  O   UNL     1     -12.026  -4.961  12.860  1.00  0.00    -0.744 OA
ENDBRANCH  82  86
ENDBRANCH  56  79
ENDBRANCH  30  31
ENDBRANCH  23  25
ENDBRANCH  22  23
ENDBRANCH  21  22
ENDBRANCH   1  21
TORSDOF 18
