REMARK SMILES O=C(CSc1nc2[nH]cnc2c(=O)[nH]1)NCCC(=O)OCCOC(=O)c1ccc(-c2c3nc(c(-c4cc(S(=O)(=O)[O-])ccc4F)c4ccc([nH]4)c(-c4cc(S(=O)(=O)[O-])ccc4F)c4nc(c(-c5cc(S(=O)(=O)[O-])ccc5F)c5ccc2[nH]5)C=C4)C=C3)cc1
REMARK SMILES IDX 21 1 20 2 18 3 19 4 17 5 16 6 15 7 1 8 2 9 3 11 4 12 5 13
REMARK SMILES IDX 6 14 14 15 7 16 12 17 8 19 11 20 13 21 9 22 10 24 22 25
REMARK SMILES IDX 23 26 24 27 25 28 26 29 27 30 88 31 28 32 87 33 29 34 30 35
REMARK SMILES IDX 31 36 81 37 32 38 86 39 80 40 82 41 33 42 85 43 79 44 78 45
REMARK SMILES IDX 34 47 66 48 46 49 65 50 47 51 50 52 64 53 83 54 48 55 49 56
REMARK SMILES IDX 63 58 84 59 51 60 35 61 36 62 44 63 37 64 43 65 45 66 42 67
REMARK SMILES IDX 38 68 39 69 40 70 41 71 67 72 68 73 76 74 69 75 75 76 77 77
REMARK SMILES IDX 74 78 70 79 71 80 72 81 73 82 52 83 53 84 61 85 54 86 60 87
REMARK SMILES IDX 62 88 59 89 55 90 56 91 57 92 58 93
REMARK H PARENT 15 10 14 18 8 23 82 46 50 57
REMARK Flexibility Score: inf
ROOT
ATOM      1  C   UNL     1       6.232   3.087  -0.329  1.00  0.00     0.274 C 
ENDROOT
BRANCH   1   2
ATOM      2  O   UNL     1       4.866   2.635  -0.223  1.00  0.00    -0.462 OA
BRANCH   2   3
ATOM      3  C   UNL     1       3.951   3.575   0.146  1.00  0.00     0.307 C 
ATOM      4  O   UNL     1       4.224   4.734   0.428  1.00  0.00    -0.252 OA
BRANCH   3   5
ATOM      5  C   UNL     1       2.548   3.022   0.252  1.00  0.00     0.144 C 
BRANCH   5   6
ATOM      6  C   UNL     1       2.191   1.998  -0.816  1.00  0.00     0.127 C 
BRANCH   6   7
ATOM      7  N   UNL     1       2.811   0.714  -0.551  1.00  0.00    -0.355 N 
ATOM      8  O   UNL     1       0.967  -0.308   0.346  1.00  0.00    -0.274 OA
ATOM      9  C   UNL     1       2.154  -0.341   0.040  1.00  0.00     0.230 C 
ATOM     10  H   UNL     1       3.753   0.591  -0.808  1.00  0.00     0.163 HD
BRANCH   9  11
ATOM     11  C   UNL     1       3.031  -1.534   0.372  1.00  0.00     0.178 C 
BRANCH  11  12
ATOM     12  S   UNL     1       4.245  -1.882  -0.932  1.00  0.00    -0.078 SA
BRANCH  12  13
ATOM     13  C   UNL     1       3.187  -2.578  -2.124  1.00  0.00     0.170 A 
ATOM     14  N   UNL     1       3.160  -3.868  -2.289  1.00  0.00    -0.204 NA
ATOM     15  N   UNL     1       2.467  -1.655  -2.853  1.00  0.00    -0.299 N 
ATOM     16  C   UNL     1       2.340  -4.229  -3.302  1.00  0.00     0.165 A 
ATOM     17  C   UNL     1       1.597  -1.998  -3.878  1.00  0.00     0.279 A 
ATOM     18  H   UNL     1       2.575  -0.702  -2.634  1.00  0.00     0.172 HD
ATOM     19  N   UNL     1       2.150  -5.497  -3.764  1.00  0.00    -0.329 N 
ATOM     20  C   UNL     1       1.565  -3.429  -4.110  1.00  0.00     0.172 A 
ATOM     21  O   UNL     1       0.958  -1.160  -4.499  1.00  0.00    -0.267 OA
ATOM     22  C   UNL     1       1.285  -5.413  -4.824  1.00  0.00     0.199 A 
ATOM     23  H   UNL     1       2.557  -6.318  -3.404  1.00  0.00     0.169 HD
ATOM     24  N   UNL     1       0.904  -4.173  -5.054  1.00  0.00    -0.229 NA
ENDBRANCH  12  13
ENDBRANCH  11  12
ENDBRANCH   9  11
ENDBRANCH   6   7
ENDBRANCH   5   6
ENDBRANCH   3   5
ENDBRANCH   2   3
ENDBRANCH   1   2
BRANCH   1  25
ATOM     25  C   UNL     1       6.639   3.327  -1.785  1.00  0.00     0.275 C 
BRANCH  25  26
ATOM     26  O   UNL     1       5.906   4.418  -2.368  1.00  0.00    -0.458 OA
BRANCH  26  27
ATOM     27  C   UNL     1       4.802   4.060  -3.067  1.00  0.00     0.338 C 
ATOM     28  O   UNL     1       4.399   2.927  -3.267  1.00  0.00    -0.246 OA
BRANCH  27  29
ATOM     29  C   UNL     1       4.057   5.269  -3.451  1.00  0.00     0.060 A 
ATOM     30  C   UNL     1       2.890   5.583  -2.751  1.00  0.00     0.016 A 
ATOM     31  C   UNL     1       4.470   6.055  -4.528  1.00  0.00     0.016 A 
ATOM     32  C   UNL     1       2.129   6.689  -3.122  1.00  0.00     0.010 A 
ATOM     33  C   UNL     1       3.712   7.177  -4.888  1.00  0.00     0.010 A 
ATOM     34  C   UNL     1       2.536   7.503  -4.188  1.00  0.00    -0.014 A 
BRANCH  34  35
ATOM     35  C   UNL     1       1.737   8.701  -4.556  1.00  0.00     0.031 A 
ATOM     36  C   UNL     1       0.958   8.728  -5.842  1.00  0.00     0.074 A 
ATOM     37  C   UNL     1       1.721   9.765  -3.729  1.00  0.00     0.049 A 
ATOM     38  N   UNL     1       0.288   9.713  -6.380  1.00  0.00    -0.248 NA
ATOM     39  C   UNL     1       0.932   7.484  -6.626  1.00  0.00     0.031 C 
ATOM     40  C   UNL     1       2.407   9.838  -2.437  1.00  0.00     0.029 A 
ATOM     41  N   UNL     1       1.115  10.992  -3.850  1.00  0.00    -0.354 N 
ATOM     42  C   UNL     1      -0.223   9.220  -7.576  1.00  0.00     0.074 A 
ATOM     43  C   UNL     1       0.229   7.849  -7.689  1.00  0.00     0.031 C 
ATOM     44  C   UNL     1       2.187  11.044  -1.889  1.00  0.00     0.029 A 
ATOM     45  C   UNL     1       1.401  11.853  -2.815  1.00  0.00     0.049 A 
ATOM     46  H   UNL     1       0.532  11.232  -4.606  1.00  0.00     0.167 HD
ATOM     47  C   UNL     1      -0.994   9.858  -8.491  1.00  0.00     0.034 A 
ATOM     48  C   UNL     1       1.102  13.158  -2.651  1.00  0.00     0.034 A 
ATOM     49  C   UNL     1      -1.446  11.222  -8.353  1.00  0.00     0.049 A 
ATOM     50  C   UNL     1       0.305  13.861  -3.723  1.00  0.00     0.074 A 
ATOM     51  C   UNL     1      -2.270  11.944  -9.200  1.00  0.00     0.029 A 
ATOM     52  N   UNL     1      -1.104  12.076  -7.312  1.00  0.00    -0.354 N 
ATOM     53  N   UNL     1      -0.186  13.373  -4.840  1.00  0.00    -0.248 NA
ATOM     54  C   UNL     1       0.023  15.287  -3.515  1.00  0.00     0.031 C 
ATOM     55  C   UNL     1      -2.361  13.253  -8.715  1.00  0.00     0.029 A 
ATOM     56  C   UNL     1      -1.662  13.328  -7.521  1.00  0.00     0.049 A 
ATOM     57  H   UNL     1      -0.547  11.828  -6.539  1.00  0.00     0.167 HD
ATOM     58  C   UNL     1      -0.855  14.430  -5.451  1.00  0.00     0.074 A 
ATOM     59  C   UNL     1      -0.727  15.570  -4.568  1.00  0.00     0.031 C 
ATOM     60  C   UNL     1      -1.515  14.460  -6.637  1.00  0.00     0.034 A 
BRANCH  47  61
ATOM     61  C   UNL     1      -1.357   9.115  -9.753  1.00  0.00     0.023 A 
ATOM     62  C   UNL     1      -2.221   8.008  -9.749  1.00  0.00     0.031 A 
ATOM     63  C   UNL     1      -0.850   9.552 -10.991  1.00  0.00     0.131 A 
ATOM     64  C   UNL     1      -2.523   7.353 -10.954  1.00  0.00     0.055 A 
ATOM     65  C   UNL     1      -1.204   8.937 -12.192  1.00  0.00     0.041 A 
ATOM     66  F   UNL     1      -0.004  10.593 -11.052  1.00  0.00    -0.206 F 
ATOM     67  C   UNL     1      -2.040   7.825 -12.178  1.00  0.00     0.022 A 
BRANCH  64  68
ATOM     68  S   UNL     1      -3.488   5.819 -10.896  1.00  0.00     0.124 S 
ATOM     69  O   UNL     1      -2.629   4.962 -10.084  1.00  0.00    -0.237 OA
ATOM     70  O   UNL     1      -4.733   6.252 -10.273  1.00  0.00    -0.237 OA
ATOM     71  O   UNL     1      -3.597   5.429 -12.301  1.00  0.00    -0.744 OA
ENDBRANCH  64  68
ENDBRANCH  47  61
BRANCH  48  72
ATOM     72  C   UNL     1       1.612  13.916  -1.469  1.00  0.00     0.023 A 
ATOM     73  C   UNL     1       0.733  14.543  -0.572  1.00  0.00     0.031 A 
ATOM     74  C   UNL     1       2.994  14.099  -1.270  1.00  0.00     0.131 A 
ATOM     75  C   UNL     1       1.240  15.373   0.441  1.00  0.00     0.055 A 
ATOM     76  C   UNL     1       3.494  14.869  -0.219  1.00  0.00     0.041 A 
ATOM     77  F   UNL     1       3.883  13.531  -2.101  1.00  0.00    -0.206 F 
ATOM     78  C   UNL     1       2.614  15.528   0.633  1.00  0.00     0.022 A 
BRANCH  75  79
ATOM     79  S   UNL     1       0.072  16.355   1.422  1.00  0.00     0.124 S 
ATOM     80  O   UNL     1      -0.664  17.066   0.383  1.00  0.00    -0.237 OA
ATOM     81  O   UNL     1      -0.667  15.319   2.137  1.00  0.00    -0.237 OA
ATOM     82  O   UNL     1       0.941  17.186   2.253  1.00  0.00    -0.744 OA
ENDBRANCH  75  79
ENDBRANCH  48  72
BRANCH  60  83
ATOM     83  C   UNL     1      -2.176  15.761  -7.020  1.00  0.00     0.023 A 
ATOM     84  C   UNL     1      -1.424  16.914  -7.309  1.00  0.00     0.031 A 
ATOM     85  C   UNL     1      -3.578  15.856  -7.075  1.00  0.00     0.131 A 
ATOM     86  C   UNL     1      -2.077  18.125  -7.583  1.00  0.00     0.055 A 
ATOM     87  C   UNL     1      -4.221  17.047  -7.412  1.00  0.00     0.041 A 
ATOM     88  F   UNL     1      -4.346  14.788  -6.805  1.00  0.00    -0.206 F 
ATOM     89  C   UNL     1      -3.471  18.194  -7.654  1.00  0.00     0.022 A 
BRANCH  86  90
ATOM     90  S   UNL     1      -1.083  19.632  -7.753  1.00  0.00     0.124 S 
ATOM     91  O   UNL     1      -0.414  19.701  -6.457  1.00  0.00    -0.237 OA
ATOM     92  O   UNL     1      -0.229  19.317  -8.894  1.00  0.00    -0.237 OA
ATOM     93  O   UNL     1      -2.078  20.675  -7.994  1.00  0.00    -0.744 OA
ENDBRANCH  86  90
ENDBRANCH  60  83
ENDBRANCH  34  35
ENDBRANCH  27  29
ENDBRANCH  26  27
ENDBRANCH  25  26
ENDBRANCH   1  25
TORSDOF 19
