REMARK SMILES O=C(OCCOC(=O)c1ccc2nc(-c3cc(F)cc(Br)c3)[nH]c2c1)c1ccc(-c2c3nc(c(-c4cc(S(=O)(=O)[O-])ccc4F)c4ccc([nH]4)c(-c4cc(S(=O)(=O)[O-])ccc4F)c4nc(c(-c5cc(S(=O)(=O)[O-])ccc5F)c5ccc2[nH]5)C=C4)C=C3)cc1
REMARK SMILES IDX 4 1 3 2 2 3 1 4 26 5 27 6 88 7 28 8 87 9 29 10 30 11 31 12
REMARK SMILES IDX 81 13 32 14 86 15 80 16 82 17 33 18 85 19 79 20 78 21 34 23
REMARK SMILES IDX 66 24 46 25 65 26 47 27 50 28 64 29 83 30 48 31 49 32 63 34
REMARK SMILES IDX 84 35 51 36 35 37 36 38 44 39 37 40 43 41 45 42 42 43 38 44
REMARK SMILES IDX 39 45 40 46 41 47 67 48 68 49 76 50 69 51 75 52 77 53 74 54
REMARK SMILES IDX 70 55 71 56 72 57 73 58 52 59 53 60 61 61 54 62 60 63 62 64
REMARK SMILES IDX 59 65 55 66 56 67 57 68 58 69 5 70 6 71 7 72 8 73 9 74 10 75
REMARK SMILES IDX 25 76 11 77 24 78 12 79 23 80 13 81 14 82 15 84 16 85 22 86
REMARK SMILES IDX 17 87 20 88 18 89 19 90 21 91
REMARK H PARENT 82 22 50 33 23 83
REMARK Flexibility Score: inf
ROOT
ATOM      1  C   UNL     1       4.245  -1.255   0.493  1.00  0.00     0.275 C 
ENDROOT
BRANCH   1   2
ATOM      2  O   UNL     1       3.144  -0.437   0.921  1.00  0.00    -0.458 OA
BRANCH   2   3
ATOM      3  C   UNL     1       2.830   0.842   0.611  1.00  0.00     0.338 C 
ATOM      4  O   UNL     1       1.873   1.356   1.191  1.00  0.00    -0.246 OA
BRANCH   3   5
ATOM      5  C   UNL     1       3.490   1.639  -0.479  1.00  0.00     0.060 A 
ATOM      6  C   UNL     1       4.721   1.370  -1.087  1.00  0.00     0.016 A 
ATOM      7  C   UNL     1       2.762   2.747  -0.953  1.00  0.00     0.016 A 
ATOM      8  C   UNL     1       5.180   2.117  -2.174  1.00  0.00     0.010 A 
ATOM      9  C   UNL     1       3.211   3.497  -2.042  1.00  0.00     0.010 A 
ATOM     10  C   UNL     1       4.429   3.183  -2.655  1.00  0.00    -0.014 A 
BRANCH  10  11
ATOM     11  C   UNL     1       5.019   4.121  -3.630  1.00  0.00     0.031 A 
ATOM     12  C   UNL     1       5.540   5.416  -3.096  1.00  0.00     0.074 A 
ATOM     13  C   UNL     1       5.097   3.828  -4.938  1.00  0.00     0.049 A 
ATOM     14  N   UNL     1       5.984   6.460  -3.736  1.00  0.00    -0.248 NA
ATOM     15  C   UNL     1       5.573   5.537  -1.629  1.00  0.00     0.031 C 
ATOM     16  C   UNL     1       4.753   2.542  -5.533  1.00  0.00     0.029 A 
ATOM     17  N   UNL     1       5.449   4.607  -6.010  1.00  0.00    -0.354 N 
ATOM     18  C   UNL     1       6.374   7.356  -2.750  1.00  0.00     0.074 A 
ATOM     19  C   UNL     1       6.032   6.766  -1.475  1.00  0.00     0.031 C 
ATOM     20  C   UNL     1       4.793   2.650  -6.872  1.00  0.00     0.029 A 
ATOM     21  C   UNL     1       5.165   4.015  -7.221  1.00  0.00     0.049 A 
ATOM     22  H   UNL     1       5.861   5.496  -5.923  1.00  0.00     0.167 HD
ATOM     23  C   UNL     1       6.993   8.549  -2.905  1.00  0.00     0.034 A 
ATOM     24  C   UNL     1       5.165   4.539  -8.462  1.00  0.00     0.034 A 
ATOM     25  C   UNL     1       7.263   9.118  -4.199  1.00  0.00     0.049 A 
ATOM     26  C   UNL     1       5.657   5.952  -8.626  1.00  0.00     0.074 A 
ATOM     27  C   UNL     1       7.856  10.327  -4.507  1.00  0.00     0.029 A 
ATOM     28  N   UNL     1       6.920   8.520  -5.409  1.00  0.00    -0.354 N 
ATOM     29  N   UNL     1       6.038   6.800  -7.697  1.00  0.00    -0.248 NA
ATOM     30  C   UNL     1       5.769   6.466  -9.995  1.00  0.00     0.031 C 
ATOM     31  C   UNL     1       7.792  10.497  -5.895  1.00  0.00     0.029 A 
ATOM     32  C   UNL     1       7.249   9.352  -6.464  1.00  0.00     0.049 A 
ATOM     33  H   UNL     1       6.503   7.632  -5.501  1.00  0.00     0.167 HD
ATOM     34  C   UNL     1       6.502   7.923  -8.371  1.00  0.00     0.074 A 
ATOM     35  C   UNL     1       6.320   7.655  -9.786  1.00  0.00     0.031 C 
ATOM     36  C   UNL     1       7.061   9.054  -7.867  1.00  0.00     0.034 A 
BRANCH  23  37
ATOM     37  C   UNL     1       7.320   9.303  -1.640  1.00  0.00     0.023 A 
ATOM     38  C   UNL     1       8.156   8.749  -0.651  1.00  0.00     0.031 A 
ATOM     39  C   UNL     1       6.677  10.517  -1.352  1.00  0.00     0.131 A 
ATOM     40  C   UNL     1       8.218   9.337   0.620  1.00  0.00     0.055 A 
ATOM     41  C   UNL     1       6.830  11.155  -0.119  1.00  0.00     0.041 A 
ATOM     42  F   UNL     1       5.845  11.079  -2.242  1.00  0.00    -0.206 F 
ATOM     43  C   UNL     1       7.582  10.551   0.885  1.00  0.00     0.022 A 
BRANCH  40  44
ATOM     44  S   UNL     1       8.944   8.375   1.980  1.00  0.00     0.124 S 
ATOM     45  O   UNL     1       8.125   7.164   1.954  1.00  0.00    -0.237 OA
ATOM     46  O   UNL     1      10.329   8.218   1.553  1.00  0.00    -0.237 OA
ATOM     47  O   UNL     1       8.742   9.228   3.149  1.00  0.00    -0.744 OA
ENDBRANCH  40  44
ENDBRANCH  23  37
BRANCH  24  48
ATOM     48  C   UNL     1       4.657   3.739  -9.611  1.00  0.00     0.023 A 
ATOM     49  C   UNL     1       5.508   3.269 -10.623  1.00  0.00     0.031 A 
ATOM     50  C   UNL     1       3.288   3.422  -9.702  1.00  0.00     0.131 A 
ATOM     51  C   UNL     1       4.978   2.527 -11.693  1.00  0.00     0.055 A 
ATOM     52  C   UNL     1       2.772   2.655 -10.749  1.00  0.00     0.041 A 
ATOM     53  F   UNL     1       2.431   3.848  -8.761  1.00  0.00    -0.206 F 
ATOM     54  C   UNL     1       3.619   2.208 -11.757  1.00  0.00     0.022 A 
BRANCH  51  55
ATOM     55  S   UNL     1       6.090   2.011 -13.031  1.00  0.00     0.124 S 
ATOM     56  O   UNL     1       6.605   3.292 -13.503  1.00  0.00    -0.237 OA
ATOM     57  O   UNL     1       7.040   1.159 -12.323  1.00  0.00    -0.237 OA
ATOM     58  O   UNL     1       5.205   1.313 -13.962  1.00  0.00    -0.744 OA
ENDBRANCH  51  55
ENDBRANCH  24  48
BRANCH  36  59
ATOM     59  C   UNL     1       7.604  10.053  -8.854  1.00  0.00     0.023 A 
ATOM     60  C   UNL     1       6.769  10.824  -9.677  1.00  0.00     0.031 A 
ATOM     61  C   UNL     1       8.993  10.271  -8.920  1.00  0.00     0.131 A 
ATOM     62  C   UNL     1       7.335  11.763 -10.552  1.00  0.00     0.055 A 
ATOM     63  C   UNL     1       9.544  11.248  -9.746  1.00  0.00     0.041 A 
ATOM     64  F   UNL     1       9.833   9.554  -8.156  1.00  0.00    -0.206 F 
ATOM     65  C   UNL     1       8.714  11.997 -10.573  1.00  0.00     0.022 A 
BRANCH  62  66
ATOM     66  S   UNL     1       6.250  12.641 -11.709  1.00  0.00     0.124 S 
ATOM     67  O   UNL     1       5.704  11.544 -12.501  1.00  0.00    -0.237 OA
ATOM     68  O   UNL     1       5.313  13.310 -10.813  1.00  0.00    -0.237 OA
ATOM     69  O   UNL     1       7.163  13.530 -12.426  1.00  0.00    -0.744 OA
ENDBRANCH  62  66
ENDBRANCH  36  59
ENDBRANCH  10  11
ENDBRANCH   3   5
ENDBRANCH   2   3
ENDBRANCH   1   2
BRANCH   1  70
ATOM     70  C   UNL     1       4.019  -1.984  -0.838  1.00  0.00     0.275 C 
BRANCH  70  71
ATOM     71  O   UNL     1       3.502  -1.155  -1.892  1.00  0.00    -0.458 OA
BRANCH  71  72
ATOM     72  C   UNL     1       2.146  -1.116  -2.002  1.00  0.00     0.338 C 
ATOM     73  O   UNL     1       1.345  -1.720  -1.317  1.00  0.00    -0.246 OA
BRANCH  72  74
ATOM     74  C   UNL     1       1.757  -0.123  -3.032  1.00  0.00     0.062 A 
ATOM     75  C   UNL     1       2.330  -0.166  -4.307  1.00  0.00     0.018 A 
ATOM     76  C   UNL     1       0.795   0.848  -2.690  1.00  0.00     0.044 A 
ATOM     77  C   UNL     1       1.941   0.757  -5.286  1.00  0.00     0.031 A 
ATOM     78  C   UNL     1       0.498   1.809  -3.665  1.00  0.00     0.067 A 
ATOM     79  C   UNL     1       1.029   1.766  -4.947  1.00  0.00     0.089 A 
ATOM     80  N   UNL     1      -0.284   2.941  -3.667  1.00  0.00    -0.338 N 
ATOM     81  N   UNL     1       0.517   2.770  -5.720  1.00  0.00    -0.229 NA
ATOM     82  C   UNL     1      -0.270   3.479  -4.936  1.00  0.00     0.138 A 
ATOM     83  H   UNL     1      -0.771   3.305  -2.893  1.00  0.00     0.168 HD
BRANCH  82  84
ATOM     84  C   UNL     1      -1.108   4.589  -5.381  1.00  0.00     0.021 A 
ATOM     85  C   UNL     1      -1.208   5.795  -4.682  1.00  0.00     0.051 A 
ATOM     86  C   UNL     1      -1.828   4.432  -6.577  1.00  0.00     0.027 A 
ATOM     87  C   UNL     1      -2.029   6.809  -5.178  1.00  0.00     0.125 A 
ATOM     88  C   UNL     1      -2.654   5.451  -7.048  1.00  0.00     0.021 A 
ATOM     89  F   UNL     1      -2.126   7.964  -4.505  1.00  0.00    -0.207 F 
ATOM     90  C   UNL     1      -2.760   6.648  -6.350  1.00  0.00     0.055 A 
ATOM     91  Br  UNL     1      -3.650   5.191  -8.633  1.00  0.00    -0.051 Br
ENDBRANCH  82  84
ENDBRANCH  72  74
ENDBRANCH  71  72
ENDBRANCH  70  71
ENDBRANCH   1  70
TORSDOF 15
