REMARK SMILES C[C@H](CC[NH2+][C@@H]1CCOC2(CCC2)C1)CCC(=O)OCCOC(=O)c1ccc(-c2c3nc(c(-c4cc(S(=O)(=O)[O-])ccc4F)c4ccc([nH]4)c(-c4cc(S(=O)(=O)[O-])ccc4F)c4nc(c(-c5cc(S(=O)(=O)[O-])ccc5F)c5ccc2[nH]5)C=C4)C=C3)cc1
REMARK SMILES IDX 19 1 17 2 18 3 16 4 15 5 2 6 1 7 3 8 4 9 5 10 6 13 7 14
REMARK SMILES IDX 14 15 8 16 10 17 9 18 11 19 13 20 12 21 20 22 21 23 22 24
REMARK SMILES IDX 23 25 24 26 25 27 26 28 87 29 27 30 86 31 28 32 29 33 30 34
REMARK SMILES IDX 80 35 31 36 85 37 79 38 81 39 32 40 84 41 78 42 77 43 33 45
REMARK SMILES IDX 65 46 45 47 64 48 46 49 49 50 63 51 82 52 47 53 48 54 62 56
REMARK SMILES IDX 83 57 50 58 34 59 35 60 43 61 36 62 42 63 44 64 41 65 37 66
REMARK SMILES IDX 38 67 39 68 40 69 66 70 67 71 75 72 68 73 74 74 76 75 73 76
REMARK SMILES IDX 69 77 70 78 71 79 72 80 51 81 52 82 60 83 53 84 59 85 61 86
REMARK SMILES IDX 58 87 54 88 55 89 56 90 57 91
REMARK H PARENT 5 11 5 12 81 44 49 55
REMARK Flexibility Score: inf
ROOT
ATOM      1  O   UNL     1       0.233  -2.734  -1.291  1.00  0.00    -0.462 OA
ENDROOT
BRANCH   1   2
ATOM      2  C   UNL     1      -0.873  -2.091  -1.740  1.00  0.00     0.305 C 
ATOM      3  O   UNL     1      -1.536  -2.440  -2.710  1.00  0.00    -0.252 OA
BRANCH   2   4
ATOM      4  C   UNL     1      -1.177  -0.834  -0.956  1.00  0.00     0.123 C 
BRANCH   4   5
ATOM      5  C   UNL     1      -1.033  -0.925   0.568  1.00  0.00     0.015 C 
BRANCH   5   6
ATOM      6  C   UNL     1       0.403  -0.963   1.133  1.00  0.00    -0.008 C 
ATOM      7  C   UNL     1       0.341  -0.939   2.665  1.00  0.00     0.008 C 
BRANCH   6   8
ATOM      8  C   UNL     1       1.242   0.197   0.571  1.00  0.00     0.064 C 
BRANCH   8   9
ATOM      9  C   UNL     1       2.662   0.332   1.119  1.00  0.00     0.261 C 
BRANCH   9  10
ATOM     10  N   UNL     1       3.482  -0.792   0.700  1.00  0.00    -0.344 N 
ATOM     11  H   UNL     1       3.416  -0.854  -0.316  1.00  0.00     0.346 HD
ATOM     12  H   UNL     1       3.107  -1.587   1.218  1.00  0.00     0.346 HD
BRANCH  10  13
ATOM     13  C   UNL     1       4.909  -0.773   1.043  1.00  0.00     0.187 C 
ATOM     14  C   UNL     1       5.510   0.470   1.723  1.00  0.00     0.093 C 
ATOM     15  C   UNL     1       5.704  -1.105  -0.232  1.00  0.00     0.100 C 
ATOM     16  C   UNL     1       5.761   1.637   0.777  1.00  0.00     0.167 C 
ATOM     17  C   UNL     1       5.807   0.125  -1.137  1.00  0.00     0.074 C 
ATOM     18  O   UNL     1       6.437   1.206  -0.399  1.00  0.00    -0.375 OA
ATOM     19  C   UNL     1       6.502  -0.171  -2.501  1.00  0.00     0.036 C 
ATOM     20  C   UNL     1       4.541   0.491  -1.976  1.00  0.00     0.036 C 
ATOM     21  C   UNL     1       5.470   0.753  -3.171  1.00  0.00     0.006 C 
ENDBRANCH  10  13
ENDBRANCH   9  10
ENDBRANCH   8   9
ENDBRANCH   6   8
ENDBRANCH   5   6
ENDBRANCH   4   5
ENDBRANCH   2   4
ENDBRANCH   1   2
BRANCH   1  22
ATOM     22  C   UNL     1       0.574  -3.966  -1.950  1.00  0.00     0.274 C 
BRANCH  22  23
ATOM     23  C   UNL     1       0.119  -5.172  -1.127  1.00  0.00     0.275 C 
BRANCH  23  24
ATOM     24  O   UNL     1      -1.317  -5.240  -1.062  1.00  0.00    -0.458 OA
BRANCH  24  25
ATOM     25  C   UNL     1      -1.868  -4.771   0.082  1.00  0.00     0.338 C 
ATOM     26  O   UNL     1      -1.283  -4.377   1.076  1.00  0.00    -0.246 OA
BRANCH  25  27
ATOM     27  C   UNL     1      -3.326  -4.686  -0.088  1.00  0.00     0.060 A 
ATOM     28  C   UNL     1      -3.905  -3.425  -0.246  1.00  0.00     0.016 A 
ATOM     29  C   UNL     1      -4.124  -5.828  -0.026  1.00  0.00     0.016 A 
ATOM     30  C   UNL     1      -5.286  -3.292  -0.334  1.00  0.00     0.010 A 
ATOM     31  C   UNL     1      -5.513  -5.695  -0.126  1.00  0.00     0.010 A 
ATOM     32  C   UNL     1      -6.102  -4.426  -0.270  1.00  0.00    -0.014 A 
BRANCH  32  33
ATOM     33  C   UNL     1      -7.575  -4.268  -0.295  1.00  0.00     0.031 A 
ATOM     34  C   UNL     1      -8.361  -4.457   0.970  1.00  0.00     0.074 A 
ATOM     35  C   UNL     1      -8.195  -3.931  -1.441  1.00  0.00     0.049 A 
ATOM     36  N   UNL     1      -9.656  -4.465   1.149  1.00  0.00    -0.248 NA
ATOM     37  C   UNL     1      -7.579  -4.670   2.196  1.00  0.00     0.031 C 
ATOM     38  C   UNL     1      -7.525  -3.663  -2.715  1.00  0.00     0.029 A 
ATOM     39  N   UNL     1      -9.527  -3.761  -1.721  1.00  0.00    -0.354 N 
ATOM     40  C   UNL     1      -9.849  -4.700   2.505  1.00  0.00     0.074 A 
ATOM     41  C   UNL     1      -8.534  -4.856   3.094  1.00  0.00     0.031 C 
ATOM     42  C   UNL     1      -8.451  -3.369  -3.642  1.00  0.00     0.029 A 
ATOM     43  C   UNL     1      -9.779  -3.480  -3.043  1.00  0.00     0.049 A 
ATOM     44  H   UNL     1     -10.235  -3.832  -1.041  1.00  0.00     0.167 HD
ATOM     45  C   UNL     1     -11.016  -4.777   3.192  1.00  0.00     0.034 A 
ATOM     46  C   UNL     1     -10.948  -3.366  -3.704  1.00  0.00     0.034 A 
ATOM     47  C   UNL     1     -12.316  -4.624   2.581  1.00  0.00     0.049 A 
ATOM     48  C   UNL     1     -12.234  -3.537  -2.937  1.00  0.00     0.074 A 
ATOM     49  C   UNL     1     -13.564  -4.688   3.176  1.00  0.00     0.029 A 
ATOM     50  N   UNL     1     -12.535  -4.383   1.230  1.00  0.00    -0.354 N 
ATOM     51  N   UNL     1     -12.407  -3.792  -1.661  1.00  0.00    -0.248 NA
ATOM     52  C   UNL     1     -13.481  -3.404  -3.700  1.00  0.00     0.031 C 
ATOM     53  C   UNL     1     -14.535  -4.547   2.178  1.00  0.00     0.029 A 
ATOM     54  C   UNL     1     -13.896  -4.324   0.969  1.00  0.00     0.049 A 
ATOM     55  H   UNL     1     -11.826  -4.270   0.555  1.00  0.00     0.167 HD
ATOM     56  C   UNL     1     -13.785  -3.830  -1.465  1.00  0.00     0.074 A 
ATOM     57  C   UNL     1     -14.393  -3.556  -2.751  1.00  0.00     0.031 C 
ATOM     58  C   UNL     1     -14.484  -4.066  -0.325  1.00  0.00     0.034 A 
BRANCH  45  59
ATOM     59  C   UNL     1     -10.929  -5.101   4.664  1.00  0.00     0.023 A 
ATOM     60  C   UNL     1     -10.316  -4.229   5.581  1.00  0.00     0.031 A 
ATOM     61  C   UNL     1     -11.422  -6.325   5.148  1.00  0.00     0.131 A 
ATOM     62  C   UNL     1     -10.146  -4.625   6.917  1.00  0.00     0.055 A 
ATOM     63  C   UNL     1     -11.320  -6.680   6.495  1.00  0.00     0.041 A 
ATOM     64  F   UNL     1     -11.996  -7.208   4.316  1.00  0.00    -0.206 F 
ATOM     65  C   UNL     1     -10.665  -5.835   7.385  1.00  0.00     0.022 A 
BRANCH  62  66
ATOM     66  S   UNL     1      -9.108  -3.604   8.000  1.00  0.00     0.124 S 
ATOM     67  O   UNL     1      -7.839  -3.603   7.277  1.00  0.00    -0.237 OA
ATOM     68  O   UNL     1      -9.830  -2.338   8.027  1.00  0.00    -0.237 OA
ATOM     69  O   UNL     1      -9.097  -4.344   9.261  1.00  0.00    -0.744 OA
ENDBRANCH  62  66
ENDBRANCH  45  59
BRANCH  46  70
ATOM     70  C   UNL     1     -10.959  -3.138  -5.177  1.00  0.00     0.023 A 
ATOM     71  C   UNL     1     -11.483  -1.959  -5.728  1.00  0.00     0.031 A 
ATOM     72  C   UNL     1     -10.475  -4.122  -6.059  1.00  0.00     0.131 A 
ATOM     73  C   UNL     1     -11.543  -1.808  -7.123  1.00  0.00     0.055 A 
ATOM     74  C   UNL     1     -10.491  -3.945  -7.443  1.00  0.00     0.041 A 
ATOM     75  F   UNL     1      -9.964  -5.269  -5.582  1.00  0.00    -0.206 F 
ATOM     76  C   UNL     1     -11.039  -2.786  -7.983  1.00  0.00     0.022 A 
BRANCH  73  77
ATOM     77  S   UNL     1     -12.360  -0.338  -7.803  1.00  0.00     0.124 S 
ATOM     78  O   UNL     1     -13.700  -0.454  -7.240  1.00  0.00    -0.237 OA
ATOM     79  O   UNL     1     -11.532   0.741  -7.274  1.00  0.00    -0.237 OA
ATOM     80  O   UNL     1     -12.270  -0.536  -9.248  1.00  0.00    -0.744 OA
ENDBRANCH  73  77
ENDBRANCH  46  70
BRANCH  58  81
ATOM     81  C   UNL     1     -15.988  -3.996  -0.424  1.00  0.00     0.023 A 
ATOM     82  C   UNL     1     -16.728  -4.954  -1.140  1.00  0.00     0.031 A 
ATOM     83  C   UNL     1     -16.687  -2.944   0.193  1.00  0.00     0.131 A 
ATOM     84  C   UNL     1     -18.118  -4.811  -1.265  1.00  0.00     0.055 A 
ATOM     85  C   UNL     1     -18.076  -2.837   0.111  1.00  0.00     0.041 A 
ATOM     86  F   UNL     1     -16.029  -2.001   0.887  1.00  0.00    -0.206 F 
ATOM     87  C   UNL     1     -18.798  -3.767  -0.631  1.00  0.00     0.022 A 
BRANCH  84  88
ATOM     88  S   UNL     1     -19.021  -5.961  -2.338  1.00  0.00     0.124 S 
ATOM     89  O   UNL     1     -18.371  -5.747  -3.627  1.00  0.00    -0.237 OA
ATOM     90  O   UNL     1     -18.764  -7.249  -1.701  1.00  0.00    -0.237 OA
ATOM     91  O   UNL     1     -20.404  -5.495  -2.255  1.00  0.00    -0.744 OA
ENDBRANCH  84  88
ENDBRANCH  58  81
ENDBRANCH  32  33
ENDBRANCH  25  27
ENDBRANCH  24  25
ENDBRANCH  23  24
ENDBRANCH  22  23
ENDBRANCH   1  22
TORSDOF 20
