REMARK SMILES Cc1ccc(N)c(SCCOc2ccccc2C(=O)OCCOC(=O)c2ccc(-c3c4nc(c(-c5cc(S(=O)(=O)[O-])ccc5F)c5ccc([nH]5)c(-c5cc(S(=O)(=O)[O-])ccc5F)c5nc(c(-c6cc(S(=O)(=O)[O-])ccc6F)c6ccc3[nH]6)C=C5)C=C4)cc2)c1
REMARK SMILES IDX 20 1 18 2 19 3 17 4 12 5 13 6 14 7 16 8 15 9 11 10 10 11
REMARK SMILES IDX 9 12 8 13 7 14 1 15 2 16 3 17 89 18 4 19 5 20 6 21 21 24
REMARK SMILES IDX 22 25 23 26 24 27 25 28 26 29 27 30 88 31 28 32 87 33 29 34
REMARK SMILES IDX 30 35 31 36 81 37 32 38 86 39 80 40 82 41 33 42 85 43 79 44
REMARK SMILES IDX 78 45 34 47 66 48 46 49 65 50 47 51 50 52 64 53 83 54 48 55
REMARK SMILES IDX 49 56 63 58 84 59 51 60 35 61 36 62 44 63 37 64 43 65 45 66
REMARK SMILES IDX 42 67 38 68 39 69 40 70 41 71 67 72 68 73 76 74 69 75 75 76
REMARK SMILES IDX 77 77 74 78 70 79 71 80 72 81 73 82 52 83 53 84 61 85 54 86
REMARK SMILES IDX 60 87 62 88 59 89 55 90 56 91 57 92 58 93
REMARK H PARENT 6 22 6 23 82 46 50 57
REMARK Flexibility Score: inf
ROOT
ATOM      1  O   UNL     1      -1.325   4.050   0.619  1.00  0.00    -0.458 OA
ENDROOT
BRANCH   1   2
ATOM      2  C   UNL     1      -0.672   2.987   0.082  1.00  0.00     0.342 C 
ATOM      3  O   UNL     1       0.435   2.698   0.479  1.00  0.00    -0.246 OA
BRANCH   2   4
ATOM      4  C   UNL     1      -1.305   2.357  -1.121  1.00  0.00     0.102 A 
ATOM      5  C   UNL     1      -1.536   3.182  -2.190  1.00  0.00     0.133 A 
ATOM      6  C   UNL     1      -2.292   2.754  -3.298  1.00  0.00     0.047 A 
ATOM      7  C   UNL     1      -2.448   1.387  -3.529  1.00  0.00     0.004 A 
ATOM      8  C   UNL     1      -1.212   1.028  -1.527  1.00  0.00     0.019 A 
ATOM      9  C   UNL     1      -1.766   0.522  -2.706  1.00  0.00     0.001 A 
BRANCH   5  10
ATOM     10  O   UNL     1      -0.555   4.153  -2.382  1.00  0.00    -0.492 OA
BRANCH  10  11
ATOM     11  C   UNL     1       0.719   3.497  -2.764  1.00  0.00     0.241 C 
BRANCH  11  12
ATOM     12  C   UNL     1       1.791   3.196  -1.641  1.00  0.00     0.116 C 
BRANCH  12  13
ATOM     13  S   UNL     1       2.650   1.484  -1.121  1.00  0.00    -0.120 SA
BRANCH  13  14
ATOM     14  C   UNL     1       1.760   0.092  -0.276  1.00  0.00     0.031 A 
ATOM     15  C   UNL     1      -1.578  -0.822   1.306  1.00  0.00     0.044 C 
ATOM     16  C   UNL     1      -0.157  -1.027   0.829  1.00  0.00    -0.050 A 
ATOM     17  C   UNL     1       0.228  -2.247   0.304  1.00  0.00     0.005 A 
ATOM     18  C   UNL     1       0.718   0.077   0.676  1.00  0.00     0.020 A 
ATOM     19  C   UNL     1       1.466  -2.341  -0.323  1.00  0.00     0.027 A 
ATOM     20  C   UNL     1       2.251  -1.199  -0.581  1.00  0.00     0.045 A 
BRANCH  20  21
ATOM     21  N   UNL     1       3.470  -1.377  -1.248  1.00  0.00    -0.398 N 
ATOM     22  H   UNL     1       3.792  -2.285  -1.450  1.00  0.00     0.156 HD
ATOM     23  H   UNL     1       4.005  -0.595  -1.515  1.00  0.00     0.156 HD
ENDBRANCH  20  21
ENDBRANCH  13  14
ENDBRANCH  12  13
ENDBRANCH  11  12
ENDBRANCH  10  11
ENDBRANCH   5  10
ENDBRANCH   2   4
ENDBRANCH   1   2
BRANCH   1  24
ATOM     24  C   UNL     1      -0.452   4.869   1.460  1.00  0.00     0.275 C 
BRANCH  24  25
ATOM     25  C   UNL     1      -0.145   4.308   2.875  1.00  0.00     0.275 C 
BRANCH  25  26
ATOM     26  O   UNL     1       0.972   3.381   2.916  1.00  0.00    -0.458 OA
BRANCH  26  27
ATOM     27  C   UNL     1       1.138   2.712   4.095  1.00  0.00     0.338 C 
ATOM     28  O   UNL     1       0.486   2.936   5.109  1.00  0.00    -0.246 OA
BRANCH  27  29
ATOM     29  C   UNL     1       2.164   1.615   4.027  1.00  0.00     0.060 A 
ATOM     30  C   UNL     1       2.782   1.241   2.840  1.00  0.00     0.016 A 
ATOM     31  C   UNL     1       2.456   0.856   5.169  1.00  0.00     0.016 A 
ATOM     32  C   UNL     1       3.530   0.046   2.756  1.00  0.00     0.010 A 
ATOM     33  C   UNL     1       3.300  -0.279   5.100  1.00  0.00     0.010 A 
ATOM     34  C   UNL     1       3.810  -0.752   3.877  1.00  0.00    -0.014 A 
BRANCH  34  35
ATOM     35  C   UNL     1       4.550  -2.077   3.778  1.00  0.00     0.031 A 
ATOM     36  C   UNL     1       4.023  -3.310   4.501  1.00  0.00     0.074 A 
ATOM     37  C   UNL     1       5.675  -2.252   3.043  1.00  0.00     0.049 A 
ATOM     38  N   UNL     1       4.633  -4.432   4.811  1.00  0.00    -0.248 NA
ATOM     39  C   UNL     1       2.623  -3.261   4.943  1.00  0.00     0.031 C 
ATOM     40  C   UNL     1       6.309  -1.248   2.190  1.00  0.00     0.029 A 
ATOM     41  N   UNL     1       6.495  -3.358   2.895  1.00  0.00    -0.354 N 
ATOM     42  C   UNL     1       3.723  -5.178   5.562  1.00  0.00     0.074 A 
ATOM     43  C   UNL     1       2.518  -4.376   5.652  1.00  0.00     0.031 C 
ATOM     44  C   UNL     1       7.373  -1.788   1.577  1.00  0.00     0.029 A 
ATOM     45  C   UNL     1       7.596  -3.134   2.095  1.00  0.00     0.049 A 
ATOM     46  H   UNL     1       6.310  -4.225   3.323  1.00  0.00     0.167 HD
ATOM     47  C   UNL     1       3.872  -6.406   6.129  1.00  0.00     0.034 A 
ATOM     48  C   UNL     1       8.706  -3.868   1.852  1.00  0.00     0.034 A 
ATOM     49  C   UNL     1       5.036  -7.250   5.965  1.00  0.00     0.049 A 
ATOM     50  C   UNL     1       8.898  -5.194   2.546  1.00  0.00     0.074 A 
ATOM     51  C   UNL     1       5.268  -8.513   6.490  1.00  0.00     0.029 A 
ATOM     52  N   UNL     1       6.154  -6.936   5.205  1.00  0.00    -0.354 N 
ATOM     53  N   UNL     1       8.092  -5.822   3.369  1.00  0.00    -0.248 NA
ATOM     54  C   UNL     1      10.167  -5.896   2.299  1.00  0.00     0.031 C 
ATOM     55  C   UNL     1       6.548  -8.930   6.105  1.00  0.00     0.029 A 
ATOM     56  C   UNL     1       7.086  -7.965   5.272  1.00  0.00     0.049 A 
ATOM     57  H   UNL     1       6.270  -6.103   4.692  1.00  0.00     0.167 HD
ATOM     58  C   UNL     1       8.755  -6.994   3.729  1.00  0.00     0.074 A 
ATOM     59  C   UNL     1      10.013  -7.000   3.015  1.00  0.00     0.031 C 
ATOM     60  C   UNL     1       8.354  -7.973   4.579  1.00  0.00     0.034 A 
BRANCH  47  61
ATOM     61  C   UNL     1       2.776  -6.886   7.060  1.00  0.00     0.023 A 
ATOM     62  C   UNL     1       1.468  -7.154   6.623  1.00  0.00     0.031 A 
ATOM     63  C   UNL     1       3.054  -7.054   8.432  1.00  0.00     0.131 A 
ATOM     64  C   UNL     1       0.473  -7.491   7.557  1.00  0.00     0.055 A 
ATOM     65  C   UNL     1       2.081  -7.474   9.340  1.00  0.00     0.041 A 
ATOM     66  F   UNL     1       4.281  -6.803   8.916  1.00  0.00    -0.206 F 
ATOM     67  C   UNL     1       0.776  -7.677   8.908  1.00  0.00     0.022 A 
BRANCH  64  68
ATOM     68  S   UNL     1      -1.257  -7.525   7.008  1.00  0.00     0.124 S 
ATOM     69  O   UNL     1      -1.417  -6.185   6.447  1.00  0.00    -0.237 OA
ATOM     70  O   UNL     1      -1.262  -8.623   6.050  1.00  0.00    -0.237 OA
ATOM     71  O   UNL     1      -2.004  -7.768   8.241  1.00  0.00    -0.744 OA
ENDBRANCH  64  68
ENDBRANCH  47  61
BRANCH  48  72
ATOM     72  C   UNL     1       9.804  -3.312   0.999  1.00  0.00     0.023 A 
ATOM     73  C   UNL     1      10.200  -3.940  -0.194  1.00  0.00     0.031 A 
ATOM     74  C   UNL     1      10.510  -2.162   1.401  1.00  0.00     0.131 A 
ATOM     75  C   UNL     1      11.284  -3.427  -0.927  1.00  0.00     0.055 A 
ATOM     76  C   UNL     1      11.543  -1.621   0.636  1.00  0.00     0.041 A 
ATOM     77  F   UNL     1      10.189  -1.533   2.543  1.00  0.00    -0.206 F 
ATOM     78  C   UNL     1      11.943  -2.260  -0.531  1.00  0.00     0.022 A 
BRANCH  75  79
ATOM     79  S   UNL     1      11.880  -4.349  -2.373  1.00  0.00     0.124 S 
ATOM     80  O   UNL     1      12.274  -5.619  -1.773  1.00  0.00    -0.237 OA
ATOM     81  O   UNL     1      10.694  -4.381  -3.223  1.00  0.00    -0.237 OA
ATOM     82  O   UNL     1      12.979  -3.526  -2.873  1.00  0.00    -0.744 OA
ENDBRANCH  75  79
ENDBRANCH  48  72
BRANCH  60  83
ATOM     83  C   UNL     1       9.272  -9.163   4.749  1.00  0.00     0.023 A 
ATOM     84  C   UNL     1      10.531  -9.049   5.366  1.00  0.00     0.031 A 
ATOM     85  C   UNL     1       8.891 -10.426   4.261  1.00  0.00     0.131 A 
ATOM     86  C   UNL     1      11.384 -10.163   5.432  1.00  0.00     0.055 A 
ATOM     87  C   UNL     1       9.720 -11.544   4.381  1.00  0.00     0.041 A 
ATOM     88  F   UNL     1       7.704 -10.596   3.657  1.00  0.00    -0.206 F 
ATOM     89  C   UNL     1      10.980 -11.413   4.957  1.00  0.00     0.022 A 
BRANCH  86  90
ATOM     90  S   UNL     1      13.071  -9.939   6.064  1.00  0.00     0.124 S 
ATOM     91  O   UNL     1      13.604  -8.928   5.156  1.00  0.00    -0.237 OA
ATOM     92  O   UNL     1      12.836  -9.504   7.436  1.00  0.00    -0.237 OA
ATOM     93  O   UNL     1      13.668 -11.267   5.930  1.00  0.00    -0.744 OA
ENDBRANCH  86  90
ENDBRANCH  60  83
ENDBRANCH  34  35
ENDBRANCH  27  29
ENDBRANCH  26  27
ENDBRANCH  25  26
ENDBRANCH  24  25
ENDBRANCH   1  24
TORSDOF 20
