REMARK SMILES O=C(OCCOC(=O)[C@@H]1CSCN1C(=O)COc1ccc(Cl)cc1Cl)c1ccc(-c2c3nc(c(-c4cc(S(=O)(=O)[O-])ccc4F)c4ccc([nH]4)c(-c4cc(S(=O)(=O)[O-])ccc4F)c4nc(c(-c5cc(S(=O)(=O)[O-])ccc5F)c5ccc2[nH]5)C=C4)C=C3)cc1
REMARK SMILES IDX 5 1 4 2 3 3 2 4 1 5 26 6 27 7 88 8 28 9 87 10 29 11 30 12
REMARK SMILES IDX 31 13 81 14 32 15 86 16 80 17 82 18 33 19 85 20 79 21 78 22
REMARK SMILES IDX 34 24 66 25 46 26 65 27 47 28 50 29 64 30 83 31 48 32 49 33
REMARK SMILES IDX 63 35 84 36 51 37 35 38 36 39 44 40 37 41 43 42 45 43 42 44
REMARK SMILES IDX 38 45 39 46 40 47 41 48 67 49 68 50 76 51 69 52 75 53 77 54
REMARK SMILES IDX 74 55 70 56 71 57 72 58 73 59 52 60 53 61 61 62 54 63 60 64
REMARK SMILES IDX 62 65 59 66 55 67 56 68 57 69 58 70 6 71 7 72 8 73 9 74
REMARK SMILES IDX 10 75 13 76 11 77 12 78 14 79 15 80 16 81 17 82 18 83 19 84
REMARK SMILES IDX 24 85 20 86 23 87 25 88 21 89 22 90
REMARK H PARENT 82 23 50 34
REMARK Flexibility Score: inf
ROOT
ATOM      1  C   UNL     1       2.225   2.983  -5.923  1.00  0.00     0.274 C 
ENDROOT
BRANCH   1   2
ATOM      2  C   UNL     1       3.733   3.138  -6.170  1.00  0.00     0.275 C 
BRANCH   2   3
ATOM      3  O   UNL     1       4.483   1.998  -5.745  1.00  0.00    -0.458 OA
BRANCH   3   4
ATOM      4  C   UNL     1       4.897   1.743  -4.487  1.00  0.00     0.338 C 
ATOM      5  O   UNL     1       5.506   0.700  -4.265  1.00  0.00    -0.246 OA
BRANCH   4   6
ATOM      6  C   UNL     1       4.471   2.551  -3.303  1.00  0.00     0.060 A 
ATOM      7  C   UNL     1       3.645   4.191  -3.224  1.00  0.00     0.016 A 
ATOM      8  C   UNL     1       4.754   1.635  -1.721  1.00  0.00     0.016 A 
ATOM      9  C   UNL     1       3.201   4.920  -1.593  1.00  0.00     0.010 A 
ATOM     10  C   UNL     1       4.326   2.382  -0.141  1.00  0.00     0.010 A 
ATOM     11  C   UNL     1       3.613   4.021  -0.046  1.00  0.00    -0.014 A 
BRANCH  11  12
ATOM     12  C   UNL     1       3.672   4.770   1.270  1.00  0.00     0.031 A 
ATOM     13  C   UNL     1       4.994   5.219   1.869  1.00  0.00     0.074 A 
ATOM     14  C   UNL     1       2.531   5.213   1.823  1.00  0.00     0.049 A 
ATOM     15  N   UNL     1       5.206   6.185   2.728  1.00  0.00    -0.248 NA
ATOM     16  C   UNL     1       6.237   4.580   1.399  1.00  0.00     0.031 C 
ATOM     17  C   UNL     1       1.220   4.766   1.421  1.00  0.00     0.029 A 
ATOM     18  N   UNL     1       2.248   6.104   2.820  1.00  0.00    -0.354 N 
ATOM     19  C   UNL     1       6.587   6.348   2.799  1.00  0.00     0.074 A 
ATOM     20  C   UNL     1       7.172   5.372   1.911  1.00  0.00     0.031 C 
ATOM     21  C   UNL     1       0.259   5.481   1.994  1.00  0.00     0.029 A 
ATOM     22  C   UNL     1       0.893   6.247   3.040  1.00  0.00     0.049 A 
ATOM     23  H   UNL     1       2.937   6.592   3.327  1.00  0.00     0.167 HD
ATOM     24  C   UNL     1       7.294   7.219   3.561  1.00  0.00     0.034 A 
ATOM     25  C   UNL     1       0.210   6.790   4.060  1.00  0.00     0.034 A 
ATOM     26  C   UNL     1       6.676   7.989   4.617  1.00  0.00     0.049 A 
ATOM     27  C   UNL     1       1.022   7.489   5.088  1.00  0.00     0.074 A 
ATOM     28  C   UNL     1       7.272   8.799   5.565  1.00  0.00     0.029 A 
ATOM     29  N   UNL     1       5.316   7.960   4.920  1.00  0.00    -0.354 N 
ATOM     30  N   UNL     1       2.324   7.658   5.108  1.00  0.00    -0.248 NA
ATOM     31  C   UNL     1       0.297   8.076   6.208  1.00  0.00     0.031 C 
ATOM     32  C   UNL     1       6.298   9.150   6.508  1.00  0.00     0.029 A 
ATOM     33  C   UNL     1       5.068   8.668   6.084  1.00  0.00     0.049 A 
ATOM     34  H   UNL     1       4.630   7.502   4.383  1.00  0.00     0.167 HD
ATOM     35  C   UNL     1       2.583   8.408   6.238  1.00  0.00     0.074 A 
ATOM     36  C   UNL     1       1.291   8.660   6.862  1.00  0.00     0.031 C 
ATOM     37  C   UNL     1       3.776   8.858   6.703  1.00  0.00     0.034 A 
BRANCH  24  38
ATOM     38  C   UNL     1       8.798   7.252   3.389  1.00  0.00     0.023 A 
ATOM     39  C   UNL     1       9.411   7.727   2.212  1.00  0.00     0.031 A 
ATOM     40  C   UNL     1       9.636   6.777   4.414  1.00  0.00     0.131 A 
ATOM     41  C   UNL     1      10.813   7.683   2.080  1.00  0.00     0.055 A 
ATOM     42  C   UNL     1      11.029   6.789   4.300  1.00  0.00     0.041 A 
ATOM     43  F   UNL     1       9.114   6.275   5.544  1.00  0.00    -0.206 F 
ATOM     44  C   UNL     1      11.625   7.237   3.126  1.00  0.00     0.022 A 
BRANCH  41  45
ATOM     45  S   UNL     1      11.570   8.099   0.480  1.00  0.00     0.124 S 
ATOM     46  O   UNL     1      10.893   7.172  -0.423  1.00  0.00    -0.237 OA
ATOM     47  O   UNL     1      11.230   9.508   0.324  1.00  0.00    -0.237 OA
ATOM     48  O   UNL     1      12.991   7.823   0.689  1.00  0.00    -0.744 OA
ENDBRANCH  41  45
ENDBRANCH  24  38
BRANCH  25  49
ATOM     49  C   UNL     1      -1.259   6.558   4.163  1.00  0.00     0.023 A 
ATOM     50  C   UNL     1      -2.176   7.608   4.065  1.00  0.00     0.031 A 
ATOM     51  C   UNL     1      -1.769   5.242   4.257  1.00  0.00     0.131 A 
ATOM     52  C   UNL     1      -3.552   7.328   4.049  1.00  0.00     0.055 A 
ATOM     53  C   UNL     1      -3.133   4.966   4.173  1.00  0.00     0.041 A 
ATOM     54  F   UNL     1      -0.934   4.193   4.344  1.00  0.00    -0.206 F 
ATOM     55  C   UNL     1      -4.036   6.016   4.074  1.00  0.00     0.022 A 
BRANCH  52  56
ATOM     56  S   UNL     1      -4.716   8.716   4.053  1.00  0.00     0.124 S 
ATOM     57  O   UNL     1      -4.252   9.493   5.196  1.00  0.00    -0.237 OA
ATOM     58  O   UNL     1      -4.485   9.305   2.738  1.00  0.00    -0.237 OA
ATOM     59  O   UNL     1      -6.015   8.068   4.224  1.00  0.00    -0.744 OA
ENDBRANCH  52  56
ENDBRANCH  25  49
BRANCH  37  60
ATOM     60  C   UNL     1       3.698   9.706   7.936  1.00  0.00     0.023 A 
ATOM     61  C   UNL     1       3.244   9.177   9.153  1.00  0.00     0.031 A 
ATOM     62  C   UNL     1       3.998  11.076   7.865  1.00  0.00     0.131 A 
ATOM     63  C   UNL     1       2.997  10.040  10.225  1.00  0.00     0.055 A 
ATOM     64  C   UNL     1       3.848  11.910   8.968  1.00  0.00     0.041 A 
ATOM     65  F   UNL     1       4.420  11.626   6.715  1.00  0.00    -0.206 F 
ATOM     66  C   UNL     1       3.322  11.397  10.151  1.00  0.00     0.022 A 
BRANCH  63  67
ATOM     67  S   UNL     1       2.078   9.391  11.644  1.00  0.00     0.124 S 
ATOM     68  O   UNL     1       0.825   8.976  11.020  1.00  0.00    -0.237 OA
ATOM     69  O   UNL     1       2.943   8.314  12.113  1.00  0.00    -0.237 OA
ATOM     70  O   UNL     1       1.976  10.542  12.538  1.00  0.00    -0.744 OA
ENDBRANCH  63  67
ENDBRANCH  37  60
ENDBRANCH  11  12
ENDBRANCH   4   6
ENDBRANCH   3   4
ENDBRANCH   2   3
ENDBRANCH   1   2
BRANCH   1  71
ATOM     71  O   UNL     1       1.940   2.772  -4.527  1.00  0.00    -0.461 OA
BRANCH  71  72
ATOM     72  C   UNL     1       1.972   1.496  -4.066  1.00  0.00     0.329 C 
ATOM     73  O   UNL     1       1.670   0.526  -4.751  1.00  0.00    -0.250 OA
BRANCH  72  74
ATOM     74  C   UNL     1       2.479   1.385  -2.574  1.00  0.00     0.206 C 
ATOM     75  C   UNL     1       1.262   0.790  -1.840  1.00  0.00     0.108 C 
ATOM     76  N   UNL     1       3.074   2.875  -1.793  1.00  0.00    -0.316 N 
ATOM     77  S   UNL     1       0.729   1.950  -0.627  1.00  0.00    -0.138 SA
ATOM     78  C   UNL     1       1.552   3.346  -1.450  1.00  0.00     0.190 C 
BRANCH  76  79
ATOM     79  C   UNL     1       4.861   3.731  -1.681  1.00  0.00     0.261 C 
ATOM     80  O   UNL     1       6.059   3.260  -1.808  1.00  0.00    -0.271 OA
BRANCH  79  81
ATOM     81  C   UNL     1       5.342   5.533  -1.593  1.00  0.00     0.329 C 
BRANCH  81  82
ATOM     82  O   UNL     1       4.886   6.786  -2.057  1.00  0.00    -0.482 OA
BRANCH  82  83
ATOM     83  C   UNL     1       4.968   7.147  -3.367  1.00  0.00     0.138 A 
ATOM     84  C   UNL     1       5.505   6.340  -4.367  1.00  0.00     0.049 A 
ATOM     85  C   UNL     1       4.385   8.377  -3.720  1.00  0.00     0.084 A 
ATOM     86  C   UNL     1       5.317   6.676  -5.710  1.00  0.00     0.024 A 
ATOM     87  C   UNL     1       4.232   8.734  -5.060  1.00  0.00     0.045 A 
ATOM     88  Cl  UNL     1       3.794   9.475  -2.523  1.00  0.00    -0.080 Cl
ATOM     89  C   UNL     1       4.662   7.858  -6.049  1.00  0.00     0.042 A 
ATOM     90  Cl  UNL     1       4.356   8.213  -7.704  1.00  0.00    -0.084 Cl
ENDBRANCH  82  83
ENDBRANCH  81  82
ENDBRANCH  79  81
ENDBRANCH  76  79
ENDBRANCH  72  74
ENDBRANCH  71  72
ENDBRANCH   1  71
TORSDOF 18
