REMARK SMILES O=C(OCCOC(=O)[C@@H]1CN(C(=O)[C@H]2CC=CCC2)c2ccccc2O1)c1ccc(-c2c3nc(c(-c4cc(S(=O)(=O)[O-])ccc4F)c4ccc([nH]4)c(-c4cc(S(=O)(=O)[O-])ccc4F)c4nc(c(-c5cc(S(=O)(=O)[O-])ccc5F)c5ccc2[nH]5)C=C4)C=C3)cc1
REMARK SMILES IDX 4 1 3 2 2 3 1 4 27 5 28 6 89 7 29 8 88 9 30 10 31 11 32 12
REMARK SMILES IDX 82 13 33 14 87 15 81 16 83 17 34 18 86 19 80 20 79 21 35 23
REMARK SMILES IDX 67 24 47 25 66 26 48 27 51 28 65 29 84 30 49 31 50 32 64 34
REMARK SMILES IDX 85 35 52 36 36 37 37 38 45 39 38 40 44 41 46 42 43 43 39 44
REMARK SMILES IDX 40 45 41 46 42 47 68 48 69 49 77 50 70 51 76 52 78 53 75 54
REMARK SMILES IDX 71 55 72 56 73 57 74 58 53 59 54 60 62 61 55 62 61 63 63 64
REMARK SMILES IDX 60 65 56 66 57 67 58 68 59 69 5 70 6 71 7 72 8 73 9 74 10 75
REMARK SMILES IDX 26 76 11 77 25 78 20 79 24 80 21 81 23 82 22 83 12 84 13 85
REMARK SMILES IDX 14 86 15 87 19 88 16 89 18 90 17 91
REMARK H PARENT 83 22 51 33
REMARK Flexibility Score: inf
ROOT
ATOM      1  C   UNL     1       5.584  -0.827  -1.949  1.00  0.00     0.275 C 
ENDROOT
BRANCH   1   2
ATOM      2  O   UNL     1       5.767  -1.347  -0.622  1.00  0.00    -0.458 OA
BRANCH   2   3
ATOM      3  C   UNL     1       5.095  -0.729   0.372  1.00  0.00     0.338 C 
ATOM      4  O   UNL     1       4.202  -1.283   0.991  1.00  0.00    -0.246 OA
BRANCH   3   5
ATOM      5  C   UNL     1       5.473   0.697   0.586  1.00  0.00     0.060 A 
ATOM      6  C   UNL     1       6.707   1.255   0.273  1.00  0.00     0.016 A 
ATOM      7  C   UNL     1       4.472   1.518   1.095  1.00  0.00     0.016 A 
ATOM      8  C   UNL     1       6.918   2.622   0.491  1.00  0.00     0.010 A 
ATOM      9  C   UNL     1       4.637   2.883   1.256  1.00  0.00     0.010 A 
ATOM     10  C   UNL     1       5.889   3.430   1.003  1.00  0.00    -0.014 A 
BRANCH  10  11
ATOM     11  C   UNL     1       6.159   4.800   1.469  1.00  0.00     0.031 A 
ATOM     12  C   UNL     1       6.475   5.001   2.921  1.00  0.00     0.074 A 
ATOM     13  C   UNL     1       6.038   5.842   0.632  1.00  0.00     0.049 A 
ATOM     14  N   UNL     1       6.976   6.042   3.525  1.00  0.00    -0.248 NA
ATOM     15  C   UNL     1       6.144   3.883   3.820  1.00  0.00     0.031 C 
ATOM     16  C   UNL     1       5.552   5.770  -0.747  1.00  0.00     0.029 A 
ATOM     17  N   UNL     1       6.318   7.167   0.824  1.00  0.00    -0.354 N 
ATOM     18  C   UNL     1       7.061   5.689   4.868  1.00  0.00     0.074 A 
ATOM     19  C   UNL     1       6.449   4.387   5.003  1.00  0.00     0.031 C 
ATOM     20  C   UNL     1       5.603   6.999  -1.289  1.00  0.00     0.029 A 
ATOM     21  C   UNL     1       6.165   7.925  -0.310  1.00  0.00     0.049 A 
ATOM     22  H   UNL     1       6.601   7.540   1.690  1.00  0.00     0.167 HD
ATOM     23  C   UNL     1       7.648   6.375   5.879  1.00  0.00     0.034 A 
ATOM     24  C   UNL     1       6.518   9.204  -0.541  1.00  0.00     0.034 A 
ATOM     25  C   UNL     1       8.213   7.687   5.685  1.00  0.00     0.049 A 
ATOM     26  C   UNL     1       7.274   9.928   0.543  1.00  0.00     0.074 A 
ATOM     27  C   UNL     1       8.905   8.487   6.575  1.00  0.00     0.029 A 
ATOM     28  N   UNL     1       8.125   8.401   4.493  1.00  0.00    -0.354 N 
ATOM     29  N   UNL     1       7.540   9.533   1.770  1.00  0.00    -0.248 NA
ATOM     30  C   UNL     1       7.837  11.235   0.192  1.00  0.00     0.031 C 
ATOM     31  C   UNL     1       9.198   9.698   5.932  1.00  0.00     0.029 A 
ATOM     32  C   UNL     1       8.740   9.632   4.623  1.00  0.00     0.049 A 
ATOM     33  H   UNL     1       7.688   8.075   3.674  1.00  0.00     0.167 HD
ATOM     34  C   UNL     1       8.336  10.529   2.326  1.00  0.00     0.074 A 
ATOM     35  C   UNL     1       8.512  11.535   1.294  1.00  0.00     0.031 C 
ATOM     36  C   UNL     1       8.882  10.608   3.568  1.00  0.00     0.034 A 
BRANCH  23  37
ATOM     37  C   UNL     1       7.691   5.705   7.234  1.00  0.00     0.023 A 
ATOM     38  C   UNL     1       8.289   4.439   7.401  1.00  0.00     0.031 A 
ATOM     39  C   UNL     1       7.064   6.277   8.352  1.00  0.00     0.131 A 
ATOM     40  C   UNL     1       8.142   3.740   8.608  1.00  0.00     0.055 A 
ATOM     41  C   UNL     1       7.007   5.617   9.584  1.00  0.00     0.041 A 
ATOM     42  F   UNL     1       6.460   7.473   8.261  1.00  0.00    -0.206 F 
ATOM     43  C   UNL     1       7.526   4.331   9.711  1.00  0.00     0.022 A 
BRANCH  40  44
ATOM     44  S   UNL     1       8.595   1.983   8.645  1.00  0.00     0.124 S 
ATOM     45  O   UNL     1       7.747   1.439   7.586  1.00  0.00    -0.237 OA
ATOM     46  O   UNL     1      10.025   2.020   8.361  1.00  0.00    -0.237 OA
ATOM     47  O   UNL     1       8.236   1.565   9.998  1.00  0.00    -0.744 OA
ENDBRANCH  40  44
ENDBRANCH  23  37
BRANCH  24  48
ATOM     48  C   UNL     1       6.299   9.799  -1.886  1.00  0.00     0.023 A 
ATOM     49  C   UNL     1       7.373   9.995  -2.769  1.00  0.00     0.031 A 
ATOM     50  C   UNL     1       5.009  10.133  -2.330  1.00  0.00     0.131 A 
ATOM     51  C   UNL     1       7.142  10.532  -4.045  1.00  0.00     0.055 A 
ATOM     52  C   UNL     1       4.780  10.643  -3.610  1.00  0.00     0.041 A 
ATOM     53  F   UNL     1       3.946   9.937  -1.533  1.00  0.00    -0.206 F 
ATOM     54  C   UNL     1       5.852  10.851  -4.474  1.00  0.00     0.022 A 
BRANCH  51  55
ATOM     55  S   UNL     1       8.564  10.824  -5.133  1.00  0.00     0.124 S 
ATOM     56  O   UNL     1       9.388  11.711  -4.319  1.00  0.00    -0.237 OA
ATOM     57  O   UNL     1       9.075   9.472  -5.328  1.00  0.00    -0.237 OA
ATOM     58  O   UNL     1       7.965  11.438  -6.316  1.00  0.00    -0.744 OA
ENDBRANCH  51  55
ENDBRANCH  24  48
BRANCH  36  59
ATOM     59  C   UNL     1       9.739  11.813   3.849  1.00  0.00     0.023 A 
ATOM     60  C   UNL     1       9.182  13.098   3.945  1.00  0.00     0.031 A 
ATOM     61  C   UNL     1      11.127  11.671   4.010  1.00  0.00     0.131 A 
ATOM     62  C   UNL     1      10.019  14.205   4.136  1.00  0.00     0.055 A 
ATOM     63  C   UNL     1      11.949  12.770   4.256  1.00  0.00     0.041 A 
ATOM     64  F   UNL     1      11.705  10.461   3.929  1.00  0.00    -0.206 F 
ATOM     65  C   UNL     1      11.398  14.048   4.306  1.00  0.00     0.022 A 
BRANCH  62  66
ATOM     66  S   UNL     1       9.289  15.862   4.066  1.00  0.00     0.124 S 
ATOM     67  O   UNL     1       8.709  15.880   2.727  1.00  0.00    -0.237 OA
ATOM     68  O   UNL     1       8.338  15.830   5.173  1.00  0.00    -0.237 OA
ATOM     69  O   UNL     1      10.434  16.749   4.258  1.00  0.00    -0.744 OA
ENDBRANCH  62  66
ENDBRANCH  36  59
ENDBRANCH  10  11
ENDBRANCH   3   5
ENDBRANCH   2   3
ENDBRANCH   1   2
BRANCH   1  70
ATOM     70  C   UNL     1       4.139  -0.479  -2.342  1.00  0.00     0.274 C 
BRANCH  70  71
ATOM     71  O   UNL     1       3.527   0.562  -1.537  1.00  0.00    -0.459 OA
BRANCH  71  72
ATOM     72  C   UNL     1       2.276   0.883  -1.975  1.00  0.00     0.349 C 
ATOM     73  O   UNL     1       1.837   0.417  -3.027  1.00  0.00    -0.248 OA
BRANCH  72  74
ATOM     74  C   UNL     1       1.525   1.958  -1.120  1.00  0.00     0.302 C 
ATOM     75  C   UNL     1       1.058   1.695   0.327  1.00  0.00     0.183 C 
ATOM     76  O   UNL     1       0.308   2.305  -1.824  1.00  0.00    -0.475 OA
ATOM     77  N   UNL     1       0.218   0.504   0.453  1.00  0.00    -0.304 N 
ATOM     78  C   UNL     1      -0.553   1.220  -1.801  1.00  0.00     0.144 A 
ATOM     79  C   UNL     1      -0.585   0.273  -0.742  1.00  0.00     0.086 A 
ATOM     80  C   UNL     1      -1.304   1.065  -2.970  1.00  0.00     0.049 A 
ATOM     81  C   UNL     1      -1.398  -0.847  -0.938  1.00  0.00     0.030 A 
ATOM     82  C   UNL     1      -2.075  -0.075  -3.141  1.00  0.00     0.004 A 
ATOM     83  C   UNL     1      -2.117  -1.029  -2.130  1.00  0.00     0.002 A 
BRANCH  77  84
ATOM     84  C   UNL     1       0.198  -0.335   1.575  1.00  0.00     0.230 C 
ATOM     85  O   UNL     1      -0.213  -1.503   1.504  1.00  0.00    -0.274 OA
BRANCH  84  86
ATOM     86  C   UNL     1       0.608   0.120   3.015  1.00  0.00     0.083 C 
ATOM     87  C   UNL     1       2.086   0.061   3.418  1.00  0.00     0.040 C 
ATOM     88  C   UNL     1      -0.182   1.271   3.647  1.00  0.00     0.018 C 
ATOM     89  C   UNL     1       2.677   1.339   3.941  1.00  0.00    -0.030 C 
ATOM     90  C   UNL     1       0.544   2.610   3.747  1.00  0.00     0.028 C 
ATOM     91  C   UNL     1       1.995   2.482   4.076  1.00  0.00    -0.031 C 
ENDBRANCH  84  86
ENDBRANCH  77  84
ENDBRANCH  72  74
ENDBRANCH  71  72
ENDBRANCH  70  71
ENDBRANCH   1  70
TORSDOF 16
