REMARK SMILES Cc1c(C(=O)Nc2ccc(C(=O)Nc3ccccc3C(=O)OCCOC(=O)c3ccc(-c4c5nc(c(-c6cc(S(=O)(=O)[O-])ccc6F)c6ccc([nH]6)c(-c6cc(S(=O)(=O)[O-])ccc6F)c6nc(c(-c7cc(S(=O)(=O)[O-])ccc7F)c7ccc4[nH]7)C=C6)C=C5)cc3)cc2)cccc1[N+](=O)[O-]
REMARK SMILES IDX 23 1 22 2 20 3 21 4 19 5 14 6 15 7 16 8 18 9 17 10 13 11
REMARK SMILES IDX 11 12 12 13 10 15 7 16 8 17 92 18 9 19 91 20 6 21 4 22 5 23
REMARK SMILES IDX 3 25 1 26 2 27 96 28 93 29 95 30 94 31 97 32 98 33 99 34
REMARK SMILES IDX 24 35 25 36 26 37 27 38 28 39 29 40 90 41 30 42 89 43 31 44
REMARK SMILES IDX 32 45 33 46 83 47 34 48 88 49 82 50 84 51 35 52 87 53 81 54
REMARK SMILES IDX 80 55 36 57 68 58 48 59 67 60 49 61 52 62 66 63 85 64 50 65
REMARK SMILES IDX 51 66 65 68 86 69 53 70 37 71 38 72 46 73 39 74 45 75 47 76
REMARK SMILES IDX 44 77 40 78 41 79 42 80 43 81 69 82 70 83 78 84 71 85 77 86
REMARK SMILES IDX 79 87 76 88 72 89 73 90 74 91 75 92 54 93 55 94 63 95 56 96
REMARK SMILES IDX 62 97 64 98 61 99 57 100 58 101 59 102 60 103
REMARK H PARENT 13 14 6 24 84 56 52 67
REMARK Flexibility Score: inf
ROOT
ATOM      1  C   UNL     1       4.377  -1.405   2.759  1.00  0.00     0.275 C 
ENDROOT
BRANCH   1   2
ATOM      2  O   UNL     1       4.141  -0.030   2.385  1.00  0.00    -0.458 OA
BRANCH   2   3
ATOM      3  C   UNL     1       3.410   0.634   3.323  1.00  0.00     0.340 C 
ATOM      4  O   UNL     1       3.094   0.084   4.380  1.00  0.00    -0.246 OA
BRANCH   3   5
ATOM      5  C   UNL     1       2.828   2.006   3.024  1.00  0.00     0.083 A 
ATOM      6  C   UNL     1       3.143   3.022   2.086  1.00  0.00     0.056 A 
ATOM      7  C   UNL     1       2.428   4.251   2.155  1.00  0.00     0.027 A 
ATOM      8  C   UNL     1       1.360   4.461   3.022  1.00  0.00     0.002 A 
ATOM      9  C   UNL     1       1.729   2.268   3.896  1.00  0.00     0.018 A 
ATOM     10  C   UNL     1       0.995   3.454   3.887  1.00  0.00     0.001 A 
BRANCH   6  11
ATOM     11  N   UNL     1       4.023   3.058   0.982  1.00  0.00    -0.321 N 
ATOM     12  C   UNL     1       4.181   2.291  -0.153  1.00  0.00     0.255 C 
ATOM     13  O   UNL     1       4.792   2.799  -1.093  1.00  0.00    -0.269 OA
ATOM     14  H   UNL     1       4.670   3.798   1.034  1.00  0.00     0.170 HD
BRANCH  12  15
ATOM     15  C   UNL     1       3.628   0.943  -0.318  1.00  0.00     0.040 A 
ATOM     16  C   UNL     1       2.573  -1.605  -0.598  1.00  0.00     0.041 A 
ATOM     17  C   UNL     1       2.069  -0.746   0.362  1.00  0.00     0.027 A 
ATOM     18  C   UNL     1       3.730  -1.273  -1.303  1.00  0.00     0.027 A 
ATOM     19  C   UNL     1       2.485   0.566   0.362  1.00  0.00     0.016 A 
ATOM     20  C   UNL     1       4.256   0.019  -1.163  1.00  0.00     0.016 A 
BRANCH  16  21
ATOM     21  N   UNL     1       1.781  -2.679  -1.016  1.00  0.00    -0.322 N 
ATOM     22  C   UNL     1       0.390  -2.698  -1.075  1.00  0.00     0.256 C 
ATOM     23  O   UNL     1      -0.198  -3.758  -1.286  1.00  0.00    -0.269 OA
ATOM     24  H   UNL     1       2.251  -3.498  -1.295  1.00  0.00     0.170 HD
BRANCH  22  25
ATOM     25  C   UNL     1      -0.439  -1.445  -0.854  1.00  0.00     0.049 A 
ATOM     26  C   UNL     1       0.694  -0.020  -2.643  1.00  0.00     0.053 C 
ATOM     27  C   UNL     1      -0.183  -0.164  -1.426  1.00  0.00     0.039 A 
ATOM     28  C   UNL     1      -0.792   0.961  -0.807  1.00  0.00     0.273 A 
ATOM     29  C   UNL     1      -1.475  -1.589   0.087  1.00  0.00     0.014 A 
ATOM     30  C   UNL     1      -1.819   0.793   0.138  1.00  0.00     0.086 A 
ATOM     31  C   UNL     1      -2.195  -0.484   0.538  1.00  0.00     0.008 A 
BRANCH  28  32
ATOM     32  N   UNL     1      -0.315   2.349  -1.016  1.00  0.00     0.063 N 
ATOM     33  O   UNL     1      -1.080   3.270  -0.691  1.00  0.00    -0.258 OA
ATOM     34  O   UNL     1       0.835   2.523  -1.433  1.00  0.00    -0.258 OA
ENDBRANCH  28  32
ENDBRANCH  22  25
ENDBRANCH  16  21
ENDBRANCH  12  15
ENDBRANCH   6  11
ENDBRANCH   3   5
ENDBRANCH   2   3
ENDBRANCH   1   2
BRANCH   1  35
ATOM     35  C   UNL     1       5.178  -2.327   1.809  1.00  0.00     0.275 C 
BRANCH  35  36
ATOM     36  O   UNL     1       5.873  -1.843   0.640  1.00  0.00    -0.458 OA
BRANCH  36  37
ATOM     37  C   UNL     1       6.784  -0.835   0.499  1.00  0.00     0.338 C 
ATOM     38  O   UNL     1       7.265  -0.544  -0.549  1.00  0.00    -0.246 OA
BRANCH  37  39
ATOM     39  C   UNL     1       7.005  -0.075   1.728  1.00  0.00     0.060 A 
ATOM     40  C   UNL     1       6.645   1.279   1.753  1.00  0.00     0.016 A 
ATOM     41  C   UNL     1       7.359  -0.789   2.865  1.00  0.00     0.016 A 
ATOM     42  C   UNL     1       6.516   1.923   2.968  1.00  0.00     0.010 A 
ATOM     43  C   UNL     1       7.143  -0.200   4.077  1.00  0.00     0.010 A 
ATOM     44  C   UNL     1       6.808   1.172   4.102  1.00  0.00    -0.014 A 
BRANCH  44  45
ATOM     45  C   UNL     1       7.403   1.812   5.257  1.00  0.00     0.031 A 
ATOM     46  C   UNL     1       6.611   1.923   6.484  1.00  0.00     0.074 A 
ATOM     47  C   UNL     1       8.739   1.775   5.031  1.00  0.00     0.049 A 
ATOM     48  N   UNL     1       6.935   2.596   7.528  1.00  0.00    -0.248 NA
ATOM     49  C   UNL     1       5.269   1.344   6.615  1.00  0.00     0.031 C 
ATOM     50  C   UNL     1       9.895   1.559   5.873  1.00  0.00     0.029 A 
ATOM     51  N   UNL     1       9.315   1.972   3.767  1.00  0.00    -0.354 N 
ATOM     52  C   UNL     1       6.178   2.054   8.551  1.00  0.00     0.074 A 
ATOM     53  C   UNL     1       5.002   1.539   7.910  1.00  0.00     0.031 C 
ATOM     54  C   UNL     1      10.998   1.946   5.192  1.00  0.00     0.029 A 
ATOM     55  C   UNL     1      10.558   2.550   3.933  1.00  0.00     0.049 A 
ATOM     56  H   UNL     1       8.902   1.736   2.905  1.00  0.00     0.167 HD
ATOM     57  C   UNL     1       6.798   1.772   9.735  1.00  0.00     0.034 A 
ATOM     58  C   UNL     1      10.609   3.882   3.623  1.00  0.00     0.034 A 
ATOM     59  C   UNL     1       8.208   2.168   9.638  1.00  0.00     0.049 A 
ATOM     60  C   UNL     1      10.657   4.675   4.911  1.00  0.00     0.074 A 
ATOM     61  C   UNL     1       9.374   1.443   9.455  1.00  0.00     0.029 A 
ATOM     62  N   UNL     1       8.514   3.486   9.322  1.00  0.00    -0.354 N 
ATOM     63  N   UNL     1      10.044   4.351   6.023  1.00  0.00    -0.248 NA
ATOM     64  C   UNL     1      11.581   5.785   5.066  1.00  0.00     0.031 C 
ATOM     65  C   UNL     1      10.364   2.339   8.953  1.00  0.00     0.029 A 
ATOM     66  C   UNL     1       9.783   3.587   8.789  1.00  0.00     0.049 A 
ATOM     67  H   UNL     1       7.906   4.247   9.460  1.00  0.00     0.167 HD
ATOM     68  C   UNL     1      10.578   5.083   7.054  1.00  0.00     0.074 A 
ATOM     69  C   UNL     1      11.517   5.981   6.391  1.00  0.00     0.031 C 
ATOM     70  C   UNL     1      10.284   4.888   8.379  1.00  0.00     0.034 A 
BRANCH  57  71
ATOM     71  C   UNL     1       6.287   0.846  10.822  1.00  0.00     0.023 A 
ATOM     72  C   UNL     1       7.220   0.325  11.747  1.00  0.00     0.031 A 
ATOM     73  C   UNL     1       4.955   0.436  11.030  1.00  0.00     0.131 A 
ATOM     74  C   UNL     1       6.848  -0.583  12.754  1.00  0.00     0.055 A 
ATOM     75  C   UNL     1       4.584  -0.489  12.021  1.00  0.00     0.041 A 
ATOM     76  F   UNL     1       3.936   0.941  10.325  1.00  0.00    -0.206 F 
ATOM     77  C   UNL     1       5.533  -1.008  12.889  1.00  0.00     0.022 A 
BRANCH  74  78
ATOM     78  S   UNL     1       8.120  -1.181  13.900  1.00  0.00     0.124 S 
ATOM     79  O   UNL     1       8.993  -1.945  13.015  1.00  0.00    -0.237 OA
ATOM     80  O   UNL     1       8.667   0.062  14.434  1.00  0.00    -0.237 OA
ATOM     81  O   UNL     1       7.360  -1.981  14.860  1.00  0.00    -0.744 OA
ENDBRANCH  74  78
ENDBRANCH  57  71
BRANCH  58  82
ATOM     82  C   UNL     1       9.844   4.235   2.369  1.00  0.00     0.023 A 
ATOM     83  C   UNL     1      10.194   3.560   1.173  1.00  0.00     0.031 A 
ATOM     84  C   UNL     1       8.629   4.935   2.359  1.00  0.00     0.131 A 
ATOM     85  C   UNL     1       9.314   3.504   0.076  1.00  0.00     0.055 A 
ATOM     86  C   UNL     1       7.763   4.905   1.247  1.00  0.00     0.041 A 
ATOM     87  F   UNL     1       8.201   5.581   3.453  1.00  0.00    -0.206 F 
ATOM     88  C   UNL     1       8.087   4.162   0.110  1.00  0.00     0.022 A 
BRANCH  85  89
ATOM     89  S   UNL     1       9.740   2.401  -1.310  1.00  0.00     0.124 S 
ATOM     90  O   UNL     1      10.845   3.123  -1.936  1.00  0.00    -0.237 OA
ATOM     91  O   UNL     1      10.109   1.172  -0.613  1.00  0.00    -0.237 OA
ATOM     92  O   UNL     1       8.515   2.344  -2.100  1.00  0.00    -0.744 OA
ENDBRANCH  85  89
ENDBRANCH  58  82
BRANCH  70  93
ATOM     93  C   UNL     1      10.507   5.921   9.460  1.00  0.00     0.023 A 
ATOM     94  C   UNL     1      10.864   7.236   9.164  1.00  0.00     0.031 A 
ATOM     95  C   UNL     1      10.253   5.654  10.830  1.00  0.00     0.131 A 
ATOM     96  C   UNL     1      11.097   8.172  10.175  1.00  0.00     0.055 A 
ATOM     97  C   UNL     1      10.348   6.628  11.825  1.00  0.00     0.041 A 
ATOM     98  F   UNL     1       9.882   4.444  11.272  1.00  0.00    -0.206 F 
ATOM     99  C   UNL     1      10.805   7.894  11.504  1.00  0.00     0.022 A 
BRANCH  96 100
ATOM    100  S   UNL     1      11.909   9.710   9.693  1.00  0.00     0.124 S 
ATOM    101  O   UNL     1      13.175   9.217   9.153  1.00  0.00    -0.237 OA
ATOM    102  O   UNL     1      10.979  10.264   8.715  1.00  0.00    -0.237 OA
ATOM    103  O   UNL     1      12.014  10.448  10.949  1.00  0.00    -0.744 OA
ENDBRANCH  96 100
ENDBRANCH  70  93
ENDBRANCH  44  45
ENDBRANCH  37  39
ENDBRANCH  36  37
ENDBRANCH  35  36
ENDBRANCH   1  35
TORSDOF 19
