REMARK SMILES CC[C@@]1(C(=O)OCCOC(=O)c2ccc(-c3c4nc(c(-c5cc(S(=O)(=O)[O-])ccc5F)c5ccc([nH]5)c(-c5cc(S(=O)(=O)[O-])ccc5F)c5nc(c(-c6cc(S(=O)(=O)[O-])ccc6F)c6ccc3[nH]6)C=C5)C=C4)cc2)CCC[N@@H+](Cc2ccc(C3CC3)cc2)C1
REMARK SMILES IDX 7 1 6 2 4 3 5 4 3 5 75 6 89 7 76 8 78 9 77 10 2 12 1 13
REMARK SMILES IDX 79 14 80 15 81 16 88 17 82 18 87 19 83 20 84 21 85 22 86 23
REMARK SMILES IDX 8 24 9 25 10 26 11 27 12 28 13 29 74 30 14 31 73 32 15 33
REMARK SMILES IDX 16 34 17 35 67 36 18 37 72 38 66 39 68 40 19 41 71 42 65 43
REMARK SMILES IDX 64 44 20 46 52 47 32 48 51 49 33 50 36 51 50 52 69 53 34 54
REMARK SMILES IDX 35 55 49 57 70 58 37 59 21 60 22 61 30 62 23 63 29 64 31 65
REMARK SMILES IDX 28 66 24 67 25 68 26 69 27 70 53 71 54 72 62 73 55 74 61 75
REMARK SMILES IDX 63 76 60 77 56 78 57 79 58 80 59 81 38 82 39 83 47 84 40 85
REMARK SMILES IDX 46 86 48 87 45 88 41 89 42 90 43 91 44 92
REMARK H PARENT 78 11 68 45 36 56
REMARK Flexibility Score: inf
ROOT
ATOM      1  C   UNL     1      -0.929  -1.006  -0.251  1.00  0.00     0.274 C 
ENDROOT
BRANCH   1   2
ATOM      2  O   UNL     1      -0.087   0.028   0.292  1.00  0.00    -0.461 OA
BRANCH   2   3
ATOM      3  C   UNL     1      -0.456   0.598   1.469  1.00  0.00     0.317 C 
ATOM      4  O   UNL     1      -1.457   0.261   2.089  1.00  0.00    -0.251 OA
BRANCH   3   5
ATOM      5  C   UNL     1       0.450   1.782   1.874  1.00  0.00     0.117 C 
ATOM      6  C   UNL     1      -0.216   3.093   1.397  1.00  0.00     0.030 C 
ATOM      7  C   UNL     1       1.877   1.644   1.274  1.00  0.00     0.281 C 
ATOM      8  C   UNL     1      -0.000   3.366  -0.091  1.00  0.00     0.063 C 
ATOM      9  N   UNL     1       1.981   1.942  -0.161  1.00  0.00    -0.330 N 
ATOM     10  C   UNL     1       1.476   3.272  -0.477  1.00  0.00     0.262 C 
ATOM     11  H   UNL     1       1.364   1.294  -0.651  1.00  0.00     0.348 HD
BRANCH   5  12
ATOM     12  C   UNL     1       0.656   1.853   3.426  1.00  0.00     0.021 C 
ATOM     13  C   UNL     1      -0.578   1.823   4.318  1.00  0.00     0.005 C 
ENDBRANCH   5  12
BRANCH   9  14
ATOM     14  C   UNL     1       3.319   1.653  -0.709  1.00  0.00     0.299 C 
BRANCH  14  15
ATOM     15  C   UNL     1       4.459   2.475  -0.147  1.00  0.00     0.006 A 
ATOM     16  C   UNL     1       4.848   3.673  -0.751  1.00  0.00     0.010 A 
ATOM     17  C   UNL     1       5.118   2.074   1.020  1.00  0.00     0.010 A 
ATOM     18  C   UNL     1       5.831   4.478  -0.162  1.00  0.00     0.004 A 
ATOM     19  C   UNL     1       6.091   2.890   1.607  1.00  0.00     0.004 A 
ATOM     20  C   UNL     1       6.457   4.125   1.047  1.00  0.00    -0.045 A 
BRANCH  20  21
ATOM     21  C   UNL     1       7.455   5.072   1.687  1.00  0.00     0.019 C 
ATOM     22  C   UNL     1       7.611   5.146   3.188  1.00  0.00     0.009 C 
ATOM     23  C   UNL     1       8.709   4.558   2.348  1.00  0.00     0.009 C 
ENDBRANCH  20  21
ENDBRANCH  14  15
ENDBRANCH   9  14
ENDBRANCH   3   5
ENDBRANCH   2   3
ENDBRANCH   1   2
BRANCH   1  24
ATOM     24  C   UNL     1      -0.172  -2.329  -0.310  1.00  0.00     0.275 C 
BRANCH  24  25
ATOM     25  O   UNL     1       0.077  -2.813   1.021  1.00  0.00    -0.458 OA
BRANCH  25  26
ATOM     26  C   UNL     1       1.346  -2.657   1.462  1.00  0.00     0.338 C 
ATOM     27  O   UNL     1       2.307  -2.235   0.846  1.00  0.00    -0.246 OA
BRANCH  26  28
ATOM     28  C   UNL     1       1.389  -2.978   2.894  1.00  0.00     0.060 A 
ATOM     29  C   UNL     1       1.278  -1.925   3.800  1.00  0.00     0.016 A 
ATOM     30  C   UNL     1       1.641  -4.273   3.339  1.00  0.00     0.016 A 
ATOM     31  C   UNL     1       1.472  -2.143   5.161  1.00  0.00     0.010 A 
ATOM     32  C   UNL     1       1.792  -4.500   4.711  1.00  0.00     0.010 A 
ATOM     33  C   UNL     1       1.737  -3.435   5.632  1.00  0.00    -0.014 A 
BRANCH  33  34
ATOM     34  C   UNL     1       2.043  -3.676   7.068  1.00  0.00     0.031 A 
ATOM     35  C   UNL     1       3.417  -4.156   7.454  1.00  0.00     0.074 A 
ATOM     36  C   UNL     1       1.113  -3.478   8.021  1.00  0.00     0.049 A 
ATOM     37  N   UNL     1       3.836  -4.660   8.585  1.00  0.00    -0.248 NA
ATOM     38  C   UNL     1       4.452  -4.063   6.413  1.00  0.00     0.031 C 
ATOM     39  C   UNL     1      -0.227  -2.934   7.798  1.00  0.00     0.029 A 
ATOM     40  N   UNL     1       1.152  -3.724   9.372  1.00  0.00    -0.354 N 
ATOM     41  C   UNL     1       5.171  -4.992   8.380  1.00  0.00     0.074 A 
ATOM     42  C   UNL     1       5.486  -4.636   7.011  1.00  0.00     0.031 C 
ATOM     43  C   UNL     1      -0.882  -2.889   8.970  1.00  0.00     0.029 A 
ATOM     44  C   UNL     1      -0.041  -3.474  10.011  1.00  0.00     0.049 A 
ATOM     45  H   UNL     1       1.956  -4.048   9.838  1.00  0.00     0.167 HD
ATOM     46  C   UNL     1       6.048  -5.549   9.252  1.00  0.00     0.034 A 
ATOM     47  C   UNL     1      -0.431  -3.738  11.274  1.00  0.00     0.034 A 
ATOM     48  C   UNL     1       5.721  -5.875  10.620  1.00  0.00     0.049 A 
ATOM     49  C   UNL     1       0.534  -4.423  12.209  1.00  0.00     0.074 A 
ATOM     50  C   UNL     1       6.520  -6.463  11.585  1.00  0.00     0.029 A 
ATOM     51  N   UNL     1       4.493  -5.628  11.221  1.00  0.00    -0.354 N 
ATOM     52  N   UNL     1       1.764  -4.820  11.981  1.00  0.00    -0.248 NA
ATOM     53  C   UNL     1       0.053  -4.706  13.568  1.00  0.00     0.031 C 
ATOM     54  C   UNL     1       5.762  -6.616  12.752  1.00  0.00     0.029 A 
ATOM     55  C   UNL     1       4.510  -6.064  12.537  1.00  0.00     0.049 A 
ATOM     56  H   UNL     1       3.723  -5.205  10.777  1.00  0.00     0.167 HD
ATOM     57  C   UNL     1       2.211  -5.377  13.176  1.00  0.00     0.074 A 
ATOM     58  C   UNL     1       1.123  -5.257  14.124  1.00  0.00     0.031 C 
ATOM     59  C   UNL     1       3.414  -5.934  13.467  1.00  0.00     0.034 A 
BRANCH  46  60
ATOM     60  C   UNL     1       7.416  -5.904   8.723  1.00  0.00     0.023 A 
ATOM     61  C   UNL     1       8.329  -4.924   8.297  1.00  0.00     0.031 A 
ATOM     62  C   UNL     1       7.795  -7.254   8.601  1.00  0.00     0.131 A 
ATOM     63  C   UNL     1       9.540  -5.308   7.702  1.00  0.00     0.055 A 
ATOM     64  C   UNL     1       9.034  -7.628   8.080  1.00  0.00     0.041 A 
ATOM     65  F   UNL     1       6.956  -8.234   8.971  1.00  0.00    -0.206 F 
ATOM     66  C   UNL     1       9.909  -6.653   7.612  1.00  0.00     0.022 A 
BRANCH  63  67
ATOM     67  S   UNL     1      10.564  -4.034   6.916  1.00  0.00     0.124 S 
ATOM     68  O   UNL     1       9.644  -3.489   5.920  1.00  0.00    -0.237 OA
ATOM     69  O   UNL     1      10.889  -3.156   8.034  1.00  0.00    -0.237 OA
ATOM     70  O   UNL     1      11.689  -4.787   6.366  1.00  0.00    -0.744 OA
ENDBRANCH  63  67
ENDBRANCH  46  60
BRANCH  47  71
ATOM     71  C   UNL     1      -1.822  -3.430  11.714  1.00  0.00     0.023 A 
ATOM     72  C   UNL     1      -2.072  -2.490  12.725  1.00  0.00     0.031 A 
ATOM     73  C   UNL     1      -2.921  -4.110  11.159  1.00  0.00     0.131 A 
ATOM     74  C   UNL     1      -3.385  -2.282  13.177  1.00  0.00     0.055 A 
ATOM     75  C   UNL     1      -4.230  -3.862  11.575  1.00  0.00     0.041 A 
ATOM     76  F   UNL     1      -2.737  -5.023  10.191  1.00  0.00    -0.206 F 
ATOM     77  C   UNL     1      -4.466  -2.952  12.599  1.00  0.00     0.022 A 
BRANCH  74  78
ATOM     78  S   UNL     1      -3.653  -1.180  14.593  1.00  0.00     0.124 S 
ATOM     79  O   UNL     1      -2.842  -1.818  15.624  1.00  0.00    -0.237 OA
ATOM     80  O   UNL     1      -3.158   0.094  14.083  1.00  0.00    -0.237 OA
ATOM     81  O   UNL     1      -5.097  -1.245  14.806  1.00  0.00    -0.744 OA
ENDBRANCH  74  78
ENDBRANCH  47  71
BRANCH  59  82
ATOM     82  C   UNL     1       3.629  -6.393  14.886  1.00  0.00     0.023 A 
ATOM     83  C   UNL     1       2.977  -7.523  15.408  1.00  0.00     0.031 A 
ATOM     84  C   UNL     1       4.501  -5.679  15.727  1.00  0.00     0.131 A 
ATOM     85  C   UNL     1       3.174  -7.882  16.751  1.00  0.00     0.055 A 
ATOM     86  C   UNL     1       4.728  -6.068  17.047  1.00  0.00     0.041 A 
ATOM     87  F   UNL     1       5.148  -4.593  15.275  1.00  0.00    -0.206 F 
ATOM     88  C   UNL     1       4.055  -7.169  17.569  1.00  0.00     0.022 A 
BRANCH  85  89
ATOM     89  S   UNL     1       2.212  -9.258  17.438  1.00  0.00     0.124 S 
ATOM     90  O   UNL     1       0.841  -8.789  17.263  1.00  0.00    -0.237 OA
ATOM     91  O   UNL     1       2.616 -10.376  16.591  1.00  0.00    -0.237 OA
ATOM     92  O   UNL     1       2.668  -9.337  18.825  1.00  0.00    -0.744 OA
ENDBRANCH  85  89
ENDBRANCH  59  82
ENDBRANCH  33  34
ENDBRANCH  26  28
ENDBRANCH  25  26
ENDBRANCH  24  25
ENDBRANCH   1  24
TORSDOF 18
