REMARK SMILES O=C(OCCOC(=O)c1ccc(-c2ccc(Cl)c3ccccc23)o1)c1ccc(-c2c3nc(c(-c4cc(S(=O)(=O)[O-])ccc4F)c4ccc([nH]4)c(-c4cc(S(=O)(=O)[O-])ccc4F)c4nc(c(-c5cc(S(=O)(=O)[O-])ccc5F)c5ccc2[nH]5)C=C4)C=C3)cc1
REMARK SMILES IDX 4 1 3 2 2 3 1 4 25 5 26 6 87 7 27 8 86 9 28 10 29 11 30 12
REMARK SMILES IDX 80 13 31 14 85 15 79 16 81 17 32 18 84 19 78 20 77 21 33 23
REMARK SMILES IDX 65 24 45 25 64 26 46 27 49 28 63 29 82 30 47 31 48 32 62 34
REMARK SMILES IDX 83 35 50 36 34 37 35 38 43 39 36 40 42 41 44 42 41 43 37 44
REMARK SMILES IDX 38 45 39 46 40 47 66 48 67 49 75 50 68 51 74 52 76 53 73 54
REMARK SMILES IDX 69 55 70 56 71 57 72 58 51 59 52 60 60 61 53 62 59 63 61 64
REMARK SMILES IDX 58 65 54 66 55 67 56 68 57 69 5 70 6 71 7 72 8 73 9 74 10 75
REMARK SMILES IDX 24 76 11 77 12 78 13 79 14 80 23 81 15 82 18 83 22 84 16 85
REMARK SMILES IDX 19 86 21 87 17 88 20 89
REMARK H PARENT 81 22 49 33
REMARK Flexibility Score: inf
ROOT
ATOM      1  C   UNL     1       4.038  -1.702  -0.605  1.00  0.00     0.275 C 
ENDROOT
BRANCH   1   2
ATOM      2  O   UNL     1       3.274  -1.277   0.531  1.00  0.00    -0.458 OA
BRANCH   2   3
ATOM      3  C   UNL     1       3.349  -0.130   1.242  1.00  0.00     0.338 C 
ATOM      4  O   UNL     1       2.719  -0.058   2.297  1.00  0.00    -0.246 OA
BRANCH   3   5
ATOM      5  C   UNL     1       4.033   1.111   0.751  1.00  0.00     0.060 A 
ATOM      6  C   UNL     1       5.182   1.195  -0.038  1.00  0.00     0.016 A 
ATOM      7  C   UNL     1       3.457   2.315   1.176  1.00  0.00     0.016 A 
ATOM      8  C   UNL     1       5.707   2.439  -0.428  1.00  0.00     0.010 A 
ATOM      9  C   UNL     1       3.945   3.555   0.754  1.00  0.00     0.010 A 
ATOM     10  C   UNL     1       5.094   3.631  -0.036  1.00  0.00    -0.014 A 
BRANCH  10  11
ATOM     11  C   UNL     1       5.718   4.953  -0.309  1.00  0.00     0.031 A 
ATOM     12  C   UNL     1       6.255   5.750   0.851  1.00  0.00     0.074 A 
ATOM     13  C   UNL     1       5.777   5.448  -1.560  1.00  0.00     0.049 A 
ATOM     14  N   UNL     1       6.800   6.939   0.863  1.00  0.00    -0.248 NA
ATOM     15  C   UNL     1       6.144   5.127   2.179  1.00  0.00     0.031 C 
ATOM     16  C   UNL     1       5.293   4.766  -2.759  1.00  0.00     0.029 A 
ATOM     17  N   UNL     1       6.252   6.644  -2.035  1.00  0.00    -0.354 N 
ATOM     18  C   UNL     1       7.099   7.200   2.196  1.00  0.00     0.074 A 
ATOM     19  C   UNL     1       6.582   6.092   2.968  1.00  0.00     0.031 C 
ATOM     20  C   UNL     1       5.460   5.566  -3.826  1.00  0.00     0.029 A 
ATOM     21  C   UNL     1       6.073   6.815  -3.389  1.00  0.00     0.049 A 
ATOM     22  H   UNL     1       6.682   7.318  -1.460  1.00  0.00     0.167 HD
ATOM     23  C   UNL     1       7.790   8.240   2.726  1.00  0.00     0.034 A 
ATOM     24  C   UNL     1       6.376   7.859  -4.186  1.00  0.00     0.034 A 
ATOM     25  C   UNL     1       8.298   9.332   1.937  1.00  0.00     0.049 A 
ATOM     26  C   UNL     1       7.096   9.035  -3.576  1.00  0.00     0.074 A 
ATOM     27  C   UNL     1       9.034  10.430   2.344  1.00  0.00     0.029 A 
ATOM     28  N   UNL     1       8.111   9.463   0.565  1.00  0.00    -0.354 N 
ATOM     29  N   UNL     1       7.437   9.233  -2.323  1.00  0.00    -0.248 NA
ATOM     30  C   UNL     1       7.509  10.106  -4.491  1.00  0.00     0.031 C 
ATOM     31  C   UNL     1       9.250  11.247   1.227  1.00  0.00     0.029 A 
ATOM     32  C   UNL     1       8.702  10.630   0.113  1.00  0.00     0.049 A 
ATOM     33  H   UNL     1       7.628   8.820  -0.002  1.00  0.00     0.167 HD
ATOM     34  C   UNL     1       8.147  10.429  -2.307  1.00  0.00     0.074 A 
ATOM     35  C   UNL     1       8.186  10.904  -3.677  1.00  0.00     0.031 C 
ATOM     36  C   UNL     1       8.728  11.073  -1.262  1.00  0.00     0.034 A 
BRANCH  23  37
ATOM     37  C   UNL     1       8.006   8.220   4.221  1.00  0.00     0.023 A 
ATOM     38  C   UNL     1       8.714   7.171   4.839  1.00  0.00     0.031 A 
ATOM     39  C   UNL     1       7.422   9.192   5.049  1.00  0.00     0.131 A 
ATOM     40  C   UNL     1       8.716   7.052   6.236  1.00  0.00     0.055 A 
ATOM     41  C   UNL     1       7.510   9.120   6.442  1.00  0.00     0.041 A 
ATOM     42  F   UNL     1       6.721  10.208   4.523  1.00  0.00    -0.206 F 
ATOM     43  C   UNL     1       8.139   8.033   7.044  1.00  0.00     0.022 A 
BRANCH  40  44
ATOM     44  S   UNL     1       9.317   5.504   6.968  1.00  0.00     0.124 S 
ATOM     45  O   UNL     1       8.398   4.528   6.385  1.00  0.00    -0.237 OA
ATOM     46  O   UNL     1      10.695   5.443   6.494  1.00  0.00    -0.237 OA
ATOM     47  O   UNL     1       9.159   5.719   8.404  1.00  0.00    -0.744 OA
ENDBRANCH  40  44
ENDBRANCH  23  37
BRANCH  24  48
ATOM     48  C   UNL     1       6.031   7.834  -5.637  1.00  0.00     0.023 A 
ATOM     49  C   UNL     1       7.029   7.797  -6.624  1.00  0.00     0.031 A 
ATOM     50  C   UNL     1       4.690   7.881  -6.060  1.00  0.00     0.131 A 
ATOM     51  C   UNL     1       6.676   7.853  -7.982  1.00  0.00     0.055 A 
ATOM     52  C   UNL     1       4.342   7.898  -7.413  1.00  0.00     0.041 A 
ATOM     53  F   UNL     1       3.694   7.901  -5.159  1.00  0.00    -0.206 F 
ATOM     54  C   UNL     1       5.339   7.897  -8.383  1.00  0.00     0.022 A 
BRANCH  51  55
ATOM     55  S   UNL     1       7.998   7.934  -9.222  1.00  0.00     0.124 S 
ATOM     56  O   UNL     1       8.745   9.109  -8.786  1.00  0.00    -0.237 OA
ATOM     57  O   UNL     1       8.660   6.647  -9.038  1.00  0.00    -0.237 OA
ATOM     58  O   UNL     1       7.274   8.086 -10.482  1.00  0.00    -0.744 OA
ENDBRANCH  51  55
ENDBRANCH  24  48
BRANCH  36  59
ATOM     59  C   UNL     1       9.501  12.326  -1.581  1.00  0.00     0.023 A 
ATOM     60  C   UNL     1       8.861  13.497  -2.017  1.00  0.00     0.031 A 
ATOM     61  C   UNL     1      10.901  12.340  -1.450  1.00  0.00     0.131 A 
ATOM     62  C   UNL     1       9.626  14.621  -2.359  1.00  0.00     0.055 A 
ATOM     63  C   UNL     1      11.652  13.480  -1.735  1.00  0.00     0.041 A 
ATOM     64  F   UNL     1      11.560  11.245  -1.039  1.00  0.00    -0.206 F 
ATOM     65  C   UNL     1      11.015  14.626  -2.204  1.00  0.00     0.022 A 
BRANCH  62  66
ATOM     66  S   UNL     1       8.786  16.051  -3.091  1.00  0.00     0.124 S 
ATOM     67  O   UNL     1       8.198  15.472  -4.295  1.00  0.00    -0.237 OA
ATOM     68  O   UNL     1       7.846  16.433  -2.043  1.00  0.00    -0.237 OA
ATOM     69  O   UNL     1       9.871  17.002  -3.327  1.00  0.00    -0.744 OA
ENDBRANCH  62  66
ENDBRANCH  36  59
ENDBRANCH  10  11
ENDBRANCH   3   5
ENDBRANCH   2   3
ENDBRANCH   1   2
BRANCH   1  70
ATOM     70  C   UNL     1       3.428  -1.318  -1.952  1.00  0.00     0.275 C 
BRANCH  70  71
ATOM     71  O   UNL     1       3.076   0.068  -2.060  1.00  0.00    -0.456 OA
BRANCH  71  72
ATOM     72  C   UNL     1       1.780   0.397  -1.747  1.00  0.00     0.374 C 
ATOM     73  O   UNL     1       0.934  -0.410  -1.381  1.00  0.00    -0.242 OA
BRANCH  72  74
ATOM     74  C   UNL     1       1.595   1.820  -1.915  1.00  0.00     0.212 A 
ATOM     75  C   UNL     1       2.260   2.727  -2.719  1.00  0.00     0.059 A 
ATOM     76  O   UNL     1       0.628   2.481  -1.187  1.00  0.00    -0.449 OA
ATOM     77  C   UNL     1       1.713   3.998  -2.446  1.00  0.00     0.052 A 
ATOM     78  C   UNL     1       0.726   3.809  -1.499  1.00  0.00     0.135 A 
BRANCH  78  79
ATOM     79  C   UNL     1      -0.197   4.758  -0.868  1.00  0.00     0.025 A 
ATOM     80  C   UNL     1      -1.023   5.489  -1.734  1.00  0.00     0.014 A 
ATOM     81  C   UNL     1      -0.155   5.102   0.515  1.00  0.00    -0.006 A 
ATOM     82  C   UNL     1      -1.774   6.560  -1.266  1.00  0.00     0.022 A 
ATOM     83  C   UNL     1      -0.854   6.249   0.982  1.00  0.00     0.001 A 
ATOM     84  C   UNL     1       0.580   4.363   1.462  1.00  0.00     0.009 A 
ATOM     85  C   UNL     1      -1.676   6.950   0.069  1.00  0.00     0.048 A 
ATOM     86  C   UNL     1      -0.678   6.651   2.332  1.00  0.00     0.010 A 
ATOM     87  C   UNL     1       0.739   4.772   2.787  1.00  0.00     0.001 A 
ATOM     88  Cl  UNL     1      -2.622   8.325   0.544  1.00  0.00    -0.084 Cl
ATOM     89  C   UNL     1       0.128   5.936   3.217  1.00  0.00     0.001 A 
ENDBRANCH  78  79
ENDBRANCH  72  74
ENDBRANCH  71  72
ENDBRANCH  70  71
ENDBRANCH   1  70
TORSDOF 15
