REMARK SMILES O=C(OCCOC(=O)c1nn(Cc2ccc(F)cc2)c2c1CN(C(=O)[C@H]1CC1(F)F)CC2)c1ccc(-c2c3nc(c(-c4cc(S(=O)(=O)[O-])ccc4F)c4ccc([nH]4)c(-c4cc(S(=O)(=O)[O-])ccc4F)c4nc(c(-c5cc(S(=O)(=O)[O-])ccc5F)c5ccc2[nH]5)C=C4)C=C3)cc1
REMARK SMILES IDX 4 1 3 2 2 3 1 4 33 5 34 6 95 7 35 8 94 9 36 10 37 11 38 12
REMARK SMILES IDX 88 13 39 14 93 15 87 16 89 17 40 18 92 19 86 20 85 21 41 23
REMARK SMILES IDX 73 24 53 25 72 26 54 27 57 28 71 29 90 30 55 31 56 32 70 34
REMARK SMILES IDX 91 35 58 36 42 37 43 38 51 39 44 40 50 41 52 42 49 43 45 44
REMARK SMILES IDX 46 45 47 46 48 47 74 48 75 49 83 50 76 51 82 52 84 53 81 54
REMARK SMILES IDX 77 55 78 56 79 57 80 58 59 59 60 60 68 61 61 62 67 63 69 64
REMARK SMILES IDX 66 65 62 66 63 67 64 68 65 69 5 70 6 71 7 72 8 73 9 74 10 75
REMARK SMILES IDX 21 76 11 77 20 78 22 79 32 80 23 81 31 82 12 83 13 84 14 85
REMARK SMILES IDX 19 86 15 87 18 88 16 89 17 90 24 91 25 92 26 93 27 94 28 95
REMARK SMILES IDX 29 96 30 97
REMARK H PARENT 89 22 57 33
REMARK Flexibility Score: inf
ROOT
ATOM      1  C   UNL     1      -9.796  -4.096  -1.460  1.00  0.00     0.275 C 
ENDROOT
BRANCH   1   2
ATOM      2  O   UNL     1      -8.566  -4.679  -0.989  1.00  0.00    -0.458 OA
BRANCH   2   3
ATOM      3  C   UNL     1      -7.865  -4.016  -0.050  1.00  0.00     0.338 C 
ATOM      4  O   UNL     1      -8.187  -3.922   1.125  1.00  0.00    -0.246 OA
BRANCH   3   5
ATOM      5  C   UNL     1      -6.652  -3.404  -0.636  1.00  0.00     0.060 A 
ATOM      6  C   UNL     1      -6.508  -3.231  -2.018  1.00  0.00     0.016 A 
ATOM      7  C   UNL     1      -5.673  -2.920   0.232  1.00  0.00     0.016 A 
ATOM      8  C   UNL     1      -5.379  -2.600  -2.529  1.00  0.00     0.010 A 
ATOM      9  C   UNL     1      -4.568  -2.246  -0.280  1.00  0.00     0.010 A 
ATOM     10  C   UNL     1      -4.393  -2.118  -1.664  1.00  0.00    -0.014 A 
BRANCH  10  11
ATOM     11  C   UNL     1      -3.192  -1.513  -2.254  1.00  0.00     0.031 A 
ATOM     12  C   UNL     1      -3.354  -0.410  -3.258  1.00  0.00     0.074 A 
ATOM     13  C   UNL     1      -1.942  -1.830  -1.858  1.00  0.00     0.049 A 
ATOM     14  N   UNL     1      -2.860  -0.334  -4.454  1.00  0.00    -0.248 NA
ATOM     15  C   UNL     1      -4.162   0.760  -2.886  1.00  0.00     0.031 C 
ATOM     16  C   UNL     1      -1.528  -2.690  -0.746  1.00  0.00     0.029 A 
ATOM     17  N   UNL     1      -0.757  -1.343  -2.329  1.00  0.00    -0.354 N 
ATOM     18  C   UNL     1      -3.151   0.944  -4.931  1.00  0.00     0.074 A 
ATOM     19  C   UNL     1      -3.995   1.562  -3.939  1.00  0.00     0.031 C 
ATOM     20  C   UNL     1      -0.225  -2.473  -0.475  1.00  0.00     0.029 A 
ATOM     21  C   UNL     1       0.320  -1.598  -1.495  1.00  0.00     0.049 A 
ATOM     22  H   UNL     1      -0.675  -0.857  -3.181  1.00  0.00     0.167 HD
ATOM     23  C   UNL     1      -2.594   1.459  -6.064  1.00  0.00     0.034 A 
ATOM     24  C   UNL     1       1.575  -1.105  -1.606  1.00  0.00     0.034 A 
ATOM     25  C   UNL     1      -2.067   0.435  -6.923  1.00  0.00     0.049 A 
ATOM     26  C   UNL     1       1.791  -0.781  -3.034  1.00  0.00     0.074 A 
ATOM     27  C   UNL     1      -2.611  -0.657  -7.572  1.00  0.00     0.029 A 
ATOM     28  N   UNL     1      -0.708   0.244  -6.973  1.00  0.00    -0.354 N 
ATOM     29  N   UNL     1       1.785  -1.672  -3.987  1.00  0.00    -0.248 NA
ATOM     30  C   UNL     1       1.650   0.597  -3.474  1.00  0.00     0.031 C 
ATOM     31  C   UNL     1      -1.606  -1.666  -7.500  1.00  0.00     0.029 A 
ATOM     32  C   UNL     1      -0.506  -1.109  -6.844  1.00  0.00     0.049 A 
ATOM     33  H   UNL     1      -0.017   0.937  -7.079  1.00  0.00     0.167 HD
ATOM     34  C   UNL     1       1.234  -1.025  -5.080  1.00  0.00     0.074 A 
ATOM     35  C   UNL     1       1.295   0.393  -4.744  1.00  0.00     0.031 C 
ATOM     36  C   UNL     1       0.536  -1.708  -6.035  1.00  0.00     0.034 A 
BRANCH  23  37
ATOM     37  C   UNL     1      -2.344   2.924  -6.316  1.00  0.00     0.023 A 
ATOM     38  C   UNL     1      -2.036   3.364  -7.620  1.00  0.00     0.031 A 
ATOM     39  C   UNL     1      -2.146   3.862  -5.279  1.00  0.00     0.131 A 
ATOM     40  C   UNL     1      -1.545   4.665  -7.845  1.00  0.00     0.055 A 
ATOM     41  C   UNL     1      -1.707   5.168  -5.513  1.00  0.00     0.041 A 
ATOM     42  F   UNL     1      -2.289   3.526  -3.988  1.00  0.00    -0.206 F 
ATOM     43  C   UNL     1      -1.390   5.573  -6.800  1.00  0.00     0.022 A 
BRANCH  40  44
ATOM     44  S   UNL     1      -0.979   5.118  -9.510  1.00  0.00     0.124 S 
ATOM     45  O   UNL     1       0.002   4.075  -9.791  1.00  0.00    -0.237 OA
ATOM     46  O   UNL     1      -2.219   5.061 -10.277  1.00  0.00    -0.237 OA
ATOM     47  O   UNL     1      -0.425   6.458  -9.328  1.00  0.00    -0.744 OA
ENDBRANCH  40  44
ENDBRANCH  23  37
BRANCH  24  48
ATOM     48  C   UNL     1       2.458  -0.676  -0.495  1.00  0.00     0.023 A 
ATOM     49  C   UNL     1       3.833  -0.456  -0.689  1.00  0.00     0.031 A 
ATOM     50  C   UNL     1       1.911  -0.248   0.738  1.00  0.00     0.131 A 
ATOM     51  C   UNL     1       4.601   0.161   0.320  1.00  0.00     0.055 A 
ATOM     52  C   UNL     1       2.680   0.339   1.743  1.00  0.00     0.041 A 
ATOM     53  F   UNL     1       0.591  -0.303   0.974  1.00  0.00    -0.206 F 
ATOM     54  C   UNL     1       4.032   0.556   1.533  1.00  0.00     0.022 A 
BRANCH  51  55
ATOM     55  S   UNL     1       6.338   0.599   0.004  1.00  0.00     0.124 S 
ATOM     56  O   UNL     1       7.027  -0.648   0.314  1.00  0.00    -0.237 OA
ATOM     57  O   UNL     1       6.318   0.998  -1.399  1.00  0.00    -0.237 OA
ATOM     58  O   UNL     1       6.580   1.693   0.945  1.00  0.00    -0.744 OA
ENDBRANCH  51  55
ENDBRANCH  24  48
BRANCH  36  59
ATOM     59  C   UNL     1       0.635  -3.217  -6.071  1.00  0.00     0.023 A 
ATOM     60  C   UNL     1       0.206  -4.066  -5.027  1.00  0.00     0.031 A 
ATOM     61  C   UNL     1       1.031  -3.816  -7.280  1.00  0.00     0.131 A 
ATOM     62  C   UNL     1       0.191  -5.462  -5.215  1.00  0.00     0.055 A 
ATOM     63  C   UNL     1       1.000  -5.198  -7.468  1.00  0.00     0.041 A 
ATOM     64  F   UNL     1       1.410  -3.057  -8.322  1.00  0.00    -0.206 F 
ATOM     65  C   UNL     1       0.581  -6.027  -6.434  1.00  0.00     0.022 A 
BRANCH  62  66
ATOM     66  S   UNL     1      -0.377  -6.563  -3.879  1.00  0.00     0.124 S 
ATOM     67  O   UNL     1       0.528  -6.248  -2.780  1.00  0.00    -0.237 OA
ATOM     68  O   UNL     1      -1.770  -6.162  -3.702  1.00  0.00    -0.237 OA
ATOM     69  O   UNL     1      -0.202  -7.903  -4.444  1.00  0.00    -0.744 OA
ENDBRANCH  62  66
ENDBRANCH  36  59
ENDBRANCH  10  11
ENDBRANCH   3   5
ENDBRANCH   2   3
ENDBRANCH   1   2
BRANCH   1  70
ATOM     70  C   UNL     1     -10.396  -2.928  -0.669  1.00  0.00     0.275 C 
BRANCH  70  71
ATOM     71  O   UNL     1      -9.607  -1.732  -0.823  1.00  0.00    -0.457 OA
BRANCH  71  72
ATOM     72  C   UNL     1      -9.450  -0.958   0.297  1.00  0.00     0.359 C 
ATOM     73  O   UNL     1      -9.863  -1.250   1.417  1.00  0.00    -0.244 OA
BRANCH  72  74
ATOM     74  C   UNL     1      -8.752   0.303   0.025  1.00  0.00     0.175 A 
ATOM     75  N   UNL     1      -9.257   1.214  -0.837  1.00  0.00    -0.165 NA
ATOM     76  C   UNL     1      -7.577   0.803   0.651  1.00  0.00     0.028 A 
ATOM     77  N   UNL     1      -8.417   2.273  -0.755  1.00  0.00    -0.264 N 
ATOM     78  C   UNL     1      -7.339   2.014   0.038  1.00  0.00     0.046 A 
ATOM     79  C   UNL     1      -6.705   0.226   1.710  1.00  0.00     0.159 C 
ATOM     80  C   UNL     1      -6.159   2.870   0.302  1.00  0.00     0.078 C 
ATOM     81  N   UNL     1      -5.551   1.109   1.988  1.00  0.00    -0.337 N 
ATOM     82  C   UNL     1      -5.052   1.976   0.898  1.00  0.00     0.126 C 
BRANCH  77  83
ATOM     83  C   UNL     1      -8.854   3.582  -1.227  1.00  0.00     0.180 C 
BRANCH  83  84
ATOM     84  C   UNL     1      -8.819   3.729  -2.724  1.00  0.00    -0.026 A 
ATOM     85  C   UNL     1      -9.810   3.125  -3.516  1.00  0.00     0.008 A 
ATOM     86  C   UNL     1      -7.831   4.511  -3.345  1.00  0.00     0.008 A 
ATOM     87  C   UNL     1      -9.827   3.317  -4.896  1.00  0.00     0.039 A 
ATOM     88  C   UNL     1      -7.851   4.702  -4.727  1.00  0.00     0.039 A 
ATOM     89  C   UNL     1      -8.852   4.110  -5.488  1.00  0.00     0.123 A 
ATOM     90  F   UNL     1      -8.887   4.316  -6.811  1.00  0.00    -0.207 F 
ENDBRANCH  83  84
ENDBRANCH  77  83
BRANCH  81  91
ATOM     91  C   UNL     1      -4.841   0.859   3.157  1.00  0.00     0.232 C 
ATOM     92  O   UNL     1      -5.146  -0.024   3.950  1.00  0.00    -0.274 OA
BRANCH  91  93
ATOM     93  C   UNL     1      -3.649   1.691   3.425  1.00  0.00     0.154 C 
ATOM     94  C   UNL     1      -3.800   3.172   3.740  1.00  0.00     0.097 C 
ATOM     95  C   UNL     1      -3.412   2.206   4.794  1.00  0.00     0.260 C 
ATOM     96  F   UNL     1      -4.277   2.003   5.844  1.00  0.00    -0.206 F 
ATOM     97  F   UNL     1      -2.143   2.285   5.321  1.00  0.00    -0.206 F 
ENDBRANCH  91  93
ENDBRANCH  81  91
ENDBRANCH  72  74
ENDBRANCH  71  72
ENDBRANCH  70  71
ENDBRANCH   1  70
TORSDOF 18
