REMARK SMILES COc1ccc(C(=O)N(C)C)cc1NC(=O)[C@H]1[C@@H](C(=O)OCCOC(=O)c2ccc(-c3c4nc(c(-c5cc(S(=O)(=O)[O-])ccc5F)c5ccc([nH]5)c(-c5cc(S(=O)(=O)[O-])ccc5F)c5nc(c(-c6cc(S(=O)(=O)[O-])ccc6F)c6ccc3[nH]6)C=C5)C=C4)cc2)[C@H]2C=C[C@@H]1C2
REMARK SMILES IDX 22 1 21 2 19 3 20 4 18 5 17 6 93 7 90 8 92 9 94 10 91 11
REMARK SMILES IDX 15 12 14 13 16 15 13 16 3 17 4 18 5 19 12 20 6 21 2 22 1 23
REMARK SMILES IDX 7 24 8 25 9 26 10 27 11 28 23 29 24 30 25 31 26 32 27 33
REMARK SMILES IDX 28 34 89 35 29 36 88 37 30 38 31 39 32 40 82 41 33 42 87 43
REMARK SMILES IDX 81 44 83 45 34 46 86 47 80 48 79 49 35 51 67 52 47 53 66 54
REMARK SMILES IDX 48 55 51 56 65 57 84 58 49 59 50 60 64 62 85 63 52 64 36 65
REMARK SMILES IDX 37 66 45 67 38 68 44 69 46 70 43 71 39 72 40 73 41 74 42 75
REMARK SMILES IDX 68 76 69 77 77 78 70 79 76 80 78 81 75 82 71 83 72 84 73 85
REMARK SMILES IDX 74 86 53 87 54 88 62 89 55 90 61 91 63 92 60 93 56 94 57 95
REMARK SMILES IDX 58 96 59 97
REMARK H PARENT 14 14 83 50 51 61
REMARK Flexibility Score: inf
ROOT
ATOM      1  C   UNL     1       8.464  -4.273   4.517  1.00  0.00     0.274 C 
ENDROOT
BRANCH   1   2
ATOM      2  O   UNL     1       7.249  -3.942   3.816  1.00  0.00    -0.462 OA
BRANCH   2   3
ATOM      3  C   UNL     1       6.354  -3.190   4.527  1.00  0.00     0.310 C 
ATOM      4  O   UNL     1       6.465  -2.960   5.723  1.00  0.00    -0.252 OA
BRANCH   3   5
ATOM      5  C   UNL     1       5.219  -2.732   3.636  1.00  0.00     0.119 C 
ATOM      6  C   UNL     1       4.822  -1.194   3.445  1.00  0.00     0.100 C 
ATOM      7  C   UNL     1       3.401  -1.180   4.124  1.00  0.00     0.025 C 
ATOM      8  C   UNL     1       3.910  -3.373   4.225  1.00  0.00     0.027 C 
ATOM      9  C   UNL     1       3.337  -1.645   5.566  1.00  0.00    -0.027 C 
ATOM     10  C   UNL     1       2.813  -2.513   3.588  1.00  0.00     0.017 C 
ATOM     11  C   UNL     1       3.678  -2.931   5.637  1.00  0.00    -0.027 C 
BRANCH   6  12
ATOM     12  C   UNL     1       5.744   0.054   2.835  1.00  0.00     0.229 C 
ATOM     13  N   UNL     1       6.408   1.144   3.430  1.00  0.00    -0.323 N 
ATOM     14  H   UNL     1       6.989   1.647   2.814  1.00  0.00     0.170 HD
ATOM     15  O   UNL     1       5.915   0.025   1.595  1.00  0.00    -0.274 OA
BRANCH  13  16
ATOM     16  C   UNL     1       6.391   1.697   4.877  1.00  0.00     0.084 A 
ATOM     17  C   UNL     1       7.508   1.344   6.554  1.00  0.00     0.142 A 
ATOM     18  C   UNL     1       6.587   0.701   7.994  1.00  0.00     0.049 A 
ATOM     19  C   UNL     1       4.813   0.561   7.862  1.00  0.00     0.018 A 
ATOM     20  C   UNL     1       4.613   1.580   4.993  1.00  0.00     0.044 A 
ATOM     21  C   UNL     1       3.860   1.047   6.420  1.00  0.00     0.042 A 
BRANCH  17  22
ATOM     22  O   UNL     1       8.858   0.953   6.844  1.00  0.00    -0.495 OA
ATOM     23  C   UNL     1       9.800   1.983   7.176  1.00  0.00     0.278 C 
ENDBRANCH  17  22
BRANCH  21  24
ATOM     24  C   UNL     1       2.378   1.261   6.614  1.00  0.00     0.253 C 
ATOM     25  O   UNL     1       2.046   1.220   7.804  1.00  0.00    -0.269 OA
ATOM     26  N   UNL     1       1.395   1.431   5.608  1.00  0.00    -0.345 N 
ATOM     27  C   UNL     1       1.460   1.683   4.169  1.00  0.00     0.146 C 
ATOM     28  C   UNL     1       0.009   1.391   6.060  1.00  0.00     0.146 C 
ENDBRANCH  21  24
ENDBRANCH  13  16
ENDBRANCH   6  12
ENDBRANCH   3   5
ENDBRANCH   2   3
ENDBRANCH   1   2
BRANCH   1  29
ATOM     29  C   UNL     1       9.485  -3.132   4.448  1.00  0.00     0.275 C 
BRANCH  29  30
ATOM     30  O   UNL     1       8.992  -1.958   5.122  1.00  0.00    -0.458 OA
BRANCH  30  31
ATOM     31  C   UNL     1       8.234  -1.182   4.316  1.00  0.00     0.338 C 
ATOM     32  O   UNL     1       8.098  -1.333   3.111  1.00  0.00    -0.246 OA
BRANCH  31  33
ATOM     33  C   UNL     1       7.664  -0.026   4.998  1.00  0.00     0.060 A 
ATOM     34  C   UNL     1       6.124   0.205   5.984  1.00  0.00     0.016 A 
ATOM     35  C   UNL     1       8.585   1.454   4.577  1.00  0.00     0.016 A 
ATOM     36  C   UNL     1       5.790   2.091   6.638  1.00  0.00     0.010 A 
ATOM     37  C   UNL     1       8.169   3.072   5.173  1.00  0.00     0.010 A 
ATOM     38  C   UNL     1       6.854   3.414   6.241  1.00  0.00    -0.014 A 
BRANCH  38  39
ATOM     39  C   UNL     1       6.445   4.676   6.946  1.00  0.00     0.031 A 
ATOM     40  C   UNL     1       6.121   5.868   6.134  1.00  0.00     0.074 A 
ATOM     41  C   UNL     1       6.072   4.639   8.258  1.00  0.00     0.049 A 
ATOM     42  N   UNL     1       5.676   7.019   6.546  1.00  0.00    -0.248 NA
ATOM     43  C   UNL     1       6.364   5.781   4.691  1.00  0.00     0.031 C 
ATOM     44  C   UNL     1       6.345   3.523   9.157  1.00  0.00     0.029 A 
ATOM     45  N   UNL     1       5.272   5.442   9.045  1.00  0.00    -0.354 N 
ATOM     46  C   UNL     1       5.695   7.836   5.433  1.00  0.00     0.074 A 
ATOM     47  C   UNL     1       6.143   7.031   4.317  1.00  0.00     0.031 C 
ATOM     48  C   UNL     1       5.489   3.533  10.186  1.00  0.00     0.029 A 
ATOM     49  C   UNL     1       4.868   4.843  10.238  1.00  0.00     0.049 A 
ATOM     50  H   UNL     1       5.011   6.355   8.788  1.00  0.00     0.167 HD
ATOM     51  C   UNL     1       5.418   9.158   5.399  1.00  0.00     0.034 A 
ATOM     52  C   UNL     1       4.180   5.322  11.305  1.00  0.00     0.034 A 
ATOM     53  C   UNL     1       4.947   9.884   6.551  1.00  0.00     0.049 A 
ATOM     54  C   UNL     1       3.879   6.796  11.233  1.00  0.00     0.074 A 
ATOM     55  C   UNL     1       4.692  11.236   6.670  1.00  0.00     0.029 A 
ATOM     56  N   UNL     1       4.656   9.311   7.787  1.00  0.00    -0.354 N 
ATOM     57  N   UNL     1       4.050   7.610  10.214  1.00  0.00    -0.248 NA
ATOM     58  C   UNL     1       3.393   7.448  12.453  1.00  0.00     0.031 C 
ATOM     59  C   UNL     1       4.328  11.491   7.995  1.00  0.00     0.029 A 
ATOM     60  C   UNL     1       4.245  10.286   8.678  1.00  0.00     0.049 A 
ATOM     61  H   UNL     1       4.731   8.351   7.995  1.00  0.00     0.167 HD
ATOM     62  C   UNL     1       3.721   8.873  10.676  1.00  0.00     0.074 A 
ATOM     63  C   UNL     1       3.281   8.704  12.050  1.00  0.00     0.031 C 
ATOM     64  C   UNL     1       3.805  10.066  10.037  1.00  0.00     0.034 A 
BRANCH  51  65
ATOM     65  C   UNL     1       5.795   9.886   4.142  1.00  0.00     0.023 A 
ATOM     66  C   UNL     1       5.188   9.628   2.904  1.00  0.00     0.031 A 
ATOM     67  C   UNL     1       6.878  10.784   4.177  1.00  0.00     0.131 A 
ATOM     68  C   UNL     1       5.721  10.200   1.740  1.00  0.00     0.055 A 
ATOM     69  C   UNL     1       7.341  11.424   3.030  1.00  0.00     0.041 A 
ATOM     70  F   UNL     1       7.532  11.022   5.326  1.00  0.00    -0.206 F 
ATOM     71  C   UNL     1       6.771  11.122   1.798  1.00  0.00     0.022 A 
BRANCH  68  72
ATOM     72  S   UNL     1       5.139   9.594   0.134  1.00  0.00     0.124 S 
ATOM     73  O   UNL     1       5.589   8.203   0.169  1.00  0.00    -0.237 OA
ATOM     74  O   UNL     1       3.698   9.799   0.220  1.00  0.00    -0.237 OA
ATOM     75  O   UNL     1       5.836  10.445  -0.827  1.00  0.00    -0.744 OA
ENDBRANCH  68  72
ENDBRANCH  51  65
BRANCH  52  76
ATOM     76  C   UNL     1       3.947   4.537  12.582  1.00  0.00     0.023 A 
ATOM     77  C   UNL     1       2.702   4.510  13.251  1.00  0.00     0.031 A 
ATOM     78  C   UNL     1       5.015   3.884  13.237  1.00  0.00     0.131 A 
ATOM     79  C   UNL     1       2.578   3.885  14.514  1.00  0.00     0.055 A 
ATOM     80  C   UNL     1       4.861   3.177  14.433  1.00  0.00     0.041 A 
ATOM     81  F   UNL     1       6.260   3.937  12.739  1.00  0.00    -0.206 F 
ATOM     82  C   UNL     1       3.641   3.189  15.089  1.00  0.00     0.022 A 
BRANCH  79  83
ATOM     83  S   UNL     1       1.066   4.131  15.501  1.00  0.00     0.124 S 
ATOM     84  O   UNL     1       0.954   5.585  15.516  1.00  0.00    -0.237 OA
ATOM     85  O   UNL     1       0.065   3.417  14.717  1.00  0.00    -0.237 OA
ATOM     86  O   UNL     1       1.395   3.522  16.789  1.00  0.00    -0.744 OA
ENDBRANCH  79  83
ENDBRANCH  52  76
BRANCH  64  87
ATOM     87  C   UNL     1       3.324  11.259  10.811  1.00  0.00     0.023 A 
ATOM     88  C   UNL     1       3.992  11.717  11.956  1.00  0.00     0.031 A 
ATOM     89  C   UNL     1       2.154  11.920  10.402  1.00  0.00     0.131 A 
ATOM     90  C   UNL     1       3.436  12.762  12.702  1.00  0.00     0.055 A 
ATOM     91  C   UNL     1       1.657  13.018  11.098  1.00  0.00     0.041 A 
ATOM     92  F   UNL     1       1.477  11.506   9.319  1.00  0.00    -0.206 F 
ATOM     93  C   UNL     1       2.289  13.433  12.267  1.00  0.00     0.022 A 
BRANCH  90  94
ATOM     94  S   UNL     1       4.149  13.133  14.326  1.00  0.00     0.124 S 
ATOM     95  O   UNL     1       3.996  11.857  15.017  1.00  0.00    -0.237 OA
ATOM     96  O   UNL     1       5.517  13.515  13.989  1.00  0.00    -0.237 OA
ATOM     97  O   UNL     1       3.308  14.218  14.827  1.00  0.00    -0.744 OA
ENDBRANCH  90  94
ENDBRANCH  64  87
ENDBRANCH  38  39
ENDBRANCH  31  33
ENDBRANCH  30  31
ENDBRANCH  29  30
ENDBRANCH   1  29
TORSDOF 18
