REMARK SMILES O=C(OCCOC(=O)c1cc(S(=O)(=O)N2CCCCCC2)ccc1Br)c1ccc(-c2c3nc(c(-c4cc(S(=O)(=O)[O-])ccc4F)c4ccc([nH]4)c(-c4cc(S(=O)(=O)[O-])ccc4F)c4nc(c(-c5cc(S(=O)(=O)[O-])ccc5F)c5ccc2[nH]5)C=C4)C=C3)cc1
REMARK SMILES IDX 5 1 4 2 3 3 2 4 1 5 26 6 27 7 88 8 28 9 87 10 29 11 30 12
REMARK SMILES IDX 31 13 81 14 32 15 86 16 80 17 82 18 33 19 85 20 79 21 78 22
REMARK SMILES IDX 34 24 66 25 46 26 65 27 47 28 50 29 64 30 83 31 48 32 49 33
REMARK SMILES IDX 63 35 84 36 51 37 35 38 36 39 44 40 37 41 43 42 45 43 42 44
REMARK SMILES IDX 38 45 39 46 40 47 41 48 67 49 68 50 76 51 69 52 75 53 77 54
REMARK SMILES IDX 74 55 70 56 71 57 72 58 73 59 52 60 53 61 61 62 54 63 60 64
REMARK SMILES IDX 62 65 59 66 55 67 56 68 57 69 58 70 6 71 7 72 8 73 9 74
REMARK SMILES IDX 10 75 24 76 11 77 23 78 25 79 22 80 12 81 13 82 14 83 15 84
REMARK SMILES IDX 16 85 17 86 18 87 21 89 20 90 19 91
REMARK H PARENT 82 23 50 34
REMARK Flexibility Score: 80.00
ROOT
ATOM      1  C   UNL     1       3.816  -0.289  -2.066  1.00  0.00     0.275 C 
ENDROOT
BRANCH   1   2
ATOM      2  C   UNL     1       4.090  -1.244  -0.902  1.00  0.00     0.275 C 
BRANCH   2   3
ATOM      3  O   UNL     1       3.064  -1.256   0.100  1.00  0.00    -0.458 OA
BRANCH   3   4
ATOM      4  C   UNL     1       2.829  -0.404   1.123  1.00  0.00     0.338 C 
ATOM      5  O   UNL     1       1.856  -0.633   1.842  1.00  0.00    -0.246 OA
BRANCH   4   6
ATOM      6  C   UNL     1       3.607   0.856   1.382  1.00  0.00     0.060 A 
ATOM      7  C   UNL     1       4.867   1.190   0.876  1.00  0.00     0.016 A 
ATOM      8  C   UNL     1       2.976   1.804   2.202  1.00  0.00     0.016 A 
ATOM      9  C   UNL     1       5.442   2.445   1.105  1.00  0.00     0.010 A 
ATOM     10  C   UNL     1       3.535   3.066   2.422  1.00  0.00     0.010 A 
ATOM     11  C   UNL     1       4.778   3.394   1.876  1.00  0.00    -0.014 A 
BRANCH  11  12
ATOM     12  C   UNL     1       5.472   4.634   2.286  1.00  0.00     0.031 A 
ATOM     13  C   UNL     1       5.958   4.719   3.701  1.00  0.00     0.074 A 
ATOM     14  C   UNL     1       5.703   5.631   1.411  1.00  0.00     0.049 A 
ATOM     15  N   UNL     1       6.619   5.676   4.293  1.00  0.00    -0.248 NA
ATOM     16  C   UNL     1       5.669   3.559   4.559  1.00  0.00     0.031 C 
ATOM     17  C   UNL     1       5.363   5.597  -0.008  1.00  0.00     0.029 A 
ATOM     18  N   UNL     1       6.280   6.862   1.580  1.00  0.00    -0.354 N 
ATOM     19  C   UNL     1       6.854   5.215   5.583  1.00  0.00     0.074 A 
ATOM     20  C   UNL     1       6.170   3.949   5.716  1.00  0.00     0.031 C 
ATOM     21  C   UNL     1       5.693   6.770  -0.576  1.00  0.00     0.029 A 
ATOM     22  C   UNL     1       6.284   7.633   0.439  1.00  0.00     0.049 A 
ATOM     23  H   UNL     1       6.657   7.167   2.436  1.00  0.00     0.167 HD
ATOM     24  C   UNL     1       7.618   5.774   6.551  1.00  0.00     0.034 A 
ATOM     25  C   UNL     1       6.731   8.889   0.239  1.00  0.00     0.034 A 
ATOM     26  C   UNL     1       8.257   7.053   6.398  1.00  0.00     0.049 A 
ATOM     27  C   UNL     1       7.440   9.571   1.381  1.00  0.00     0.074 A 
ATOM     28  C   UNL     1       9.029   7.751   7.307  1.00  0.00     0.029 A 
ATOM     29  N   UNL     1       8.176   7.841   5.253  1.00  0.00    -0.354 N 
ATOM     30  N   UNL     1       7.679   9.114   2.591  1.00  0.00    -0.248 NA
ATOM     31  C   UNL     1       7.978  10.910   1.122  1.00  0.00     0.031 C 
ATOM     32  C   UNL     1       9.345   8.992   6.742  1.00  0.00     0.029 A 
ATOM     33  C   UNL     1       8.848   9.035   5.447  1.00  0.00     0.049 A 
ATOM     34  H   UNL     1       7.707   7.586   4.426  1.00  0.00     0.167 HD
ATOM     35  C   UNL     1       8.456  10.085   3.216  1.00  0.00     0.074 A 
ATOM     36  C   UNL     1       8.629  11.154   2.251  1.00  0.00     0.031 C 
ATOM     37  C   UNL     1       8.997  10.085   4.463  1.00  0.00     0.034 A 
BRANCH  24  38
ATOM     38  C   UNL     1       7.717   5.008   7.849  1.00  0.00     0.023 A 
ATOM     39  C   UNL     1       8.253   3.706   7.893  1.00  0.00     0.031 A 
ATOM     40  C   UNL     1       7.141   5.522   9.021  1.00  0.00     0.131 A 
ATOM     41  C   UNL     1       8.088   2.920   9.043  1.00  0.00     0.055 A 
ATOM     42  C   UNL     1       7.071   4.769  10.195  1.00  0.00     0.041 A 
ATOM     43  F   UNL     1       6.590   6.745   9.033  1.00  0.00    -0.206 F 
ATOM     44  C   UNL     1       7.521   3.451  10.203  1.00  0.00     0.022 A 
BRANCH  41  45
ATOM     45  S   UNL     1       8.420   1.138   8.927  1.00  0.00     0.124 S 
ATOM     46  O   UNL     1       7.512   0.738   7.855  1.00  0.00    -0.237 OA
ATOM     47  O   UNL     1       9.842   1.103   8.605  1.00  0.00    -0.237 OA
ATOM     48  O   UNL     1       8.067   0.637  10.254  1.00  0.00    -0.744 OA
ENDBRANCH  41  45
ENDBRANCH  24  38
BRANCH  25  49
ATOM     49  C   UNL     1       6.552   9.563  -1.080  1.00  0.00     0.023 A 
ATOM     50  C   UNL     1       7.651   9.909  -1.881  1.00  0.00     0.031 A 
ATOM     51  C   UNL     1       5.268   9.901  -1.546  1.00  0.00     0.131 A 
ATOM     52  C   UNL     1       7.452  10.610  -3.083  1.00  0.00     0.055 A 
ATOM     53  C   UNL     1       5.072  10.565  -2.760  1.00  0.00     0.041 A 
ATOM     54  F   UNL     1       4.178   9.582  -0.827  1.00  0.00    -0.206 F 
ATOM     55  C   UNL     1       6.169  10.933  -3.531  1.00  0.00     0.022 A 
BRANCH  52  56
ATOM     56  S   UNL     1       8.904  11.150  -4.028  1.00  0.00     0.124 S 
ATOM     57  O   UNL     1       9.609  11.968  -3.047  1.00  0.00    -0.237 OA
ATOM     58  O   UNL     1       9.528   9.877  -4.372  1.00  0.00    -0.237 OA
ATOM     59  O   UNL     1       8.324  11.883  -5.152  1.00  0.00    -0.744 OA
ENDBRANCH  52  56
ENDBRANCH  25  49
BRANCH  37  60
ATOM     60  C   UNL     1       9.877  11.255   4.821  1.00  0.00     0.023 A 
ATOM     61  C   UNL     1       9.368  12.558   4.937  1.00  0.00     0.031 A 
ATOM     62  C   UNL     1      11.252  11.056   5.045  1.00  0.00     0.131 A 
ATOM     63  C   UNL     1      10.238  13.623   5.204  1.00  0.00     0.055 A 
ATOM     64  C   UNL     1      12.100  12.110   5.384  1.00  0.00     0.041 A 
ATOM     65  F   UNL     1      11.791   9.831   4.942  1.00  0.00    -0.206 F 
ATOM     66  C   UNL     1      11.597  13.405   5.450  1.00  0.00     0.022 A 
BRANCH  63  67
ATOM     67  S   UNL     1       9.589  15.313   5.111  1.00  0.00     0.124 S 
ATOM     68  O   UNL     1       9.079  15.365   3.744  1.00  0.00    -0.237 OA
ATOM     69  O   UNL     1       8.581  15.318   6.167  1.00  0.00    -0.237 OA
ATOM     70  O   UNL     1      10.762  16.146   5.368  1.00  0.00    -0.744 OA
ENDBRANCH  63  67
ENDBRANCH  37  60
ENDBRANCH  11  12
ENDBRANCH   4   6
ENDBRANCH   3   4
ENDBRANCH   2   3
ENDBRANCH   1   2
BRANCH   1  71
ATOM     71  O   UNL     1       3.426   1.030  -1.651  1.00  0.00    -0.458 OA
BRANCH  71  72
ATOM     72  C   UNL     1       2.103   1.331  -1.721  1.00  0.00     0.339 C 
ATOM     73  O   UNL     1       1.197   0.586  -2.047  1.00  0.00    -0.246 OA
BRANCH  72  74
ATOM     74  C   UNL     1       1.895   2.717  -1.247  1.00  0.00     0.075 A 
ATOM     75  C   UNL     1       1.052   2.925  -0.139  1.00  0.00     0.038 A 
ATOM     76  C   UNL     1       2.510   3.810  -1.867  1.00  0.00     0.032 A 
ATOM     77  C   UNL     1       0.910   4.214   0.405  1.00  0.00     0.083 A 
ATOM     78  C   UNL     1       2.335   5.092  -1.339  1.00  0.00     0.018 A 
ATOM     79  Br  UNL     1       3.562   3.659  -3.441  1.00  0.00    -0.050 Br
ATOM     80  C   UNL     1       1.571   5.289  -0.187  1.00  0.00     0.023 A 
BRANCH  77  81
ATOM     81  S   UNL     1      -0.143   4.425   1.840  1.00  0.00     0.243 S 
ATOM     82  O   UNL     1      -1.495   4.175   1.367  1.00  0.00    -0.207 OA
ATOM     83  O   UNL     1       0.425   3.646   2.909  1.00  0.00    -0.207 OA
BRANCH  81  84
ATOM     84  N   UNL     1      -0.054   6.073   2.273  1.00  0.00    -0.198 NA
BRANCH  84  85
ATOM     85  C   UNL     1       1.129   6.552   3.028  1.00  0.00     0.102 C 
BRANCH  85  86
ATOM     86  C   UNL     1       0.746   7.584   4.091  1.00  0.00     0.017 C 
BRANCH  86  87
ATOM     87  C   UNL     1       0.666   9.015   3.568  1.00  0.00     0.001 CG0
ATOM     88  G   UNL     1      -0.452   9.251   2.564  1.00  0.00     0.000 G0
ENDBRANCH  86  87
ENDBRANCH  85  86
ENDBRANCH  84  85
BRANCH  84  89
ATOM     89  C   UNL     1      -0.856   7.002   1.450  1.00  0.00     0.102 C 
BRANCH  89  90
ATOM     90  C   UNL     1      -0.310   8.414   1.300  1.00  0.00     0.017 C 
BRANCH  90  91
ATOM     91  C   UNL     1      -0.452   9.251   2.564  1.00  0.00     0.001 CG0
ATOM     92  G   UNL     1       0.666   9.015   3.568  1.00  0.00     0.000 G0
ENDBRANCH  90  91
ENDBRANCH  89  90
ENDBRANCH  84  89
ENDBRANCH  81  84
ENDBRANCH  77  81
ENDBRANCH  72  74
ENDBRANCH  71  72
ENDBRANCH   1  71
TORSDOF 16
