REMARK SMILES O=C(OCCOC(=O)[C@@]1([NH2+]C2CC2)CCC[C@@H](Sc2ncn[nH]2)C1)c1ccc(-c2c3nc(c(-c4cc(S(=O)(=O)[O-])ccc4F)c4ccc([nH]4)c(-c4cc(S(=O)(=O)[O-])ccc4F)c4nc(c(-c5cc(S(=O)(=O)[O-])ccc5F)c5ccc2[nH]5)C=C4)C=C3)cc1
REMARK SMILES IDX 4 1 3 2 2 3 1 4 25 5 26 6 87 7 27 8 86 9 28 10 29 11 30 12
REMARK SMILES IDX 80 13 31 14 85 15 79 16 81 17 32 18 84 19 78 20 77 21 33 23
REMARK SMILES IDX 65 24 45 25 64 26 46 27 49 28 63 29 82 30 47 31 48 32 62 34
REMARK SMILES IDX 83 35 50 36 34 37 35 38 43 39 36 40 42 41 44 42 41 43 37 44
REMARK SMILES IDX 38 45 39 46 40 47 66 48 67 49 75 50 68 51 74 52 76 53 73 54
REMARK SMILES IDX 69 55 70 56 71 57 72 58 51 59 52 60 60 61 53 62 59 63 61 64
REMARK SMILES IDX 58 65 54 66 55 67 56 68 57 69 5 70 6 71 7 72 8 73 9 74 14 75
REMARK SMILES IDX 24 76 15 77 17 78 16 79 10 80 11 83 12 84 13 85 18 86 19 87
REMARK SMILES IDX 20 88 23 89 21 90 22 91
REMARK H PARENT 81 22 49 33 10 81 10 82 23 92
REMARK Flexibility Score: inf
ROOT
ATOM      1  C   UNL     1       4.074   1.242   1.381  1.00  0.00     0.275 C 
ENDROOT
BRANCH   1   2
ATOM      2  O   UNL     1       2.946   1.537   0.553  1.00  0.00    -0.458 OA
BRANCH   2   3
ATOM      3  C   UNL     1       2.641   0.901  -0.600  1.00  0.00     0.338 C 
ATOM      4  O   UNL     1       1.764   1.346  -1.336  1.00  0.00    -0.246 OA
BRANCH   3   5
ATOM      5  C   UNL     1       3.278  -0.386  -0.980  1.00  0.00     0.060 A 
ATOM      6  C   UNL     1       4.535  -1.326  -0.033  1.00  0.00     0.016 A 
ATOM      7  C   UNL     1       2.609  -1.096  -2.508  1.00  0.00     0.016 A 
ATOM      8  C   UNL     1       5.120  -2.928  -0.633  1.00  0.00     0.010 A 
ATOM      9  C   UNL     1       3.280  -2.639  -3.156  1.00  0.00     0.010 A 
ATOM     10  C   UNL     1       4.516  -3.568  -2.217  1.00  0.00    -0.014 A 
BRANCH  10  11
ATOM     11  C   UNL     1       5.201  -4.766  -2.779  1.00  0.00     0.031 A 
ATOM     12  C   UNL     1       5.838  -4.708  -4.146  1.00  0.00     0.074 A 
ATOM     13  C   UNL     1       5.405  -5.838  -1.984  1.00  0.00     0.049 A 
ATOM     14  N   UNL     1       6.667  -5.567  -4.679  1.00  0.00    -0.248 NA
ATOM     15  C   UNL     1       5.656  -3.499  -4.969  1.00  0.00     0.031 C 
ATOM     16  C   UNL     1       5.060  -5.928  -0.569  1.00  0.00     0.029 A 
ATOM     17  N   UNL     1       5.925  -7.079  -2.233  1.00  0.00    -0.354 N 
ATOM     18  C   UNL     1       7.172  -4.956  -5.822  1.00  0.00     0.074 A 
ATOM     19  C   UNL     1       6.551  -3.664  -5.931  1.00  0.00     0.031 C 
ATOM     20  C   UNL     1       5.221  -7.168  -0.110  1.00  0.00     0.029 A 
ATOM     21  C   UNL     1       5.714  -7.969  -1.200  1.00  0.00     0.049 A 
ATOM     22  H   UNL     1       6.400  -7.313  -3.063  1.00  0.00     0.167 HD
ATOM     23  C   UNL     1       8.074  -5.446  -6.700  1.00  0.00     0.034 A 
ATOM     24  C   UNL     1       5.864  -9.299  -1.131  1.00  0.00     0.034 A 
ATOM     25  C   UNL     1       8.538  -6.806  -6.636  1.00  0.00     0.049 A 
ATOM     26  C   UNL     1       6.598  -9.917  -2.268  1.00  0.00     0.074 A 
ATOM     27  C   UNL     1       9.351  -7.481  -7.524  1.00  0.00     0.029 A 
ATOM     28  N   UNL     1       8.160  -7.719  -5.657  1.00  0.00    -0.354 N 
ATOM     29  N   UNL     1       7.087  -9.311  -3.327  1.00  0.00    -0.248 NA
ATOM     30  C   UNL     1       6.871 -11.348  -2.188  1.00  0.00     0.031 C 
ATOM     31  C   UNL     1       9.360  -8.828  -7.152  1.00  0.00     0.029 A 
ATOM     32  C   UNL     1       8.647  -8.974  -5.971  1.00  0.00     0.049 A 
ATOM     33  H   UNL     1       7.625  -7.504  -4.859  1.00  0.00     0.167 HD
ATOM     34  C   UNL     1       7.767 -10.284  -4.029  1.00  0.00     0.074 A 
ATOM     35  C   UNL     1       7.638 -11.510  -3.256  1.00  0.00     0.031 C 
ATOM     36  C   UNL     1       8.444 -10.175  -5.199  1.00  0.00     0.034 A 
BRANCH  23  37
ATOM     37  C   UNL     1       8.470  -4.578  -7.867  1.00  0.00     0.023 A 
ATOM     38  C   UNL     1       9.294  -3.445  -7.727  1.00  0.00     0.031 A 
ATOM     39  C   UNL     1       7.998  -4.898  -9.152  1.00  0.00     0.131 A 
ATOM     40  C   UNL     1       9.611  -2.671  -8.858  1.00  0.00     0.055 A 
ATOM     41  C   UNL     1       8.361  -4.158 -10.277  1.00  0.00     0.041 A 
ATOM     42  F   UNL     1       7.166  -5.936  -9.331  1.00  0.00    -0.206 F 
ATOM     43  C   UNL     1       9.172  -3.037 -10.134  1.00  0.00     0.022 A 
BRANCH  40  44
ATOM     44  S   UNL     1      10.533  -1.120  -8.642  1.00  0.00     0.124 S 
ATOM     45  O   UNL     1       9.628  -0.352  -7.792  1.00  0.00    -0.237 OA
ATOM     46  O   UNL     1      11.771  -1.571  -8.015  1.00  0.00    -0.237 OA
ATOM     47  O   UNL     1      10.676  -0.612 -10.006  1.00  0.00    -0.744 OA
ENDBRANCH  40  44
ENDBRANCH  23  37
BRANCH  24  48
ATOM     48  C   UNL     1       5.303 -10.065   0.016  1.00  0.00     0.023 A 
ATOM     49  C   UNL     1       6.110 -10.831   0.863  1.00  0.00     0.031 A 
ATOM     50  C   UNL     1       3.914 -10.043   0.275  1.00  0.00     0.131 A 
ATOM     51  C   UNL     1       5.523 -11.592   1.886  1.00  0.00     0.055 A 
ATOM     52  C   UNL     1       3.343 -10.752   1.331  1.00  0.00     0.041 A 
ATOM     53  F   UNL     1       3.090  -9.310  -0.492  1.00  0.00    -0.206 F 
ATOM     54  C   UNL     1       4.149 -11.550   2.134  1.00  0.00     0.022 A 
BRANCH  51  55
ATOM     55  S   UNL     1       6.575 -12.740   2.814  1.00  0.00     0.124 S 
ATOM     56  O   UNL     1       7.271 -13.441   1.740  1.00  0.00    -0.237 OA
ATOM     57  O   UNL     1       7.383 -11.825   3.613  1.00  0.00    -0.237 OA
ATOM     58  O   UNL     1       5.615 -13.546   3.565  1.00  0.00    -0.744 OA
ENDBRANCH  51  55
ENDBRANCH  24  48
BRANCH  36  59
ATOM     59  C   UNL     1       9.061 -11.442  -5.697  1.00  0.00     0.023 A 
ATOM     60  C   UNL     1       8.253 -12.528  -6.060  1.00  0.00     0.031 A 
ATOM     61  C   UNL     1      10.456 -11.584  -5.750  1.00  0.00     0.131 A 
ATOM     62  C   UNL     1       8.849 -13.752  -6.365  1.00  0.00     0.055 A 
ATOM     63  C   UNL     1      11.044 -12.778  -6.154  1.00  0.00     0.041 A 
ATOM     64  F   UNL     1      11.262 -10.569  -5.401  1.00  0.00    -0.206 F 
ATOM     65  C   UNL     1      10.239 -13.878  -6.443  1.00  0.00     0.022 A 
BRANCH  62  66
ATOM     66  S   UNL     1       7.777 -15.203  -6.497  1.00  0.00     0.124 S 
ATOM     67  O   UNL     1       7.186 -15.256  -5.163  1.00  0.00    -0.237 OA
ATOM     68  O   UNL     1       6.872 -14.827  -7.579  1.00  0.00    -0.237 OA
ATOM     69  O   UNL     1       8.707 -16.285  -6.810  1.00  0.00    -0.744 OA
ENDBRANCH  62  66
ENDBRANCH  36  59
ENDBRANCH  10  11
ENDBRANCH   3   5
ENDBRANCH   2   3
ENDBRANCH   1   2
BRANCH   1  70
ATOM     70  C   UNL     1       3.768   0.242   2.532  1.00  0.00     0.274 C 
BRANCH  70  71
ATOM     71  O   UNL     1       3.416  -1.119   2.145  1.00  0.00    -0.457 OA
BRANCH  71  72
ATOM     72  C   UNL     1       2.266  -1.280   1.432  1.00  0.00     0.368 C 
ATOM     73  O   UNL     1       1.330  -0.498   1.576  1.00  0.00    -0.245 OA
BRANCH  72  74
ATOM     74  C   UNL     1       2.276  -2.493   0.380  1.00  0.00     0.195 C 
ATOM     75  C   UNL     1       2.594  -3.823   1.121  1.00  0.00     0.081 C 
ATOM     76  C   UNL     1       0.728  -2.624   0.010  1.00  0.00     0.096 C 
ATOM     77  C   UNL     1       2.250  -5.074   0.300  1.00  0.00     0.008 C 
ATOM     78  C   UNL     1       0.167  -3.957  -0.528  1.00  0.00     0.061 C 
ATOM     79  C   UNL     1       0.777  -5.229   0.051  1.00  0.00     0.015 C 
BRANCH  74  80
ATOM     80  N   UNL     1       3.180  -2.451  -1.032  1.00  0.00    -0.330 N 
ATOM     81  H   UNL     1       2.430  -2.409  -1.721  1.00  0.00     0.347 HD
ATOM     82  H   UNL     1       3.872  -3.076  -0.618  1.00  0.00     0.347 HD
BRANCH  80  83
ATOM     83  C   UNL     1       4.716  -1.418  -2.090  1.00  0.00     0.183 C 
ATOM     84  C   UNL     1       6.098  -0.622  -1.621  1.00  0.00     0.071 C 
ATOM     85  C   UNL     1       6.261  -1.772  -2.521  1.00  0.00     0.071 C 
ENDBRANCH  80  83
ENDBRANCH  74  80
BRANCH  78  86
ATOM     86  S   UNL     1      -1.677  -4.069  -0.320  1.00  0.00    -0.083 SA
BRANCH  86  87
ATOM     87  C   UNL     1      -1.813  -4.359   1.381  1.00  0.00     0.183 A 
ATOM     88  N   UNL     1      -1.480  -3.555   2.360  1.00  0.00    -0.210 NA
ATOM     89  N   UNL     1      -2.147  -5.582   1.883  1.00  0.00    -0.254 N 
ATOM     90  C   UNL     1      -1.614  -4.349   3.463  1.00  0.00     0.247 A 
ATOM     91  N   UNL     1      -2.026  -5.598   3.226  1.00  0.00    -0.162 NA
ATOM     92  H   UNL     1      -2.438  -6.348   1.339  1.00  0.00     0.192 HD
ENDBRANCH  86  87
ENDBRANCH  78  86
ENDBRANCH  72  74
ENDBRANCH  71  72
ENDBRANCH  70  71
ENDBRANCH   1  70
TORSDOF 18
