REMARK SMILES C[C@H]1[C@H](C)CC[C@@]2(C(=O)OCCOC(=O)c3ccc(-c4c5nc(c(-c6cc(S(=O)(=O)[O-])ccc6F)c6ccc([nH]6)c(-c6cc(S(=O)(=O)[O-])ccc6F)c6nc(c(-c7cc(S(=O)(=O)[O-])ccc7F)c7ccc4[nH]7)C=C6)C=C5)cc3)CC[C@@]3(C)C(=CC[C@@H]4[C@@]5(C)CC[C@H](O)C(C)(C)[C@@H]5CC[C@]43C)[C@H]12
REMARK SMILES IDX 12 1 11 2 10 3 8 4 9 5 7 6 1 7 2 8 3 9 101 10 4 11 5 12
REMARK SMILES IDX 83 13 6 14 79 15 81 16 84 17 80 18 82 19 99 20 85 21 86 22
REMARK SMILES IDX 98 23 100 24 87 25 97 26 88 27 89 28 96 29 90 30 93 31 91 32
REMARK SMILES IDX 94 33 95 34 92 35 13 37 14 38 15 39 16 40 17 41 78 42 18 43
REMARK SMILES IDX 77 44 19 45 20 46 21 47 71 48 22 49 76 50 70 51 72 52 23 53
REMARK SMILES IDX 75 54 69 55 68 56 24 58 56 59 36 60 55 61 37 62 40 63 54 64
REMARK SMILES IDX 73 65 38 66 39 67 53 69 74 70 41 71 25 72 26 73 34 74 27 75
REMARK SMILES IDX 33 76 35 77 32 78 28 79 29 80 30 81 31 82 57 83 58 84 66 85
REMARK SMILES IDX 59 86 65 87 67 88 64 89 60 90 61 91 62 92 63 93 42 94 43 95
REMARK SMILES IDX 51 96 44 97 50 98 52 99 49 100 45 101 46 102 47 103 48 104
REMARK H PARENT 92 36 72 57 40 68
REMARK Flexibility Score: inf
ROOT
ATOM      1  C   UNL     1      -3.811   1.348   1.976  1.00  0.00     0.275 C 
ENDROOT
BRANCH   1   2
ATOM      2  C   UNL     1      -2.501   0.940   1.280  1.00  0.00     0.274 C 
BRANCH   2   3
ATOM      3  O   UNL     1      -1.375   0.607   2.122  1.00  0.00    -0.462 OA
BRANCH   3   4
ATOM      4  C   UNL     1      -0.650   1.686   2.522  1.00  0.00     0.312 C 
ATOM      5  O   UNL     1      -1.125   2.802   2.496  1.00  0.00    -0.252 OA
BRANCH   4   6
ATOM      6  C   UNL     1       0.852   1.430   2.781  1.00  0.00     0.075 C 
ATOM      7  C   UNL     1       2.183  -0.067  -0.597  1.00  0.00     0.008 C 
ATOM      8  C   UNL     1       1.299   0.046   0.655  1.00  0.00    -0.003 C 
ATOM      9  C   UNL     1       1.518  -1.214   1.559  1.00  0.00    -0.011 C 
ATOM     10  C   UNL     1       1.579   1.405   1.404  1.00  0.00     0.036 C 
ATOM     11  C   UNL     1       1.038  -2.511   0.887  1.00  0.00     0.008 C 
ATOM     12  C   UNL     1       0.821  -1.136   2.919  1.00  0.00     0.005 C 
ATOM     13  C   UNL     1       1.210   2.766   0.707  1.00  0.00    -0.063 C 
ATOM     14  C   UNL     1       1.076   0.172   3.635  1.00  0.00     0.020 C 
ATOM     15  C   UNL     1       1.472   2.605   3.592  1.00  0.00     0.020 C 
ATOM     16  C   UNL     1       1.663   4.093   1.423  1.00  0.00    -0.006 C 
ATOM     17  C   UNL     1       0.308   2.799  -0.297  1.00  0.00    -0.027 C 
ATOM     18  C   UNL     1       1.348   3.991   2.951  1.00  0.00     0.013 C 
ATOM     19  C   UNL     1       3.207   4.194   1.311  1.00  0.00     0.017 C 
ATOM     20  C   UNL     1       0.956   5.455   0.770  1.00  0.00    -0.020 C 
ATOM     21  C   UNL     1      -0.527   3.996  -0.663  1.00  0.00     0.032 C 
ATOM     22  C   UNL     1      -0.532   5.091   0.429  1.00  0.00     0.006 C 
ATOM     23  C   UNL     1       0.970   6.669   1.740  1.00  0.00     0.008 C 
ATOM     24  C   UNL     1       1.728   5.906  -0.498  1.00  0.00     0.012 C 
ATOM     25  C   UNL     1      -1.617   6.246   0.224  1.00  0.00    -0.025 C 
ATOM     26  C   UNL     1       0.052   7.835   1.340  1.00  0.00     0.005 C 
ATOM     27  C   UNL     1      -1.591   6.779  -1.220  1.00  0.00     0.012 C 
ATOM     28  C   UNL     1      -3.035   5.634   0.479  1.00  0.00     0.010 C 
ATOM     29  C   UNL     1      -1.410   7.358   1.316  1.00  0.00     0.003 C 
ATOM     30  C   UNL     1      -4.173   6.651   0.588  1.00  0.00     0.033 C 
ATOM     31  C   UNL     1      -2.516   8.486   1.387  1.00  0.00    -0.006 C 
ATOM     32  C   UNL     1      -3.899   7.787   1.574  1.00  0.00     0.120 C 
ATOM     33  C   UNL     1      -2.530   9.445   0.180  1.00  0.00     0.014 C 
ATOM     34  C   UNL     1      -2.279   9.400   2.624  1.00  0.00     0.014 C 
BRANCH  32  35
ATOM     35  O   UNL     1      -4.988   8.710   1.517  1.00  0.00    -0.393 OA
ATOM     36  H   UNL     1      -5.041   9.092   0.627  1.00  0.00     0.210 HD
ENDBRANCH  32  35
ENDBRANCH   4   6
ENDBRANCH   3   4
ENDBRANCH   2   3
ENDBRANCH   1   2
BRANCH   1  37
ATOM     37  O   UNL     1      -3.707   2.534   2.780  1.00  0.00    -0.458 OA
BRANCH  37  38
ATOM     38  C   UNL     1      -3.277   2.331   4.057  1.00  0.00     0.338 C 
ATOM     39  O   UNL     1      -3.188   1.244   4.610  1.00  0.00    -0.246 OA
BRANCH  38  40
ATOM     40  C   UNL     1      -2.692   3.587   4.609  1.00  0.00     0.060 A 
ATOM     41  C   UNL     1      -1.588   3.491   5.474  1.00  0.00     0.016 A 
ATOM     42  C   UNL     1      -3.135   4.843   4.206  1.00  0.00     0.016 A 
ATOM     43  C   UNL     1      -0.932   4.640   5.942  1.00  0.00     0.010 A 
ATOM     44  C   UNL     1      -2.478   5.986   4.672  1.00  0.00     0.010 A 
ATOM     45  C   UNL     1      -1.390   5.903   5.563  1.00  0.00    -0.014 A 
BRANCH  45  46
ATOM     46  C   UNL     1      -1.022   7.132   6.326  1.00  0.00     0.031 A 
ATOM     47  C   UNL     1      -2.053   7.629   7.306  1.00  0.00     0.074 A 
ATOM     48  C   UNL     1       0.109   7.840   6.134  1.00  0.00     0.049 A 
ATOM     49  N   UNL     1      -2.069   8.717   8.030  1.00  0.00    -0.248 NA
ATOM     50  C   UNL     1      -3.256   6.790   7.452  1.00  0.00     0.031 C 
ATOM     51  C   UNL     1       1.198   7.487   5.233  1.00  0.00     0.029 A 
ATOM     52  N   UNL     1       0.511   9.041   6.672  1.00  0.00    -0.354 N 
ATOM     53  C   UNL     1      -3.275   8.676   8.720  1.00  0.00     0.074 A 
ATOM     54  C   UNL     1      -4.021   7.550   8.210  1.00  0.00     0.031 C 
ATOM     55  C   UNL     1       2.106   8.481   5.214  1.00  0.00     0.029 A 
ATOM     56  C   UNL     1       1.685   9.528   6.141  1.00  0.00     0.049 A 
ATOM     57  H   UNL     1       0.004   9.510   7.374  1.00  0.00     0.167 HD
ATOM     58  C   UNL     1      -3.697   9.449   9.748  1.00  0.00     0.034 A 
ATOM     59  C   UNL     1       2.345  10.679   6.389  1.00  0.00     0.034 A 
ATOM     60  C   UNL     1      -2.952  10.568  10.251  1.00  0.00     0.049 A 
ATOM     61  C   UNL     1       1.826  11.593   7.477  1.00  0.00     0.074 A 
ATOM     62  C   UNL     1      -3.252  11.405  11.308  1.00  0.00     0.029 A 
ATOM     63  N   UNL     1      -1.752  11.014   9.713  1.00  0.00    -0.354 N 
ATOM     64  N   UNL     1       0.740  11.480   8.207  1.00  0.00    -0.248 NA
ATOM     65  C   UNL     1       2.655  12.760   7.812  1.00  0.00     0.031 C 
ATOM     66  C   UNL     1      -2.258  12.389  11.378  1.00  0.00     0.029 A 
ATOM     67  C   UNL     1      -1.306  12.128  10.404  1.00  0.00     0.049 A 
ATOM     68  H   UNL     1      -1.286  10.599   8.951  1.00  0.00     0.167 HD
ATOM     69  C   UNL     1       0.792  12.523   9.131  1.00  0.00     0.074 A 
ATOM     70  C   UNL     1       2.012  13.254   8.860  1.00  0.00     0.031 C 
ATOM     71  C   UNL     1      -0.079  12.836  10.126  1.00  0.00     0.034 A 
BRANCH  58  72
ATOM     72  C   UNL     1      -5.019   9.063  10.366  1.00  0.00     0.023 A 
ATOM     73  C   UNL     1      -5.200   7.788  10.938  1.00  0.00     0.031 A 
ATOM     74  C   UNL     1      -6.136   9.904  10.261  1.00  0.00     0.131 A 
ATOM     75  C   UNL     1      -6.489   7.340  11.254  1.00  0.00     0.055 A 
ATOM     76  C   UNL     1      -7.403   9.489  10.677  1.00  0.00     0.041 A 
ATOM     77  F   UNL     1      -6.028  11.121   9.707  1.00  0.00    -0.206 F 
ATOM     78  C   UNL     1      -7.591   8.191  11.152  1.00  0.00     0.022 A 
BRANCH  75  79
ATOM     79  S   UNL     1      -6.727   5.574  11.595  1.00  0.00     0.124 S 
ATOM     80  O   UNL     1      -6.311   4.972  10.329  1.00  0.00    -0.237 OA
ATOM     81  O   UNL     1      -5.842   5.347  12.731  1.00  0.00    -0.237 OA
ATOM     82  O   UNL     1      -8.156   5.471  11.886  1.00  0.00    -0.744 OA
ENDBRANCH  75  79
ENDBRANCH  58  72
BRANCH  59  83
ATOM     83  C   UNL     1       3.588  11.039   5.642  1.00  0.00     0.023 A 
ATOM     84  C   UNL     1       4.838  11.082   6.285  1.00  0.00     0.031 A 
ATOM     85  C   UNL     1       3.529  11.439   4.296  1.00  0.00     0.131 A 
ATOM     86  C   UNL     1       5.964  11.572   5.603  1.00  0.00     0.055 A 
ATOM     87  C   UNL     1       4.661  11.889   3.609  1.00  0.00     0.041 A 
ATOM     88  F   UNL     1       2.363  11.416   3.631  1.00  0.00    -0.206 F 
ATOM     89  C   UNL     1       5.885  11.972   4.267  1.00  0.00     0.022 A 
BRANCH  86  90
ATOM     90  S   UNL     1       7.522  11.761   6.515  1.00  0.00     0.124 S 
ATOM     91  O   UNL     1       7.128  12.657   7.596  1.00  0.00    -0.237 OA
ATOM     92  O   UNL     1       7.816  10.384   6.898  1.00  0.00    -0.237 OA
ATOM     93  O   UNL     1       8.430  12.337   5.525  1.00  0.00    -0.744 OA
ENDBRANCH  86  90
ENDBRANCH  59  83
BRANCH  71  94
ATOM     94  C   UNL     1       0.301  13.975  11.039  1.00  0.00     0.023 A 
ATOM     95  C   UNL     1       0.381  15.300  10.582  1.00  0.00     0.031 A 
ATOM     96  C   UNL     1       0.597  13.721  12.391  1.00  0.00     0.131 A 
ATOM     97  C   UNL     1       0.807  16.314  11.453  1.00  0.00     0.055 A 
ATOM     98  C   UNL     1       0.957  14.743  13.269  1.00  0.00     0.041 A 
ATOM     99  F   UNL     1       0.538  12.472  12.882  1.00  0.00    -0.206 F 
ATOM    100  C   UNL     1       1.078  16.047  12.798  1.00  0.00     0.022 A 
BRANCH  97 101
ATOM    101  S   UNL     1       1.102  17.971  10.779  1.00  0.00     0.124 S 
ATOM    102  O   UNL     1       2.091  17.704   9.739  1.00  0.00    -0.237 OA
ATOM    103  O   UNL     1      -0.225  18.358  10.312  1.00  0.00    -0.237 OA
ATOM    104  O   UNL     1       1.599  18.726  11.928  1.00  0.00    -0.744 OA
ENDBRANCH  97 101
ENDBRANCH  71  94
ENDBRANCH  45  46
ENDBRANCH  38  40
ENDBRANCH  37  38
ENDBRANCH   1  37
TORSDOF 15
