REMARK SMILES CC(C)OCCS(=O)(=O)N[C@@H]1CCCCC[C@H]1C(=O)OCCOC(=O)c1ccc(-c2c3nc(c(-c4cc(S(=O)(=O)[O-])ccc4F)c4ccc([nH]4)c(-c4cc(S(=O)(=O)[O-])ccc4F)c4nc(c(-c5cc(S(=O)(=O)[O-])ccc5F)c5ccc2[nH]5)C=C4)C=C3)cc1
REMARK SMILES IDX 18 1 19 2 17 3 11 4 10 5 7 7 8 8 9 9 6 10 5 11 4 12 2 13
REMARK SMILES IDX 1 14 3 15 12 16 13 17 14 18 16 20 15 21 20 23 21 24 22 25
REMARK SMILES IDX 23 26 24 27 25 28 26 29 27 30 88 31 28 32 87 33 29 34 30 35
REMARK SMILES IDX 31 36 81 37 32 38 86 39 80 40 82 41 33 42 85 43 79 44 78 45
REMARK SMILES IDX 34 47 66 48 46 49 65 50 47 51 50 52 64 53 83 54 48 55 49 56
REMARK SMILES IDX 63 58 84 59 51 60 35 61 36 62 44 63 37 64 43 65 45 66 42 67
REMARK SMILES IDX 38 68 39 69 40 70 41 71 67 72 68 73 76 74 69 75 75 76 77 77
REMARK SMILES IDX 74 78 70 79 71 80 72 81 73 82 52 83 53 84 61 85 54 86 60 87
REMARK SMILES IDX 62 88 59 89 55 90 56 91 57 92 58 93
REMARK H PARENT 10 6 82 46 50 57
REMARK Flexibility Score: 90.00
ROOT
ATOM      1  C   UNL     1       2.311  -2.815  -0.210  1.00  0.00     0.310 C 
ATOM      2  O   UNL     1       3.370  -3.176  -0.716  1.00  0.00    -0.252 OA
ENDROOT
BRANCH   1   3
ATOM      3  C   UNL     1       2.190  -2.538   1.295  1.00  0.00     0.117 C 
BRANCH   3   4
ATOM      4  C   UNL     1       1.052  -1.571   1.734  1.00  0.00     0.083 C 
BRANCH   4   5
ATOM      5  N   UNL     1       1.515  -0.533   2.714  1.00  0.00    -0.211 NA
ATOM      6  H   UNL     1       0.941  -0.678   3.545  1.00  0.00     0.141 HD
BRANCH   5   7
ATOM      7  S   UNL     1       1.526   1.135   2.475  1.00  0.00     0.214 S 
ATOM      8  O   UNL     1       1.970   1.383   1.117  1.00  0.00    -0.212 OA
ATOM      9  O   UNL     1       2.313   1.608   3.584  1.00  0.00    -0.212 OA
BRANCH   7  10
ATOM     10  C   UNL     1      -0.165   1.749   2.748  1.00  0.00     0.182 C 
BRANCH  10  11
ATOM     11  C   UNL     1      -0.722   2.665   1.654  1.00  0.00     0.178 C 
BRANCH  11  12
ATOM     12  O   UNL     1      -1.950   2.237   1.038  1.00  0.00    -0.378 OA
BRANCH  12  13
ATOM     13  C   UNL     1      -1.912   1.209   0.045  1.00  0.00     0.112 C 
ATOM     14  C   UNL     1      -0.723   1.289  -0.891  1.00  0.00     0.038 C 
ATOM     15  C   UNL     1      -2.015  -0.134   0.733  1.00  0.00     0.038 C 
ENDBRANCH  12  13
ENDBRANCH  11  12
ENDBRANCH  10  11
ENDBRANCH   7  10
ENDBRANCH   5   7
ENDBRANCH   4   5
BRANCH   4  16
ATOM     16  C   UNL     1      -0.075  -2.317   2.480  1.00  0.00     0.021 C 
BRANCH  16  17
ATOM     17  C   UNL     1      -0.798  -3.339   1.614  1.00  0.00     0.002 C 
BRANCH  17  18
ATOM     18  C   UNL     1      -0.245  -4.751   1.748  1.00  0.00     0.000 CG0
ATOM     19  G   UNL     1       1.235  -4.968   1.449  1.00  0.00     0.000 G0
ENDBRANCH  17  18
ENDBRANCH  16  17
ENDBRANCH   4  16
ENDBRANCH   3   4
BRANCH   3  20
ATOM     20  C   UNL     1       2.231  -3.925   1.980  1.00  0.00     0.017 C 
BRANCH  20  21
ATOM     21  C   UNL     1       1.235  -4.968   1.449  1.00  0.00     0.001 CG0
ATOM     22  G   UNL     1      -0.245  -4.751   1.748  1.00  0.00     0.000 G0
ENDBRANCH  20  21
ENDBRANCH   3  20
ENDBRANCH   1   3
BRANCH   1  23
ATOM     23  O   UNL     1       1.132  -2.777  -0.888  1.00  0.00    -0.462 OA
BRANCH  23  24
ATOM     24  C   UNL     1       1.180  -3.162  -2.284  1.00  0.00     0.274 C 
BRANCH  24  25
ATOM     25  C   UNL     1       1.256  -1.966  -3.247  1.00  0.00     0.275 C 
BRANCH  25  26
ATOM     26  O   UNL     1       2.528  -1.290  -3.198  1.00  0.00    -0.458 OA
BRANCH  26  27
ATOM     27  C   UNL     1       2.612  -0.426  -2.161  1.00  0.00     0.338 C 
ATOM     28  O   UNL     1       1.710  -0.192  -1.373  1.00  0.00    -0.246 OA
BRANCH  27  29
ATOM     29  C   UNL     1       3.966   0.074  -1.933  1.00  0.00     0.060 A 
ATOM     30  C   UNL     1       4.505  -0.151  -0.663  1.00  0.00     0.016 A 
ATOM     31  C   UNL     1       4.642   0.853  -2.868  1.00  0.00     0.016 A 
ATOM     32  C   UNL     1       5.729   0.381  -0.315  1.00  0.00     0.010 A 
ATOM     33  C   UNL     1       5.883   1.391  -2.519  1.00  0.00     0.010 A 
ATOM     34  C   UNL     1       6.429   1.148  -1.246  1.00  0.00    -0.014 A 
BRANCH  34  35
ATOM     35  C   UNL     1       7.746   1.682  -0.855  1.00  0.00     0.031 A 
ATOM     36  C   UNL     1       7.895   3.133  -0.531  1.00  0.00     0.074 A 
ATOM     37  C   UNL     1       8.773   0.821  -0.746  1.00  0.00     0.049 A 
ATOM     38  N   UNL     1       8.980   3.810  -0.270  1.00  0.00    -0.248 NA
ATOM     39  C   UNL     1       6.659   3.929  -0.501  1.00  0.00     0.031 C 
ATOM     40  C   UNL     1       8.681  -0.627  -0.960  1.00  0.00     0.029 A 
ATOM     41  N   UNL     1      10.086   1.027  -0.424  1.00  0.00    -0.354 N 
ATOM     42  C   UNL     1       8.566   5.121  -0.069  1.00  0.00     0.074 A 
ATOM     43  C   UNL     1       7.130   5.143  -0.256  1.00  0.00     0.031 C 
ATOM     44  C   UNL     1       9.888  -1.177  -0.761  1.00  0.00     0.029 A 
ATOM     45  C   UNL     1      10.847  -0.116  -0.483  1.00  0.00     0.049 A 
ATOM     46  H   UNL     1      10.451   1.907  -0.175  1.00  0.00     0.167 HD
ATOM     47  C   UNL     1       9.331   6.198   0.237  1.00  0.00     0.034 A 
ATOM     48  C   UNL     1      12.179  -0.275  -0.375  1.00  0.00     0.034 A 
ATOM     49  C   UNL     1      10.763   6.122   0.411  1.00  0.00     0.049 A 
ATOM     50  C   UNL     1      13.015   0.950  -0.123  1.00  0.00     0.074 A 
ATOM     51  C   UNL     1      11.653   7.137   0.711  1.00  0.00     0.029 A 
ATOM     52  N   UNL     1      11.517   4.957   0.294  1.00  0.00    -0.354 N 
ATOM     53  N   UNL     1      12.627   2.198   0.021  1.00  0.00    -0.248 NA
ATOM     54  C   UNL     1      14.463   0.750  -0.018  1.00  0.00     0.031 C 
ATOM     55  C   UNL     1      12.947   6.602   0.703  1.00  0.00     0.029 A 
ATOM     56  C   UNL     1      12.862   5.236   0.483  1.00  0.00     0.049 A 
ATOM     57  H   UNL     1      11.149   4.064   0.104  1.00  0.00     0.167 HD
ATOM     58  C   UNL     1      13.785   2.930   0.258  1.00  0.00     0.074 A 
ATOM     59  C   UNL     1      14.880   1.978   0.256  1.00  0.00     0.031 C 
ATOM     60  C   UNL     1      13.934   4.265   0.460  1.00  0.00     0.034 A 
BRANCH  47  61
ATOM     61  C   UNL     1       8.643   7.540   0.316  1.00  0.00     0.023 A 
ATOM     62  C   UNL     1       7.657   7.825   1.278  1.00  0.00     0.031 A 
ATOM     63  C   UNL     1       8.954   8.544  -0.621  1.00  0.00     0.131 A 
ATOM     64  C   UNL     1       6.972   9.051   1.238  1.00  0.00     0.055 A 
ATOM     65  C   UNL     1       8.325   9.790  -0.605  1.00  0.00     0.041 A 
ATOM     66  F   UNL     1       9.866   8.324  -1.581  1.00  0.00    -0.206 F 
ATOM     67  C   UNL     1       7.317  10.045   0.319  1.00  0.00     0.022 A 
BRANCH  64  68
ATOM     68  S   UNL     1       5.528   9.280   2.313  1.00  0.00     0.124 S 
ATOM     69  O   UNL     1       4.655   8.195   1.873  1.00  0.00    -0.237 OA
ATOM     70  O   UNL     1       6.101   9.141   3.647  1.00  0.00    -0.237 OA
ATOM     71  O   UNL     1       5.058  10.623   1.975  1.00  0.00    -0.744 OA
ENDBRANCH  64  68
ENDBRANCH  47  61
BRANCH  48  72
ATOM     72  C   UNL     1      12.795  -1.618  -0.567  1.00  0.00     0.023 A 
ATOM     73  C   UNL     1      13.506  -2.245   0.467  1.00  0.00     0.031 A 
ATOM     74  C   UNL     1      12.701  -2.286  -1.802  1.00  0.00     0.131 A 
ATOM     75  C   UNL     1      14.130  -3.481   0.235  1.00  0.00     0.055 A 
ATOM     76  C   UNL     1      13.274  -3.542  -2.010  1.00  0.00     0.041 A 
ATOM     77  F   UNL     1      12.033  -1.732  -2.827  1.00  0.00    -0.206 F 
ATOM     78  C   UNL     1      14.006  -4.140  -0.990  1.00  0.00     0.022 A 
BRANCH  75  79
ATOM     79  S   UNL     1      15.186  -4.176   1.535  1.00  0.00     0.124 S 
ATOM     80  O   UNL     1      16.150  -3.100   1.742  1.00  0.00    -0.237 OA
ATOM     81  O   UNL     1      14.231  -4.398   2.615  1.00  0.00    -0.237 OA
ATOM     82  O   UNL     1      15.726  -5.388   0.923  1.00  0.00    -0.744 OA
ENDBRANCH  75  79
ENDBRANCH  48  72
BRANCH  60  83
ATOM     83  C   UNL     1      15.335   4.749   0.743  1.00  0.00     0.023 A 
ATOM     84  C   UNL     1      16.347   4.693  -0.231  1.00  0.00     0.031 A 
ATOM     85  C   UNL     1      15.662   5.251   2.014  1.00  0.00     0.131 A 
ATOM     86  C   UNL     1      17.655   5.074   0.102  1.00  0.00     0.055 A 
ATOM     87  C   UNL     1      16.950   5.692   2.319  1.00  0.00     0.041 A 
ATOM     88  F   UNL     1      14.735   5.321   2.982  1.00  0.00    -0.206 F 
ATOM     89  C   UNL     1      17.958   5.591   1.365  1.00  0.00     0.022 A 
BRANCH  86  90
ATOM     90  S   UNL     1      18.978   4.787  -1.104  1.00  0.00     0.124 S 
ATOM     91  O   UNL     1      18.895   3.344  -1.307  1.00  0.00    -0.237 OA
ATOM     92  O   UNL     1      18.558   5.614  -2.231  1.00  0.00    -0.237 OA
ATOM     93  O   UNL     1      20.179   5.248  -0.412  1.00  0.00    -0.744 OA
ENDBRANCH  86  90
ENDBRANCH  60  83
ENDBRANCH  34  35
ENDBRANCH  27  29
ENDBRANCH  26  27
ENDBRANCH  25  26
ENDBRANCH  24  25
ENDBRANCH  23  24
ENDBRANCH   1  23
TORSDOF 20
