REMARK SMILES O=C(OCCOC(=O)c1ccccc1/C=N\NC(=S)NCc1ccccc1)c1ccc(-c2c3nc(c(-c4cc(S(=O)(=O)[O-])ccc4F)c4ccc([nH]4)c(-c4cc(S(=O)(=O)[O-])ccc4F)c4nc(c(-c5cc(S(=O)(=O)[O-])ccc5F)c5ccc2[nH]5)C=C4)C=C3)cc1
REMARK SMILES IDX 6 1 5 2 4 3 3 4 2 5 1 6 28 7 29 8 90 9 30 10 89 11 31 12
REMARK SMILES IDX 32 13 33 14 83 15 34 16 88 17 82 18 84 19 35 20 87 21 81 22
REMARK SMILES IDX 80 23 36 25 68 26 48 27 67 28 49 29 52 30 66 31 85 32 50 33
REMARK SMILES IDX 51 34 65 36 86 37 53 38 37 39 38 40 46 41 39 42 45 43 47 44
REMARK SMILES IDX 44 45 40 46 41 47 42 48 43 49 69 50 70 51 78 52 71 53 77 54
REMARK SMILES IDX 79 55 76 56 72 57 73 58 74 59 75 60 54 61 55 62 63 63 56 64
REMARK SMILES IDX 62 65 64 66 61 67 57 68 58 69 59 70 60 71 7 72 8 73 9 74
REMARK SMILES IDX 10 75 14 76 11 77 13 78 12 79 15 80 16 81 17 82 18 84 19 85
REMARK SMILES IDX 20 86 21 88 22 89 23 90 27 91 24 92 26 93 25 94
REMARK H PARENT 84 24 52 35 17 83 20 87
REMARK Flexibility Score: inf
ROOT
ATOM      1  O   UNL     1       3.714   2.255  -1.997  1.00  0.00    -0.458 OA
ENDROOT
BRANCH   1   2
ATOM      2  C   UNL     1       4.016   1.112  -2.826  1.00  0.00     0.275 C 
BRANCH   2   3
ATOM      3  C   UNL     1       3.762  -0.238  -2.125  1.00  0.00     0.275 C 
BRANCH   3   4
ATOM      4  O   UNL     1       2.398  -0.351  -1.671  1.00  0.00    -0.458 OA
BRANCH   4   5
ATOM      5  C   UNL     1       1.851  -0.160  -0.449  1.00  0.00     0.338 C 
ATOM      6  O   UNL     1       0.652  -0.387  -0.296  1.00  0.00    -0.246 OA
BRANCH   5   7
ATOM      7  C   UNL     1       2.591   0.337   0.748  1.00  0.00     0.060 A 
ATOM      8  C   UNL     1       4.260   0.955   0.661  1.00  0.00     0.016 A 
ATOM      9  C   UNL     1       1.695   0.261   2.274  1.00  0.00     0.016 A 
ATOM     10  C   UNL     1       5.190   1.473   2.036  1.00  0.00     0.010 A 
ATOM     11  C   UNL     1       2.534   0.774   3.801  1.00  0.00     0.010 A 
ATOM     12  C   UNL     1       4.442   1.459   3.672  1.00  0.00    -0.014 A 
BRANCH  12  13
ATOM     13  C   UNL     1       5.551   2.385   4.467  1.00  0.00     0.031 A 
ATOM     14  C   UNL     1       6.356   1.779   5.557  1.00  0.00     0.074 A 
ATOM     15  C   UNL     1       6.024   3.614   4.101  1.00  0.00     0.049 A 
ATOM     16  N   UNL     1       6.800   2.299   6.665  1.00  0.00    -0.248 NA
ATOM     17  C   UNL     1       6.651   0.363   5.377  1.00  0.00     0.031 C 
ATOM     18  C   UNL     1       5.854   4.283   2.818  1.00  0.00     0.029 A 
ATOM     19  N   UNL     1       6.796   4.539   4.789  1.00  0.00    -0.354 N 
ATOM     20  C   UNL     1       7.215   1.207   7.410  1.00  0.00     0.074 A 
ATOM     21  C   UNL     1       6.895   0.029   6.632  1.00  0.00     0.031 C 
ATOM     22  C   UNL     1       6.374   5.519   2.834  1.00  0.00     0.029 A 
ATOM     23  C   UNL     1       6.926   5.760   4.145  1.00  0.00     0.049 A 
ATOM     24  H   UNL     1       7.215   4.345   5.658  1.00  0.00     0.167 HD
ATOM     25  C   UNL     1       7.845   1.206   8.609  1.00  0.00     0.034 A 
ATOM     26  C   UNL     1       7.418   6.950   4.547  1.00  0.00     0.034 A 
ATOM     27  C   UNL     1       8.447   2.394   9.159  1.00  0.00     0.049 A 
ATOM     28  C   UNL     1       8.088   6.988   5.889  1.00  0.00     0.074 A 
ATOM     29  C   UNL     1       9.194   2.531  10.313  1.00  0.00     0.029 A 
ATOM     30  N   UNL     1       8.467   3.633   8.523  1.00  0.00    -0.354 N 
ATOM     31  N   UNL     1       8.232   6.010   6.753  1.00  0.00    -0.248 NA
ATOM     32  C   UNL     1       8.718   8.250   6.284  1.00  0.00     0.031 C 
ATOM     33  C   UNL     1       9.655   3.851  10.381  1.00  0.00     0.029 A 
ATOM     34  C   UNL     1       9.237   4.528   9.245  1.00  0.00     0.049 A 
ATOM     35  H   UNL     1       8.000   3.842   7.681  1.00  0.00     0.167 HD
ATOM     36  C   UNL     1       9.054   6.513   7.751  1.00  0.00     0.074 A 
ATOM     37  C   UNL     1       9.350   7.887   7.390  1.00  0.00     0.031 C 
ATOM     38  C   UNL     1       9.543   5.883   8.848  1.00  0.00     0.034 A 
BRANCH  25  39
ATOM     39  C   UNL     1       7.852  -0.096   9.373  1.00  0.00     0.023 A 
ATOM     40  C   UNL     1       8.355  -1.288   8.830  1.00  0.00     0.031 A 
ATOM     41  C   UNL     1       7.165  -0.176  10.598  1.00  0.00     0.131 A 
ATOM     42  C   UNL     1       7.976  -2.517   9.386  1.00  0.00     0.055 A 
ATOM     43  C   UNL     1       6.934  -1.397  11.234  1.00  0.00     0.041 A 
ATOM     44  F   UNL     1       6.653   0.924  11.172  1.00  0.00    -0.206 F 
ATOM     45  C   UNL     1       7.302  -2.583  10.606  1.00  0.00     0.022 A 
BRANCH  42  46
ATOM     46  S   UNL     1       8.134  -4.005   8.355  1.00  0.00     0.124 S 
ATOM     47  O   UNL     1       7.194  -3.710   7.274  1.00  0.00    -0.237 OA
ATOM     48  O   UNL     1       9.545  -3.989   7.986  1.00  0.00    -0.237 OA
ATOM     49  O   UNL     1       7.730  -5.086   9.249  1.00  0.00    -0.744 OA
ENDBRANCH  42  46
ENDBRANCH  25  39
BRANCH  26  50
ATOM     50  C   UNL     1       7.310   8.191   3.708  1.00  0.00     0.023 A 
ATOM     51  C   UNL     1       8.448   8.855   3.219  1.00  0.00     0.031 A 
ATOM     52  C   UNL     1       6.059   8.794   3.475  1.00  0.00     0.131 A 
ATOM     53  C   UNL     1       8.323  10.109   2.589  1.00  0.00     0.055 A 
ATOM     54  C   UNL     1       5.935  10.021   2.812  1.00  0.00     0.041 A 
ATOM     55  F   UNL     1       4.931   8.207   3.908  1.00  0.00    -0.206 F 
ATOM     56  C   UNL     1       7.073  10.695   2.381  1.00  0.00     0.022 A 
BRANCH  53  57
ATOM     57  S   UNL     1       9.831  11.017   2.139  1.00  0.00     0.124 S 
ATOM     58  O   UNL     1      10.521  11.101   3.420  1.00  0.00    -0.237 OA
ATOM     59  O   UNL     1      10.429  10.132   1.144  1.00  0.00    -0.237 OA
ATOM     60  O   UNL     1       9.325  12.285   1.617  1.00  0.00    -0.744 OA
ENDBRANCH  53  57
ENDBRANCH  26  50
BRANCH  38  61
ATOM     61  C   UNL     1      10.536   6.650   9.675  1.00  0.00     0.023 A 
ATOM     62  C   UNL     1      10.172   7.803  10.386  1.00  0.00     0.031 A 
ATOM     63  C   UNL     1      11.874   6.220   9.737  1.00  0.00     0.131 A 
ATOM     64  C   UNL     1      11.150   8.525  11.081  1.00  0.00     0.055 A 
ATOM     65  C   UNL     1      12.826   6.900  10.494  1.00  0.00     0.041 A 
ATOM     66  F   UNL     1      12.274   5.130   9.063  1.00  0.00    -0.206 F 
ATOM     67  C   UNL     1      12.469   8.069  11.161  1.00  0.00     0.022 A 
BRANCH  64  68
ATOM     68  S   UNL     1      10.694  10.131  11.786  1.00  0.00     0.124 S 
ATOM     69  O   UNL     1      10.248  10.862  10.604  1.00  0.00    -0.237 OA
ATOM     70  O   UNL     1       9.652   9.767  12.740  1.00  0.00    -0.237 OA
ATOM     71  O   UNL     1      11.940  10.609  12.380  1.00  0.00    -0.744 OA
ENDBRANCH  64  68
ENDBRANCH  38  61
ENDBRANCH  12  13
ENDBRANCH   5   7
ENDBRANCH   4   5
ENDBRANCH   3   4
ENDBRANCH   2   3
ENDBRANCH   1   2
BRANCH   1  72
ATOM     72  C   UNL     1       2.523   2.877  -2.208  1.00  0.00     0.338 C 
ATOM     73  O   UNL     1       1.710   2.641  -3.079  1.00  0.00    -0.246 OA
BRANCH  72  74
ATOM     74  C   UNL     1       2.230   3.627  -0.980  1.00  0.00     0.068 A 
ATOM     75  C   UNL     1       0.815   3.002  -0.036  1.00  0.00     0.016 A 
ATOM     76  C   UNL     1       3.479   4.640  -0.156  1.00  0.00     0.009 A 
ATOM     77  C   UNL     1       0.628   3.412   1.707  1.00  0.00     0.001 A 
ATOM     78  C   UNL     1       3.260   5.121   1.611  1.00  0.00     0.010 A 
ATOM     79  C   UNL     1       1.791   4.539   2.493  1.00  0.00     0.001 A 
BRANCH  76  80
ATOM     80  C   UNL     1       4.193   5.599  -0.928  1.00  0.00     0.142 C 
ATOM     81  N   UNL     1       3.768   6.810  -0.880  1.00  0.00    -0.181 NA
BRANCH  81  82
ATOM     82  N   UNL     1       2.583   7.045  -0.207  1.00  0.00    -0.254 N 
ATOM     83  H   UNL     1       2.452   7.989   0.042  1.00  0.00     0.193 HD
BRANCH  82  84
ATOM     84  C   UNL     1       1.551   6.228   0.182  1.00  0.00     0.187 C 
ATOM     85  S   UNL     1       0.042   6.976   0.330  1.00  0.00    -0.039 S 
BRANCH  84  86
ATOM     86  N   UNL     1       1.605   4.839   0.530  1.00  0.00    -0.357 N 
ATOM     87  H   UNL     1       0.674   4.527   0.466  1.00  0.00     0.163 HD
BRANCH  86  88
ATOM     88  C   UNL     1       2.698   3.148   1.110  1.00  0.00     0.151 C 
BRANCH  88  89
ATOM     89  C   UNL     1       3.035   2.002   2.478  1.00  0.00    -0.029 A 
ATOM     90  C   UNL     1       3.736   0.096   2.579  1.00  0.00     0.005 A 
ATOM     91  C   UNL     1       2.848   2.803   4.123  1.00  0.00     0.005 A 
ATOM     92  C   UNL     1       4.040  -0.680   4.156  1.00  0.00     0.000 A 
ATOM     93  C   UNL     1       3.208   1.894   5.595  1.00  0.00     0.000 A 
ATOM     94  C   UNL     1       3.754   0.233   5.589  1.00  0.00     0.000 A 
ENDBRANCH  88  89
ENDBRANCH  86  88
ENDBRANCH  84  86
ENDBRANCH  82  84
ENDBRANCH  81  82
ENDBRANCH  76  80
ENDBRANCH  72  74
ENDBRANCH   1  72
TORSDOF 20
