REMARK SMILES CCCc1nn2c(=O)cc(CSc3ccccc3C(=O)OCCOC(=O)c3ccc(-c4c5nc(c(-c6cc(S(=O)(=O)[O-])ccc6F)c6ccc([nH]6)c(-c6cc(S(=O)(=O)[O-])ccc6F)c6nc(c(-c7cc(S(=O)(=O)[O-])ccc7F)c7ccc4[nH]7)C=C6)C=C5)cc3)nc2s1
REMARK SMILES IDX 22 1 21 2 19 3 20 4 18 5 13 6 14 7 15 8 17 9 16 10 12 11
REMARK SMILES IDX 11 12 10 13 4 14 5 15 92 16 6 17 91 18 7 19 90 20 8 21 9 22
REMARK SMILES IDX 3 23 2 24 1 25 23 26 24 27 25 28 26 29 27 30 28 31 89 32
REMARK SMILES IDX 29 33 88 34 30 35 31 36 32 37 82 38 33 39 87 40 81 41 83 42
REMARK SMILES IDX 34 43 86 44 80 45 79 46 35 48 67 49 47 50 66 51 48 52 51 53
REMARK SMILES IDX 65 54 84 55 49 56 50 57 64 59 85 60 52 61 36 62 37 63 45 64
REMARK SMILES IDX 38 65 44 66 46 67 43 68 39 69 40 70 41 71 42 72 68 73 69 74
REMARK SMILES IDX 77 75 70 76 76 77 78 78 75 79 71 80 72 81 73 82 74 83 53 84
REMARK SMILES IDX 54 85 62 86 55 87 61 88 63 89 60 90 56 91 57 92 58 93 59 94
REMARK H PARENT 83 47 51 58
REMARK Flexibility Score: inf
ROOT
ATOM      1  C   UNL     1      -2.238   2.632  -9.157  1.00  0.00     0.275 C 
ENDROOT
BRANCH   1   2
ATOM      2  O   UNL     1      -1.009   2.019  -8.716  1.00  0.00    -0.458 OA
BRANCH   2   3
ATOM      3  C   UNL     1       0.072   2.213  -9.514  1.00  0.00     0.339 C 
ATOM      4  O   UNL     1       0.083   2.861 -10.550  1.00  0.00    -0.246 OA
BRANCH   3   5
ATOM      5  C   UNL     1       1.317   1.673  -8.911  1.00  0.00     0.073 A 
ATOM      6  C   UNL     1       1.432   0.435  -8.259  1.00  0.00     0.022 A 
ATOM      7  C   UNL     1       2.696   0.051  -7.767  1.00  0.00     0.016 A 
ATOM      8  C   UNL     1       3.820   0.868  -7.918  1.00  0.00     0.001 A 
ATOM      9  C   UNL     1       2.473   2.459  -9.104  1.00  0.00     0.017 A 
ATOM     10  C   UNL     1       3.711   2.071  -8.598  1.00  0.00     0.001 A 
BRANCH   6  11
ATOM     11  S   UNL     1       0.225  -0.878  -8.359  1.00  0.00    -0.119 SA
BRANCH  11  12
ATOM     12  C   UNL     1      -0.878  -0.692  -6.938  1.00  0.00     0.131 C 
BRANCH  12  13
ATOM     13  C   UNL     1      -0.578   0.272  -5.816  1.00  0.00     0.060 A 
ATOM     14  C   UNL     1       1.097   1.825  -1.857  1.00  0.00     0.117 A 
ATOM     15  N   UNL     1      -0.020   2.284  -2.321  1.00  0.00    -0.156 NA
ATOM     16  S   UNL     1       1.978   0.700  -2.868  1.00  0.00    -0.079 S 
ATOM     17  N   UNL     1      -0.251   1.723  -3.556  1.00  0.00    -0.167 N 
ATOM     18  C   UNL     1       0.666   0.806  -4.002  1.00  0.00     0.215 A 
ATOM     19  C   UNL     1      -1.422   1.952  -4.238  1.00  0.00     0.275 A 
ATOM     20  N   UNL     1       0.564   0.071  -5.063  1.00  0.00    -0.223 NA
ATOM     21  O   UNL     1      -2.375   2.638  -3.874  1.00  0.00    -0.267 OA
ATOM     22  C   UNL     1      -1.537   1.151  -5.474  1.00  0.00     0.098 A 
BRANCH  14  23
ATOM     23  C   UNL     1       1.609   2.159  -0.486  1.00  0.00     0.069 C 
BRANCH  23  24
ATOM     24  C   UNL     1       0.802   1.447   0.603  1.00  0.00     0.004 C 
ATOM     25  C   UNL     1       1.080  -0.049   0.670  1.00  0.00     0.004 C 
ENDBRANCH  23  24
ENDBRANCH  14  23
ENDBRANCH  12  13
ENDBRANCH  11  12
ENDBRANCH   6  11
ENDBRANCH   3   5
ENDBRANCH   2   3
ENDBRANCH   1   2
BRANCH   1  26
ATOM     26  C   UNL     1      -2.715   3.712  -8.183  1.00  0.00     0.275 C 
BRANCH  26  27
ATOM     27  O   UNL     1      -1.794   4.812  -8.112  1.00  0.00    -0.458 OA
BRANCH  27  28
ATOM     28  C   UNL     1      -0.882   4.719  -7.118  1.00  0.00     0.338 C 
ATOM     29  O   UNL     1      -0.746   3.820  -6.309  1.00  0.00    -0.246 OA
BRANCH  28  30
ATOM     30  C   UNL     1       0.053   5.837  -7.192  1.00  0.00     0.060 A 
ATOM     31  C   UNL     1       1.169   5.680  -8.007  1.00  0.00     0.016 A 
ATOM     32  C   UNL     1      -0.091   6.956  -6.375  1.00  0.00     0.016 A 
ATOM     33  C   UNL     1       2.180   6.628  -7.984  1.00  0.00     0.010 A 
ATOM     34  C   UNL     1       0.889   7.952  -6.415  1.00  0.00     0.010 A 
ATOM     35  C   UNL     1       2.033   7.793  -7.217  1.00  0.00    -0.014 A 
BRANCH  35  36
ATOM     36  C   UNL     1       3.057   8.864  -7.311  1.00  0.00     0.031 A 
ATOM     37  C   UNL     1       3.866   9.261  -6.112  1.00  0.00     0.074 A 
ATOM     38  C   UNL     1       3.244   9.472  -8.499  1.00  0.00     0.049 A 
ATOM     39  N   UNL     1       4.699  10.259  -5.971  1.00  0.00    -0.248 NA
ATOM     40  C   UNL     1       3.705   8.435  -4.906  1.00  0.00     0.031 C 
ATOM     41  C   UNL     1       2.526   9.143  -9.735  1.00  0.00     0.029 A 
ATOM     42  N   UNL     1       4.092  10.482  -8.871  1.00  0.00    -0.354 N 
ATOM     43  C   UNL     1       5.132  10.212  -4.650  1.00  0.00     0.074 A 
ATOM     44  C   UNL     1       4.460   9.087  -4.032  1.00  0.00     0.031 C 
ATOM     45  C   UNL     1       2.992   9.906 -10.733  1.00  0.00     0.029 A 
ATOM     46  C   UNL     1       3.971  10.840 -10.194  1.00  0.00     0.049 A 
ATOM     47  H   UNL     1       4.726  10.910  -8.252  1.00  0.00     0.167 HD
ATOM     48  C   UNL     1       6.001  11.042  -4.019  1.00  0.00     0.034 A 
ATOM     49  C   UNL     1       4.547  11.839 -10.887  1.00  0.00     0.034 A 
ATOM     50  C   UNL     1       6.663  12.149  -4.672  1.00  0.00     0.049 A 
ATOM     51  C   UNL     1       5.488  12.758 -10.161  1.00  0.00     0.074 A 
ATOM     52  C   UNL     1       7.561  13.059  -4.140  1.00  0.00     0.029 A 
ATOM     53  N   UNL     1       6.496  12.498  -6.009  1.00  0.00    -0.354 N 
ATOM     54  N   UNL     1       5.848  12.735  -8.898  1.00  0.00    -0.248 NA
ATOM     55  C   UNL     1       6.088  13.840 -10.946  1.00  0.00     0.031 C 
ATOM     56  C   UNL     1       7.894  13.985  -5.138  1.00  0.00     0.029 A 
ATOM     57  C   UNL     1       7.256  13.618  -6.312  1.00  0.00     0.049 A 
ATOM     58  H   UNL     1       5.922  12.018  -6.648  1.00  0.00     0.167 HD
ATOM     59  C   UNL     1       6.718  13.806  -8.736  1.00  0.00     0.074 A 
ATOM     60  C   UNL     1       6.851  14.431 -10.038  1.00  0.00     0.031 C 
ATOM     61  C   UNL     1       7.346  14.239  -7.613  1.00  0.00     0.034 A 
BRANCH  48  62
ATOM     62  C   UNL     1       6.221  10.822  -2.540  1.00  0.00     0.023 A 
ATOM     63  C   UNL     1       6.814   9.651  -2.035  1.00  0.00     0.031 A 
ATOM     64  C   UNL     1       5.787  11.788  -1.613  1.00  0.00     0.131 A 
ATOM     65  C   UNL     1       6.891   9.445  -0.648  1.00  0.00     0.055 A 
ATOM     66  C   UNL     1       5.936  11.611  -0.235  1.00  0.00     0.041 A 
ATOM     67  F   UNL     1       5.193  12.917  -2.030  1.00  0.00    -0.206 F 
ATOM     68  C   UNL     1       6.477  10.427   0.255  1.00  0.00     0.022 A 
BRANCH  65  69
ATOM     69  S   UNL     1       7.409   7.816  -0.037  1.00  0.00     0.124 S 
ATOM     70  O   UNL     1       6.408   6.940  -0.641  1.00  0.00    -0.237 OA
ATOM     71  O   UNL     1       8.763   7.697  -0.563  1.00  0.00    -0.237 OA
ATOM     72  O   UNL     1       7.314   7.947   1.416  1.00  0.00    -0.744 OA
ENDBRANCH  65  69
ENDBRANCH  48  62
BRANCH  49  73
ATOM     73  C   UNL     1       4.197  12.052 -12.319  1.00  0.00     0.023 A 
ATOM     74  C   UNL     1       5.149  11.875 -13.334  1.00  0.00     0.031 A 
ATOM     75  C   UNL     1       2.893  12.428 -12.694  1.00  0.00     0.131 A 
ATOM     76  C   UNL     1       4.788  12.091 -14.674  1.00  0.00     0.055 A 
ATOM     77  C   UNL     1       2.527  12.593 -14.029  1.00  0.00     0.041 A 
ATOM     78  F   UNL     1       1.944  12.606 -11.761  1.00  0.00    -0.206 F 
ATOM     79  C   UNL     1       3.480  12.432 -15.029  1.00  0.00     0.022 A 
BRANCH  76  80
ATOM     80  S   UNL     1       6.070  11.971 -15.950  1.00  0.00     0.124 S 
ATOM     81  O   UNL     1       7.035  12.968 -15.500  1.00  0.00    -0.237 OA
ATOM     82  O   UNL     1       6.486  10.577 -15.832  1.00  0.00    -0.237 OA
ATOM     83  O   UNL     1       5.357  12.303 -17.182  1.00  0.00    -0.744 OA
ENDBRANCH  76  80
ENDBRANCH  49  73
BRANCH  61  84
ATOM     84  C   UNL     1       8.242  15.439  -7.776  1.00  0.00     0.023 A 
ATOM     85  C   UNL     1       7.715  16.715  -8.041  1.00  0.00     0.031 A 
ATOM     86  C   UNL     1       9.638  15.293  -7.714  1.00  0.00     0.131 A 
ATOM     87  C   UNL     1       8.583  17.787  -8.294  1.00  0.00     0.055 A 
ATOM     88  C   UNL     1      10.495  16.375  -7.914  1.00  0.00     0.041 A 
ATOM     89  F   UNL     1      10.189  14.094  -7.468  1.00  0.00    -0.206 F 
ATOM     90  C   UNL     1       9.969  17.628  -8.219  1.00  0.00     0.022 A 
BRANCH  87  91
ATOM     91  S   UNL     1       7.876  19.373  -8.816  1.00  0.00     0.124 S 
ATOM     92  O   UNL     1       7.171  19.003 -10.039  1.00  0.00    -0.237 OA
ATOM     93  O   UNL     1       7.035  19.731  -7.678  1.00  0.00    -0.237 OA
ATOM     94  O   UNL     1       9.049  20.224  -9.010  1.00  0.00    -0.744 OA
ENDBRANCH  87  91
ENDBRANCH  61  84
ENDBRANCH  35  36
ENDBRANCH  28  30
ENDBRANCH  27  28
ENDBRANCH  26  27
ENDBRANCH   1  26
TORSDOF 19
