REMARK SMILES O=C(OCCOC(=O)[C@]1(NC(=O)C2CCN(C(=O)C3CC3)CC2)CCCc2ccccc21)c1ccc(-c2c3nc(c(-c4cc(S(=O)(=O)[O-])ccc4F)c4ccc([nH]4)c(-c4cc(S(=O)(=O)[O-])ccc4F)c4nc(c(-c5cc(S(=O)(=O)[O-])ccc5F)c5ccc2[nH]5)C=C4)C=C3)cc1
REMARK SMILES IDX 4 1 3 2 2 3 1 4 33 5 34 6 95 7 35 8 94 9 36 10 37 11 38 12
REMARK SMILES IDX 88 13 39 14 93 15 87 16 89 17 40 18 92 19 86 20 85 21 41 23
REMARK SMILES IDX 73 24 53 25 72 26 54 27 57 28 71 29 90 30 55 31 56 32 70 34
REMARK SMILES IDX 91 35 58 36 42 37 43 38 51 39 44 40 50 41 52 42 49 43 45 44
REMARK SMILES IDX 46 45 47 46 48 47 74 48 75 49 83 50 76 51 82 52 84 53 81 54
REMARK SMILES IDX 77 55 78 56 79 57 80 58 59 59 60 60 68 61 61 62 67 63 69 64
REMARK SMILES IDX 66 65 62 66 63 67 64 68 65 69 5 70 6 71 7 72 8 73 9 74 24 75
REMARK SMILES IDX 32 76 25 77 27 78 31 79 26 80 28 81 30 82 29 83 10 84 11 85
REMARK SMILES IDX 12 87 13 88 14 89 23 90 15 91 22 92 16 93 17 94 18 95 19 96
REMARK SMILES IDX 20 97 21 98
REMARK H PARENT 89 22 57 33 10 86
REMARK Flexibility Score: inf
ROOT
ATOM      1  C   UNL     1       4.628  -0.506  -2.767  1.00  0.00     0.275 C 
ENDROOT
BRANCH   1   2
ATOM      2  O   UNL     1       5.690  -0.376  -1.822  1.00  0.00    -0.458 OA
BRANCH   2   3
ATOM      3  C   UNL     1       5.267  -0.439  -0.542  1.00  0.00     0.338 C 
ATOM      4  O   UNL     1       4.317  -1.081  -0.110  1.00  0.00    -0.246 OA
BRANCH   3   5
ATOM      5  C   UNL     1       5.870   0.714   0.137  1.00  0.00     0.060 A 
ATOM      6  C   UNL     1       7.183   1.128  -0.085  1.00  0.00     0.016 A 
ATOM      7  C   UNL     1       4.997   1.515   0.861  1.00  0.00     0.016 A 
ATOM      8  C   UNL     1       7.603   2.362   0.411  1.00  0.00     0.010 A 
ATOM      9  C   UNL     1       5.407   2.726   1.353  1.00  0.00     0.010 A 
ATOM     10  C   UNL     1       6.705   3.163   1.123  1.00  0.00    -0.014 A 
BRANCH  10  11
ATOM     11  C   UNL     1       7.033   4.498   1.630  1.00  0.00     0.031 A 
ATOM     12  C   UNL     1       7.109   4.713   3.109  1.00  0.00     0.074 A 
ATOM     13  C   UNL     1       6.995   5.536   0.776  1.00  0.00     0.049 A 
ATOM     14  N   UNL     1       7.438   5.790   3.766  1.00  0.00    -0.248 NA
ATOM     15  C   UNL     1       6.693   3.587   3.965  1.00  0.00     0.031 C 
ATOM     16  C   UNL     1       6.644   5.459  -0.646  1.00  0.00     0.029 A 
ATOM     17  N   UNL     1       7.182   6.870   1.001  1.00  0.00    -0.354 N 
ATOM     18  C   UNL     1       7.341   5.442   5.106  1.00  0.00     0.074 A 
ATOM     19  C   UNL     1       6.724   4.139   5.166  1.00  0.00     0.031 C 
ATOM     20  C   UNL     1       6.607   6.702  -1.156  1.00  0.00     0.029 A 
ATOM     21  C   UNL     1       6.968   7.647  -0.109  1.00  0.00     0.049 A 
ATOM     22  H   UNL     1       7.445   7.238   1.875  1.00  0.00     0.167 HD
ATOM     23  C   UNL     1       7.840   6.114   6.172  1.00  0.00     0.034 A 
ATOM     24  C   UNL     1       7.086   8.978  -0.249  1.00  0.00     0.034 A 
ATOM     25  C   UNL     1       8.425   7.421   6.030  1.00  0.00     0.049 A 
ATOM     26  C   UNL     1       7.672   9.740   0.906  1.00  0.00     0.074 A 
ATOM     27  C   UNL     1       9.132   8.177   6.943  1.00  0.00     0.029 A 
ATOM     28  N   UNL     1       8.338   8.179   4.864  1.00  0.00    -0.354 N 
ATOM     29  N   UNL     1       7.875   9.338   2.141  1.00  0.00    -0.248 NA
ATOM     30  C   UNL     1       8.141  11.097   0.621  1.00  0.00     0.031 C 
ATOM     31  C   UNL     1       9.443   9.405   6.338  1.00  0.00     0.029 A 
ATOM     32  C   UNL     1       8.970   9.396   5.033  1.00  0.00     0.049 A 
ATOM     33  H   UNL     1       7.889   7.889   4.038  1.00  0.00     0.167 HD
ATOM     34  C   UNL     1       8.580  10.362   2.760  1.00  0.00     0.074 A 
ATOM     35  C   UNL     1       8.724  11.415   1.768  1.00  0.00     0.031 C 
ATOM     36  C   UNL     1       9.101  10.413   4.015  1.00  0.00     0.034 A 
BRANCH  23  37
ATOM     37  C   UNL     1       7.821   5.395   7.502  1.00  0.00     0.023 A 
ATOM     38  C   UNL     1       8.380   4.105   7.626  1.00  0.00     0.031 A 
ATOM     39  C   UNL     1       7.187   5.935   8.630  1.00  0.00     0.131 A 
ATOM     40  C   UNL     1       8.169   3.347   8.785  1.00  0.00     0.055 A 
ATOM     41  C   UNL     1       7.075   5.214   9.825  1.00  0.00     0.041 A 
ATOM     42  F   UNL     1       6.628   7.154   8.584  1.00  0.00    -0.206 F 
ATOM     43  C   UNL     1       7.542   3.902   9.899  1.00  0.00     0.022 A 
BRANCH  40  44
ATOM     44  S   UNL     1       8.548   1.573   8.728  1.00  0.00     0.124 S 
ATOM     45  O   UNL     1       7.672   1.120   7.649  1.00  0.00    -0.237 OA
ATOM     46  O   UNL     1       9.976   1.563   8.433  1.00  0.00    -0.237 OA
ATOM     47  O   UNL     1       8.180   1.100  10.060  1.00  0.00    -0.744 OA
ENDBRANCH  40  44
ENDBRANCH  23  37
BRANCH  24  48
ATOM     48  C   UNL     1       6.783   9.622  -1.549  1.00  0.00     0.023 A 
ATOM     49  C   UNL     1       7.809   9.949  -2.447  1.00  0.00     0.031 A 
ATOM     50  C   UNL     1       5.457   9.891  -1.925  1.00  0.00     0.131 A 
ATOM     51  C   UNL     1       7.497  10.563  -3.669  1.00  0.00     0.055 A 
ATOM     52  C   UNL     1       5.149  10.490  -3.148  1.00  0.00     0.041 A 
ATOM     53  F   UNL     1       4.441   9.559  -1.112  1.00  0.00    -0.206 F 
ATOM     54  C   UNL     1       6.174  10.838  -4.025  1.00  0.00     0.022 A 
BRANCH  51  55
ATOM     55  S   UNL     1       8.855  11.020  -4.780  1.00  0.00     0.124 S 
ATOM     56  O   UNL     1       9.655  11.897  -3.934  1.00  0.00    -0.237 OA
ATOM     57  O   UNL     1       9.439   9.718  -5.089  1.00  0.00    -0.237 OA
ATOM     58  O   UNL     1       8.176  11.675  -5.896  1.00  0.00    -0.744 OA
ENDBRANCH  51  55
ENDBRANCH  24  48
BRANCH  36  59
ATOM     59  C   UNL     1       9.956  11.607   4.331  1.00  0.00     0.023 A 
ATOM     60  C   UNL     1       9.413  12.893   4.457  1.00  0.00     0.031 A 
ATOM     61  C   UNL     1      11.346  11.447   4.474  1.00  0.00     0.131 A 
ATOM     62  C   UNL     1      10.266  13.986   4.653  1.00  0.00     0.055 A 
ATOM     63  C   UNL     1      12.183  12.530   4.732  1.00  0.00     0.041 A 
ATOM     64  F   UNL     1      11.910  10.233   4.357  1.00  0.00    -0.206 F 
ATOM     65  C   UNL     1      11.645  13.812   4.809  1.00  0.00     0.022 A 
BRANCH  62  66
ATOM     66  S   UNL     1       9.558  15.653   4.599  1.00  0.00     0.124 S 
ATOM     67  O   UNL     1       8.993  15.695   3.253  1.00  0.00    -0.237 OA
ATOM     68  O   UNL     1       8.593  15.617   5.693  1.00  0.00    -0.237 OA
ATOM     69  O   UNL     1      10.712  16.523   4.816  1.00  0.00    -0.744 OA
ENDBRANCH  62  66
ENDBRANCH  36  59
ENDBRANCH  10  11
ENDBRANCH   3   5
ENDBRANCH   2   3
ENDBRANCH   1   2
BRANCH   1  70
ATOM     70  C   UNL     1       3.990   0.869  -3.037  1.00  0.00     0.274 C 
BRANCH  70  71
ATOM     71  O   UNL     1       3.463   1.607  -1.898  1.00  0.00    -0.460 OA
BRANCH  71  72
ATOM     72  C   UNL     1       2.229   1.257  -1.436  1.00  0.00     0.336 C 
ATOM     73  O   UNL     1       1.698   0.188  -1.736  1.00  0.00    -0.249 OA
BRANCH  72  74
ATOM     74  C   UNL     1       1.453   2.412  -0.690  1.00  0.00     0.164 C 
ATOM     75  C   UNL     1       0.380   2.824  -1.770  1.00  0.00     0.046 C 
ATOM     76  C   UNL     1       2.176   3.757  -0.394  1.00  0.00    -0.008 A 
ATOM     77  C   UNL     1       0.995   3.376  -3.060  1.00  0.00     0.008 C 
ATOM     78  C   UNL     1       2.384   4.734  -1.404  1.00  0.00    -0.042 A 
ATOM     79  C   UNL     1       2.473   4.151   0.926  1.00  0.00     0.007 A 
ATOM     80  C   UNL     1       1.909   4.570  -2.825  1.00  0.00     0.036 C 
ATOM     81  C   UNL     1       2.946   5.992  -1.090  1.00  0.00     0.004 A 
ATOM     82  C   UNL     1       2.996   5.419   1.228  1.00  0.00     0.000 A 
ATOM     83  C   UNL     1       3.246   6.334   0.220  1.00  0.00     0.000 A 
BRANCH  74  84
ATOM     84  N   UNL     1       0.621   1.964   0.507  1.00  0.00    -0.336 N 
ATOM     85  C   UNL     1       0.790   1.248   1.659  1.00  0.00     0.224 C 
ATOM     86  H   UNL     1      -0.308   2.282   0.426  1.00  0.00     0.164 HD
ATOM     87  O   UNL     1       0.017   1.510   2.588  1.00  0.00    -0.275 OA
BRANCH  85  88
ATOM     88  C   UNL     1       1.778   0.096   1.805  1.00  0.00     0.082 C 
ATOM     89  C   UNL     1       1.056  -1.263   1.710  1.00  0.00     0.035 C 
ATOM     90  C   UNL     1       2.689   0.251   3.062  1.00  0.00     0.035 C 
ATOM     91  C   UNL     1       0.768  -1.927   3.054  1.00  0.00     0.120 C 
ATOM     92  C   UNL     1       2.331  -0.594   4.291  1.00  0.00     0.120 C 
ATOM     93  N   UNL     1       1.972  -1.937   3.874  1.00  0.00    -0.342 N 
ATOM     94  C   UNL     1       2.694  -3.131   3.971  1.00  0.00     0.225 C 
ATOM     95  O   UNL     1       2.283  -4.147   3.407  1.00  0.00    -0.275 OA
BRANCH  94  96
ATOM     96  C   UNL     1       3.956  -3.327   4.754  1.00  0.00     0.079 C 
ATOM     97  C   UNL     1       5.048  -2.352   5.078  1.00  0.00     0.014 C 
ATOM     98  C   UNL     1       4.128  -2.838   6.168  1.00  0.00     0.014 C 
ENDBRANCH  94  96
ENDBRANCH  85  88
ENDBRANCH  74  84
ENDBRANCH  72  74
ENDBRANCH  71  72
ENDBRANCH  70  71
ENDBRANCH   1  70
TORSDOF 17
