REMARK SMILES Cc1ccc(C(=O)NC2CC2)cc1NC(=O)[C@@H]1[C@@H](C(=O)OCCOC(=O)c2ccc(-c3c4nc(c(-c5cc(S(=O)(=O)[O-])ccc5F)c5ccc([nH]5)c(-c5cc(S(=O)(=O)[O-])ccc5F)c5nc(c(-c6cc(S(=O)(=O)[O-])ccc6F)c6ccc3[nH]6)C=C5)C=C4)cc2)[C@H]2C=C[C@@H]1C2
REMARK SMILES IDX 22 1 21 2 19 3 20 4 18 5 17 6 93 7 90 8 92 9 94 10 91 11
REMARK SMILES IDX 15 12 14 13 16 15 13 16 1 17 2 18 3 19 4 20 12 21 5 22 6 23
REMARK SMILES IDX 7 24 8 25 9 27 10 28 11 29 23 30 24 31 25 32 26 33 27 34
REMARK SMILES IDX 28 35 89 36 29 37 88 38 30 39 31 40 32 41 82 42 33 43 87 44
REMARK SMILES IDX 81 45 83 46 34 47 86 48 80 49 79 50 35 52 67 53 47 54 66 55
REMARK SMILES IDX 48 56 51 57 65 58 84 59 49 60 50 61 64 63 85 64 52 65 36 66
REMARK SMILES IDX 37 67 45 68 38 69 44 70 46 71 43 72 39 73 40 74 41 75 42 76
REMARK SMILES IDX 68 77 69 78 77 79 70 80 76 81 78 82 75 83 71 84 72 85 73 86
REMARK SMILES IDX 74 87 53 88 54 89 62 90 55 91 61 92 63 93 60 94 56 95 57 96
REMARK SMILES IDX 58 97 59 98
REMARK H PARENT 14 14 8 26 83 51 51 62
REMARK Flexibility Score: inf
ROOT
ATOM      1  C   UNL     1      -2.760   8.246  -0.853  1.00  0.00     0.274 C 
ENDROOT
BRANCH   1   2
ATOM      2  O   UNL     1      -1.735   7.401  -0.258  1.00  0.00    -0.462 OA
BRANCH   2   3
ATOM      3  C   UNL     1      -2.215   6.711   0.834  1.00  0.00     0.310 C 
ATOM      4  O   UNL     1      -3.360   6.894   1.243  1.00  0.00    -0.252 OA
BRANCH   3   5
ATOM      5  C   UNL     1      -1.185   5.828   1.575  1.00  0.00     0.119 C 
ATOM      6  C   UNL     1      -0.879   4.278   1.245  1.00  0.00     0.100 C 
ATOM      7  C   UNL     1      -1.117   3.605   2.632  1.00  0.00     0.025 C 
ATOM      8  C   UNL     1      -1.736   5.699   3.038  1.00  0.00     0.027 C 
ATOM      9  C   UNL     1      -2.604   3.559   2.835  1.00  0.00    -0.027 C 
ATOM     10  C   UNL     1      -0.750   4.707   3.625  1.00  0.00     0.017 C 
ATOM     11  C   UNL     1      -2.983   4.819   3.074  1.00  0.00    -0.027 C 
BRANCH   6  12
ATOM     12  C   UNL     1       0.554   3.937   0.816  1.00  0.00     0.228 C 
ATOM     13  N   UNL     1       1.044   2.663   0.613  1.00  0.00    -0.326 N 
ATOM     14  H   UNL     1       2.008   2.683   0.410  1.00  0.00     0.169 HD
ATOM     15  O   UNL     1       1.366   4.857   0.642  1.00  0.00    -0.274 OA
BRANCH  13  16
ATOM     16  C   UNL     1       0.550   1.324   0.613  1.00  0.00     0.044 A 
ATOM     17  C   UNL     1       2.887   0.319   0.071  1.00  0.00     0.046 C 
ATOM     18  C   UNL     1       1.402   0.231   0.303  1.00  0.00    -0.027 A 
ATOM     19  C   UNL     1       0.870  -1.082   0.186  1.00  0.00     0.006 A 
ATOM     20  C   UNL     1      -0.492  -1.322   0.289  1.00  0.00     0.014 A 
ATOM     21  C   UNL     1      -0.791   1.022   0.817  1.00  0.00     0.040 A 
ATOM     22  C   UNL     1      -1.327  -0.251   0.559  1.00  0.00     0.041 A 
BRANCH  22  23
ATOM     23  C   UNL     1      -2.788  -0.449   0.393  1.00  0.00     0.251 C 
ATOM     24  O   UNL     1      -3.308  -1.457   0.859  1.00  0.00    -0.269 OA
ATOM     25  N   UNL     1      -3.494   0.476  -0.351  1.00  0.00    -0.349 N 
ATOM     26  H   UNL     1      -4.433   0.255  -0.544  1.00  0.00     0.164 HD
BRANCH  25  27
ATOM     27  C   UNL     1      -3.016   1.719  -0.874  1.00  0.00     0.082 C 
ATOM     28  C   UNL     1      -1.772   1.836  -1.743  1.00  0.00     0.027 C 
ATOM     29  C   UNL     1      -3.106   2.080  -2.315  1.00  0.00     0.027 C 
ENDBRANCH  25  27
ENDBRANCH  22  23
ENDBRANCH  13  16
ENDBRANCH   6  12
ENDBRANCH   3   5
ENDBRANCH   2   3
ENDBRANCH   1   2
BRANCH   1  30
ATOM     30  C   UNL     1      -2.510   8.755  -2.286  1.00  0.00     0.275 C 
BRANCH  30  31
ATOM     31  O   UNL     1      -1.608   8.009  -3.124  1.00  0.00    -0.458 OA
BRANCH  31  32
ATOM     32  C   UNL     1      -1.739   6.706  -3.477  1.00  0.00     0.338 C 
ATOM     33  O   UNL     1      -0.845   6.083  -4.008  1.00  0.00    -0.246 OA
BRANCH  32  34
ATOM     34  C   UNL     1      -2.965   6.051  -3.012  1.00  0.00     0.060 A 
ATOM     35  C   UNL     1      -2.841   5.325  -1.832  1.00  0.00     0.016 A 
ATOM     36  C   UNL     1      -4.201   6.244  -3.621  1.00  0.00     0.016 A 
ATOM     37  C   UNL     1      -3.975   4.872  -1.180  1.00  0.00     0.010 A 
ATOM     38  C   UNL     1      -5.319   5.670  -3.033  1.00  0.00     0.010 A 
ATOM     39  C   UNL     1      -5.193   4.954  -1.833  1.00  0.00    -0.014 A 
BRANCH  39  40
ATOM     40  C   UNL     1      -6.328   4.194  -1.343  1.00  0.00     0.031 A 
ATOM     41  C   UNL     1      -6.817   4.372   0.056  1.00  0.00     0.074 A 
ATOM     42  C   UNL     1      -6.820   3.236  -2.166  1.00  0.00     0.049 A 
ATOM     43  N   UNL     1      -7.378   3.445   0.760  1.00  0.00    -0.248 NA
ATOM     44  C   UNL     1      -6.587   5.594   0.837  1.00  0.00     0.031 C 
ATOM     45  C   UNL     1      -8.136   2.639  -2.077  1.00  0.00     0.029 A 
ATOM     46  N   UNL     1      -6.198   2.532  -3.215  1.00  0.00    -0.354 N 
ATOM     47  C   UNL     1      -7.912   4.059   1.880  1.00  0.00     0.074 A 
ATOM     48  C   UNL     1      -7.227   5.320   1.982  1.00  0.00     0.031 C 
ATOM     49  C   UNL     1      -8.162   1.543  -2.849  1.00  0.00     0.029 A 
ATOM     50  C   UNL     1      -6.803   1.278  -3.320  1.00  0.00     0.049 A 
ATOM     51  H   UNL     1      -5.463   2.867  -3.778  1.00  0.00     0.167 HD
ATOM     52  C   UNL     1      -9.058   3.570   2.439  1.00  0.00     0.034 A 
ATOM     53  C   UNL     1      -6.227   0.036  -3.343  1.00  0.00     0.034 A 
ATOM     54  C   UNL     1      -9.518   2.414   1.686  1.00  0.00     0.049 A 
ATOM     55  C   UNL     1      -6.859  -0.797  -2.230  1.00  0.00     0.074 A 
ATOM     56  C   UNL     1     -10.425   2.326   0.643  1.00  0.00     0.029 A 
ATOM     57  N   UNL     1      -8.823   1.217   1.724  1.00  0.00    -0.354 N 
ATOM     58  N   UNL     1      -7.349  -0.282  -1.131  1.00  0.00    -0.248 NA
ATOM     59  C   UNL     1      -6.991  -2.247  -2.272  1.00  0.00     0.031 C 
ATOM     60  C   UNL     1     -10.259   1.066   0.030  1.00  0.00     0.029 A 
ATOM     61  C   UNL     1      -9.269   0.385   0.718  1.00  0.00     0.049 A 
ATOM     62  H   UNL     1      -8.117   0.993   2.373  1.00  0.00     0.167 HD
ATOM     63  C   UNL     1      -8.002  -1.269  -0.426  1.00  0.00     0.074 A 
ATOM     64  C   UNL     1      -7.668  -2.490  -1.137  1.00  0.00     0.031 C 
ATOM     65  C   UNL     1      -8.824  -0.992   0.635  1.00  0.00     0.034 A 
BRANCH  52  66
ATOM     66  C   UNL     1      -9.998   4.359   3.333  1.00  0.00     0.023 A 
ATOM     67  C   UNL     1     -11.388   4.121   3.223  1.00  0.00     0.031 A 
ATOM     68  C   UNL     1      -9.633   5.363   4.246  1.00  0.00     0.131 A 
ATOM     69  C   UNL     1     -12.338   4.926   3.872  1.00  0.00     0.055 A 
ATOM     70  C   UNL     1     -10.581   6.180   4.889  1.00  0.00     0.041 A 
ATOM     71  F   UNL     1      -8.350   5.577   4.574  1.00  0.00    -0.206 F 
ATOM     72  C   UNL     1     -11.942   5.978   4.686  1.00  0.00     0.022 A 
BRANCH  69  73
ATOM     73  S   UNL     1     -14.100   4.585   3.597  1.00  0.00     0.124 S 
ATOM     74  O   UNL     1     -14.232   4.790   2.158  1.00  0.00    -0.237 OA
ATOM     75  O   UNL     1     -14.230   3.211   4.069  1.00  0.00    -0.237 OA
ATOM     76  O   UNL     1     -14.771   5.587   4.425  1.00  0.00    -0.744 OA
ENDBRANCH  69  73
ENDBRANCH  52  66
BRANCH  53  77
ATOM     77  C   UNL     1      -4.871  -0.262  -3.927  1.00  0.00     0.023 A 
ATOM     78  C   UNL     1      -4.407   0.474  -5.047  1.00  0.00     0.031 A 
ATOM     79  C   UNL     1      -3.932  -1.125  -3.316  1.00  0.00     0.131 A 
ATOM     80  C   UNL     1      -3.037   0.470  -5.396  1.00  0.00     0.055 A 
ATOM     81  C   UNL     1      -2.579  -1.166  -3.702  1.00  0.00     0.041 A 
ATOM     82  F   UNL     1      -4.263  -1.856  -2.244  1.00  0.00    -0.206 F 
ATOM     83  C   UNL     1      -2.118  -0.338  -4.720  1.00  0.00     0.022 A 
BRANCH  80  84
ATOM     84  S   UNL     1      -2.367   1.740  -6.520  1.00  0.00     0.124 S 
ATOM     85  O   UNL     1      -1.987   0.945  -7.683  1.00  0.00    -0.237 OA
ATOM     86  O   UNL     1      -3.494   2.648  -6.711  1.00  0.00    -0.237 OA
ATOM     87  O   UNL     1      -1.259   2.285  -5.740  1.00  0.00    -0.744 OA
ENDBRANCH  80  84
ENDBRANCH  53  77
BRANCH  65  88
ATOM     88  C   UNL     1      -9.470  -1.971   1.599  1.00  0.00     0.023 A 
ATOM     89  C   UNL     1      -9.141  -3.326   1.657  1.00  0.00     0.031 A 
ATOM     90  C   UNL     1     -10.424  -1.536   2.564  1.00  0.00     0.131 A 
ATOM     91  C   UNL     1      -9.787  -4.192   2.558  1.00  0.00     0.055 A 
ATOM     92  C   UNL     1     -11.003  -2.381   3.512  1.00  0.00     0.041 A 
ATOM     93  F   UNL     1     -10.837  -0.264   2.648  1.00  0.00    -0.206 F 
ATOM     94  C   UNL     1     -10.697  -3.727   3.504  1.00  0.00     0.022 A 
BRANCH  91  95
ATOM     95  S   UNL     1      -9.460  -5.964   2.408  1.00  0.00     0.124 S 
ATOM     96  O   UNL     1      -9.954  -6.246   1.063  1.00  0.00    -0.237 OA
ATOM     97  O   UNL     1      -8.013  -6.032   2.577  1.00  0.00    -0.237 OA
ATOM     98  O   UNL     1     -10.242  -6.553   3.493  1.00  0.00    -0.744 OA
ENDBRANCH  91  95
ENDBRANCH  65  88
ENDBRANCH  39  40
ENDBRANCH  32  34
ENDBRANCH  31  32
ENDBRANCH  30  31
ENDBRANCH   1  30
TORSDOF 18
