REMARK SMILES CCOC(=O)[C@@]1(C)C/C(=N/c2cccc(C(=O)OCCOC(=O)c3ccc(-c4c5nc(c(-c6cc(S(=O)(=O)[O-])ccc6F)c6ccc([nH]6)c(-c6cc(S(=O)(=O)[O-])ccc6F)c6nc(c(-c7cc(S(=O)(=O)[O-])ccc7F)c7ccc4[nH]7)C=C6)C=C5)cc3)c2)C(=O)N1c1ccccc1
REMARK SMILES IDX 19 1 18 2 16 3 17 4 15 5 11 6 12 7 87 8 13 9 14 10 10 11
REMARK SMILES IDX 6 12 7 13 8 14 90 15 9 16 88 17 89 18 4 19 5 20 3 21 2 22
REMARK SMILES IDX 1 23 91 24 92 25 96 26 93 27 95 28 94 29 20 30 21 31 22 32
REMARK SMILES IDX 23 33 24 34 25 35 86 36 26 37 85 38 27 39 28 40 29 41 79 42
REMARK SMILES IDX 30 43 84 44 78 45 80 46 31 47 83 48 77 49 76 50 32 52 64 53
REMARK SMILES IDX 44 54 63 55 45 56 48 57 62 58 81 59 46 60 47 61 61 63 82 64
REMARK SMILES IDX 49 65 33 66 34 67 42 68 35 69 41 70 43 71 40 72 36 73 37 74
REMARK SMILES IDX 38 75 39 76 65 77 66 78 74 79 67 80 73 81 75 82 72 83 68 84
REMARK SMILES IDX 69 85 70 86 71 87 50 88 51 89 59 90 52 91 58 92 60 93 57 94
REMARK SMILES IDX 53 95 54 96 55 97 56 98
REMARK H PARENT 80 51 48 62
REMARK Flexibility Score: inf
ROOT
ATOM      1  C   UNL     1       8.226   7.556  -3.039  1.00  0.00     0.275 C 
ENDROOT
BRANCH   1   2
ATOM      2  O   UNL     1       7.080   7.622  -2.168  1.00  0.00    -0.458 OA
BRANCH   2   3
ATOM      3  C   UNL     1       7.253   8.366  -1.042  1.00  0.00     0.338 C 
ATOM      4  O   UNL     1       8.301   8.862  -0.663  1.00  0.00    -0.246 OA
BRANCH   3   5
ATOM      5  C   UNL     1       5.960   8.565  -0.343  1.00  0.00     0.062 A 
ATOM      6  C   UNL     1       3.690   7.883   0.176  1.00  0.00     0.064 A 
ATOM      7  C   UNL     1       3.581   8.947   1.073  1.00  0.00     0.028 A 
ATOM      8  C   UNL     1       4.865   7.726  -0.569  1.00  0.00     0.044 A 
ATOM      9  C   UNL     1       4.659   9.809   1.279  1.00  0.00     0.003 A 
ATOM     10  C   UNL     1       5.854   9.606   0.588  1.00  0.00     0.016 A 
BRANCH   6  11
ATOM     11  N   UNL     1       2.631   6.974   0.034  1.00  0.00    -0.248 NA
ATOM     12  C   UNL     1       2.779   3.494  -0.011  1.00  0.00     0.148 C 
ATOM     13  C   UNL     1       3.068   3.396  -1.522  1.00  0.00     0.048 C 
ATOM     14  C   UNL     1       1.817   4.688   0.226  1.00  0.00     0.103 C 
ATOM     15  N   UNL     1       4.007   3.820   0.760  1.00  0.00    -0.290 N 
ATOM     16  C   UNL     1       2.799   5.767   0.478  1.00  0.00     0.109 C 
ATOM     17  C   UNL     1       4.000   5.158   1.153  1.00  0.00     0.273 C 
ATOM     18  O   UNL     1       4.742   5.798   1.867  1.00  0.00    -0.267 OA
BRANCH  12  19
ATOM     19  C   UNL     1       2.008   2.274   0.543  1.00  0.00     0.332 C 
ATOM     20  O   UNL     1       2.247   1.698   1.595  1.00  0.00    -0.249 OA
BRANCH  19  21
ATOM     21  O   UNL     1       0.942   1.984  -0.262  1.00  0.00    -0.464 OA
BRANCH  21  22
ATOM     22  C   UNL     1       0.051   0.962   0.211  1.00  0.00     0.229 C 
ATOM     23  C   UNL     1       0.464  -0.376  -0.367  1.00  0.00     0.049 C 
ENDBRANCH  21  22
ENDBRANCH  19  21
ENDBRANCH  12  19
BRANCH  15  24
ATOM     24  C   UNL     1       5.096   2.921   1.012  1.00  0.00     0.045 A 
ATOM     25  C   UNL     1       6.162   3.284   1.853  1.00  0.00     0.026 A 
ATOM     26  C   UNL     1       5.171   1.653   0.415  1.00  0.00     0.026 A 
ATOM     27  C   UNL     1       7.260   2.440   2.067  1.00  0.00     0.002 A 
ATOM     28  C   UNL     1       6.277   0.812   0.612  1.00  0.00     0.002 A 
ATOM     29  C   UNL     1       7.323   1.206   1.437  1.00  0.00     0.000 A 
ENDBRANCH  15  24
ENDBRANCH   6  11
ENDBRANCH   3   5
ENDBRANCH   2   3
ENDBRANCH   1   2
BRANCH   1  30
ATOM     30  C   UNL     1       8.157   8.663  -4.092  1.00  0.00     0.275 C 
BRANCH  30  31
ATOM     31  O   UNL     1       8.068   9.929  -3.427  1.00  0.00    -0.458 OA
BRANCH  31  32
ATOM     32  C   UNL     1       8.476  11.021  -4.111  1.00  0.00     0.338 C 
ATOM     33  O   UNL     1       8.913  11.036  -5.248  1.00  0.00    -0.246 OA
BRANCH  32  34
ATOM     34  C   UNL     1       8.348  12.216  -3.233  1.00  0.00     0.060 A 
ATOM     35  C   UNL     1       7.561  12.199  -2.072  1.00  0.00     0.016 A 
ATOM     36  C   UNL     1       9.038  13.382  -3.582  1.00  0.00     0.016 A 
ATOM     37  C   UNL     1       7.468  13.332  -1.263  1.00  0.00     0.010 A 
ATOM     38  C   UNL     1       8.955  14.514  -2.766  1.00  0.00     0.010 A 
ATOM     39  C   UNL     1       8.168  14.495  -1.603  1.00  0.00    -0.014 A 
BRANCH  39  40
ATOM     40  C   UNL     1       8.054  15.711  -0.765  1.00  0.00     0.031 A 
ATOM     41  C   UNL     1       7.170  16.837  -1.210  1.00  0.00     0.074 A 
ATOM     42  C   UNL     1       8.742  15.804   0.387  1.00  0.00     0.049 A 
ATOM     43  N   UNL     1       7.043  18.038  -0.709  1.00  0.00    -0.248 NA
ATOM     44  C   UNL     1       6.321  16.575  -2.382  1.00  0.00     0.031 C 
ATOM     45  C   UNL     1       9.603  14.761   0.947  1.00  0.00     0.029 A 
ATOM     46  N   UNL     1       8.827  16.831   1.290  1.00  0.00    -0.354 N 
ATOM     47  C   UNL     1       6.121  18.689  -1.518  1.00  0.00     0.074 A 
ATOM     48  C   UNL     1       5.715  17.743  -2.539  1.00  0.00     0.031 C 
ATOM     49  C   UNL     1      10.130  15.205   2.101  1.00  0.00     0.029 A 
ATOM     50  C   UNL     1       9.674  16.571   2.340  1.00  0.00     0.049 A 
ATOM     51  H   UNL     1       8.328  17.675   1.196  1.00  0.00     0.167 HD
ATOM     52  C   UNL     1       5.669  19.965  -1.430  1.00  0.00     0.034 A 
ATOM     53  C   UNL     1      10.060  17.359   3.361  1.00  0.00     0.034 A 
ATOM     54  C   UNL     1       6.083  20.903  -0.418  1.00  0.00     0.049 A 
ATOM     55  C   UNL     1       9.545  18.769   3.441  1.00  0.00     0.074 A 
ATOM     56  C   UNL     1       5.741  22.237  -0.276  1.00  0.00     0.029 A 
ATOM     57  N   UNL     1       6.931  20.597   0.637  1.00  0.00    -0.354 N 
ATOM     58  N   UNL     1       8.754  19.405   2.611  1.00  0.00    -0.248 NA
ATOM     59  C   UNL     1       9.989  19.569   4.591  1.00  0.00     0.031 C 
ATOM     60  C   UNL     1       6.398  22.742   0.856  1.00  0.00     0.029 A 
ATOM     61  C   UNL     1       7.122  21.713   1.436  1.00  0.00     0.049 A 
ATOM     62  H   UNL     1       7.338  19.715   0.796  1.00  0.00     0.167 HD
ATOM     63  C   UNL     1       8.615  20.686   3.131  1.00  0.00     0.074 A 
ATOM     64  C   UNL     1       9.390  20.729   4.355  1.00  0.00     0.031 C 
ATOM     65  C   UNL     1       7.914  21.736   2.638  1.00  0.00     0.034 A 
BRANCH  52  66
ATOM     66  C   UNL     1       4.734  20.419  -2.514  1.00  0.00     0.023 A 
ATOM     67  C   UNL     1       3.401  19.978  -2.569  1.00  0.00     0.031 A 
ATOM     68  C   UNL     1       5.206  21.249  -3.546  1.00  0.00     0.131 A 
ATOM     69  C   UNL     1       2.599  20.324  -3.668  1.00  0.00     0.055 A 
ATOM     70  C   UNL     1       4.388  21.633  -4.609  1.00  0.00     0.041 A 
ATOM     71  F   UNL     1       6.480  21.674  -3.550  1.00  0.00    -0.206 F 
ATOM     72  C   UNL     1       3.080  21.161  -4.680  1.00  0.00     0.022 A 
BRANCH  69  73
ATOM     73  S   UNL     1       0.952  19.577  -3.816  1.00  0.00     0.124 S 
ATOM     74  O   UNL     1       1.277  18.155  -3.897  1.00  0.00    -0.237 OA
ATOM     75  O   UNL     1       0.295  20.014  -2.589  1.00  0.00    -0.237 OA
ATOM     76  O   UNL     1       0.421  20.159  -5.047  1.00  0.00    -0.744 OA
ENDBRANCH  69  73
ENDBRANCH  52  66
BRANCH  53  77
ATOM     77  C   UNL     1      11.038  16.858   4.358  1.00  0.00     0.023 A 
ATOM     78  C   UNL     1      10.625  16.456   5.638  1.00  0.00     0.031 A 
ATOM     79  C   UNL     1      12.405  16.799   4.043  1.00  0.00     0.131 A 
ATOM     80  C   UNL     1      11.579  16.027   6.573  1.00  0.00     0.055 A 
ATOM     81  C   UNL     1      13.348  16.355   4.969  1.00  0.00     0.041 A 
ATOM     82  F   UNL     1      12.837  17.168   2.826  1.00  0.00    -0.206 F 
ATOM     83  C   UNL     1      12.937  15.971   6.245  1.00  0.00     0.022 A 
BRANCH  80  84
ATOM     84  S   UNL     1      11.020  15.575   8.243  1.00  0.00     0.124 S 
ATOM     85  O   UNL     1      10.382  16.806   8.695  1.00  0.00    -0.237 OA
ATOM     86  O   UNL     1      10.127  14.453   7.974  1.00  0.00    -0.237 OA
ATOM     87  O   UNL     1      12.260  15.226   8.935  1.00  0.00    -0.744 OA
ENDBRANCH  80  84
ENDBRANCH  53  77
BRANCH  65  88
ATOM     88  C   UNL     1       7.955  23.003   3.441  1.00  0.00     0.023 A 
ATOM     89  C   UNL     1       9.045  23.885   3.351  1.00  0.00     0.031 A 
ATOM     90  C   UNL     1       6.903  23.318   4.316  1.00  0.00     0.131 A 
ATOM     91  C   UNL     1       9.072  25.038   4.149  1.00  0.00     0.055 A 
ATOM     92  C   UNL     1       6.925  24.476   5.093  1.00  0.00     0.041 A 
ATOM     93  F   UNL     1       5.846  22.498   4.434  1.00  0.00    -0.206 F 
ATOM     94  C   UNL     1       8.016  25.340   5.016  1.00  0.00     0.022 A 
BRANCH  91  95
ATOM     95  S   UNL     1      10.524  26.125   4.068  1.00  0.00     0.124 S 
ATOM     96  O   UNL     1      11.598  25.236   4.498  1.00  0.00    -0.237 OA
ATOM     97  O   UNL     1      10.546  26.517   2.662  1.00  0.00    -0.237 OA
ATOM     98  O   UNL     1      10.200  27.201   5.003  1.00  0.00    -0.744 OA
ENDBRANCH  91  95
ENDBRANCH  65  88
ENDBRANCH  39  40
ENDBRANCH  32  34
ENDBRANCH  31  32
ENDBRANCH  30  31
ENDBRANCH   1  30
TORSDOF 19
