REMARK SMILES NC(=O)C[C@H](NC(=O)[C@@H]1CCC[NH2+]1)C(=O)OCCOC(=O)c1ccc(-c2c3nc(c(-c4cc(S(=O)(=O)[O-])ccc4F)c4ccc([nH]4)c(-c4cc(S(=O)(=O)[O-])ccc4F)c4nc(c(-c5cc(S(=O)(=O)[O-])ccc5F)c5ccc2[nH]5)C=C4)C=C3)cc1
REMARK SMILES IDX 18 1 17 2 16 3 14 4 15 5 5 6 4 7 2 8 1 9 3 12 6 13 7 14 8 16
REMARK SMILES IDX 9 17 10 18 13 19 11 20 12 21 19 24 20 25 21 26 22 27 23 28
REMARK SMILES IDX 84 29 24 30 83 31 25 32 26 33 27 34 77 35 28 36 82 37 76 38
REMARK SMILES IDX 78 39 29 40 81 41 75 42 74 43 30 45 62 46 42 47 61 48 43 49
REMARK SMILES IDX 46 50 60 51 79 52 44 53 45 54 59 56 80 57 47 58 31 59 32 60
REMARK SMILES IDX 40 61 33 62 39 63 41 64 38 65 34 66 35 67 36 68 37 69 63 70
REMARK SMILES IDX 64 71 72 72 65 73 71 74 73 75 70 76 66 77 67 78 68 79 69 80
REMARK SMILES IDX 48 81 49 82 57 83 50 84 56 85 58 86 55 87 51 88 52 89 53 90
REMARK SMILES IDX 54 91
REMARK H PARENT 1 10 1 11 6 15 13 22 13 23 78 44 46 55
REMARK Flexibility Score: inf
ROOT
ATOM      1  C   UNL     1       2.896   5.393  -3.934  1.00  0.00     0.275 C 
ENDROOT
BRANCH   1   2
ATOM      2  C   UNL     1       3.917   4.536  -3.175  1.00  0.00     0.274 C 
BRANCH   2   3
ATOM      3  O   UNL     1       3.293   3.443  -2.475  1.00  0.00    -0.461 OA
BRANCH   3   4
ATOM      4  C   UNL     1       3.043   3.620  -1.147  1.00  0.00     0.329 C 
ATOM      5  O   UNL     1       3.359   4.620  -0.510  1.00  0.00    -0.250 OA
BRANCH   4   6
ATOM      6  C   UNL     1       2.335   2.402  -0.506  1.00  0.00     0.201 C 
BRANCH   6   7
ATOM      7  C   UNL     1       3.191   1.976   0.696  1.00  0.00     0.136 C 
BRANCH   7   8
ATOM      8  C   UNL     1       2.430   2.005   2.013  1.00  0.00     0.220 C 
ATOM      9  N   UNL     1       1.755   3.153   2.312  1.00  0.00    -0.370 N 
ATOM     10  H   UNL     1       1.247   3.221   3.153  1.00  0.00     0.159 HD
ATOM     11  H   UNL     1       1.775   3.913   1.686  1.00  0.00     0.159 HD
ATOM     12  O   UNL     1       2.488   1.105   2.846  1.00  0.00    -0.275 OA
ENDBRANCH   7   8
ENDBRANCH   6   7
BRANCH   6  13
ATOM     13  N   UNL     1       1.893   1.478  -1.573  1.00  0.00    -0.337 N 
ATOM     14  C   UNL     1       1.762   0.138  -1.738  1.00  0.00     0.278 C 
ATOM     15  H   UNL     1       1.621   1.968  -2.383  1.00  0.00     0.164 HD
ATOM     16  O   UNL     1       1.141  -0.262  -2.726  1.00  0.00    -0.268 OA
BRANCH  14  17
ATOM     17  C   UNL     1       2.457  -0.825  -0.795  1.00  0.00     0.272 C 
ATOM     18  C   UNL     1       2.300  -2.297  -1.132  1.00  0.00     0.081 C 
ATOM     19  N   UNL     1       1.869  -0.780   0.553  1.00  0.00    -0.336 N 
ATOM     20  C   UNL     1       2.709  -2.974   0.170  1.00  0.00     0.068 C 
ATOM     21  C   UNL     1       2.475  -1.920   1.248  1.00  0.00     0.261 C 
ATOM     22  H   UNL     1       0.855  -0.880   0.510  1.00  0.00     0.346 HD
ATOM     23  H   UNL     1       2.047   0.106   1.027  1.00  0.00     0.346 HD
ENDBRANCH  14  17
ENDBRANCH   6  13
ENDBRANCH   4   6
ENDBRANCH   3   4
ENDBRANCH   2   3
ENDBRANCH   1   2
BRANCH   1  24
ATOM     24  O   UNL     1       2.025   6.129  -3.053  1.00  0.00    -0.458 OA
BRANCH  24  25
ATOM     25  C   UNL     1       0.926   5.444  -2.652  1.00  0.00     0.338 C 
ATOM     26  O   UNL     1       0.624   4.306  -2.976  1.00  0.00    -0.246 OA
BRANCH  25  27
ATOM     27  C   UNL     1       0.223   6.170  -1.578  1.00  0.00     0.060 A 
ATOM     28  C   UNL     1      -0.056   5.444  -0.418  1.00  0.00     0.016 A 
ATOM     29  C   UNL     1      -0.227   7.485  -1.704  1.00  0.00     0.016 A 
ATOM     30  C   UNL     1      -0.775   6.011   0.620  1.00  0.00     0.010 A 
ATOM     31  C   UNL     1      -0.968   8.058  -0.659  1.00  0.00     0.010 A 
ATOM     32  C   UNL     1      -1.251   7.320   0.505  1.00  0.00    -0.014 A 
BRANCH  32  33
ATOM     33  C   UNL     1      -2.117   7.835   1.592  1.00  0.00     0.031 A 
ATOM     34  C   UNL     1      -3.604   7.897   1.389  1.00  0.00     0.074 A 
ATOM     35  C   UNL     1      -1.578   8.117   2.793  1.00  0.00     0.049 A 
ATOM     36  N   UNL     1      -4.536   8.296   2.214  1.00  0.00    -0.248 NA
ATOM     37  C   UNL     1      -4.106   7.445   0.083  1.00  0.00     0.031 C 
ATOM     38  C   UNL     1      -0.154   8.011   3.120  1.00  0.00     0.029 A 
ATOM     39  N   UNL     1      -2.161   8.522   3.965  1.00  0.00    -0.354 N 
ATOM     40  C   UNL     1      -5.736   8.161   1.525  1.00  0.00     0.074 A 
ATOM     41  C   UNL     1      -5.407   7.663   0.205  1.00  0.00     0.031 C 
ATOM     42  C   UNL     1       0.021   8.324   4.414  1.00  0.00     0.029 A 
ATOM     43  C   UNL     1      -1.264   8.706   4.992  1.00  0.00     0.049 A 
ATOM     44  H   UNL     1      -3.130   8.668   4.063  1.00  0.00     0.167 HD
ATOM     45  C   UNL     1      -6.994   8.428   1.957  1.00  0.00     0.034 A 
ATOM     46  C   UNL     1      -1.456   9.158   6.247  1.00  0.00     0.034 A 
ATOM     47  C   UNL     1      -7.299   8.918   3.280  1.00  0.00     0.049 A 
ATOM     48  C   UNL     1      -2.854   9.515   6.680  1.00  0.00     0.074 A 
ATOM     49  C   UNL     1      -8.533   9.237   3.821  1.00  0.00     0.029 A 
ATOM     50  N   UNL     1      -6.358   9.164   4.274  1.00  0.00    -0.354 N 
ATOM     51  N   UNL     1      -3.976   9.428   6.002  1.00  0.00    -0.248 NA
ATOM     52  C   UNL     1      -3.011  10.032   8.045  1.00  0.00     0.031 C 
ATOM     53  C   UNL     1      -8.332   9.732   5.115  1.00  0.00     0.029 A 
ATOM     54  C   UNL     1      -6.980   9.656   5.412  1.00  0.00     0.049 A 
ATOM     55  H   UNL     1      -5.390   9.011   4.183  1.00  0.00     0.167 HD
ATOM     56  C   UNL     1      -4.975   9.868   6.866  1.00  0.00     0.074 A 
ATOM     57  C   UNL     1      -4.324  10.192   8.120  1.00  0.00     0.031 C 
ATOM     58  C   UNL     1      -6.309   9.996   6.645  1.00  0.00     0.034 A 
BRANCH  45  59
ATOM     59  C   UNL     1      -8.115   8.262   0.960  1.00  0.00     0.023 A 
ATOM     60  C   UNL     1      -8.466   7.007   0.432  1.00  0.00     0.031 A 
ATOM     61  C   UNL     1      -8.815   9.390   0.496  1.00  0.00     0.131 A 
ATOM     62  C   UNL     1      -9.438   6.920  -0.577  1.00  0.00     0.055 A 
ATOM     63  C   UNL     1      -9.833   9.288  -0.454  1.00  0.00     0.041 A 
ATOM     64  F   UNL     1      -8.506  10.618   0.945  1.00  0.00    -0.206 F 
ATOM     65  C   UNL     1     -10.139   8.049  -1.007  1.00  0.00     0.022 A 
BRANCH  62  66
ATOM     66  S   UNL     1      -9.671   5.333  -1.425  1.00  0.00     0.124 S 
ATOM     67  O   UNL     1      -8.334   5.085  -1.959  1.00  0.00    -0.237 OA
ATOM     68  O   UNL     1     -10.100   4.457  -0.341  1.00  0.00    -0.237 OA
ATOM     69  O   UNL     1     -10.691   5.628  -2.430  1.00  0.00    -0.744 OA
ENDBRANCH  62  66
ENDBRANCH  45  59
BRANCH  46  70
ATOM     70  C   UNL     1      -0.296   9.358   7.162  1.00  0.00     0.023 A 
ATOM     71  C   UNL     1      -0.175   8.638   8.361  1.00  0.00     0.031 A 
ATOM     72  C   UNL     1       0.691  10.317   6.867  1.00  0.00     0.131 A 
ATOM     73  C   UNL     1       0.887   8.914   9.238  1.00  0.00     0.055 A 
ATOM     74  C   UNL     1       1.773  10.551   7.717  1.00  0.00     0.041 A 
ATOM     75  F   UNL     1       0.622  11.036   5.735  1.00  0.00    -0.206 F 
ATOM     76  C   UNL     1       1.868   9.855   8.917  1.00  0.00     0.022 A 
BRANCH  73  77
ATOM     77  S   UNL     1       0.926   8.080  10.848  1.00  0.00     0.124 S 
ATOM     78  O   UNL     1      -0.353   8.481  11.422  1.00  0.00    -0.237 OA
ATOM     79  O   UNL     1       1.044   6.678  10.459  1.00  0.00    -0.237 OA
ATOM     80  O   UNL     1       2.107   8.646  11.496  1.00  0.00    -0.744 OA
ENDBRANCH  73  77
ENDBRANCH  46  70
BRANCH  58  81
ATOM     81  C   UNL     1      -7.141  10.486   7.804  1.00  0.00     0.023 A 
ATOM     82  C   UNL     1      -7.012  11.794   8.302  1.00  0.00     0.031 A 
ATOM     83  C   UNL     1      -8.048   9.621   8.442  1.00  0.00     0.131 A 
ATOM     84  C   UNL     1      -7.729  12.181   9.444  1.00  0.00     0.055 A 
ATOM     85  C   UNL     1      -8.803  10.030   9.541  1.00  0.00     0.041 A 
ATOM     86  F   UNL     1      -8.209   8.360   8.008  1.00  0.00    -0.206 F 
ATOM     87  C   UNL     1      -8.634  11.312  10.058  1.00  0.00     0.022 A 
BRANCH  84  88
ATOM     88  S   UNL     1      -7.383  13.803  10.180  1.00  0.00     0.124 S 
ATOM     89  O   UNL     1      -5.950  13.718  10.442  1.00  0.00    -0.237 OA
ATOM     90  O   UNL     1      -7.784  14.719   9.118  1.00  0.00    -0.237 OA
ATOM     91  O   UNL     1      -8.230  13.826  11.371  1.00  0.00    -0.744 OA
ENDBRANCH  84  88
ENDBRANCH  58  81
ENDBRANCH  32  33
ENDBRANCH  25  27
ENDBRANCH  24  25
ENDBRANCH   1  24
TORSDOF 18
