REMARK SMILES CC[C@H](C)[NH2+]CCc1ccc(C(=O)OCCOC(=O)c2ccc(-c3c4nc(c(-c5cc(S(=O)(=O)[O-])ccc5F)c5ccc([nH]5)c(-c5cc(S(=O)(=O)[O-])ccc5F)c5nc(c(-c6cc(S(=O)(=O)[O-])ccc6F)c6ccc3[nH]6)C=C5)C=C4)cc2)cc1
REMARK SMILES IDX 15 1 14 2 12 3 13 4 11 5 8 6 9 7 84 8 10 9 83 10 7 11 6 12
REMARK SMILES IDX 5 13 3 16 4 17 2 18 1 19 16 20 17 21 18 22 19 23 20 24 21 25
REMARK SMILES IDX 82 26 22 27 81 28 23 29 24 30 25 31 75 32 26 33 80 34 74 35
REMARK SMILES IDX 76 36 27 37 79 38 73 39 72 40 28 42 60 43 40 44 59 45 41 46
REMARK SMILES IDX 44 47 58 48 77 49 42 50 43 51 57 53 78 54 45 55 29 56 30 57
REMARK SMILES IDX 38 58 31 59 37 60 39 61 36 62 32 63 33 64 34 65 35 66 61 67
REMARK SMILES IDX 62 68 70 69 63 70 69 71 71 72 68 73 64 74 65 75 66 76 67 77
REMARK SMILES IDX 46 78 47 79 55 80 48 81 54 82 56 83 53 84 49 85 50 86 51 87
REMARK SMILES IDX 52 88
REMARK H PARENT 5 14 5 15 76 41 44 52
REMARK Flexibility Score: inf
ROOT
ATOM      1  C   UNL     1      -7.214   0.773   4.895  1.00  0.00     0.275 C 
ENDROOT
BRANCH   1   2
ATOM      2  O   UNL     1      -5.784   0.690   5.040  1.00  0.00    -0.458 OA
BRANCH   2   3
ATOM      3  C   UNL     1      -5.067   1.554   4.278  1.00  0.00     0.338 C 
ATOM      4  O   UNL     1      -5.513   2.324   3.448  1.00  0.00    -0.246 OA
BRANCH   3   5
ATOM      5  C   UNL     1      -3.629   1.511   4.646  1.00  0.00     0.060 A 
ATOM      6  C   UNL     1      -0.875   1.506   5.193  1.00  0.00    -0.042 A 
ATOM      7  C   UNL     1      -1.490   2.653   4.683  1.00  0.00     0.005 A 
ATOM      8  C   UNL     1      -1.667   0.389   5.505  1.00  0.00     0.005 A 
ATOM      9  C   UNL     1      -2.847   2.640   4.373  1.00  0.00     0.016 A 
ATOM     10  C   UNL     1      -3.037   0.388   5.229  1.00  0.00     0.016 A 
BRANCH   6  11
ATOM     11  C   UNL     1       0.631   1.487   5.332  1.00  0.00     0.097 C 
BRANCH  11  12
ATOM     12  C   UNL     1       1.328   0.240   4.748  1.00  0.00     0.265 C 
BRANCH  12  13
ATOM     13  N   UNL     1       0.815  -0.306   3.486  1.00  0.00    -0.344 N 
ATOM     14  H   UNL     1       1.051  -1.298   3.455  1.00  0.00     0.346 HD
ATOM     15  H   UNL     1      -0.188  -0.117   3.491  1.00  0.00     0.346 HD
BRANCH  13  16
ATOM     16  C   UNL     1       1.327   0.314   2.262  1.00  0.00     0.178 C 
ATOM     17  C   UNL     1       1.262  -0.772   1.181  1.00  0.00     0.075 C 
BRANCH  16  18
ATOM     18  C   UNL     1       0.576   1.585   1.815  1.00  0.00     0.061 C 
ATOM     19  C   UNL     1      -0.837   1.373   1.282  1.00  0.00     0.010 C 
ENDBRANCH  16  18
ENDBRANCH  13  16
ENDBRANCH  12  13
ENDBRANCH  11  12
ENDBRANCH   6  11
ENDBRANCH   3   5
ENDBRANCH   2   3
ENDBRANCH   1   2
BRANCH   1  20
ATOM     20  C   UNL     1      -7.832   1.516   6.078  1.00  0.00     0.275 C 
BRANCH  20  21
ATOM     21  O   UNL     1      -7.428   2.898   6.066  1.00  0.00    -0.458 OA
BRANCH  21  22
ATOM     22  C   UNL     1      -6.579   3.264   7.055  1.00  0.00     0.338 C 
ATOM     23  O   UNL     1      -6.171   2.574   7.974  1.00  0.00    -0.246 OA
BRANCH  22  24
ATOM     24  C   UNL     1      -6.148   4.656   6.849  1.00  0.00     0.060 A 
ATOM     25  C   UNL     1      -5.212   4.922   5.855  1.00  0.00     0.016 A 
ATOM     26  C   UNL     1      -6.540   5.665   7.725  1.00  0.00     0.016 A 
ATOM     27  C   UNL     1      -4.588   6.165   5.789  1.00  0.00     0.010 A 
ATOM     28  C   UNL     1      -5.990   6.947   7.587  1.00  0.00     0.010 A 
ATOM     29  C   UNL     1      -4.977   7.206   6.643  1.00  0.00    -0.014 A 
BRANCH  29  30
ATOM     30  C   UNL     1      -4.296   8.536   6.577  1.00  0.00     0.031 A 
ATOM     31  C   UNL     1      -3.637   9.113   7.807  1.00  0.00     0.074 A 
ATOM     32  C   UNL     1      -4.245   9.228   5.419  1.00  0.00     0.049 A 
ATOM     33  N   UNL     1      -3.165  10.317   8.012  1.00  0.00    -0.248 NA
ATOM     34  C   UNL     1      -3.510   8.217   8.966  1.00  0.00     0.031 C 
ATOM     35  C   UNL     1      -4.787   8.775   4.136  1.00  0.00     0.029 A 
ATOM     36  N   UNL     1      -3.706  10.459   5.128  1.00  0.00    -0.354 N 
ATOM     37  C   UNL     1      -2.740  10.342   9.338  1.00  0.00     0.074 A 
ATOM     38  C   UNL     1      -3.028   9.034   9.890  1.00  0.00     0.031 C 
ATOM     39  C   UNL     1      -4.516   9.689   3.193  1.00  0.00     0.029 A 
ATOM     40  C   UNL     1      -3.881  10.843   3.817  1.00  0.00     0.049 A 
ATOM     41  H   UNL     1      -3.238  11.014   5.793  1.00  0.00     0.167 HD
ATOM     42  C   UNL     1      -2.166  11.361  10.028  1.00  0.00     0.034 A 
ATOM     43  C   UNL     1      -3.617  12.009   3.192  1.00  0.00     0.034 A 
ATOM     44  C   UNL     1      -1.843  12.644   9.448  1.00  0.00     0.049 A 
ATOM     45  C   UNL     1      -3.034  13.146   3.990  1.00  0.00     0.074 A 
ATOM     46  C   UNL     1      -1.242  13.737  10.050  1.00  0.00     0.029 A 
ATOM     47  N   UNL     1      -2.086  13.007   8.129  1.00  0.00    -0.354 N 
ATOM     48  N   UNL     1      -2.701  13.177   5.260  1.00  0.00    -0.248 NA
ATOM     49  C   UNL     1      -2.808  14.407   3.275  1.00  0.00     0.031 C 
ATOM     50  C   UNL     1      -1.184  14.779   9.117  1.00  0.00     0.029 A 
ATOM     51  C   UNL     1      -1.674  14.314   7.908  1.00  0.00     0.049 A 
ATOM     52  H   UNL     1      -2.491  12.422   7.449  1.00  0.00     0.167 HD
ATOM     53  C   UNL     1      -2.211  14.460   5.490  1.00  0.00     0.074 A 
ATOM     54  C   UNL     1      -2.270  15.160   4.223  1.00  0.00     0.031 C 
ATOM     55  C   UNL     1      -1.755  15.009   6.645  1.00  0.00     0.034 A 
BRANCH  42  56
ATOM     56  C   UNL     1      -1.909  11.149  11.504  1.00  0.00     0.023 A 
ATOM     57  C   UNL     1      -1.013  10.177  11.980  1.00  0.00     0.031 A 
ATOM     58  C   UNL     1      -2.603  11.921  12.455  1.00  0.00     0.131 A 
ATOM     59  C   UNL     1      -0.892   9.950  13.361  1.00  0.00     0.055 A 
ATOM     60  C   UNL     1      -2.415  11.748  13.828  1.00  0.00     0.041 A 
ATOM     61  F   UNL     1      -3.488  12.853  12.065  1.00  0.00    -0.206 F 
ATOM     62  C   UNL     1      -1.567  10.746  14.289  1.00  0.00     0.022 A 
BRANCH  59  63
ATOM     63  S   UNL     1       0.045   8.502  13.925  1.00  0.00     0.124 S 
ATOM     64  O   UNL     1      -0.663   7.414  13.256  1.00  0.00    -0.237 OA
ATOM     65  O   UNL     1       1.389   8.786  13.435  1.00  0.00    -0.237 OA
ATOM     66  O   UNL     1      -0.111   8.537  15.377  1.00  0.00    -0.744 OA
ENDBRANCH  59  63
ENDBRANCH  42  56
BRANCH  43  67
ATOM     67  C   UNL     1      -3.974  12.191   1.754  1.00  0.00     0.023 A 
ATOM     68  C   UNL     1      -2.990  12.446   0.786  1.00  0.00     0.031 A 
ATOM     69  C   UNL     1      -5.316  12.148   1.332  1.00  0.00     0.131 A 
ATOM     70  C   UNL     1      -3.364  12.678  -0.547  1.00  0.00     0.055 A 
ATOM     71  C   UNL     1      -5.677  12.320  -0.005  1.00  0.00     0.041 A 
ATOM     72  F   UNL     1      -6.300  11.917   2.216  1.00  0.00    -0.206 F 
ATOM     73  C   UNL     1      -4.698  12.598  -0.952  1.00  0.00     0.022 A 
BRANCH  70  74
ATOM     74  S   UNL     1      -2.086  13.170  -1.737  1.00  0.00     0.124 S 
ATOM     75  O   UNL     1      -1.560  14.384  -1.123  1.00  0.00    -0.237 OA
ATOM     76  O   UNL     1      -1.200  12.011  -1.727  1.00  0.00    -0.237 OA
ATOM     77  O   UNL     1      -2.833  13.370  -2.977  1.00  0.00    -0.744 OA
ENDBRANCH  70  74
ENDBRANCH  43  67
BRANCH  55  78
ATOM     78  C   UNL     1      -1.248  16.428   6.569  1.00  0.00     0.023 A 
ATOM     79  C   UNL     1      -2.108  17.509   6.305  1.00  0.00     0.031 A 
ATOM     80  C   UNL     1       0.122  16.699   6.737  1.00  0.00     0.131 A 
ATOM     81  C   UNL     1      -1.582  18.801   6.158  1.00  0.00     0.055 A 
ATOM     82  C   UNL     1       0.631  17.996   6.651  1.00  0.00     0.041 A 
ATOM     83  F   UNL     1       0.990  15.705   6.987  1.00  0.00    -0.206 F 
ATOM     84  C   UNL     1      -0.221  19.054   6.346  1.00  0.00     0.022 A 
BRANCH  81  85
ATOM     85  S   UNL     1      -2.687  20.136   5.621  1.00  0.00     0.124 S 
ATOM     86  O   UNL     1      -3.171  19.631   4.340  1.00  0.00    -0.237 OA
ATOM     87  O   UNL     1      -3.667  20.184   6.700  1.00  0.00    -0.237 OA
ATOM     88  O   UNL     1      -1.804  21.298   5.535  1.00  0.00    -0.744 OA
ENDBRANCH  81  85
ENDBRANCH  55  78
ENDBRANCH  29  30
ENDBRANCH  22  24
ENDBRANCH  21  22
ENDBRANCH  20  21
ENDBRANCH   1  20
TORSDOF 19
