REMARK SMILES COCc1ccccc1C(=O)N1CCC[C@@H](C(=O)OCCOC(=O)c2ccc(-c3c4nc(c(-c5cc(S(=O)(=O)[O-])ccc5F)c5ccc([nH]5)c(-c5cc(S(=O)(=O)[O-])ccc5F)c5nc(c(-c6cc(S(=O)(=O)[O-])ccc6F)c6ccc3[nH]6)C=C5)C=C4)cc2)C1
REMARK SMILES IDX 20 1 19 2 17 3 18 4 16 5 12 6 13 7 88 8 14 9 15 10 10 11
REMARK SMILES IDX 11 12 9 13 4 14 5 15 6 16 8 17 7 18 3 19 2 20 1 21 21 22
REMARK SMILES IDX 22 23 23 24 24 25 25 26 26 27 87 28 27 29 86 30 28 31 29 32
REMARK SMILES IDX 30 33 80 34 31 35 85 36 79 37 81 38 32 39 84 40 78 41 77 42
REMARK SMILES IDX 33 44 65 45 45 46 64 47 46 48 49 49 63 50 82 51 47 52 48 53
REMARK SMILES IDX 62 55 83 56 50 57 34 58 35 59 43 60 36 61 42 62 44 63 41 64
REMARK SMILES IDX 37 65 38 66 39 67 40 68 66 69 67 70 75 71 68 72 74 73 76 74
REMARK SMILES IDX 73 75 69 76 70 77 71 78 72 79 51 80 52 81 60 82 53 83 59 84
REMARK SMILES IDX 61 85 58 86 54 87 55 88 56 89 57 90
REMARK H PARENT 81 43 49 54
REMARK Flexibility Score: inf
ROOT
ATOM      1  C   UNL     1       5.134  -1.387  -3.505  1.00  0.00     0.274 C 
ENDROOT
BRANCH   1   2
ATOM      2  O   UNL     1       3.786  -1.645  -3.057  1.00  0.00    -0.462 OA
BRANCH   2   3
ATOM      3  C   UNL     1       3.408  -0.939  -1.957  1.00  0.00     0.310 C 
ATOM      4  O   UNL     1       4.130  -0.116  -1.405  1.00  0.00    -0.252 OA
BRANCH   3   5
ATOM      5  C   UNL     1       2.028  -1.301  -1.441  1.00  0.00     0.119 C 
ATOM      6  N   UNL     1      -0.002  -0.374  -0.454  1.00  0.00    -0.338 N 
ATOM      7  C   UNL     1      -0.875  -1.341  -1.118  1.00  0.00     0.120 C 
ATOM      8  C   UNL     1       1.163  -0.048  -1.253  1.00  0.00     0.135 C 
ATOM      9  C   UNL     1      -0.121  -2.600  -1.578  1.00  0.00     0.022 C 
ATOM     10  C   UNL     1       1.212  -2.289  -2.281  1.00  0.00     0.019 C 
BRANCH   6  11
ATOM     11  C   UNL     1       0.056  -0.350   0.949  1.00  0.00     0.254 C 
ATOM     12  O   UNL     1      -0.143  -1.373   1.609  1.00  0.00    -0.269 OA
BRANCH  11  13
ATOM     13  C   UNL     1       0.022   0.979   1.669  1.00  0.00     0.045 A 
ATOM     14  C   UNL     1       0.936   2.049   1.612  1.00  0.00    -0.010 A 
ATOM     15  C   UNL     1       0.570   3.289   2.190  1.00  0.00     0.007 A 
ATOM     16  C   UNL     1      -0.549   3.406   3.007  1.00  0.00     0.000 A 
ATOM     17  C   UNL     1      -1.066   1.100   2.561  1.00  0.00     0.014 A 
ATOM     18  C   UNL     1      -1.328   2.287   3.250  1.00  0.00     0.001 A 
BRANCH  14  19
ATOM     19  C   UNL     1       2.367   1.991   1.137  1.00  0.00     0.196 C 
BRANCH  19  20
ATOM     20  O   UNL     1       2.928   0.685   1.113  1.00  0.00    -0.380 OA
ATOM     21  C   UNL     1       3.168   0.128   2.394  1.00  0.00     0.195 C 
ENDBRANCH  19  20
ENDBRANCH  14  19
ENDBRANCH  11  13
ENDBRANCH   6  11
ENDBRANCH   3   5
ENDBRANCH   2   3
ENDBRANCH   1   2
BRANCH   1  22
ATOM     22  C   UNL     1       5.161  -0.387  -4.659  1.00  0.00     0.275 C 
BRANCH  22  23
ATOM     23  O   UNL     1       4.572   0.860  -4.252  1.00  0.00    -0.458 OA
BRANCH  23  24
ATOM     24  C   UNL     1       3.558   1.318  -5.016  1.00  0.00     0.338 C 
ATOM     25  O   UNL     1       3.147   0.825  -6.067  1.00  0.00    -0.246 OA
BRANCH  24  26
ATOM     26  C   UNL     1       2.950   2.511  -4.405  1.00  0.00     0.060 A 
ATOM     27  C   UNL     1       2.552   2.469  -3.072  1.00  0.00     0.016 A 
ATOM     28  C   UNL     1       2.639   3.628  -5.179  1.00  0.00     0.016 A 
ATOM     29  C   UNL     1       1.749   3.473  -2.541  1.00  0.00     0.010 A 
ATOM     30  C   UNL     1       1.935   4.697  -4.606  1.00  0.00     0.010 A 
ATOM     31  C   UNL     1       1.453   4.616  -3.288  1.00  0.00    -0.014 A 
BRANCH  31  32
ATOM     32  C   UNL     1       0.600   5.683  -2.696  1.00  0.00     0.031 A 
ATOM     33  C   UNL     1      -0.727   6.010  -3.327  1.00  0.00     0.074 A 
ATOM     34  C   UNL     1       0.983   6.326  -1.573  1.00  0.00     0.049 A 
ATOM     35  N   UNL     1      -1.529   7.015  -3.094  1.00  0.00    -0.248 NA
ATOM     36  C   UNL     1      -1.210   5.082  -4.362  1.00  0.00     0.031 C 
ATOM     37  C   UNL     1       2.197   6.041  -0.803  1.00  0.00     0.029 A 
ATOM     38  N   UNL     1       0.388   7.349  -0.874  1.00  0.00    -0.354 N 
ATOM     39  C   UNL     1      -2.581   6.878  -3.994  1.00  0.00     0.074 A 
ATOM     40  C   UNL     1      -2.321   5.680  -4.765  1.00  0.00     0.031 C 
ATOM     41  C   UNL     1       2.239   6.845   0.271  1.00  0.00     0.029 A 
ATOM     42  C   UNL     1       1.115   7.772   0.217  1.00  0.00     0.049 A 
ATOM     43  H   UNL     1      -0.477   7.743  -1.130  1.00  0.00     0.167 HD
ATOM     44  C   UNL     1      -3.651   7.691  -4.171  1.00  0.00     0.034 A 
ATOM     45  C   UNL     1       0.929   8.822   1.044  1.00  0.00     0.034 A 
ATOM     46  C   UNL     1      -3.913   8.859  -3.367  1.00  0.00     0.049 A 
ATOM     47  C   UNL     1      -0.236   9.748   0.784  1.00  0.00     0.074 A 
ATOM     48  C   UNL     1      -4.955   9.764  -3.474  1.00  0.00     0.029 A 
ATOM     49  N   UNL     1      -3.130   9.280  -2.301  1.00  0.00    -0.354 N 
ATOM     50  N   UNL     1      -1.177   9.656  -0.127  1.00  0.00    -0.248 NA
ATOM     51  C   UNL     1      -0.350  10.930   1.649  1.00  0.00     0.031 C 
ATOM     52  C   UNL     1      -4.770  10.762  -2.510  1.00  0.00     0.029 A 
ATOM     53  C   UNL     1      -3.650  10.445  -1.760  1.00  0.00     0.049 A 
ATOM     54  H   UNL     1      -2.323   8.818  -1.976  1.00  0.00     0.167 HD
ATOM     55  C   UNL     1      -2.000  10.762   0.067  1.00  0.00     0.074 A 
ATOM     56  C   UNL     1      -1.463  11.489   1.198  1.00  0.00     0.031 C 
ATOM     57  C   UNL     1      -3.097  11.152  -0.631  1.00  0.00     0.034 A 
BRANCH  44  58
ATOM     58  C   UNL     1      -4.560   7.400  -5.337  1.00  0.00     0.023 A 
ATOM     59  C   UNL     1      -5.408   6.281  -5.373  1.00  0.00     0.031 A 
ATOM     60  C   UNL     1      -4.558   8.267  -6.445  1.00  0.00     0.131 A 
ATOM     61  C   UNL     1      -6.184   6.034  -6.517  1.00  0.00     0.055 A 
ATOM     62  C   UNL     1      -5.379   8.050  -7.552  1.00  0.00     0.041 A 
ATOM     63  F   UNL     1      -3.749   9.338  -6.472  1.00  0.00    -0.206 F 
ATOM     64  C   UNL     1      -6.192   6.922  -7.596  1.00  0.00     0.022 A 
BRANCH  61  65
ATOM     65  S   UNL     1      -7.112   4.479  -6.623  1.00  0.00     0.124 S 
ATOM     66  O   UNL     1      -6.038   3.490  -6.570  1.00  0.00    -0.237 OA
ATOM     67  O   UNL     1      -7.978   4.545  -5.452  1.00  0.00    -0.237 OA
ATOM     68  O   UNL     1      -7.798   4.575  -7.911  1.00  0.00    -0.744 OA
ENDBRANCH  61  65
ENDBRANCH  44  58
BRANCH  45  69
ATOM     69  C   UNL     1       1.901   9.126   2.137  1.00  0.00     0.023 A 
ATOM     70  C   UNL     1       1.486   9.185   3.477  1.00  0.00     0.031 A 
ATOM     71  C   UNL     1       3.241   9.451   1.851  1.00  0.00     0.131 A 
ATOM     72  C   UNL     1       2.382   9.615   4.470  1.00  0.00     0.055 A 
ATOM     73  C   UNL     1       4.145   9.812   2.851  1.00  0.00     0.041 A 
ATOM     74  F   UNL     1       3.693   9.423   0.588  1.00  0.00    -0.206 F 
ATOM     75  C   UNL     1       3.712   9.913   4.169  1.00  0.00     0.022 A 
BRANCH  72  76
ATOM     76  S   UNL     1       1.745   9.902   6.144  1.00  0.00     0.124 S 
ATOM     77  O   UNL     1       0.647  10.826   5.890  1.00  0.00    -0.237 OA
ATOM     78  O   UNL     1       1.368   8.554   6.556  1.00  0.00    -0.237 OA
ATOM     79  O   UNL     1       2.891  10.471   6.850  1.00  0.00    -0.744 OA
ENDBRANCH  72  76
ENDBRANCH  45  69
BRANCH  57  80
ATOM     80  C   UNL     1      -3.802  12.395  -0.154  1.00  0.00     0.023 A 
ATOM     81  C   UNL     1      -3.221  13.668  -0.285  1.00  0.00     0.031 A 
ATOM     82  C   UNL     1      -5.069  12.300   0.449  1.00  0.00     0.131 A 
ATOM     83  C   UNL     1      -3.885  14.793   0.223  1.00  0.00     0.055 A 
ATOM     84  C   UNL     1      -5.748  13.430   0.906  1.00  0.00     0.041 A 
ATOM     85  F   UNL     1      -5.666  11.107   0.598  1.00  0.00    -0.206 F 
ATOM     86  C   UNL     1      -5.151  14.684   0.805  1.00  0.00     0.022 A 
BRANCH  83  87
ATOM     87  S   UNL     1      -3.041  16.398   0.179  1.00  0.00     0.124 S 
ATOM     88  O   UNL     1      -1.848  16.136   0.977  1.00  0.00    -0.237 OA
ATOM     89  O   UNL     1      -2.821  16.597  -1.249  1.00  0.00    -0.237 OA
ATOM     90  O   UNL     1      -4.007  17.311   0.789  1.00  0.00    -0.744 OA
ENDBRANCH  83  87
ENDBRANCH  57  80
ENDBRANCH  31  32
ENDBRANCH  24  26
ENDBRANCH  23  24
ENDBRANCH  22  23
ENDBRANCH   1  22
TORSDOF 18
