REMARK SMILES C[C@@H]1CC[C@H]([N@H+](CC(=O)OCCOC(=O)c2ccc(-c3c4nc(c(-c5cc(S(=O)(=O)[O-])ccc5F)c5ccc([nH]5)c(-c5cc(S(=O)(=O)[O-])ccc5F)c5nc(c(-c6cc(S(=O)(=O)[O-])ccc6F)c6ccc3[nH]6)C=C5)C=C4)cc2)CC(F)(F)F)C[C@@H]1C
REMARK SMILES IDX 11 1 10 2 8 3 9 4 7 5 6 6 5 8 1 9 2 10 3 11 85 12 4 13 84 14
REMARK SMILES IDX 86 15 79 16 80 17 81 18 82 19 83 20 12 21 13 22 14 23 15 24
REMARK SMILES IDX 16 25 17 26 78 27 18 28 77 29 19 30 20 31 21 32 71 33 22 34
REMARK SMILES IDX 76 35 70 36 72 37 23 38 75 39 69 40 68 41 24 43 56 44 36 45
REMARK SMILES IDX 55 46 37 47 40 48 54 49 73 50 38 51 39 52 53 54 74 55 41 56
REMARK SMILES IDX 25 57 26 58 34 59 27 60 33 61 35 62 32 63 28 64 29 65 30 66
REMARK SMILES IDX 31 67 57 68 58 69 66 70 59 71 65 72 67 73 64 74 60 75 61 76
REMARK SMILES IDX 62 77 63 78 42 79 43 80 51 81 44 82 50 83 52 84 49 85 45 86
REMARK SMILES IDX 46 87 47 88 48 89
REMARK H PARENT 6 7 72 42 40 53
REMARK Flexibility Score: inf
ROOT
ATOM      1  C   UNL     1       3.618  -5.622  -1.753  1.00  0.00     0.274 C 
ENDROOT
BRANCH   1   2
ATOM      2  O   UNL     1       2.933  -5.160  -0.574  1.00  0.00    -0.458 OA
BRANCH   2   3
ATOM      3  C   UNL     1       2.584  -6.065   0.373  1.00  0.00     0.361 C 
ATOM      4  O   UNL     1       2.835  -7.264   0.302  1.00  0.00    -0.245 OA
BRANCH   3   5
ATOM      5  C   UNL     1       1.786  -5.467   1.542  1.00  0.00     0.387 C 
BRANCH   5   6
ATOM      6  N   UNL     1       1.832  -4.000   1.637  1.00  0.00    -0.316 N 
ATOM      7  H   UNL     1       2.395  -3.619   0.876  1.00  0.00     0.349 HD
BRANCH   6   8
ATOM      8  C   UNL     1       0.711  -3.254   1.069  1.00  0.00     0.185 C 
ATOM      9  C   UNL     1       0.928   0.249  -0.091  1.00  0.00     0.008 C 
ATOM     10  C   UNL     1      -0.244  -0.727  -0.248  1.00  0.00    -0.011 C 
ATOM     11  C   UNL     1      -0.780  -1.193   1.116  1.00  0.00     0.010 C 
ATOM     12  C   UNL     1       0.091  -1.962  -1.105  1.00  0.00    -0.006 C 
ATOM     13  C   UNL     1       0.243  -2.034   1.875  1.00  0.00     0.065 C 
ATOM     14  C   UNL     1       1.040  -2.933  -0.398  1.00  0.00     0.068 C 
ATOM     15  C   UNL     1       0.681  -1.607  -2.474  1.00  0.00     0.008 C 
ENDBRANCH   6   8
BRANCH   6  16
ATOM     16  C   UNL     1       2.792  -3.429   2.602  1.00  0.00     0.380 C 
BRANCH  16  17
ATOM     17  C   UNL     1       3.522  -2.073   2.383  1.00  0.00     0.438 C 
ATOM     18  F   UNL     1       2.952  -1.094   3.131  1.00  0.00    -0.165 F 
ATOM     19  F   UNL     1       4.814  -2.147   2.784  1.00  0.00    -0.165 F 
ATOM     20  F   UNL     1       3.505  -1.650   1.103  1.00  0.00    -0.165 F 
ENDBRANCH  16  17
ENDBRANCH   6  16
ENDBRANCH   5   6
ENDBRANCH   3   5
ENDBRANCH   2   3
ENDBRANCH   1   2
BRANCH   1  21
ATOM     21  C   UNL     1       4.967  -4.919  -1.889  1.00  0.00     0.275 C 
BRANCH  21  22
ATOM     22  O   UNL     1       5.861  -5.372  -0.858  1.00  0.00    -0.458 OA
BRANCH  22  23
ATOM     23  C   UNL     1       5.816  -4.635   0.271  1.00  0.00     0.338 C 
ATOM     24  O   UNL     1       5.209  -3.588   0.452  1.00  0.00    -0.246 OA
BRANCH  23  25
ATOM     25  C   UNL     1       6.490  -5.344   1.354  1.00  0.00     0.060 A 
ATOM     26  C   UNL     1       5.698  -5.998   2.301  1.00  0.00     0.016 A 
ATOM     27  C   UNL     1       7.875  -5.285   1.488  1.00  0.00     0.016 A 
ATOM     28  C   UNL     1       6.289  -6.578   3.412  1.00  0.00     0.010 A 
ATOM     29  C   UNL     1       8.473  -5.909   2.583  1.00  0.00     0.010 A 
ATOM     30  C   UNL     1       7.682  -6.553   3.550  1.00  0.00    -0.014 A 
BRANCH  30  31
ATOM     31  C   UNL     1       8.305  -7.263   4.685  1.00  0.00     0.031 A 
ATOM     32  C   UNL     1       8.939  -6.498   5.805  1.00  0.00     0.074 A 
ATOM     33  C   UNL     1       8.290  -8.608   4.676  1.00  0.00     0.049 A 
ATOM     34  N   UNL     1       9.603  -6.945   6.838  1.00  0.00    -0.248 NA
ATOM     35  C   UNL     1       8.819  -5.035   5.746  1.00  0.00     0.031 C 
ATOM     36  C   UNL     1       7.681  -9.431   3.626  1.00  0.00     0.029 A 
ATOM     37  N   UNL     1       8.799  -9.517   5.561  1.00  0.00    -0.354 N 
ATOM     38  C   UNL     1      10.002  -5.818   7.548  1.00  0.00     0.074 A 
ATOM     39  C   UNL     1       9.521  -4.668   6.808  1.00  0.00     0.031 C 
ATOM     40  C   UNL     1       7.856 -10.725   3.929  1.00  0.00     0.029 A 
ATOM     41  C   UNL     1       8.633 -10.820   5.158  1.00  0.00     0.049 A 
ATOM     42  H   UNL     1       9.241  -9.263   6.404  1.00  0.00     0.167 HD
ATOM     43  C   UNL     1      10.706  -5.761   8.707  1.00  0.00     0.034 A 
ATOM     44  C   UNL     1       9.093 -11.962   5.699  1.00  0.00     0.034 A 
ATOM     45  C   UNL     1      11.184  -6.936   9.402  1.00  0.00     0.049 A 
ATOM     46  C   UNL     1       9.888 -11.875   6.970  1.00  0.00     0.074 A 
ATOM     47  C   UNL     1      11.903  -7.013  10.583  1.00  0.00     0.029 A 
ATOM     48  N   UNL     1      11.000  -8.246   8.969  1.00  0.00    -0.354 N 
ATOM     49  N   UNL     1      10.262 -10.806   7.635  1.00  0.00    -0.248 NA
ATOM     50  C   UNL     1      10.311 -13.144   7.566  1.00  0.00     0.031 C 
ATOM     51  C   UNL     1      12.204  -8.360  10.828  1.00  0.00     0.029 A 
ATOM     52  C   UNL     1      11.615  -9.134   9.840  1.00  0.00     0.049 A 
ATOM     53  H   UNL     1      10.505  -8.506   8.159  1.00  0.00     0.167 HD
ATOM     54  C   UNL     1      10.973 -11.274   8.733  1.00  0.00     0.074 A 
ATOM     55  C   UNL     1      10.937 -12.724   8.656  1.00  0.00     0.031 C 
ATOM     56  C   UNL     1      11.604 -10.575   9.713  1.00  0.00     0.034 A 
BRANCH  43  57
ATOM     57  C   UNL     1      11.053  -4.386   9.233  1.00  0.00     0.023 A 
ATOM     58  C   UNL     1      10.061  -3.464   9.616  1.00  0.00     0.031 A 
ATOM     59  C   UNL     1      12.393  -3.964   9.285  1.00  0.00     0.131 A 
ATOM     60  C   UNL     1      10.417  -2.146   9.946  1.00  0.00     0.055 A 
ATOM     61  C   UNL     1      12.747  -2.675   9.693  1.00  0.00     0.041 A 
ATOM     62  F   UNL     1      13.385  -4.788   8.912  1.00  0.00    -0.206 F 
ATOM     63  C   UNL     1      11.755  -1.751  10.007  1.00  0.00     0.022 A 
BRANCH  60  64
ATOM     64  S   UNL     1       9.100  -0.909  10.127  1.00  0.00     0.124 S 
ATOM     65  O   UNL     1       8.408  -1.024   8.846  1.00  0.00    -0.237 OA
ATOM     66  O   UNL     1       8.372  -1.395  11.293  1.00  0.00    -0.237 OA
ATOM     67  O   UNL     1       9.829   0.342  10.322  1.00  0.00    -0.744 OA
ENDBRANCH  60  64
ENDBRANCH  43  57
BRANCH  44  68
ATOM     68  C   UNL     1       8.849 -13.256   5.006  1.00  0.00     0.023 A 
ATOM     69  C   UNL     1       7.997 -14.228   5.549  1.00  0.00     0.031 A 
ATOM     70  C   UNL     1       9.448 -13.520   3.760  1.00  0.00     0.131 A 
ATOM     71  C   UNL     1       7.779 -15.428   4.855  1.00  0.00     0.055 A 
ATOM     72  C   UNL     1       9.197 -14.696   3.055  1.00  0.00     0.041 A 
ATOM     73  F   UNL     1      10.261 -12.614   3.193  1.00  0.00    -0.206 F 
ATOM     74  C   UNL     1       8.362 -15.662   3.606  1.00  0.00     0.022 A 
BRANCH  71  75
ATOM     75  S   UNL     1       6.743 -16.703   5.624  1.00  0.00     0.124 S 
ATOM     76  O   UNL     1       7.472 -16.978   6.856  1.00  0.00    -0.237 OA
ATOM     77  O   UNL     1       5.469 -16.008   5.774  1.00  0.00    -0.237 OA
ATOM     78  O   UNL     1       6.747 -17.784   4.641  1.00  0.00    -0.744 OA
ENDBRANCH  71  75
ENDBRANCH  44  68
BRANCH  56  79
ATOM     79  C   UNL     1      12.299 -11.399  10.768  1.00  0.00     0.023 A 
ATOM     80  C   UNL     1      13.419 -12.190  10.456  1.00  0.00     0.031 A 
ATOM     81  C   UNL     1      11.800 -11.444  12.081  1.00  0.00     0.131 A 
ATOM     82  C   UNL     1      13.957 -13.051  11.423  1.00  0.00     0.055 A 
ATOM     83  C   UNL     1      12.379 -12.256  13.057  1.00  0.00     0.041 A 
ATOM     84  F   UNL     1      10.729 -10.713  12.431  1.00  0.00    -0.206 F 
ATOM     85  C   UNL     1      13.453 -13.079  12.726  1.00  0.00     0.022 A 
BRANCH  82  86
ATOM     86  S   UNL     1      15.241 -14.229  10.919  1.00  0.00     0.124 S 
ATOM     87  O   UNL     1      14.585 -14.945   9.830  1.00  0.00    -0.237 OA
ATOM     88  O   UNL     1      16.338 -13.347  10.533  1.00  0.00    -0.237 OA
ATOM     89  O   UNL     1      15.476 -15.017  12.127  1.00  0.00    -0.744 OA
ENDBRANCH  82  86
ENDBRANCH  56  79
ENDBRANCH  30  31
ENDBRANCH  23  25
ENDBRANCH  22  23
ENDBRANCH  21  22
ENDBRANCH   1  21
TORSDOF 18
