REMARK SMILES C[C@@H]1CN(c2cc(C(=O)OCCOC(=O)c3ccc(-c4c5nc(c(-c6cc(S(=O)(=O)[O-])ccc6F)c6ccc([nH]6)c(-c6cc(S(=O)(=O)[O-])ccc6F)c6nc(c(-c7cc(S(=O)(=O)[O-])ccc7F)c7ccc4[nH]7)C=C6)C=C5)cc3)c(F)cc2F)S(=O)(=O)C1
REMARK SMILES IDX 12 1 11 2 10 3 8 4 9 5 7 6 5 7 6 8 82 9 81 10 83 11 79 12
REMARK SMILES IDX 80 13 4 14 1 15 2 16 3 17 87 18 84 19 85 20 86 21 13 22
REMARK SMILES IDX 14 23 15 24 16 25 17 26 78 27 18 28 77 29 19 30 20 31 21 32
REMARK SMILES IDX 71 33 22 34 76 35 70 36 72 37 23 38 75 39 69 40 68 41 24 43
REMARK SMILES IDX 56 44 36 45 55 46 37 47 40 48 54 49 73 50 38 51 39 52 53 54
REMARK SMILES IDX 74 55 41 56 25 57 26 58 34 59 27 60 33 61 35 62 32 63 28 64
REMARK SMILES IDX 29 65 30 66 31 67 57 68 58 69 66 70 59 71 65 72 67 73 64 74
REMARK SMILES IDX 60 75 61 76 62 77 63 78 42 79 43 80 51 81 44 82 50 83 52 84
REMARK SMILES IDX 49 85 45 86 46 87 47 88 48 89
REMARK H PARENT 72 42 40 53
REMARK Flexibility Score: inf
ROOT
ATOM      1  C   UNL     1       0.669   6.786   7.616  1.00  0.00     0.275 C 
ENDROOT
BRANCH   1   2
ATOM      2  C   UNL     1       1.090   5.638   8.536  1.00  0.00     0.275 C 
BRANCH   2   3
ATOM      3  O   UNL     1       1.853   4.642   7.824  1.00  0.00    -0.458 OA
BRANCH   3   4
ATOM      4  C   UNL     1       1.227   3.464   7.582  1.00  0.00     0.341 C 
ATOM      5  O   UNL     1       0.088   3.170   7.907  1.00  0.00    -0.246 OA
BRANCH   4   6
ATOM      6  C   UNL     1       2.056   2.590   6.731  1.00  0.00     0.098 A 
ATOM      7  C   UNL     1       2.191   1.085   4.829  1.00  0.00     0.088 A 
ATOM      8  C   UNL     1       1.442   1.885   5.686  1.00  0.00     0.048 A 
ATOM      9  C   UNL     1       3.557   0.927   5.065  1.00  0.00     0.150 A 
ATOM     10  C   UNL     1       4.169   1.569   6.141  1.00  0.00     0.081 A 
ATOM     11  F   UNL     1       4.302   0.151   4.265  1.00  0.00    -0.205 F 
ATOM     12  C   UNL     1       3.417   2.410   6.962  1.00  0.00     0.140 A 
ATOM     13  F   UNL     1       4.023   3.001   8.002  1.00  0.00    -0.206 F 
BRANCH   7  14
ATOM     14  N   UNL     1       1.512   0.459   3.753  1.00  0.00    -0.267 N 
ATOM     15  C   UNL     1       0.986   0.171   0.060  1.00  0.00     0.011 C 
ATOM     16  C   UNL     1       0.657   0.009   1.537  1.00  0.00     0.023 C 
ATOM     17  C   UNL     1       1.357   1.065   2.420  1.00  0.00     0.140 C 
ATOM     18  C   UNL     1       1.077  -1.364   2.069  1.00  0.00     0.165 C 
ATOM     19  S   UNL     1       1.062  -1.161   3.839  1.00  0.00     0.235 S 
ATOM     20  O   UNL     1       2.114  -1.940   4.445  1.00  0.00    -0.206 OA
ATOM     21  O   UNL     1      -0.303  -1.201   4.322  1.00  0.00    -0.206 OA
ENDBRANCH   7  14
ENDBRANCH   4   6
ENDBRANCH   3   4
ENDBRANCH   2   3
ENDBRANCH   1   2
BRANCH   1  22
ATOM     22  O   UNL     1      -0.331   6.354   6.676  1.00  0.00    -0.458 OA
BRANCH  22  23
ATOM     23  C   UNL     1       0.150   6.004   5.463  1.00  0.00     0.338 C 
ATOM     24  O   UNL     1       1.308   6.047   5.082  1.00  0.00    -0.246 OA
BRANCH  23  25
ATOM     25  C   UNL     1      -0.921   5.429   4.642  1.00  0.00     0.060 A 
ATOM     26  C   UNL     1      -1.188   4.075   4.795  1.00  0.00     0.016 A 
ATOM     27  C   UNL     1      -1.509   6.147   3.606  1.00  0.00     0.016 A 
ATOM     28  C   UNL     1      -1.915   3.389   3.829  1.00  0.00     0.010 A 
ATOM     29  C   UNL     1      -2.364   5.482   2.718  1.00  0.00     0.010 A 
ATOM     30  C   UNL     1      -2.542   4.085   2.789  1.00  0.00    -0.014 A 
BRANCH  30  31
ATOM     31  C   UNL     1      -3.372   3.362   1.780  1.00  0.00     0.031 A 
ATOM     32  C   UNL     1      -3.089   3.529   0.307  1.00  0.00     0.074 A 
ATOM     33  C   UNL     1      -4.389   2.567   2.177  1.00  0.00     0.049 A 
ATOM     34  N   UNL     1      -3.819   3.184  -0.722  1.00  0.00    -0.248 NA
ATOM     35  C   UNL     1      -1.823   4.188  -0.055  1.00  0.00     0.031 C 
ATOM     36  C   UNL     1      -4.739   2.265   3.568  1.00  0.00     0.029 A 
ATOM     37  N   UNL     1      -5.326   1.871   1.450  1.00  0.00    -0.354 N 
ATOM     38  C   UNL     1      -3.138   3.639  -1.847  1.00  0.00     0.074 A 
ATOM     39  C   UNL     1      -1.935   4.289  -1.372  1.00  0.00     0.031 C 
ATOM     40  C   UNL     1      -5.786   1.430   3.593  1.00  0.00     0.029 A 
ATOM     41  C   UNL     1      -6.266   1.236   2.233  1.00  0.00     0.049 A 
ATOM     42  H   UNL     1      -5.326   1.831   0.467  1.00  0.00     0.167 HD
ATOM     43  C   UNL     1      -3.494   3.530  -3.151  1.00  0.00     0.034 A 
ATOM     44  C   UNL     1      -7.425   0.628   1.909  1.00  0.00     0.034 A 
ATOM     45  C   UNL     1      -4.680   2.842  -3.601  1.00  0.00     0.049 A 
ATOM     46  C   UNL     1      -7.831   0.579   0.459  1.00  0.00     0.074 A 
ATOM     47  C   UNL     1      -5.118   2.643  -4.900  1.00  0.00     0.029 A 
ATOM     48  N   UNL     1      -5.619   2.242  -2.772  1.00  0.00    -0.354 N 
ATOM     49  N   UNL     1      -7.197   1.050  -0.591  1.00  0.00    -0.248 NA
ATOM     50  C   UNL     1      -9.108  -0.075   0.149  1.00  0.00     0.031 C 
ATOM     51  C   UNL     1      -6.356   1.997  -4.852  1.00  0.00     0.029 A 
ATOM     52  C   UNL     1      -6.648   1.705  -3.529  1.00  0.00     0.049 A 
ATOM     53  H   UNL     1      -5.562   2.204  -1.790  1.00  0.00     0.167 HD
ATOM     54  C   UNL     1      -7.987   0.718  -1.688  1.00  0.00     0.074 A 
ATOM     55  C   UNL     1      -9.131  -0.005  -1.174  1.00  0.00     0.031 C 
ATOM     56  C   UNL     1      -7.782   0.983  -3.002  1.00  0.00     0.034 A 
BRANCH  43  57
ATOM     57  C   UNL     1      -2.630   4.215  -4.184  1.00  0.00     0.023 A 
ATOM     58  C   UNL     1      -1.303   3.827  -4.431  1.00  0.00     0.031 A 
ATOM     59  C   UNL     1      -3.157   5.274  -4.947  1.00  0.00     0.131 A 
ATOM     60  C   UNL     1      -0.532   4.527  -5.373  1.00  0.00     0.055 A 
ATOM     61  C   UNL     1      -2.411   5.914  -5.938  1.00  0.00     0.041 A 
ATOM     62  F   UNL     1      -4.411   5.706  -4.741  1.00  0.00    -0.206 F 
ATOM     63  C   UNL     1      -1.085   5.549  -6.148  1.00  0.00     0.022 A 
BRANCH  60  64
ATOM     64  S   UNL     1       1.241   4.165  -5.481  1.00  0.00     0.124 S 
ATOM     65  O   UNL     1       1.684   4.454  -4.119  1.00  0.00    -0.237 OA
ATOM     66  O   UNL     1       1.254   2.759  -5.869  1.00  0.00    -0.237 OA
ATOM     67  O   UNL     1       1.721   5.098  -6.497  1.00  0.00    -0.744 OA
ENDBRANCH  60  64
ENDBRANCH  43  57
BRANCH  44  68
ATOM     68  C   UNL     1      -8.328   0.098   2.974  1.00  0.00     0.023 A 
ATOM     69  C   UNL     1      -8.685  -1.258   3.014  1.00  0.00     0.031 A 
ATOM     70  C   UNL     1      -8.900   0.954   3.935  1.00  0.00     0.131 A 
ATOM     71  C   UNL     1      -9.629  -1.706   3.952  1.00  0.00     0.055 A 
ATOM     72  C   UNL     1      -9.778   0.489   4.914  1.00  0.00     0.041 A 
ATOM     73  F   UNL     1      -8.605   2.264   3.941  1.00  0.00    -0.206 F 
ATOM     74  C   UNL     1     -10.162  -0.847   4.915  1.00  0.00     0.022 A 
BRANCH  71  75
ATOM     75  S   UNL     1     -10.254  -3.403   3.806  1.00  0.00     0.124 S 
ATOM     76  O   UNL     1     -10.741  -3.420   2.432  1.00  0.00    -0.237 OA
ATOM     77  O   UNL     1      -9.056  -4.191   4.072  1.00  0.00    -0.237 OA
ATOM     78  O   UNL     1     -11.288  -3.474   4.836  1.00  0.00    -0.744 OA
ENDBRANCH  71  75
ENDBRANCH  44  68
BRANCH  56  79
ATOM     79  C   UNL     1      -8.784   0.424  -3.981  1.00  0.00     0.023 A 
ATOM     80  C   UNL     1     -10.114   0.876  -4.026  1.00  0.00     0.031 A 
ATOM     81  C   UNL     1      -8.394  -0.582  -4.884  1.00  0.00     0.131 A 
ATOM     82  C   UNL     1     -11.019   0.287  -4.921  1.00  0.00     0.055 A 
ATOM     83  C   UNL     1      -9.282  -1.117  -5.817  1.00  0.00     0.041 A 
ATOM     84  F   UNL     1      -7.137  -1.054  -4.880  1.00  0.00    -0.206 F 
ATOM     85  C   UNL     1     -10.607  -0.691  -5.830  1.00  0.00     0.022 A 
BRANCH  82  86
ATOM     86  S   UNL     1     -12.769   0.752  -4.822  1.00  0.00     0.124 S 
ATOM     87  O   UNL     1     -13.103   0.384  -3.450  1.00  0.00    -0.237 OA
ATOM     88  O   UNL     1     -12.729   2.183  -5.106  1.00  0.00    -0.237 OA
ATOM     89  O   UNL     1     -13.401  -0.067  -5.855  1.00  0.00    -0.744 OA
ENDBRANCH  82  86
ENDBRANCH  56  79
ENDBRANCH  30  31
ENDBRANCH  23  25
ENDBRANCH  22  23
ENDBRANCH   1  22
TORSDOF 15
