REMARK SMILES COc1ccc(/C=N/Nc2cccc(C(=O)OCCOC(=O)c3ccc(-c4c5nc(c(-c6cc(S(=O)(=O)[O-])ccc6F)c6ccc([nH]6)c(-c6cc(S(=O)(=O)[O-])ccc6F)c6nc(c(-c7cc(S(=O)(=O)[O-])ccc7F)c7ccc4[nH]7)C=C6)C=C5)cc3)c2)cc1O
REMARK SMILES IDX 18 1 17 2 15 3 16 4 14 5 10 6 11 7 86 8 12 9 13 10 9 11 8 13
REMARK SMILES IDX 7 14 6 15 3 16 4 17 88 18 5 19 87 20 2 21 1 22 89 23 19 25
REMARK SMILES IDX 20 26 21 27 22 28 23 29 24 30 85 31 25 32 84 33 26 34 27 35
REMARK SMILES IDX 28 36 78 37 29 38 83 39 77 40 79 41 30 42 82 43 76 44 75 45
REMARK SMILES IDX 31 47 63 48 43 49 62 50 44 51 47 52 61 53 80 54 45 55 46 56
REMARK SMILES IDX 60 58 81 59 48 60 32 61 33 62 41 63 34 64 40 65 42 66 39 67
REMARK SMILES IDX 35 68 36 69 37 70 38 71 64 72 65 73 73 74 66 75 72 76 74 77
REMARK SMILES IDX 71 78 67 79 68 80 69 81 70 82 49 83 50 84 58 85 51 86 57 87
REMARK SMILES IDX 59 88 56 89 52 90 53 91 54 92 55 93
REMARK H PARENT 9 12 89 24 79 46 47 57
REMARK Flexibility Score: inf
ROOT
ATOM      1  C   UNL     1      -7.368  -1.655  -3.373  1.00  0.00     0.275 C 
ENDROOT
BRANCH   1   2
ATOM      2  O   UNL     1      -6.818  -0.565  -4.139  1.00  0.00    -0.458 OA
BRANCH   2   3
ATOM      3  C   UNL     1      -6.312  -0.886  -5.354  1.00  0.00     0.338 C 
ATOM      4  O   UNL     1      -6.253  -2.010  -5.840  1.00  0.00    -0.246 OA
BRANCH   3   5
ATOM      5  C   UNL     1      -5.885   0.328  -6.089  1.00  0.00     0.062 A 
ATOM      6  C   UNL     1      -5.011   2.597  -6.142  1.00  0.00     0.057 A 
ATOM      7  C   UNL     1      -5.090   2.580  -7.541  1.00  0.00     0.028 A 
ATOM      8  C   UNL     1      -5.465   1.481  -5.422  1.00  0.00     0.043 A 
ATOM      9  C   UNL     1      -5.511   1.434  -8.214  1.00  0.00     0.003 A 
ATOM     10  C   UNL     1      -5.860   0.296  -7.490  1.00  0.00     0.016 A 
BRANCH   6  11
ATOM     11  N   UNL     1      -4.308   3.648  -5.519  1.00  0.00    -0.278 N 
ATOM     12  H   UNL     1      -4.364   4.546  -5.918  1.00  0.00     0.190 HD
BRANCH  11  13
ATOM     13  N   UNL     1      -3.554   3.490  -4.394  1.00  0.00    -0.183 NA
ATOM     14  C   UNL     1      -2.803   2.431  -4.368  1.00  0.00     0.141 C 
BRANCH  14  15
ATOM     15  C   UNL     1      -1.995   2.069  -3.199  1.00  0.00    -0.002 A 
ATOM     16  C   UNL     1      -0.512   1.317  -0.968  1.00  0.00     0.160 A 
ATOM     17  C   UNL     1      -0.663   2.670  -1.282  1.00  0.00     0.051 A 
ATOM     18  C   UNL     1      -1.148   0.351  -1.754  1.00  0.00     0.158 A 
ATOM     19  C   UNL     1      -1.417   3.052  -2.394  1.00  0.00     0.014 A 
ATOM     20  C   UNL     1      -1.853   0.714  -2.895  1.00  0.00     0.060 A 
BRANCH  16  21
ATOM     21  O   UNL     1       0.204   1.025   0.162  1.00  0.00    -0.493 OA
ATOM     22  C   UNL     1       1.235   0.056  -0.040  1.00  0.00     0.278 C 
ENDBRANCH  16  21
BRANCH  18  23
ATOM     23  O   UNL     1      -1.167  -0.969  -1.403  1.00  0.00    -0.504 OA
ATOM     24  H   UNL     1      -0.705  -1.258  -0.641  1.00  0.00     0.293 HD
ENDBRANCH  18  23
ENDBRANCH  14  15
ENDBRANCH  11  13
ENDBRANCH   6  11
ENDBRANCH   3   5
ENDBRANCH   2   3
ENDBRANCH   1   2
BRANCH   1  25
ATOM     25  C   UNL     1      -8.894  -1.653  -3.447  1.00  0.00     0.275 C 
BRANCH  25  26
ATOM     26  O   UNL     1      -9.313  -1.928  -4.796  1.00  0.00    -0.458 OA
BRANCH  26  27
ATOM     27  C   UNL     1     -10.106  -1.000  -5.370  1.00  0.00     0.338 C 
ATOM     28  O   UNL     1     -10.588  -0.001  -4.842  1.00  0.00    -0.246 OA
BRANCH  27  29
ATOM     29  C   UNL     1     -10.276  -1.317  -6.792  1.00  0.00     0.060 A 
ATOM     30  C   UNL     1      -9.237  -1.003  -7.665  1.00  0.00     0.016 A 
ATOM     31  C   UNL     1     -11.487  -1.795  -7.287  1.00  0.00     0.016 A 
ATOM     32  C   UNL     1      -9.409  -1.118  -9.041  1.00  0.00     0.010 A 
ATOM     33  C   UNL     1     -11.648  -1.951  -8.671  1.00  0.00     0.010 A 
ATOM     34  C   UNL     1     -10.623  -1.579  -9.564  1.00  0.00    -0.014 A 
BRANCH  34  35
ATOM     35  C   UNL     1     -10.852  -1.541 -11.036  1.00  0.00     0.031 A 
ATOM     36  C   UNL     1     -11.878  -0.591 -11.602  1.00  0.00     0.074 A 
ATOM     37  C   UNL     1     -10.117  -2.303 -11.871  1.00  0.00     0.049 A 
ATOM     38  N   UNL     1     -12.306  -0.466 -12.832  1.00  0.00    -0.248 NA
ATOM     39  C   UNL     1     -12.517   0.332 -10.650  1.00  0.00     0.031 C 
ATOM     40  C   UNL     1      -9.060  -3.230 -11.461  1.00  0.00     0.029 A 
ATOM     41  N   UNL     1     -10.140  -2.414 -13.241  1.00  0.00    -0.354 N 
ATOM     42  C   UNL     1     -13.302   0.505 -12.793  1.00  0.00     0.074 A 
ATOM     43  C   UNL     1     -13.416   0.933 -11.415  1.00  0.00     0.031 C 
ATOM     44  C   UNL     1      -8.526  -3.799 -12.555  1.00  0.00     0.029 A 
ATOM     45  C   UNL     1      -9.240  -3.329 -13.739  1.00  0.00     0.049 A 
ATOM     46  H   UNL     1     -10.745  -1.888 -13.813  1.00  0.00     0.167 HD
ATOM     47  C   UNL     1     -14.053   0.993 -13.811  1.00  0.00     0.034 A 
ATOM     48  C   UNL     1      -9.035  -3.764 -14.999  1.00  0.00     0.034 A 
ATOM     49  C   UNL     1     -13.888   0.608 -15.191  1.00  0.00     0.049 A 
ATOM     50  C   UNL     1      -9.880  -3.199 -16.115  1.00  0.00     0.074 A 
ATOM     51  C   UNL     1     -14.569   1.077 -16.303  1.00  0.00     0.029 A 
ATOM     52  N   UNL     1     -12.974  -0.329 -15.653  1.00  0.00    -0.354 N 
ATOM     53  N   UNL     1     -10.836  -2.300 -16.055  1.00  0.00    -0.248 NA
ATOM     54  C   UNL     1      -9.620  -3.708 -17.468  1.00  0.00     0.031 C 
ATOM     55  C   UNL     1     -14.104   0.386 -17.427  1.00  0.00     0.029 A 
ATOM     56  C   UNL     1     -13.089  -0.469 -17.028  1.00  0.00     0.049 A 
ATOM     57  H   UNL     1     -12.338  -0.822 -15.087  1.00  0.00     0.167 HD
ATOM     58  C   UNL     1     -11.281  -2.132 -17.364  1.00  0.00     0.074 A 
ATOM     59  C   UNL     1     -10.467  -2.995 -18.194  1.00  0.00     0.031 C 
ATOM     60  C   UNL     1     -12.279  -1.344 -17.839  1.00  0.00     0.034 A 
BRANCH  47  61
ATOM     61  C   UNL     1     -15.164   1.950 -13.462  1.00  0.00     0.023 A 
ATOM     62  C   UNL     1     -14.918   3.247 -12.982  1.00  0.00     0.031 A 
ATOM     63  C   UNL     1     -16.503   1.542 -13.608  1.00  0.00     0.131 A 
ATOM     64  C   UNL     1     -15.994   4.070 -12.614  1.00  0.00     0.055 A 
ATOM     65  C   UNL     1     -17.569   2.389 -13.304  1.00  0.00     0.041 A 
ATOM     66  F   UNL     1     -16.796   0.306 -14.044  1.00  0.00    -0.206 F 
ATOM     67  C   UNL     1     -17.318   3.659 -12.793  1.00  0.00     0.022 A 
BRANCH  64  68
ATOM     68  S   UNL     1     -15.643   5.652 -11.799  1.00  0.00     0.124 S 
ATOM     69  O   UNL     1     -14.974   5.213 -10.578  1.00  0.00    -0.237 OA
ATOM     70  O   UNL     1     -14.803   6.333 -12.778  1.00  0.00    -0.237 OA
ATOM     71  O   UNL     1     -16.968   6.238 -11.601  1.00  0.00    -0.744 OA
ENDBRANCH  64  68
ENDBRANCH  47  61
BRANCH  48  72
ATOM     72  C   UNL     1      -8.039  -4.839 -15.282  1.00  0.00     0.023 A 
ATOM     73  C   UNL     1      -6.934  -4.611 -16.119  1.00  0.00     0.031 A 
ATOM     74  C   UNL     1      -8.225  -6.140 -14.779  1.00  0.00     0.131 A 
ATOM     75  C   UNL     1      -6.090  -5.678 -16.470  1.00  0.00     0.055 A 
ATOM     76  C   UNL     1      -7.349  -7.183 -15.084  1.00  0.00     0.041 A 
ATOM     77  F   UNL     1      -9.267  -6.416 -13.979  1.00  0.00    -0.206 F 
ATOM     78  C   UNL     1      -6.283  -6.958 -15.948  1.00  0.00     0.022 A 
BRANCH  75  79
ATOM     79  S   UNL     1      -4.797  -5.392 -17.711  1.00  0.00     0.124 S 
ATOM     80  O   UNL     1      -5.567  -4.855 -18.827  1.00  0.00    -0.237 OA
ATOM     81  O   UNL     1      -3.922  -4.449 -17.023  1.00  0.00    -0.237 OA
ATOM     82  O   UNL     1      -4.231  -6.722 -17.926  1.00  0.00    -0.744 OA
ENDBRANCH  75  79
ENDBRANCH  48  72
BRANCH  60  83
ATOM     83  C   UNL     1     -12.512  -1.367 -19.329  1.00  0.00     0.023 A 
ATOM     84  C   UNL     1     -13.012  -2.510 -19.977  1.00  0.00     0.031 A 
ATOM     85  C   UNL     1     -12.203  -0.242 -20.113  1.00  0.00     0.131 A 
ATOM     86  C   UNL     1     -13.130  -2.525 -21.375  1.00  0.00     0.055 A 
ATOM     87  C   UNL     1     -12.376  -0.243 -21.498  1.00  0.00     0.041 A 
ATOM     88  F   UNL     1     -11.723   0.876 -19.545  1.00  0.00    -0.206 F 
ATOM     89  C   UNL     1     -12.828  -1.395 -22.138  1.00  0.00     0.022 A 
BRANCH  86  90
ATOM     90  S   UNL     1     -13.592  -4.077 -22.193  1.00  0.00     0.124 S 
ATOM     91  O   UNL     1     -12.553  -4.989 -21.726  1.00  0.00    -0.237 OA
ATOM     92  O   UNL     1     -14.933  -4.317 -21.670  1.00  0.00    -0.237 OA
ATOM     93  O   UNL     1     -13.533  -3.745 -23.615  1.00  0.00    -0.744 OA
ENDBRANCH  86  90
ENDBRANCH  60  83
ENDBRANCH  34  35
ENDBRANCH  27  29
ENDBRANCH  26  27
ENDBRANCH  25  26
ENDBRANCH   1  25
TORSDOF 19
