REMARK SMILES CC(C)(C)c1cc(Nc2ccccc2C(=O)OCCOC(=O)c2ccc(-c3c4nc(c(-c5cc(S(=O)(=O)[O-])ccc5F)c5ccc([nH]5)c(-c5cc(S(=O)(=O)[O-])ccc5F)c5nc(c(-c6cc(S(=O)(=O)[O-])ccc6F)c6ccc3[nH]6)C=C5)C=C4)cc2)cc2c1OCC2(C)C
REMARK SMILES IDX 18 1 17 2 15 3 16 4 14 5 9 6 10 7 11 8 13 9 12 10 8 11 7 13
REMARK SMILES IDX 5 14 6 15 88 16 87 17 89 18 86 19 91 20 90 21 92 22 93 23
REMARK SMILES IDX 2 24 1 25 3 26 4 27 19 28 20 29 21 30 22 31 23 32 24 33
REMARK SMILES IDX 85 34 25 35 84 36 26 37 27 38 28 39 78 40 29 41 83 42 77 43
REMARK SMILES IDX 79 44 30 45 82 46 76 47 75 48 31 50 63 51 43 52 62 53 44 54
REMARK SMILES IDX 47 55 61 56 80 57 45 58 46 59 60 61 81 62 48 63 32 64 33 65
REMARK SMILES IDX 41 66 34 67 40 68 42 69 39 70 35 71 36 72 37 73 38 74 64 75
REMARK SMILES IDX 65 76 73 77 66 78 72 79 74 80 71 81 67 82 68 83 69 84 70 85
REMARK SMILES IDX 49 86 50 87 58 88 51 89 57 90 59 91 56 92 52 93 53 94 54 95
REMARK SMILES IDX 55 96
REMARK H PARENT 8 12 79 49 47 60
REMARK Flexibility Score: inf
ROOT
ATOM      1  C   UNL     1       2.840  -1.924   7.461  1.00  0.00     0.275 C 
ENDROOT
BRANCH   1   2
ATOM      2  O   UNL     1       3.292  -2.850   6.455  1.00  0.00    -0.458 OA
BRANCH   2   3
ATOM      3  C   UNL     1       4.378  -3.615   6.744  1.00  0.00     0.340 C 
ATOM      4  O   UNL     1       5.031  -3.559   7.767  1.00  0.00    -0.246 OA
BRANCH   3   5
ATOM      5  C   UNL     1       4.641  -4.606   5.657  1.00  0.00     0.083 A 
ATOM      6  C   UNL     1       4.255  -4.431   4.313  1.00  0.00     0.053 A 
ATOM      7  C   UNL     1       4.499  -5.489   3.413  1.00  0.00     0.027 A 
ATOM      8  C   UNL     1       5.056  -6.698   3.832  1.00  0.00     0.002 A 
ATOM      9  C   UNL     1       5.274  -5.801   6.053  1.00  0.00     0.018 A 
ATOM     10  C   UNL     1       5.446  -6.854   5.154  1.00  0.00     0.001 A 
BRANCH   6  11
ATOM     11  N   UNL     1       3.569  -3.276   3.874  1.00  0.00    -0.355 N 
ATOM     12  H   UNL     1       3.946  -2.420   4.182  1.00  0.00     0.167 HD
BRANCH  11  13
ATOM     13  C   UNL     1       2.423  -3.170   3.060  1.00  0.00     0.039 A 
ATOM     14  C   UNL     1       0.922  -1.717   1.718  1.00  0.00     0.002 A 
ATOM     15  C   UNL     1       2.026  -1.901   2.584  1.00  0.00     0.034 A 
ATOM     16  C   UNL     1       0.301  -2.890   1.284  1.00  0.00     0.127 A 
ATOM     17  C   UNL     1       0.667  -4.141   1.755  1.00  0.00     0.006 A 
ATOM     18  O   UNL     1      -0.688  -2.958   0.338  1.00  0.00    -0.492 OA
ATOM     19  C   UNL     1       1.698  -4.289   2.662  1.00  0.00     0.034 A 
ATOM     20  C   UNL     1      -0.134  -5.219   1.116  1.00  0.00     0.028 C 
ATOM     21  C   UNL     1      -1.091  -4.349   0.281  1.00  0.00     0.240 C 
ATOM     22  C   UNL     1       0.758  -6.104   0.236  1.00  0.00     0.020 C 
ATOM     23  C   UNL     1      -0.886  -6.076   2.138  1.00  0.00     0.020 C 
BRANCH  14  24
ATOM     24  C   UNL     1       0.469  -0.318   1.271  1.00  0.00    -0.009 C 
ATOM     25  C   UNL     1       0.974  -0.060  -0.160  1.00  0.00     0.016 C 
ATOM     26  C   UNL     1       1.014   0.815   2.178  1.00  0.00     0.016 C 
ATOM     27  C   UNL     1      -1.072  -0.174   1.306  1.00  0.00     0.016 C 
ENDBRANCH  14  24
ENDBRANCH  11  13
ENDBRANCH   6  11
ENDBRANCH   3   5
ENDBRANCH   2   3
ENDBRANCH   1   2
BRANCH   1  28
ATOM     28  C   UNL     1       1.487  -2.355   8.034  1.00  0.00     0.275 C 
BRANCH  28  29
ATOM     29  O   UNL     1       1.650  -3.499   8.889  1.00  0.00    -0.458 OA
BRANCH  29  30
ATOM     30  C   UNL     1       1.349  -4.692   8.324  1.00  0.00     0.338 C 
ATOM     31  O   UNL     1       0.842  -4.885   7.231  1.00  0.00    -0.246 OA
BRANCH  30  32
ATOM     32  C   UNL     1       1.924  -5.760   9.157  1.00  0.00     0.060 A 
ATOM     33  C   UNL     1       1.525  -5.981  10.474  1.00  0.00     0.016 A 
ATOM     34  C   UNL     1       2.888  -6.578   8.563  1.00  0.00     0.016 A 
ATOM     35  C   UNL     1       2.119  -7.022  11.199  1.00  0.00     0.010 A 
ATOM     36  C   UNL     1       3.488  -7.604   9.288  1.00  0.00     0.010 A 
ATOM     37  C   UNL     1       3.107  -7.840  10.613  1.00  0.00    -0.014 A 
BRANCH  37  38
ATOM     38  C   UNL     1       3.623  -9.033  11.331  1.00  0.00     0.031 A 
ATOM     39  C   UNL     1       5.032  -9.116  11.842  1.00  0.00     0.074 A 
ATOM     40  C   UNL     1       2.800 -10.090  11.468  1.00  0.00     0.049 A 
ATOM     41  N   UNL     1       5.571 -10.028  12.609  1.00  0.00    -0.248 NA
ATOM     42  C   UNL     1       5.964  -8.062  11.417  1.00  0.00     0.031 C 
ATOM     43  C   UNL     1       1.458 -10.175  10.892  1.00  0.00     0.029 A 
ATOM     44  N   UNL     1       2.958 -11.281  12.130  1.00  0.00    -0.354 N 
ATOM     45  C   UNL     1       6.899  -9.653  12.779  1.00  0.00     0.074 A 
ATOM     46  C   UNL     1       7.100  -8.466  11.975  1.00  0.00     0.031 C 
ATOM     47  C   UNL     1       0.893 -11.330  11.271  1.00  0.00     0.029 A 
ATOM     48  C   UNL     1       1.835 -12.074  12.104  1.00  0.00     0.049 A 
ATOM     49  H   UNL     1       3.794 -11.543  12.579  1.00  0.00     0.167 HD
ATOM     50  C   UNL     1       7.845 -10.230  13.560  1.00  0.00     0.034 A 
ATOM     51  C   UNL     1       1.575 -13.251  12.710  1.00  0.00     0.034 A 
ATOM     52  C   UNL     1       7.616 -11.418  14.350  1.00  0.00     0.049 A 
ATOM     53  C   UNL     1       2.616 -13.840  13.626  1.00  0.00     0.074 A 
ATOM     54  C   UNL     1       8.474 -12.027  15.249  1.00  0.00     0.029 A 
ATOM     55  N   UNL     1       6.457 -12.184  14.331  1.00  0.00    -0.354 N 
ATOM     56  N   UNL     1       3.809 -13.380  13.923  1.00  0.00    -0.248 NA
ATOM     57  C   UNL     1       2.268 -15.091  14.313  1.00  0.00     0.031 C 
ATOM     58  C   UNL     1       7.865 -13.193  15.720  1.00  0.00     0.029 A 
ATOM     59  C   UNL     1       6.593 -13.276  15.175  1.00  0.00     0.049 A 
ATOM     60  H   UNL     1       5.656 -11.981  13.796  1.00  0.00     0.167 HD
ATOM     61  C   UNL     1       4.352 -14.281  14.835  1.00  0.00     0.074 A 
ATOM     62  C   UNL     1       3.335 -15.283  15.078  1.00  0.00     0.031 C 
ATOM     63  C   UNL     1       5.585 -14.285  15.405  1.00  0.00     0.034 A 
BRANCH  50  64
ATOM     64  C   UNL     1       9.205  -9.576  13.665  1.00  0.00     0.023 A 
ATOM     65  C   UNL     1      10.371 -10.287  13.318  1.00  0.00     0.031 A 
ATOM     66  C   UNL     1       9.356  -8.310  14.261  1.00  0.00     0.131 A 
ATOM     67  C   UNL     1      11.631  -9.742  13.604  1.00  0.00     0.055 A 
ATOM     68  C   UNL     1      10.613  -7.753  14.501  1.00  0.00     0.041 A 
ATOM     69  F   UNL     1       8.280  -7.595  14.627  1.00  0.00    -0.206 F 
ATOM     70  C   UNL     1      11.758  -8.477  14.185  1.00  0.00     0.022 A 
BRANCH  67  71
ATOM     71  S   UNL     1      13.155 -10.683  13.308  1.00  0.00     0.124 S 
ATOM     72  O   UNL     1      13.886  -9.795  12.407  1.00  0.00    -0.237 OA
ATOM     73  O   UNL     1      13.709 -10.796  14.655  1.00  0.00    -0.237 OA
ATOM     74  O   UNL     1      12.688 -11.928  12.709  1.00  0.00    -0.744 OA
ENDBRANCH  67  71
ENDBRANCH  50  64
BRANCH  51  75
ATOM     75  C   UNL     1       0.222 -13.857  12.549  1.00  0.00     0.023 A 
ATOM     76  C   UNL     1      -0.249 -14.254  11.285  1.00  0.00     0.031 A 
ATOM     77  C   UNL     1      -0.669 -13.914  13.635  1.00  0.00     0.131 A 
ATOM     78  C   UNL     1      -1.593 -14.619  11.126  1.00  0.00     0.055 A 
ATOM     79  C   UNL     1      -1.985 -14.352  13.486  1.00  0.00     0.041 A 
ATOM     80  F   UNL     1      -0.272 -13.524  14.856  1.00  0.00    -0.206 F 
ATOM     81  C   UNL     1      -2.459 -14.688  12.222  1.00  0.00     0.022 A 
BRANCH  78  82
ATOM     82  S   UNL     1      -2.300 -14.863   9.473  1.00  0.00     0.124 S 
ATOM     83  O   UNL     1      -2.745 -16.252   9.534  1.00  0.00    -0.237 OA
ATOM     84  O   UNL     1      -3.363 -13.860   9.452  1.00  0.00    -0.237 OA
ATOM     85  O   UNL     1      -1.181 -14.597   8.576  1.00  0.00    -0.744 OA
ENDBRANCH  78  82
ENDBRANCH  51  75
BRANCH  63  86
ATOM     86  C   UNL     1       5.940 -15.429  16.329  1.00  0.00     0.023 A 
ATOM     87  C   UNL     1       6.275 -15.184  17.675  1.00  0.00     0.031 A 
ATOM     88  C   UNL     1       6.061 -16.745  15.847  1.00  0.00     0.131 A 
ATOM     89  C   UNL     1       6.739 -16.233  18.482  1.00  0.00     0.055 A 
ATOM     90  C   UNL     1       6.474 -17.795  16.668  1.00  0.00     0.041 A 
ATOM     91  F   UNL     1       5.769 -17.032  14.568  1.00  0.00    -0.206 F 
ATOM     92  C   UNL     1       6.827 -17.539  17.989  1.00  0.00     0.022 A 
BRANCH  89  93
ATOM     93  S   UNL     1       7.328 -15.930  20.171  1.00  0.00     0.124 S 
ATOM     94  O   UNL     1       6.368 -16.693  20.965  1.00  0.00    -0.237 OA
ATOM     95  O   UNL     1       8.680 -16.480  20.130  1.00  0.00    -0.237 OA
ATOM     96  O   UNL     1       7.246 -14.480  20.318  1.00  0.00    -0.744 OA
ENDBRANCH  89  93
ENDBRANCH  63  86
ENDBRANCH  37  38
ENDBRANCH  30  32
ENDBRANCH  29  30
ENDBRANCH  28  29
ENDBRANCH   1  28
TORSDOF 17
