REMARK SMILES O=C(OCCOC(=O)c1ccc2c(=O)n(Cc3cccnc3)c(=O)[nH]c2c1)c1ccc(-c2c3nc(c(-c4cc(S(=O)(=O)[O-])ccc4F)c4ccc([nH]4)c(-c4cc(S(=O)(=O)[O-])ccc4F)c4nc(c(-c5cc(S(=O)(=O)[O-])ccc5F)c5ccc2[nH]5)C=C4)C=C3)cc1
REMARK SMILES IDX 4 1 3 2 2 3 1 4 28 5 29 6 90 7 30 8 89 9 31 10 32 11 33 12
REMARK SMILES IDX 83 13 34 14 88 15 82 16 84 17 35 18 87 19 81 20 80 21 36 23
REMARK SMILES IDX 68 24 48 25 67 26 49 27 52 28 66 29 85 30 50 31 51 32 65 34
REMARK SMILES IDX 86 35 53 36 37 37 38 38 46 39 39 40 45 41 47 42 44 43 40 44
REMARK SMILES IDX 41 45 42 46 43 47 69 48 70 49 78 50 71 51 77 52 79 53 76 54
REMARK SMILES IDX 72 55 73 56 74 57 75 58 54 59 55 60 63 61 56 62 62 63 64 64
REMARK SMILES IDX 61 65 57 66 58 67 59 68 60 69 5 70 6 71 7 72 8 73 9 74 10 75
REMARK SMILES IDX 27 76 11 77 26 78 12 79 25 80 13 81 23 82 14 84 15 85 24 86
REMARK SMILES IDX 16 87 17 88 18 89 22 90 19 91 21 92 20 93
REMARK H PARENT 84 22 52 33 25 83
REMARK Flexibility Score: inf
ROOT
ATOM      1  C   UNL     1       4.186  -1.219   0.681  1.00  0.00     0.275 C 
ENDROOT
BRANCH   1   2
ATOM      2  O   UNL     1       3.291  -0.155   1.044  1.00  0.00    -0.458 OA
BRANCH   2   3
ATOM      3  C   UNL     1       3.233   1.112   0.568  1.00  0.00     0.338 C 
ATOM      4  O   UNL     1       2.562   1.941   1.182  1.00  0.00    -0.246 OA
BRANCH   3   5
ATOM      5  C   UNL     1       3.767   1.499  -0.775  1.00  0.00     0.060 A 
ATOM      6  C   UNL     1       3.022   2.462  -1.471  1.00  0.00     0.016 A 
ATOM      7  C   UNL     1       4.914   0.997  -1.394  1.00  0.00     0.016 A 
ATOM      8  C   UNL     1       3.323   2.787  -2.796  1.00  0.00     0.010 A 
ATOM      9  C   UNL     1       5.229   1.334  -2.718  1.00  0.00     0.010 A 
ATOM     10  C   UNL     1       4.414   2.201  -3.446  1.00  0.00    -0.014 A 
BRANCH  10  11
ATOM     11  C   UNL     1       4.798   2.643  -4.808  1.00  0.00     0.031 A 
ATOM     12  C   UNL     1       4.752   1.732  -6.002  1.00  0.00     0.074 A 
ATOM     13  C   UNL     1       5.237   3.907  -4.942  1.00  0.00     0.049 A 
ATOM     14  N   UNL     1       4.927   2.033  -7.262  1.00  0.00    -0.248 NA
ATOM     15  C   UNL     1       4.450   0.312  -5.771  1.00  0.00     0.031 C 
ATOM     16  C   UNL     1       5.356   4.866  -3.843  1.00  0.00     0.029 A 
ATOM     17  N   UNL     1       5.694   4.591  -6.037  1.00  0.00    -0.354 N 
ATOM     18  C   UNL     1       4.657   0.873  -7.977  1.00  0.00     0.074 A 
ATOM     19  C   UNL     1       4.375  -0.162  -7.011  1.00  0.00     0.031 C 
ATOM     20  C   UNL     1       5.875   6.005  -4.313  1.00  0.00     0.029 A 
ATOM     21  C   UNL     1       6.187   5.834  -5.728  1.00  0.00     0.049 A 
ATOM     22  H   UNL     1       5.671   4.228  -6.952  1.00  0.00     0.167 HD
ATOM     23  C   UNL     1       4.642   0.705  -9.319  1.00  0.00     0.034 A 
ATOM     24  C   UNL     1       6.868   6.723  -6.477  1.00  0.00     0.034 A 
ATOM     25  C   UNL     1       5.081   1.716 -10.246  1.00  0.00     0.049 A 
ATOM     26  C   UNL     1       7.044   6.439  -7.939  1.00  0.00     0.074 A 
ATOM     27  C   UNL     1       5.046   1.679 -11.627  1.00  0.00     0.029 A 
ATOM     28  N   UNL     1       5.711   2.897  -9.889  1.00  0.00    -0.354 N 
ATOM     29  N   UNL     1       6.635   5.396  -8.625  1.00  0.00    -0.248 NA
ATOM     30  C   UNL     1       7.743   7.447  -8.744  1.00  0.00     0.031 C 
ATOM     31  C   UNL     1       5.734   2.796 -12.103  1.00  0.00     0.029 A 
ATOM     32  C   UNL     1       6.101   3.587 -11.024  1.00  0.00     0.049 A 
ATOM     33  H   UNL     1       5.860   3.202  -8.964  1.00  0.00     0.167 HD
ATOM     34  C   UNL     1       7.002   5.633  -9.943  1.00  0.00     0.074 A 
ATOM     35  C   UNL     1       7.661   6.922  -9.961  1.00  0.00     0.031 C 
ATOM     36  C   UNL     1       6.788   4.858 -11.036  1.00  0.00     0.034 A 
BRANCH  23  37
ATOM     37  C   UNL     1       4.135  -0.587  -9.906  1.00  0.00     0.023 A 
ATOM     38  C   UNL     1       4.999  -1.426 -10.632  1.00  0.00     0.031 A 
ATOM     39  C   UNL     1       2.756  -0.867  -9.932  1.00  0.00     0.131 A 
ATOM     40  C   UNL     1       4.471  -2.477 -11.393  1.00  0.00     0.055 A 
ATOM     41  C   UNL     1       2.237  -1.928 -10.678  1.00  0.00     0.041 A 
ATOM     42  F   UNL     1       1.892  -0.091  -9.260  1.00  0.00    -0.206 F 
ATOM     43  C   UNL     1       3.095  -2.731 -11.424  1.00  0.00     0.022 A 
BRANCH  40  44
ATOM     44  S   UNL     1       5.545  -3.524 -12.414  1.00  0.00     0.124 S 
ATOM     45  O   UNL     1       5.193  -4.863 -11.945  1.00  0.00    -0.237 OA
ATOM     46  O   UNL     1       5.097  -3.198 -13.764  1.00  0.00    -0.237 OA
ATOM     47  O   UNL     1       6.891  -3.084 -12.066  1.00  0.00    -0.744 OA
ENDBRANCH  40  44
ENDBRANCH  23  37
BRANCH  24  48
ATOM     48  C   UNL     1       7.408   7.935  -5.798  1.00  0.00     0.023 A 
ATOM     49  C   UNL     1       8.314   7.789  -4.726  1.00  0.00     0.031 A 
ATOM     50  C   UNL     1       6.898   9.212  -6.063  1.00  0.00     0.131 A 
ATOM     51  C   UNL     1       8.598   8.879  -3.896  1.00  0.00     0.055 A 
ATOM     52  C   UNL     1       7.245  10.315  -5.279  1.00  0.00     0.041 A 
ATOM     53  F   UNL     1       6.030   9.399  -7.068  1.00  0.00    -0.206 F 
ATOM     54  C   UNL     1       8.077  10.145  -4.173  1.00  0.00     0.022 A 
BRANCH  51  55
ATOM     55  S   UNL     1       9.487   8.638  -2.330  1.00  0.00     0.124 S 
ATOM     56  O   UNL     1      10.722   9.379  -2.567  1.00  0.00    -0.237 OA
ATOM     57  O   UNL     1       8.569   9.235  -1.362  1.00  0.00    -0.237 OA
ATOM     58  O   UNL     1       9.628   7.189  -2.231  1.00  0.00    -0.744 OA
ENDBRANCH  51  55
ENDBRANCH  24  48
BRANCH  36  59
ATOM     59  C   UNL     1       7.271   5.352 -12.374  1.00  0.00     0.023 A 
ATOM     60  C   UNL     1       6.340   5.602 -13.400  1.00  0.00     0.031 A 
ATOM     61  C   UNL     1       8.639   5.399 -12.687  1.00  0.00     0.131 A 
ATOM     62  C   UNL     1       6.787   5.810 -14.708  1.00  0.00     0.055 A 
ATOM     63  C   UNL     1       9.081   5.670 -13.982  1.00  0.00     0.041 A 
ATOM     64  F   UNL     1       9.562   5.165 -11.741  1.00  0.00    -0.206 F 
ATOM     65  C   UNL     1       8.153   5.855 -15.004  1.00  0.00     0.022 A 
BRANCH  62  66
ATOM     66  S   UNL     1       5.612   5.907 -16.087  1.00  0.00     0.124 S 
ATOM     67  O   UNL     1       5.910   7.224 -16.645  1.00  0.00    -0.237 OA
ATOM     68  O   UNL     1       6.015   4.773 -16.912  1.00  0.00    -0.237 OA
ATOM     69  O   UNL     1       4.307   5.785 -15.445  1.00  0.00    -0.744 OA
ENDBRANCH  62  66
ENDBRANCH  36  59
ENDBRANCH  10  11
ENDBRANCH   3   5
ENDBRANCH   2   3
ENDBRANCH   1   2
BRANCH   1  70
ATOM     70  C   UNL     1       3.668  -2.146  -0.423  1.00  0.00     0.275 C 
BRANCH  70  71
ATOM     71  O   UNL     1       3.082  -1.462  -1.542  1.00  0.00    -0.458 OA
BRANCH  71  72
ATOM     72  C   UNL     1       1.724  -1.359  -1.517  1.00  0.00     0.338 C 
ATOM     73  O   UNL     1       0.971  -1.760  -0.659  1.00  0.00    -0.246 OA
BRANCH  72  74
ATOM     74  C   UNL     1       1.288  -0.548  -2.676  1.00  0.00     0.062 A 
ATOM     75  C   UNL     1       1.589  -0.936  -3.985  1.00  0.00     0.016 A 
ATOM     76  C   UNL     1       0.612   0.652  -2.427  1.00  0.00     0.042 A 
ATOM     77  C   UNL     1       1.244  -0.095  -5.049  1.00  0.00     0.017 A 
ATOM     78  C   UNL     1       0.368   1.528  -3.488  1.00  0.00     0.056 A 
ATOM     79  C   UNL     1       0.673   1.156  -4.790  1.00  0.00     0.064 A 
ATOM     80  N   UNL     1      -0.090   2.821  -3.241  1.00  0.00    -0.307 N 
ATOM     81  C   UNL     1       0.402   2.118  -5.875  1.00  0.00     0.264 A 
ATOM     82  C   UNL     1      -0.178   3.798  -4.198  1.00  0.00     0.329 A 
ATOM     83  H   UNL     1      -0.368   3.046  -2.323  1.00  0.00     0.171 HD
ATOM     84  O   UNL     1       0.381   1.704  -7.029  1.00  0.00    -0.268 OA
ATOM     85  N   UNL     1       0.121   3.429  -5.499  1.00  0.00    -0.255 N 
ATOM     86  O   UNL     1      -0.542   4.922  -3.856  1.00  0.00    -0.248 OA
BRANCH  85  87
ATOM     87  C   UNL     1      -0.084   4.414  -6.556  1.00  0.00     0.168 C 
BRANCH  87  88
ATOM     88  C   UNL     1       1.163   5.064  -7.101  1.00  0.00    -0.010 A 
ATOM     89  C   UNL     1       2.001   4.411  -8.009  1.00  0.00     0.009 A 
ATOM     90  C   UNL     1       1.459   6.397  -6.820  1.00  0.00     0.116 A 
ATOM     91  C   UNL     1       3.043   5.108  -8.614  1.00  0.00     0.020 A 
ATOM     92  N   UNL     1       2.465   7.101  -7.391  1.00  0.00    -0.264 NA
ATOM     93  C   UNL     1       3.234   6.436  -8.281  1.00  0.00     0.111 A 
ENDBRANCH  87  88
ENDBRANCH  85  87
ENDBRANCH  72  74
ENDBRANCH  71  72
ENDBRANCH  70  71
ENDBRANCH   1  70
TORSDOF 16
