REMARK SMILES O=C(/C=C/c1ccc(S(=O)(=O)Nc2ccc3c(c2)OCCO3)cc1)OCCOC(=O)c1ccc(-c2c3nc(c(-c4cc(S(=O)(=O)[O-])ccc4F)c4ccc([nH]4)c(-c4cc(S(=O)(=O)[O-])ccc4F)c4nc(c(-c5cc(S(=O)(=O)[O-])ccc5F)c5ccc2[nH]5)C=C4)C=C3)cc1
REMARK SMILES IDX 26 1 25 2 2 3 1 4 3 5 4 6 5 7 6 8 24 9 7 10 23 11 8 12 9 13
REMARK SMILES IDX 10 14 11 15 12 16 13 18 14 19 18 20 15 21 17 22 16 23 19 24
REMARK SMILES IDX 22 25 20 26 21 27 27 28 28 29 29 30 30 31 31 32 32 33 93 34
REMARK SMILES IDX 33 35 92 36 34 37 35 38 36 39 86 40 37 41 91 42 85 43 87 44
REMARK SMILES IDX 38 45 90 46 84 47 83 48 39 50 71 51 51 52 70 53 52 54 55 55
REMARK SMILES IDX 69 56 88 57 53 58 54 59 68 61 89 62 56 63 40 64 41 65 49 66
REMARK SMILES IDX 42 67 48 68 50 69 47 70 43 71 44 72 45 73 46 74 72 75 73 76
REMARK SMILES IDX 81 77 74 78 80 79 82 80 79 81 75 82 76 83 77 84 78 85 57 86
REMARK SMILES IDX 58 87 66 88 59 89 65 90 67 91 64 92 60 93 61 94 62 95 63 96
REMARK H PARENT 12 17 87 49 55 60
REMARK Flexibility Score: inf
ROOT
ATOM      1  C   UNL     1       4.169   0.444  -1.272  1.00  0.00     0.275 C 
ENDROOT
BRANCH   1   2
ATOM      2  O   UNL     1       3.002  -0.349  -0.976  1.00  0.00    -0.459 OA
BRANCH   2   3
ATOM      3  C   UNL     1       2.776  -1.108   0.122  1.00  0.00     0.330 C 
ATOM      4  O   UNL     1       1.935  -2.002   0.104  1.00  0.00    -0.247 OA
BRANCH   3   5
ATOM      5  C   UNL     1       3.385  -0.746   1.416  1.00  0.00     0.094 C 
ATOM      6  C   UNL     1       4.686  -0.553   1.668  1.00  0.00     0.015 C 
BRANCH   6   7
ATOM      7  C   UNL     1       5.280  -0.090   2.936  1.00  0.00    -0.025 A 
ATOM      8  C   UNL     1       6.634   0.272   2.916  1.00  0.00     0.009 A 
ATOM      9  C   UNL     1       4.592  -0.012   4.154  1.00  0.00     0.009 A 
ATOM     10  C   UNL     1       7.311   0.584   4.096  1.00  0.00     0.023 A 
ATOM     11  C   UNL     1       5.251   0.363   5.334  1.00  0.00     0.023 A 
ATOM     12  C   UNL     1       6.628   0.579   5.315  1.00  0.00     0.087 A 
BRANCH  12  13
ATOM     13  S   UNL     1       7.608   0.638   6.812  1.00  0.00     0.261 S 
ATOM     14  O   UNL     1       8.899   0.064   6.482  1.00  0.00    -0.201 OA
ATOM     15  O   UNL     1       7.508   1.986   7.326  1.00  0.00    -0.201 OA
BRANCH  13  16
ATOM     16  N   UNL     1       6.885  -0.386   7.957  1.00  0.00    -0.279 N 
ATOM     17  H   UNL     1       6.910  -0.155   8.913  1.00  0.00     0.180 HD
BRANCH  16  18
ATOM     18  C   UNL     1       6.241  -1.584   7.524  1.00  0.00     0.053 A 
ATOM     19  C   UNL     1       4.913  -1.772   7.916  1.00  0.00     0.031 A 
ATOM     20  C   UNL     1       6.823  -2.434   6.585  1.00  0.00     0.077 A 
ATOM     21  C   UNL     1       4.111  -2.683   7.233  1.00  0.00     0.052 A 
ATOM     22  C   UNL     1       6.000  -3.283   5.847  1.00  0.00     0.163 A 
ATOM     23  C   UNL     1       4.635  -3.359   6.141  1.00  0.00     0.161 A 
ATOM     24  O   UNL     1       6.573  -3.904   4.767  1.00  0.00    -0.486 OA
ATOM     25  O   UNL     1       3.743  -3.998   5.318  1.00  0.00    -0.486 OA
ATOM     26  C   UNL     1       5.620  -4.577   3.932  1.00  0.00     0.271 C 
ATOM     27  C   UNL     1       4.245  -3.930   3.979  1.00  0.00     0.271 C 
ENDBRANCH  16  18
ENDBRANCH  13  16
ENDBRANCH  12  13
ENDBRANCH   6   7
ENDBRANCH   3   5
ENDBRANCH   2   3
ENDBRANCH   1   2
BRANCH   1  28
ATOM     28  C   UNL     1       4.091   1.917  -0.859  1.00  0.00     0.275 C 
BRANCH  28  29
ATOM     29  O   UNL     1       3.704   2.109   0.510  1.00  0.00    -0.458 OA
BRANCH  29  30
ATOM     30  C   UNL     1       2.370   2.313   0.695  1.00  0.00     0.338 C 
ATOM     31  O   UNL     1       1.534   2.400  -0.180  1.00  0.00    -0.246 OA
BRANCH  30  32
ATOM     32  C   UNL     1       2.034   2.249   2.141  1.00  0.00     0.060 A 
ATOM     33  C   UNL     1       0.827   1.635   2.497  1.00  0.00     0.016 A 
ATOM     34  C   UNL     1       2.873   2.757   3.137  1.00  0.00     0.016 A 
ATOM     35  C   UNL     1       0.448   1.540   3.840  1.00  0.00     0.010 A 
ATOM     36  C   UNL     1       2.491   2.657   4.485  1.00  0.00     0.010 A 
ATOM     37  C   UNL     1       1.268   2.062   4.849  1.00  0.00    -0.014 A 
BRANCH  37  38
ATOM     38  C   UNL     1       0.782   2.113   6.258  1.00  0.00     0.031 A 
ATOM     39  C   UNL     1       0.347   3.438   6.832  1.00  0.00     0.074 A 
ATOM     40  C   UNL     1       0.669   1.005   7.018  1.00  0.00     0.049 A 
ATOM     41  N   UNL     1      -0.103   3.717   8.030  1.00  0.00    -0.248 NA
ATOM     42  C   UNL     1       0.420   4.596   5.930  1.00  0.00     0.031 C 
ATOM     43  C   UNL     1       0.969  -0.360   6.589  1.00  0.00     0.029 A 
ATOM     44  N   UNL     1       0.262   0.860   8.325  1.00  0.00    -0.354 N 
ATOM     45  C   UNL     1      -0.400   5.075   8.015  1.00  0.00     0.074 A 
ATOM     46  C   UNL     1       0.003   5.576   6.717  1.00  0.00     0.031 C 
ATOM     47  C   UNL     1       0.748  -1.198   7.619  1.00  0.00     0.029 A 
ATOM     48  C   UNL     1       0.345  -0.431   8.793  1.00  0.00     0.049 A 
ATOM     49  H   UNL     1      -0.059   1.611   8.874  1.00  0.00     0.167 HD
ATOM     50  C   UNL     1      -0.991   5.833   8.972  1.00  0.00     0.034 A 
ATOM     51  C   UNL     1       0.149  -0.938  10.028  1.00  0.00     0.034 A 
ATOM     52  C   UNL     1      -1.379   5.348  10.273  1.00  0.00     0.049 A 
ATOM     53  C   UNL     1      -0.327  -0.042  11.141  1.00  0.00     0.074 A 
ATOM     54  C   UNL     1      -2.006   6.038  11.298  1.00  0.00     0.029 A 
ATOM     55  N   UNL     1      -1.163   4.060  10.742  1.00  0.00    -0.354 N 
ATOM     56  N   UNL     1      -0.607   1.239  11.107  1.00  0.00    -0.248 NA
ATOM     57  C   UNL     1      -0.537  -0.671  12.453  1.00  0.00     0.031 C 
ATOM     58  C   UNL     1      -2.099   5.192  12.409  1.00  0.00     0.029 A 
ATOM     59  C   UNL     1      -1.605   3.948  12.053  1.00  0.00     0.049 A 
ATOM     60  H   UNL     1      -0.756   3.331  10.220  1.00  0.00     0.167 HD
ATOM     61  C   UNL     1      -1.081   1.554  12.378  1.00  0.00     0.074 A 
ATOM     62  C   UNL     1      -1.032   0.336  13.158  1.00  0.00     0.031 C 
ATOM     63  C   UNL     1      -1.543   2.742  12.844  1.00  0.00     0.034 A 
BRANCH  50  64
ATOM     64  C   UNL     1      -1.230   7.285   8.641  1.00  0.00     0.023 A 
ATOM     65  C   UNL     1      -2.106   7.667   7.609  1.00  0.00     0.031 A 
ATOM     66  C   UNL     1      -0.554   8.298   9.341  1.00  0.00     0.131 A 
ATOM     67  C   UNL     1      -2.223   9.019   7.256  1.00  0.00     0.055 A 
ATOM     68  C   UNL     1      -0.738   9.648   9.039  1.00  0.00     0.041 A 
ATOM     69  F   UNL     1       0.310   7.991  10.322  1.00  0.00    -0.206 F 
ATOM     70  C   UNL     1      -1.565  10.014   7.981  1.00  0.00     0.022 A 
BRANCH  67  71
ATOM     71  S   UNL     1      -3.130   9.442   5.743  1.00  0.00     0.124 S 
ATOM     72  O   UNL     1      -2.389   8.687   4.735  1.00  0.00    -0.237 OA
ATOM     73  O   UNL     1      -4.476   8.964   6.038  1.00  0.00    -0.237 OA
ATOM     74  O   UNL     1      -2.988  10.893   5.654  1.00  0.00    -0.744 OA
ENDBRANCH  67  71
ENDBRANCH  50  64
BRANCH  51  75
ATOM     75  C   UNL     1       0.488  -2.358  10.327  1.00  0.00     0.023 A 
ATOM     76  C   UNL     1      -0.492  -3.305  10.654  1.00  0.00     0.031 A 
ATOM     77  C   UNL     1       1.836  -2.746  10.404  1.00  0.00     0.131 A 
ATOM     78  C   UNL     1      -0.102  -4.587  11.079  1.00  0.00     0.055 A 
ATOM     79  C   UNL     1       2.217  -4.037  10.766  1.00  0.00     0.041 A 
ATOM     80  F   UNL     1       2.805  -1.853  10.153  1.00  0.00    -0.206 F 
ATOM     81  C   UNL     1       1.243  -4.964  11.119  1.00  0.00     0.022 A 
BRANCH  78  82
ATOM     82  S   UNL     1      -1.378  -5.726  11.685  1.00  0.00     0.124 S 
ATOM     83  O   UNL     1      -1.915  -4.988  12.822  1.00  0.00    -0.237 OA
ATOM     84  O   UNL     1      -2.253  -5.845  10.524  1.00  0.00    -0.237 OA
ATOM     85  O   UNL     1      -0.624  -6.933  12.021  1.00  0.00    -0.744 OA
ENDBRANCH  78  82
ENDBRANCH  51  75
BRANCH  63  86
ATOM     86  C   UNL     1      -2.099   2.763  14.247  1.00  0.00     0.023 A 
ATOM     87  C   UNL     1      -1.288   2.555  15.376  1.00  0.00     0.031 A 
ATOM     88  C   UNL     1      -3.477   2.966  14.452  1.00  0.00     0.131 A 
ATOM     89  C   UNL     1      -1.870   2.496  16.653  1.00  0.00     0.055 A 
ATOM     90  C   UNL     1      -4.039   2.968  15.729  1.00  0.00     0.041 A 
ATOM     91  F   UNL     1      -4.301   3.162  13.411  1.00  0.00    -0.206 F 
ATOM     92  C   UNL     1      -3.237   2.718  16.838  1.00  0.00     0.022 A 
BRANCH  89  93
ATOM     93  S   UNL     1      -0.830   2.027  18.064  1.00  0.00     0.124 S 
ATOM     94  O   UNL     1      -0.343   0.713  17.657  1.00  0.00    -0.237 OA
ATOM     95  O   UNL     1       0.164   3.095  18.087  1.00  0.00    -0.237 OA
ATOM     96  O   UNL     1      -1.761   2.023  19.191  1.00  0.00    -0.744 OA
ENDBRANCH  89  93
ENDBRANCH  63  86
ENDBRANCH  37  38
ENDBRANCH  30  32
ENDBRANCH  29  30
ENDBRANCH  28  29
ENDBRANCH   1  28
TORSDOF 18
