REMARK SMILES O=C(COc1ncc(C(F)(F)F)cc1Cl)OCCOC(=O)c1ccc(-c2c3nc(c(-c4cc(S(=O)(=O)[O-])ccc4F)c4ccc([nH]4)c(-c4cc(S(=O)(=O)[O-])ccc4F)c4nc(c(-c5cc(S(=O)(=O)[O-])ccc5F)c5ccc2[nH]5)C=C4)C=C3)cc1
REMARK SMILES IDX 17 1 16 2 2 3 1 4 3 5 4 6 5 7 6 8 14 9 7 10 13 11 15 12 8 13
REMARK SMILES IDX 9 14 10 15 11 16 12 17 18 18 19 19 20 20 21 21 22 22 23 23
REMARK SMILES IDX 84 24 24 25 83 26 25 27 26 28 27 29 77 30 28 31 82 32 76 33
REMARK SMILES IDX 78 34 29 35 81 36 75 37 74 38 30 40 62 41 42 42 61 43 43 44
REMARK SMILES IDX 46 45 60 46 79 47 44 48 45 49 59 51 80 52 47 53 31 54 32 55
REMARK SMILES IDX 40 56 33 57 39 58 41 59 38 60 34 61 35 62 36 63 37 64 63 65
REMARK SMILES IDX 64 66 72 67 65 68 71 69 73 70 70 71 66 72 67 73 68 74 69 75
REMARK SMILES IDX 48 76 49 77 57 78 50 79 56 80 58 81 55 82 51 83 52 84 53 85
REMARK SMILES IDX 54 86
REMARK H PARENT 78 39 46 50
REMARK Flexibility Score: inf
ROOT
ATOM      1  C   UNL     1       4.393  -1.212   0.077  1.00  0.00     0.274 C 
ENDROOT
BRANCH   1   2
ATOM      2  O   UNL     1       3.009  -1.029   0.442  1.00  0.00    -0.460 OA
BRANCH   2   3
ATOM      3  C   UNL     1       2.338   0.141   0.290  1.00  0.00     0.344 C 
ATOM      4  O   UNL     1       1.110   0.167   0.338  1.00  0.00    -0.248 OA
BRANCH   3   5
ATOM      5  C   UNL     1       3.143   1.418   0.131  1.00  0.00     0.353 C 
BRANCH   5   6
ATOM      6  O   UNL     1       3.860   1.677   1.336  1.00  0.00    -0.465 OA
BRANCH   6   7
ATOM      7  C   UNL     1       3.255   2.711   2.003  1.00  0.00     0.233 A 
ATOM      8  N   UNL     1       3.586   3.947   1.565  1.00  0.00    -0.220 NA
ATOM      9  C   UNL     1       2.417   2.469   3.086  1.00  0.00     0.103 A 
ATOM     10  C   UNL     1       3.039   4.995   2.226  1.00  0.00     0.128 A 
ATOM     11  C   UNL     1       1.855   3.565   3.731  1.00  0.00     0.041 A 
ATOM     12  Cl  UNL     1       2.070   0.884   3.659  1.00  0.00    -0.078 Cl
ATOM     13  C   UNL     1       2.171   4.861   3.302  1.00  0.00     0.076 A 
BRANCH  13  14
ATOM     14  C   UNL     1       1.656   6.078   4.008  1.00  0.00     0.417 C 
ATOM     15  F   UNL     1       2.578   6.592   4.868  1.00  0.00    -0.166 F 
ATOM     16  F   UNL     1       1.317   7.085   3.165  1.00  0.00    -0.166 F 
ATOM     17  F   UNL     1       0.550   5.825   4.763  1.00  0.00    -0.166 F 
ENDBRANCH  13  14
ENDBRANCH   6   7
ENDBRANCH   5   6
ENDBRANCH   3   5
ENDBRANCH   2   3
ENDBRANCH   1   2
BRANCH   1  18
ATOM     18  C   UNL     1       4.503  -1.741  -1.354  1.00  0.00     0.275 C 
BRANCH  18  19
ATOM     19  O   UNL     1       4.039  -0.745  -2.283  1.00  0.00    -0.458 OA
BRANCH  19  20
ATOM     20  C   UNL     1       2.770  -0.906  -2.741  1.00  0.00     0.338 C 
ATOM     21  O   UNL     1       2.030  -1.848  -2.525  1.00  0.00    -0.246 OA
BRANCH  20  22
ATOM     22  C   UNL     1       2.356   0.351  -3.397  1.00  0.00     0.060 A 
ATOM     23  C   UNL     1       1.124   0.918  -3.048  1.00  0.00     0.016 A 
ATOM     24  C   UNL     1       3.187   0.983  -4.326  1.00  0.00     0.016 A 
ATOM     25  C   UNL     1       0.725   2.129  -3.621  1.00  0.00     0.010 A 
ATOM     26  C   UNL     1       2.779   2.184  -4.909  1.00  0.00     0.010 A 
ATOM     27  C   UNL     1       1.545   2.763  -4.564  1.00  0.00    -0.014 A 
BRANCH  27  28
ATOM     28  C   UNL     1       1.101   3.993  -5.264  1.00  0.00     0.031 A 
ATOM     29  C   UNL     1       0.448   3.872  -6.611  1.00  0.00     0.074 A 
ATOM     30  C   UNL     1       1.342   5.205  -4.729  1.00  0.00     0.049 A 
ATOM     31  N   UNL     1       0.109   4.812  -7.452  1.00  0.00    -0.248 NA
ATOM     32  C   UNL     1       0.145   2.508  -7.072  1.00  0.00     0.031 C 
ATOM     33  C   UNL     1       1.943   5.444  -3.417  1.00  0.00     0.029 A 
ATOM     34  N   UNL     1       1.139   6.464  -5.239  1.00  0.00    -0.354 N 
ATOM     35  C   UNL     1      -0.443   4.158  -8.548  1.00  0.00     0.074 A 
ATOM     36  C   UNL     1      -0.378   2.739  -8.268  1.00  0.00     0.031 C 
ATOM     37  C   UNL     1       2.094   6.769  -3.243  1.00  0.00     0.029 A 
ATOM     38  C   UNL     1       1.641   7.468  -4.444  1.00  0.00     0.049 A 
ATOM     39  H   UNL     1       0.678   6.631  -6.093  1.00  0.00     0.167 HD
ATOM     40  C   UNL     1      -0.953   4.695  -9.682  1.00  0.00     0.034 A 
ATOM     41  C   UNL     1       1.762   8.791  -4.679  1.00  0.00     0.034 A 
ATOM     42  C   UNL     1      -1.003   6.109  -9.953  1.00  0.00     0.049 A 
ATOM     43  C   UNL     1       1.276   9.352  -5.997  1.00  0.00     0.074 A 
ATOM     44  C   UNL     1      -1.558   6.756 -11.043  1.00  0.00     0.029 A 
ATOM     45  N   UNL     1      -0.454   7.093  -9.144  1.00  0.00    -0.354 N 
ATOM     46  N   UNL     1       0.706   8.726  -7.002  1.00  0.00    -0.248 NA
ATOM     47  C   UNL     1       1.454  10.795  -6.215  1.00  0.00     0.031 C 
ATOM     48  C   UNL     1      -1.278   8.122 -10.931  1.00  0.00     0.029 A 
ATOM     49  C   UNL     1      -0.609   8.337  -9.737  1.00  0.00     0.049 A 
ATOM     50  H   UNL     1      -0.018   6.932  -8.276  1.00  0.00     0.167 HD
ATOM     51  C   UNL     1       0.436   9.706  -7.955  1.00  0.00     0.074 A 
ATOM     52  C   UNL     1       0.890  10.963  -7.402  1.00  0.00     0.031 C 
ATOM     53  C   UNL     1      -0.137   9.581  -9.179  1.00  0.00     0.034 A 
BRANCH  40  54
ATOM     54  C   UNL     1      -1.450   3.748 -10.741  1.00  0.00     0.023 A 
ATOM     55  C   UNL     1      -2.608   2.973 -10.560  1.00  0.00     0.031 A 
ATOM     56  C   UNL     1      -0.758   3.634 -11.960  1.00  0.00     0.131 A 
ATOM     57  C   UNL     1      -3.018   2.088 -11.569  1.00  0.00     0.055 A 
ATOM     58  C   UNL     1      -1.203   2.796 -12.982  1.00  0.00     0.041 A 
ATOM     59  F   UNL     1       0.366   4.337 -12.174  1.00  0.00    -0.206 F 
ATOM     60  C   UNL     1      -2.336   2.011 -12.786  1.00  0.00     0.022 A 
BRANCH  57  61
ATOM     61  S   UNL     1      -4.409   0.974 -11.237  1.00  0.00     0.124 S 
ATOM     62  O   UNL     1      -3.901   0.193 -10.112  1.00  0.00    -0.237 OA
ATOM     63  O   UNL     1      -5.492   1.902 -10.934  1.00  0.00    -0.237 OA
ATOM     64  O   UNL     1      -4.558   0.230 -12.486  1.00  0.00    -0.744 OA
ENDBRANCH  57  61
ENDBRANCH  40  54
BRANCH  41  65
ATOM     65  C   UNL     1       2.443   9.684  -3.696  1.00  0.00     0.023 A 
ATOM     66  C   UNL     1       1.765  10.758  -3.099  1.00  0.00     0.031 A 
ATOM     67  C   UNL     1       3.814   9.535  -3.417  1.00  0.00     0.131 A 
ATOM     68  C   UNL     1       2.470  11.678  -2.306  1.00  0.00     0.055 A 
ATOM     69  C   UNL     1       4.498  10.418  -2.579  1.00  0.00     0.041 A 
ATOM     70  F   UNL     1       4.514   8.529  -3.965  1.00  0.00    -0.206 F 
ATOM     71  C   UNL     1       3.829  11.508  -2.033  1.00  0.00     0.022 A 
BRANCH  68  72
ATOM     72  S   UNL     1       1.611  13.171  -1.737  1.00  0.00     0.124 S 
ATOM     73  O   UNL     1       1.127  13.732  -2.994  1.00  0.00    -0.237 OA
ATOM     74  O   UNL     1       0.597  12.614  -0.849  1.00  0.00    -0.237 OA
ATOM     75  O   UNL     1       2.665  13.938  -1.076  1.00  0.00    -0.744 OA
ENDBRANCH  68  72
ENDBRANCH  41  65
BRANCH  53  76
ATOM     76  C   UNL     1      -0.331  10.842  -9.982  1.00  0.00     0.023 A 
ATOM     77  C   UNL     1       0.758  11.546 -10.524  1.00  0.00     0.031 A 
ATOM     78  C   UNL     1      -1.625  11.344 -10.212  1.00  0.00     0.131 A 
ATOM     79  C   UNL     1       0.537  12.737 -11.233  1.00  0.00     0.055 A 
ATOM     80  C   UNL     1      -1.842  12.499 -10.964  1.00  0.00     0.041 A 
ATOM     81  F   UNL     1      -2.701  10.711  -9.717  1.00  0.00    -0.206 F 
ATOM     82  C   UNL     1      -0.757  13.208 -11.471  1.00  0.00     0.022 A 
BRANCH  79  83
ATOM     83  S   UNL     1       1.970  13.699 -11.792  1.00  0.00     0.124 S 
ATOM     84  O   UNL     1       2.621  14.035 -10.530  1.00  0.00    -0.237 OA
ATOM     85  O   UNL     1       2.678  12.745 -12.640  1.00  0.00    -0.237 OA
ATOM     86  O   UNL     1       1.370  14.829 -12.500  1.00  0.00    -0.744 OA
ENDBRANCH  79  83
ENDBRANCH  53  76
ENDBRANCH  27  28
ENDBRANCH  20  22
ENDBRANCH  19  20
ENDBRANCH  18  19
ENDBRANCH   1  18
TORSDOF 17
