REMARK SMILES CCc1cc([C@H]([NH3+])C(=O)OCCOC(=O)c2ccc(-c3c4nc(c(-c5cc(S(=O)(=O)[O-])ccc5F)c5ccc([nH]5)c(-c5cc(S(=O)(=O)[O-])ccc5F)c5nc(c(-c6cc(S(=O)(=O)[O-])ccc6F)c6ccc3[nH]6)C=C5)C=C4)cc2)cc(CC)c1N
REMARK SMILES IDX 12 1 11 2 10 3 8 4 9 5 6 6 5 7 3 8 4 9 83 10 80 11 79 12
REMARK SMILES IDX 2 13 1 14 84 15 81 18 82 19 7 20 13 24 14 25 15 26 16 27
REMARK SMILES IDX 17 28 78 29 18 30 77 31 19 32 20 33 21 34 71 35 22 36 76 37
REMARK SMILES IDX 70 38 72 39 23 40 75 41 69 42 68 43 24 45 56 46 36 47 55 48
REMARK SMILES IDX 37 49 40 50 54 51 73 52 38 53 39 54 53 56 74 57 41 58 25 59
REMARK SMILES IDX 26 60 34 61 27 62 33 63 35 64 32 65 28 66 29 67 30 68 31 69
REMARK SMILES IDX 57 70 58 71 66 72 59 73 65 74 67 75 64 76 60 77 61 78 62 79
REMARK SMILES IDX 63 80 42 81 43 82 51 83 44 84 50 85 52 86 49 87 45 88 46 89
REMARK SMILES IDX 47 90 48 91
REMARK H PARENT 84 16 84 17 7 21 7 22 7 23 72 44 40 55
REMARK Flexibility Score: inf
ROOT
ATOM      1  C   UNL     1       2.089  -2.401   4.668  1.00  0.00     0.275 C 
ENDROOT
BRANCH   1   2
ATOM      2  C   UNL     1       3.286  -1.786   3.934  1.00  0.00     0.274 C 
BRANCH   2   3
ATOM      3  O   UNL     1       3.302  -2.180   2.554  1.00  0.00    -0.457 OA
BRANCH   3   4
ATOM      4  C   UNL     1       4.123  -3.221   2.231  1.00  0.00     0.369 C 
ATOM      5  O   UNL     1       4.904  -3.752   3.016  1.00  0.00    -0.245 OA
BRANCH   4   6
ATOM      6  C   UNL     1       3.949  -3.684   0.769  1.00  0.00     0.323 C 
BRANCH   6   7
ATOM      7  C   UNL     1       5.119  -3.224  -0.064  1.00  0.00     0.021 A 
ATOM      8  C   UNL     1       7.377  -3.613  -0.926  1.00  0.00    -0.024 A 
ATOM      9  C   UNL     1       6.224  -4.058  -0.254  1.00  0.00     0.016 A 
ATOM     10  C   UNL     1       7.381  -2.313  -1.501  1.00  0.00     0.038 A 
ATOM     11  C   UNL     1       6.281  -1.451  -1.277  1.00  0.00    -0.024 A 
ATOM     12  C   UNL     1       5.172  -1.923  -0.557  1.00  0.00     0.016 A 
BRANCH   8  13
ATOM     13  C   UNL     1       8.580  -4.537  -1.060  1.00  0.00     0.034 C 
ATOM     14  C   UNL     1       8.701  -5.676  -0.049  1.00  0.00     0.009 C 
ENDBRANCH   8  13
BRANCH  10  15
ATOM     15  N   UNL     1       8.524  -1.849  -2.155  1.00  0.00    -0.398 N 
ATOM     16  H   UNL     1       9.285  -2.455  -2.307  1.00  0.00     0.156 HD
ATOM     17  H   UNL     1       8.569  -0.915  -2.466  1.00  0.00     0.156 HD
ENDBRANCH  10  15
BRANCH  11  18
ATOM     18  C   UNL     1       6.218  -0.008  -1.735  1.00  0.00     0.034 C 
ATOM     19  C   UNL     1       5.062   0.256  -2.695  1.00  0.00     0.009 C 
ENDBRANCH  11  18
ENDBRANCH   6   7
BRANCH   6  20
ATOM     20  N   UNL     1       2.642  -3.289   0.190  1.00  0.00    -0.342 N 
ATOM     21  H   UNL     1       2.576  -2.271   0.164  1.00  0.00     0.345 HD
ATOM     22  H   UNL     1       1.888  -3.663   0.766  1.00  0.00     0.345 HD
ATOM     23  H   UNL     1       2.562  -3.660  -0.756  1.00  0.00     0.345 HD
ENDBRANCH   6  20
ENDBRANCH   4   6
ENDBRANCH   3   4
ENDBRANCH   2   3
ENDBRANCH   1   2
BRANCH   1  24
ATOM     24  O   UNL     1       2.242  -3.819   4.877  1.00  0.00    -0.458 OA
BRANCH  24  25
ATOM     25  C   UNL     1       1.808  -4.604   3.861  1.00  0.00     0.338 C 
ATOM     26  O   UNL     1       1.284  -4.238   2.820  1.00  0.00    -0.246 OA
BRANCH  25  27
ATOM     27  C   UNL     1       2.216  -6.000   4.094  1.00  0.00     0.060 A 
ATOM     28  C   UNL     1       2.970  -6.623   3.096  1.00  0.00     0.016 A 
ATOM     29  C   UNL     1       1.816  -6.714   5.223  1.00  0.00     0.016 A 
ATOM     30  C   UNL     1       3.321  -7.960   3.208  1.00  0.00     0.010 A 
ATOM     31  C   UNL     1       2.171  -8.063   5.338  1.00  0.00     0.010 A 
ATOM     32  C   UNL     1       2.917  -8.694   4.326  1.00  0.00    -0.014 A 
BRANCH  32  33
ATOM     33  C   UNL     1       3.232 -10.141   4.381  1.00  0.00     0.031 A 
ATOM     34  C   UNL     1       2.146 -11.145   4.126  1.00  0.00     0.074 A 
ATOM     35  C   UNL     1       4.500 -10.539   4.593  1.00  0.00     0.049 A 
ATOM     36  N   UNL     1       2.195 -12.450   4.181  1.00  0.00    -0.248 NA
ATOM     37  C   UNL     1       0.828 -10.604   3.760  1.00  0.00     0.031 C 
ATOM     38  C   UNL     1       5.643  -9.643   4.781  1.00  0.00     0.029 A 
ATOM     39  N   UNL     1       5.042 -11.795   4.679  1.00  0.00    -0.354 N 
ATOM     40  C   UNL     1       0.912 -12.890   3.876  1.00  0.00     0.074 A 
ATOM     41  C   UNL     1       0.103 -11.708   3.659  1.00  0.00     0.031 C 
ATOM     42  C   UNL     1       6.751 -10.380   4.956  1.00  0.00     0.029 A 
ATOM     43  C   UNL     1       6.390 -11.794   4.949  1.00  0.00     0.049 A 
ATOM     44  H   UNL     1       4.516 -12.619   4.558  1.00  0.00     0.167 HD
ATOM     45  C   UNL     1       0.457 -14.164   3.786  1.00  0.00     0.034 A 
ATOM     46  C   UNL     1       7.229 -12.819   5.199  1.00  0.00     0.034 A 
ATOM     47  C   UNL     1       1.285 -15.326   4.005  1.00  0.00     0.049 A 
ATOM     48  C   UNL     1       6.682 -14.223   5.171  1.00  0.00     0.074 A 
ATOM     49  C   UNL     1       0.932 -16.663   3.946  1.00  0.00     0.029 A 
ATOM     50  N   UNL     1       2.635 -15.288   4.333  1.00  0.00    -0.354 N 
ATOM     51  N   UNL     1       5.458 -14.627   4.917  1.00  0.00    -0.248 NA
ATOM     52  C   UNL     1       7.627 -15.307   5.465  1.00  0.00     0.031 C 
ATOM     53  C   UNL     1       2.050 -17.429   4.297  1.00  0.00     0.029 A 
ATOM     54  C   UNL     1       3.121 -16.575   4.507  1.00  0.00     0.049 A 
ATOM     55  H   UNL     1       3.169 -14.467   4.428  1.00  0.00     0.167 HD
ATOM     56  C   UNL     1       5.493 -16.016   5.001  1.00  0.00     0.074 A 
ATOM     57  C   UNL     1       6.861 -16.378   5.313  1.00  0.00     0.031 C 
ATOM     58  C   UNL     1       4.487 -16.912   4.835  1.00  0.00     0.034 A 
BRANCH  45  59
ATOM     59  C   UNL     1      -1.014 -14.353   3.504  1.00  0.00     0.023 A 
ATOM     60  C   UNL     1      -1.596 -13.959   2.287  1.00  0.00     0.031 A 
ATOM     61  C   UNL     1      -1.855 -14.900   4.490  1.00  0.00     0.131 A 
ATOM     62  C   UNL     1      -2.986 -14.051   2.114  1.00  0.00     0.055 A 
ATOM     63  C   UNL     1      -3.227 -15.059   4.283  1.00  0.00     0.041 A 
ATOM     64  F   UNL     1      -1.360 -15.272   5.681  1.00  0.00    -0.206 F 
ATOM     65  C   UNL     1      -3.802 -14.620   3.095  1.00  0.00     0.022 A 
BRANCH  62  66
ATOM     66  S   UNL     1      -3.732 -13.289   0.646  1.00  0.00     0.124 S 
ATOM     67  O   UNL     1      -3.312 -11.897   0.790  1.00  0.00    -0.237 OA
ATOM     68  O   UNL     1      -3.114 -14.033  -0.445  1.00  0.00    -0.237 OA
ATOM     69  O   UNL     1      -5.163 -13.522   0.828  1.00  0.00    -0.744 OA
ENDBRANCH  62  66
ENDBRANCH  45  59
BRANCH  46  70
ATOM     70  C   UNL     1       8.652 -12.557   5.554  1.00  0.00     0.023 A 
ATOM     71  C   UNL     1       9.702 -12.997   4.734  1.00  0.00     0.031 A 
ATOM     72  C   UNL     1       8.982 -11.889   6.748  1.00  0.00     0.131 A 
ATOM     73  C   UNL     1      11.033 -12.796   5.135  1.00  0.00     0.055 A 
ATOM     74  C   UNL     1      10.306 -11.647   7.117  1.00  0.00     0.041 A 
ATOM     75  F   UNL     1       8.016 -11.449   7.569  1.00  0.00    -0.206 F 
ATOM     76  C   UNL     1      11.341 -12.112   6.314  1.00  0.00     0.022 A 
BRANCH  73  77
ATOM     77  S   UNL     1      12.362 -13.509   4.127  1.00  0.00     0.124 S 
ATOM     78  O   UNL     1      12.015 -14.925   4.135  1.00  0.00    -0.237 OA
ATOM     79  O   UNL     1      12.187 -12.812   2.857  1.00  0.00    -0.237 OA
ATOM     80  O   UNL     1      13.574 -13.159   4.866  1.00  0.00    -0.744 OA
ENDBRANCH  73  77
ENDBRANCH  46  70
BRANCH  58  81
ATOM     81  C   UNL     1       4.853 -18.370   4.950  1.00  0.00     0.023 A 
ATOM     82  C   UNL     1       5.228 -18.942   6.179  1.00  0.00     0.031 A 
ATOM     83  C   UNL     1       4.843 -19.193   3.810  1.00  0.00     0.131 A 
ATOM     84  C   UNL     1       5.629 -20.285   6.229  1.00  0.00     0.055 A 
ATOM     85  C   UNL     1       5.191 -20.542   3.877  1.00  0.00     0.041 A 
ATOM     86  F   UNL     1       4.495 -18.696   2.613  1.00  0.00    -0.206 F 
ATOM     87  C   UNL     1       5.599 -21.092   5.089  1.00  0.00     0.022 A 
BRANCH  84  88
ATOM     88  S   UNL     1       6.273 -20.944   7.792  1.00  0.00     0.124 S 
ATOM     89  O   UNL     1       7.414 -20.069   8.043  1.00  0.00    -0.237 OA
ATOM     90  O   UNL     1       5.136 -20.782   8.692  1.00  0.00    -0.237 OA
ATOM     91  O   UNL     1       6.613 -22.328   7.466  1.00  0.00    -0.744 OA
ENDBRANCH  84  88
ENDBRANCH  58  81
ENDBRANCH  32  33
ENDBRANCH  25  27
ENDBRANCH  24  25
ENDBRANCH   1  24
TORSDOF 19
