REMARK SMILES CC[C@H]1CC[C@@](C(=O)OCCOC(=O)c2ccc(-c3c4nc(c(-c5cc(S(=O)(=O)[O-])ccc5F)c5ccc([nH]5)c(-c5cc(S(=O)(=O)[O-])ccc5F)c5nc(c(-c6cc(S(=O)(=O)[O-])ccc6F)c6ccc3[nH]6)C=C5)C=C4)cc2)(C2CCCC2)C1
REMARK SMILES IDX 11 1 10 2 9 3 7 4 8 5 6 6 3 7 4 8 83 9 5 10 2 11 1 12 78 13
REMARK SMILES IDX 79 14 82 15 80 16 81 17 12 18 13 19 14 20 15 21 16 22 77 23
REMARK SMILES IDX 17 24 76 25 18 26 19 27 20 28 70 29 21 30 75 31 69 32 71 33
REMARK SMILES IDX 22 34 74 35 68 36 67 37 23 39 55 40 35 41 54 42 36 43 39 44
REMARK SMILES IDX 53 45 72 46 37 47 38 48 52 50 73 51 40 52 24 53 25 54 33 55
REMARK SMILES IDX 26 56 32 57 34 58 31 59 27 60 28 61 29 62 30 63 56 64 57 65
REMARK SMILES IDX 65 66 58 67 64 68 66 69 63 70 59 71 60 72 61 73 62 74 41 75
REMARK SMILES IDX 42 76 50 77 43 78 49 79 51 80 48 81 44 82 45 83 46 84 47 85
REMARK H PARENT 71 38 39 49
REMARK Flexibility Score: inf
ROOT
ATOM      1  C   UNL     1       6.509   2.052   4.022  1.00  0.00     0.275 C 
ENDROOT
BRANCH   1   2
ATOM      2  C   UNL     1       5.771   1.336   2.892  1.00  0.00     0.274 C 
BRANCH   2   3
ATOM      3  O   UNL     1       4.344   1.307   3.126  1.00  0.00    -0.462 OA
BRANCH   3   4
ATOM      4  C   UNL     1       3.868   0.151   3.659  1.00  0.00     0.312 C 
ATOM      5  O   UNL     1       4.585  -0.796   3.971  1.00  0.00    -0.252 OA
BRANCH   4   6
ATOM      6  C   UNL     1       2.329   0.069   3.739  1.00  0.00     0.071 C 
ATOM      7  C   UNL     1       0.863  -0.549   1.805  1.00  0.00    -0.010 C 
ATOM      8  C   UNL     1       1.110   0.956   1.795  1.00  0.00     0.005 C 
ATOM      9  C   UNL     1       1.976  -1.068   2.729  1.00  0.00     0.022 C 
ATOM     10  C   UNL     1       1.559   1.298   3.207  1.00  0.00     0.019 C 
BRANCH   7  11
ATOM     11  C   UNL     1      -0.526  -1.084   2.213  1.00  0.00     0.000 C 
ATOM     12  C   UNL     1      -1.625  -0.073   2.490  1.00  0.00     0.004 C 
ENDBRANCH   7  11
BRANCH   6  13
ATOM     13  C   UNL     1       1.965  -0.258   5.225  1.00  0.00     0.006 C 
ATOM     14  C   UNL     1       1.888   0.952   6.177  1.00  0.00     0.005 C 
ATOM     15  C   UNL     1       0.614  -0.929   5.482  1.00  0.00     0.005 C 
ATOM     16  C   UNL     1       1.081   0.476   7.388  1.00  0.00     0.000 C 
ATOM     17  C   UNL     1       0.460  -0.857   6.993  1.00  0.00     0.000 C 
ENDBRANCH   6  13
ENDBRANCH   4   6
ENDBRANCH   3   4
ENDBRANCH   2   3
ENDBRANCH   1   2
BRANCH   1  18
ATOM     18  O   UNL     1       6.302   1.337   5.250  1.00  0.00    -0.458 OA
BRANCH  18  19
ATOM     19  C   UNL     1       6.191   2.096   6.367  1.00  0.00     0.338 C 
ATOM     20  O   UNL     1       6.397   3.296   6.439  1.00  0.00    -0.246 OA
BRANCH  19  21
ATOM     21  C   UNL     1       5.711   1.270   7.508  1.00  0.00     0.060 A 
ATOM     22  C   UNL     1       5.079   0.043   7.306  1.00  0.00     0.016 A 
ATOM     23  C   UNL     1       5.769   1.796   8.801  1.00  0.00     0.016 A 
ATOM     24  C   UNL     1       4.377  -0.568   8.349  1.00  0.00     0.010 A 
ATOM     25  C   UNL     1       5.157   1.119   9.867  1.00  0.00     0.010 A 
ATOM     26  C   UNL     1       4.387  -0.037   9.648  1.00  0.00    -0.014 A 
BRANCH  26  27
ATOM     27  C   UNL     1       3.511  -0.598  10.732  1.00  0.00     0.031 A 
ATOM     28  C   UNL     1       2.605   0.324  11.525  1.00  0.00     0.074 A 
ATOM     29  C   UNL     1       3.459  -1.920  11.003  1.00  0.00     0.049 A 
ATOM     30  N   UNL     1       1.992   0.115  12.664  1.00  0.00    -0.248 NA
ATOM     31  C   UNL     1       2.381   1.667  10.971  1.00  0.00     0.031 C 
ATOM     32  C   UNL     1       4.190  -2.970  10.293  1.00  0.00     0.029 A 
ATOM     33  N   UNL     1       2.734  -2.611  11.947  1.00  0.00    -0.354 N 
ATOM     34  C   UNL     1       1.400   1.328  13.011  1.00  0.00     0.074 A 
ATOM     35  C   UNL     1       1.716   2.261  11.950  1.00  0.00     0.031 C 
ATOM     36  C   UNL     1       3.819  -4.167  10.770  1.00  0.00     0.029 A 
ATOM     37  C   UNL     1       2.926  -3.973  11.906  1.00  0.00     0.049 A 
ATOM     38  H   UNL     1       2.133  -2.172  12.591  1.00  0.00     0.167 HD
ATOM     39  C   UNL     1       0.672   1.637  14.116  1.00  0.00     0.034 A 
ATOM     40  C   UNL     1       2.488  -4.957  12.718  1.00  0.00     0.034 A 
ATOM     41  C   UNL     1       0.273   0.674  15.116  1.00  0.00     0.049 A 
ATOM     42  C   UNL     1       1.683  -4.600  13.940  1.00  0.00     0.074 A 
ATOM     43  C   UNL     1      -0.461   0.880  16.273  1.00  0.00     0.029 A 
ATOM     44  N   UNL     1       0.539  -0.688  15.060  1.00  0.00    -0.354 N 
ATOM     45  N   UNL     1       1.284  -3.420  14.352  1.00  0.00    -0.248 NA
ATOM     46  C   UNL     1       1.303  -5.710  14.824  1.00  0.00     0.031 C 
ATOM     47  C   UNL     1      -0.604  -0.346  16.933  1.00  0.00     0.029 A 
ATOM     48  C   UNL     1      -0.012  -1.329  16.159  1.00  0.00     0.049 A 
ATOM     49  H   UNL     1       1.047  -1.133  14.343  1.00  0.00     0.167 HD
ATOM     50  C   UNL     1       0.609  -3.648  15.548  1.00  0.00     0.074 A 
ATOM     51  C   UNL     1       0.627  -5.078  15.772  1.00  0.00     0.031 C 
ATOM     52  C   UNL     1       0.035  -2.752  16.390  1.00  0.00     0.034 A 
BRANCH  39  53
ATOM     53  C   UNL     1       0.325   3.091  14.340  1.00  0.00     0.023 A 
ATOM     54  C   UNL     1      -0.541   3.804  13.496  1.00  0.00     0.031 A 
ATOM     55  C   UNL     1       0.906   3.783  15.421  1.00  0.00     0.131 A 
ATOM     56  C   UNL     1      -0.747   5.178  13.704  1.00  0.00     0.055 A 
ATOM     57  C   UNL     1       0.636   5.129  15.669  1.00  0.00     0.041 A 
ATOM     58  F   UNL     1       1.758   3.160  16.251  1.00  0.00    -0.206 F 
ATOM     59  C   UNL     1      -0.184   5.840  14.798  1.00  0.00     0.022 A 
BRANCH  56  60
ATOM     60  S   UNL     1      -1.644   6.124  12.442  1.00  0.00     0.124 S 
ATOM     61  O   UNL     1      -0.849   5.852  11.247  1.00  0.00    -0.237 OA
ATOM     62  O   UNL     1      -2.970   5.519  12.479  1.00  0.00    -0.237 OA
ATOM     63  O   UNL     1      -1.572   7.500  12.928  1.00  0.00    -0.744 OA
ENDBRANCH  56  60
ENDBRANCH  39  53
BRANCH  40  64
ATOM     64  C   UNL     1       2.875  -6.374  12.461  1.00  0.00     0.023 A 
ATOM     65  C   UNL     1       1.909  -7.341  12.144  1.00  0.00     0.031 A 
ATOM     66  C   UNL     1       4.215  -6.788  12.567  1.00  0.00     0.131 A 
ATOM     67  C   UNL     1       2.293  -8.680  11.970  1.00  0.00     0.055 A 
ATOM     68  C   UNL     1       4.599  -8.109  12.338  1.00  0.00     0.041 A 
ATOM     69  F   UNL     1       5.177  -5.903  12.875  1.00  0.00    -0.206 F 
ATOM     70  C   UNL     1       3.634  -9.066  12.047  1.00  0.00     0.022 A 
BRANCH  67  71
ATOM     71  S   UNL     1       1.005  -9.929  11.703  1.00  0.00     0.124 S 
ATOM     72  O   UNL     1       0.233  -9.828  12.937  1.00  0.00    -0.237 OA
ATOM     73  O   UNL     1       0.350  -9.439  10.495  1.00  0.00    -0.237 OA
ATOM     74  O   UNL     1       1.761 -11.169  11.539  1.00  0.00    -0.744 OA
ENDBRANCH  67  71
ENDBRANCH  40  64
BRANCH  52  75
ATOM     75  C   UNL     1      -0.642  -3.314  17.615  1.00  0.00     0.023 A 
ATOM     76  C   UNL     1       0.095  -3.903  18.658  1.00  0.00     0.031 A 
ATOM     77  C   UNL     1      -2.044  -3.302  17.718  1.00  0.00     0.131 A 
ATOM     78  C   UNL     1      -0.575  -4.510  19.730  1.00  0.00     0.055 A 
ATOM     79  C   UNL     1      -2.704  -3.864  18.812  1.00  0.00     0.041 A 
ATOM     80  F   UNL     1      -2.795  -2.754  16.749  1.00  0.00    -0.206 F 
ATOM     81  C   UNL     1      -1.970  -4.485  19.819  1.00  0.00     0.022 A 
BRANCH  78  82
ATOM     82  S   UNL     1       0.396  -5.426  20.960  1.00  0.00     0.124 S 
ATOM     83  O   UNL     1       1.119  -6.383  20.128  1.00  0.00    -0.237 OA
ATOM     84  O   UNL     1       1.201  -4.372  21.568  1.00  0.00    -0.237 OA
ATOM     85  O   UNL     1      -0.621  -6.010  21.833  1.00  0.00    -0.744 OA
ENDBRANCH  78  82
ENDBRANCH  52  75
ENDBRANCH  26  27
ENDBRANCH  19  21
ENDBRANCH  18  19
ENDBRANCH   1  18
TORSDOF 16
