REMARK SMILES O=C(/C=C/c1cc(F)cc(C[N@@H+]2CCC[C@H]2CO)c1)OCCOC(=O)c1ccc(-c2c3nc(c(-c4cc(S(=O)(=O)[O-])ccc4F)c4ccc([nH]4)c(-c4cc(S(=O)(=O)[O-])ccc4F)c4nc(c(-c5cc(S(=O)(=O)[O-])ccc5F)c5ccc2[nH]5)C=C4)C=C3)cc1
REMARK SMILES IDX 21 1 20 2 2 3 1 4 3 5 4 6 5 7 6 8 19 9 7 10 10 11 8 12 9 13
REMARK SMILES IDX 11 14 12 15 13 16 16 17 14 19 15 20 17 21 18 22 22 24 23 25
REMARK SMILES IDX 24 26 25 27 26 28 27 29 88 30 28 31 87 32 29 33 30 34 31 35
REMARK SMILES IDX 81 36 32 37 86 38 80 39 82 40 33 41 85 42 79 43 78 44 34 46
REMARK SMILES IDX 66 47 46 48 65 49 47 50 50 51 64 52 83 53 48 54 49 55 63 57
REMARK SMILES IDX 84 58 51 59 35 60 36 61 44 62 37 63 43 64 45 65 42 66 38 67
REMARK SMILES IDX 39 68 40 69 41 70 67 71 68 72 76 73 69 74 75 75 77 76 74 77
REMARK SMILES IDX 70 78 71 79 72 80 73 81 52 82 53 83 61 84 54 85 60 86 62 87
REMARK SMILES IDX 59 88 55 89 56 90 57 91 58 92
REMARK H PARENT 12 18 18 23 82 45 50 56
REMARK Flexibility Score: inf
ROOT
ATOM      1  C   UNL     1       4.149   0.459  -1.402  1.00  0.00     0.275 C 
ENDROOT
BRANCH   1   2
ATOM      2  O   UNL     1       2.954  -0.296  -1.128  1.00  0.00    -0.459 OA
BRANCH   2   3
ATOM      3  C   UNL     1       2.631  -1.019  -0.032  1.00  0.00     0.330 C 
ATOM      4  O   UNL     1       1.633  -1.736  -0.044  1.00  0.00    -0.247 OA
BRANCH   3   5
ATOM      5  C   UNL     1       3.353  -0.870   1.246  1.00  0.00     0.094 C 
ATOM      6  C   UNL     1       4.660  -0.680   1.463  1.00  0.00     0.016 C 
BRANCH   6   7
ATOM      7  C   UNL     1       5.250  -0.435   2.783  1.00  0.00    -0.022 A 
ATOM      8  C   UNL     1       5.007  -1.284   3.861  1.00  0.00     0.047 A 
ATOM      9  C   UNL     1       6.176   0.619   2.921  1.00  0.00     0.018 A 
ATOM     10  C   UNL     1       5.741  -1.119   5.025  1.00  0.00     0.124 A 
ATOM     11  C   UNL     1       6.910   0.801   4.106  1.00  0.00     0.010 A 
ATOM     12  F   UNL     1       5.558  -1.970   6.042  1.00  0.00    -0.207 F 
ATOM     13  C   UNL     1       6.705  -0.121   5.139  1.00  0.00     0.048 A 
BRANCH  11  14
ATOM     14  C   UNL     1       7.980   1.873   4.196  1.00  0.00     0.299 C 
BRANCH  14  15
ATOM     15  N   UNL     1       7.830   2.992   5.131  1.00  0.00    -0.327 N 
ATOM     16  C   UNL     1       7.790   2.653   6.554  1.00  0.00     0.263 C 
ATOM     17  C   UNL     1       6.698   3.893   4.880  1.00  0.00     0.210 C 
ATOM     18  H   UNL     1       8.706   3.472   4.925  1.00  0.00     0.348 HD
ATOM     19  C   UNL     1       6.328   2.667   6.960  1.00  0.00     0.068 C 
ATOM     20  C   UNL     1       5.633   3.505   5.903  1.00  0.00     0.073 C 
BRANCH  17  21
ATOM     21  C   UNL     1       7.136   5.365   5.054  1.00  0.00     0.220 C 
BRANCH  21  22
ATOM     22  O   UNL     1       6.090   6.266   4.699  1.00  0.00    -0.390 OA
ATOM     23  H   UNL     1       5.856   6.137   3.766  1.00  0.00     0.210 HD
ENDBRANCH  21  22
ENDBRANCH  17  21
ENDBRANCH  14  15
ENDBRANCH  11  14
ENDBRANCH   6   7
ENDBRANCH   3   5
ENDBRANCH   2   3
ENDBRANCH   1   2
BRANCH   1  24
ATOM     24  C   UNL     1       4.177   1.897  -0.870  1.00  0.00     0.275 C 
BRANCH  24  25
ATOM     25  O   UNL     1       3.751   2.032   0.493  1.00  0.00    -0.458 OA
BRANCH  25  26
ATOM     26  C   UNL     1       2.419   2.261   0.648  1.00  0.00     0.338 C 
ATOM     27  O   UNL     1       1.606   2.403  -0.251  1.00  0.00    -0.246 OA
BRANCH  26  28
ATOM     28  C   UNL     1       2.049   2.183   2.079  1.00  0.00     0.060 A 
ATOM     29  C   UNL     1       0.907   1.455   2.435  1.00  0.00     0.016 A 
ATOM     30  C   UNL     1       2.789   2.840   3.061  1.00  0.00     0.016 A 
ATOM     31  C   UNL     1       0.502   1.382   3.774  1.00  0.00     0.010 A 
ATOM     32  C   UNL     1       2.365   2.778   4.394  1.00  0.00     0.010 A 
ATOM     33  C   UNL     1       1.222   2.054   4.770  1.00  0.00    -0.014 A 
BRANCH  33  34
ATOM     34  C   UNL     1       0.753   2.090   6.186  1.00  0.00     0.031 A 
ATOM     35  C   UNL     1       0.254   3.386   6.774  1.00  0.00     0.074 A 
ATOM     36  C   UNL     1       0.799   0.989   6.965  1.00  0.00     0.049 A 
ATOM     37  N   UNL     1      -0.156   3.642   7.991  1.00  0.00    -0.248 NA
ATOM     38  C   UNL     1       0.235   4.554   5.879  1.00  0.00     0.031 C 
ATOM     39  C   UNL     1       1.283  -0.326   6.545  1.00  0.00     0.029 A 
ATOM     40  N   UNL     1       0.434   0.805   8.279  1.00  0.00    -0.354 N 
ATOM     41  C   UNL     1      -0.475   4.995   8.008  1.00  0.00     0.074 A 
ATOM     42  C   UNL     1      -0.157   5.518   6.697  1.00  0.00     0.031 C 
ATOM     43  C   UNL     1       1.165  -1.184   7.573  1.00  0.00     0.029 A 
ATOM     44  C   UNL     1       0.628  -0.479   8.737  1.00  0.00     0.049 A 
ATOM     45  H   UNL     1       0.068   1.525   8.841  1.00  0.00     0.167 HD
ATOM     46  C   UNL     1      -1.007   5.733   9.013  1.00  0.00     0.034 A 
ATOM     47  C   UNL     1       0.408  -1.027   9.951  1.00  0.00     0.034 A 
ATOM     48  C   UNL     1      -1.345   5.213  10.313  1.00  0.00     0.049 A 
ATOM     49  C   UNL     1      -0.150  -0.180  11.069  1.00  0.00     0.074 A 
ATOM     50  C   UNL     1      -1.949   5.876  11.368  1.00  0.00     0.029 A 
ATOM     51  N   UNL     1      -1.107   3.917  10.742  1.00  0.00    -0.354 N 
ATOM     52  N   UNL     1      -0.473   1.092  11.056  1.00  0.00    -0.248 NA
ATOM     53  C   UNL     1      -0.373  -0.841  12.364  1.00  0.00     0.031 C 
ATOM     54  C   UNL     1      -2.011   5.002  12.457  1.00  0.00     0.029 A 
ATOM     55  C   UNL     1      -1.517   3.771  12.057  1.00  0.00     0.049 A 
ATOM     56  H   UNL     1      -0.705   3.205  10.193  1.00  0.00     0.167 HD
ATOM     57  C   UNL     1      -0.959   1.375  12.331  1.00  0.00     0.074 A 
ATOM     58  C   UNL     1      -0.888   0.145  13.089  1.00  0.00     0.031 C 
ATOM     59  C   UNL     1      -1.433   2.548  12.820  1.00  0.00     0.034 A 
BRANCH  46  60
ATOM     60  C   UNL     1      -1.249   7.197   8.751  1.00  0.00     0.023 A 
ATOM     61  C   UNL     1      -2.223   7.628   7.835  1.00  0.00     0.031 A 
ATOM     62  C   UNL     1      -0.517   8.173   9.451  1.00  0.00     0.131 A 
ATOM     63  C   UNL     1      -2.408   8.999   7.607  1.00  0.00     0.055 A 
ATOM     64  C   UNL     1      -0.753   9.536   9.269  1.00  0.00     0.041 A 
ATOM     65  F   UNL     1       0.435   7.815  10.327  1.00  0.00    -0.206 F 
ATOM     66  C   UNL     1      -1.697   9.956   8.337  1.00  0.00     0.022 A 
BRANCH  63  67
ATOM     67  S   UNL     1      -3.534   9.516   6.285  1.00  0.00     0.124 S 
ATOM     68  O   UNL     1      -2.865   8.980   5.102  1.00  0.00    -0.237 OA
ATOM     69  O   UNL     1      -4.785   8.866   6.660  1.00  0.00    -0.237 OA
ATOM     70  O   UNL     1      -3.535  10.974   6.385  1.00  0.00    -0.744 OA
ENDBRANCH  63  67
ENDBRANCH  46  60
BRANCH  47  71
ATOM     71  C   UNL     1       0.731  -2.464  10.187  1.00  0.00     0.023 A 
ATOM     72  C   UNL     1      -0.284  -3.414  10.384  1.00  0.00     0.031 A 
ATOM     73  C   UNL     1       2.066  -2.902  10.227  1.00  0.00     0.131 A 
ATOM     74  C   UNL     1       0.054  -4.754  10.632  1.00  0.00     0.055 A 
ATOM     75  C   UNL     1       2.396  -4.242  10.435  1.00  0.00     0.041 A 
ATOM     76  F   UNL     1       3.071  -2.030  10.046  1.00  0.00    -0.206 F 
ATOM     77  C   UNL     1       1.386  -5.177  10.644  1.00  0.00     0.022 A 
BRANCH  74  78
ATOM     78  S   UNL     1      -1.274  -5.946  10.963  1.00  0.00     0.124 S 
ATOM     79  O   UNL     1      -1.794  -5.464  12.237  1.00  0.00    -0.237 OA
ATOM     80  O   UNL     1      -2.143  -5.767   9.805  1.00  0.00    -0.237 OA
ATOM     81  O   UNL     1      -0.574  -7.228  11.018  1.00  0.00    -0.744 OA
ENDBRANCH  74  78
ENDBRANCH  47  71
BRANCH  59  82
ATOM     82  C   UNL     1      -1.949   2.573  14.237  1.00  0.00     0.023 A 
ATOM     83  C   UNL     1      -1.084   2.499  15.341  1.00  0.00     0.031 A 
ATOM     84  C   UNL     1      -3.323   2.751  14.481  1.00  0.00     0.131 A 
ATOM     85  C   UNL     1      -1.605   2.587  16.642  1.00  0.00     0.055 A 
ATOM     86  C   UNL     1      -3.830   2.882  15.774  1.00  0.00     0.041 A 
ATOM     87  F   UNL     1      -4.192   2.832  13.460  1.00  0.00    -0.206 F 
ATOM     88  C   UNL     1      -2.969   2.798  16.864  1.00  0.00     0.022 A 
BRANCH  85  89
ATOM     89  S   UNL     1      -0.478   2.406  18.053  1.00  0.00     0.124 S 
ATOM     90  O   UNL     1      -0.026   1.026  17.903  1.00  0.00    -0.237 OA
ATOM     91  O   UNL     1       0.522   3.436  17.795  1.00  0.00    -0.237 OA
ATOM     92  O   UNL     1      -1.335   2.655  19.212  1.00  0.00    -0.744 OA
ENDBRANCH  85  89
ENDBRANCH  59  82
ENDBRANCH  33  34
ENDBRANCH  26  28
ENDBRANCH  25  26
ENDBRANCH  24  25
ENDBRANCH   1  24
TORSDOF 19
