REMARK SMILES Cc1cc(F)c(-c2ccc(F)c(C(=O)OCCOC(=O)c3ccc(-c4c5nc(c(-c6cc(S(=O)(=O)[O-])ccc6F)c6ccc([nH]6)c(-c6cc(S(=O)(=O)[O-])ccc6F)c6nc(c(-c7cc(S(=O)(=O)[O-])ccc7F)c7ccc4[nH]7)C=C6)C=C5)cc3)c2)cc1F
REMARK SMILES IDX 17 1 16 2 15 3 13 4 14 5 12 6 7 7 8 8 84 9 9 10 10 11 11 12
REMARK SMILES IDX 6 13 1 14 2 15 3 16 86 17 4 18 85 19 87 20 5 21 18 22 19 23
REMARK SMILES IDX 20 24 21 25 22 26 83 27 23 28 82 29 24 30 25 31 26 32 76 33
REMARK SMILES IDX 27 34 81 35 75 36 77 37 28 38 80 39 74 40 73 41 29 43 61 44
REMARK SMILES IDX 41 45 60 46 42 47 45 48 59 49 78 50 43 51 44 52 58 54 79 55
REMARK SMILES IDX 46 56 30 57 31 58 39 59 32 60 38 61 40 62 37 63 33 64 34 65
REMARK SMILES IDX 35 66 36 67 62 68 63 69 71 70 64 71 70 72 72 73 69 74 65 75
REMARK SMILES IDX 66 76 67 77 68 78 47 79 48 80 56 81 49 82 55 83 57 84 54 85
REMARK SMILES IDX 50 86 51 87 52 88 53 89
REMARK H PARENT 77 42 45 53
REMARK Flexibility Score: inf
ROOT
ATOM      1  C   UNL     1       1.009   0.514  10.792  1.00  0.00     0.275 C 
ENDROOT
BRANCH   1   2
ATOM      2  C   UNL     1       0.306  -0.563   9.962  1.00  0.00     0.275 C 
BRANCH   2   3
ATOM      3  O   UNL     1      -0.153  -0.028   8.703  1.00  0.00    -0.458 OA
BRANCH   3   4
ATOM      4  C   UNL     1      -1.497   0.049   8.521  1.00  0.00     0.341 C 
ATOM      5  O   UNL     1      -2.349  -0.329   9.308  1.00  0.00    -0.246 OA
BRANCH   4   6
ATOM      6  C   UNL     1      -1.788   0.737   7.242  1.00  0.00     0.096 A 
ATOM      7  C   UNL     1      -1.233   1.238   4.922  1.00  0.00    -0.014 A 
ATOM      8  C   UNL     1      -2.317   2.134   4.878  1.00  0.00     0.012 A 
ATOM      9  C   UNL     1      -0.949   0.580   6.131  1.00  0.00     0.027 A 
ATOM     10  C   UNL     1      -3.162   2.279   5.973  1.00  0.00     0.041 A 
ATOM     11  C   UNL     1      -2.924   1.538   7.124  1.00  0.00     0.137 A 
ATOM     12  F   UNL     1      -3.828   1.625   8.109  1.00  0.00    -0.206 F 
BRANCH   7  13
ATOM     13  C   UNL     1      -0.503   0.917   3.690  1.00  0.00     0.020 A 
ATOM     14  C   UNL     1       1.181  -0.018  -0.182  1.00  0.00     0.047 C 
ATOM     15  C   UNL     1       0.623   0.288   1.172  1.00  0.00    -0.012 A 
ATOM     16  C   UNL     1       0.073  -0.720   1.966  1.00  0.00     0.046 A 
ATOM     17  C   UNL     1       0.654   1.593   1.673  1.00  0.00     0.126 A 
ATOM     18  C   UNL     1      -0.481  -0.401   3.204  1.00  0.00     0.131 A 
ATOM     19  C   UNL     1       0.098   1.913   2.910  1.00  0.00     0.051 A 
ATOM     20  F   UNL     1       1.204   2.570   0.939  1.00  0.00    -0.207 F 
ATOM     21  F   UNL     1      -1.043  -1.393   3.913  1.00  0.00    -0.206 F 
ENDBRANCH   7  13
ENDBRANCH   4   6
ENDBRANCH   3   4
ENDBRANCH   2   3
ENDBRANCH   1   2
BRANCH   1  22
ATOM     22  O   UNL     1       0.058   1.465  11.300  1.00  0.00    -0.458 OA
BRANCH  22  23
ATOM     23  C   UNL     1      -0.061   2.602  10.576  1.00  0.00     0.338 C 
ATOM     24  O   UNL     1       0.595   2.933   9.603  1.00  0.00    -0.246 OA
BRANCH  23  25
ATOM     25  C   UNL     1      -1.246   3.336  11.040  1.00  0.00     0.060 A 
ATOM     26  C   UNL     1      -1.195   4.284  12.053  1.00  0.00     0.016 A 
ATOM     27  C   UNL     1      -2.431   3.117  10.348  1.00  0.00     0.016 A 
ATOM     28  C   UNL     1      -2.363   4.990  12.375  1.00  0.00     0.010 A 
ATOM     29  C   UNL     1      -3.564   3.879  10.604  1.00  0.00     0.010 A 
ATOM     30  C   UNL     1      -3.558   4.813  11.641  1.00  0.00    -0.014 A 
BRANCH  30  31
ATOM     31  C   UNL     1      -4.773   5.632  11.920  1.00  0.00     0.031 A 
ATOM     32  C   UNL     1      -6.096   4.994  12.274  1.00  0.00     0.074 A 
ATOM     33  C   UNL     1      -4.696   6.974  11.806  1.00  0.00     0.049 A 
ATOM     34  N   UNL     1      -7.218   5.572  12.624  1.00  0.00    -0.248 NA
ATOM     35  C   UNL     1      -6.189   3.527  12.191  1.00  0.00     0.031 C 
ATOM     36  C   UNL     1      -3.515   7.704  11.342  1.00  0.00     0.029 A 
ATOM     37  N   UNL     1      -5.609   7.964  12.078  1.00  0.00    -0.354 N 
ATOM     38  C   UNL     1      -8.142   4.546  12.797  1.00  0.00     0.074 A 
ATOM     39  C   UNL     1      -7.476   3.318  12.434  1.00  0.00     0.031 C 
ATOM     40  C   UNL     1      -3.745   9.020  11.438  1.00  0.00     0.029 A 
ATOM     41  C   UNL     1      -5.106   9.236  11.924  1.00  0.00     0.049 A 
ATOM     42  H   UNL     1      -6.535   7.780  12.357  1.00  0.00     0.167 HD
ATOM     43  C   UNL     1      -9.414   4.617  13.259  1.00  0.00     0.034 A 
ATOM     44  C   UNL     1      -5.662  10.442  12.165  1.00  0.00     0.034 A 
ATOM     45  C   UNL     1     -10.050   5.849  13.652  1.00  0.00     0.049 A 
ATOM     46  C   UNL     1      -7.055  10.498  12.737  1.00  0.00     0.074 A 
ATOM     47  C   UNL     1     -11.298   6.020  14.226  1.00  0.00     0.029 A 
ATOM     48  N   UNL     1      -9.497   7.114  13.518  1.00  0.00    -0.354 N 
ATOM     49  N   UNL     1      -7.861   9.507  13.040  1.00  0.00    -0.248 NA
ATOM     50  C   UNL     1      -7.613  11.828  13.020  1.00  0.00     0.031 C 
ATOM     51  C   UNL     1     -11.529   7.387  14.369  1.00  0.00     0.029 A 
ATOM     52  C   UNL     1     -10.392   8.072  13.968  1.00  0.00     0.049 A 
ATOM     53  H   UNL     1      -8.601   7.304  13.155  1.00  0.00     0.167 HD
ATOM     54  C   UNL     1      -9.011  10.091  13.563  1.00  0.00     0.074 A 
ATOM     55  C   UNL     1      -8.781  11.521  13.571  1.00  0.00     0.031 C 
ATOM     56  C   UNL     1     -10.155   9.496  13.987  1.00  0.00     0.034 A 
BRANCH  43  57
ATOM     57  C   UNL     1     -10.206   3.338  13.434  1.00  0.00     0.023 A 
ATOM     58  C   UNL     1     -11.439   3.170  12.774  1.00  0.00     0.031 A 
ATOM     59  C   UNL     1      -9.820   2.361  14.370  1.00  0.00     0.131 A 
ATOM     60  C   UNL     1     -12.257   2.076  13.090  1.00  0.00     0.055 A 
ATOM     61  C   UNL     1     -10.613   1.245  14.641  1.00  0.00     0.041 A 
ATOM     62  F   UNL     1      -8.662   2.477  15.041  1.00  0.00    -0.206 F 
ATOM     63  C   UNL     1     -11.845   1.108  14.011  1.00  0.00     0.022 A 
BRANCH  60  64
ATOM     64  S   UNL     1     -13.922   1.911  12.389  1.00  0.00     0.124 S 
ATOM     65  O   UNL     1     -13.844   0.610  11.730  1.00  0.00    -0.237 OA
ATOM     66  O   UNL     1     -14.761   1.954  13.584  1.00  0.00    -0.237 OA
ATOM     67  O   UNL     1     -14.042   3.055  11.492  1.00  0.00    -0.744 OA
ENDBRANCH  60  64
ENDBRANCH  43  57
BRANCH  44  68
ATOM     68  C   UNL     1      -4.841  11.672  11.953  1.00  0.00     0.023 A 
ATOM     69  C   UNL     1      -4.331  11.993  10.681  1.00  0.00     0.031 A 
ATOM     70  C   UNL     1      -4.444  12.469  13.041  1.00  0.00     0.131 A 
ATOM     71  C   UNL     1      -3.393  13.026  10.545  1.00  0.00     0.055 A 
ATOM     72  C   UNL     1      -3.572  13.549  12.887  1.00  0.00     0.041 A 
ATOM     73  F   UNL     1      -4.888  12.195  14.278  1.00  0.00    -0.206 F 
ATOM     74  C   UNL     1      -3.025  13.818  11.637  1.00  0.00     0.022 A 
BRANCH  71  75
ATOM     75  S   UNL     1      -2.503  13.271   8.983  1.00  0.00     0.124 S 
ATOM     76  O   UNL     1      -2.863  14.643   8.639  1.00  0.00    -0.237 OA
ATOM     77  O   UNL     1      -1.116  13.068   9.396  1.00  0.00    -0.237 OA
ATOM     78  O   UNL     1      -3.047  12.237   8.110  1.00  0.00    -0.744 OA
ENDBRANCH  71  75
ENDBRANCH  44  68
BRANCH  56  79
ATOM     79  C   UNL     1     -11.281  10.365  14.500  1.00  0.00     0.023 A 
ATOM     80  C   UNL     1     -11.752  10.201  15.817  1.00  0.00     0.031 A 
ATOM     81  C   UNL     1     -11.992  11.223  13.643  1.00  0.00     0.131 A 
ATOM     82  C   UNL     1     -12.930  10.842  16.222  1.00  0.00     0.055 A 
ATOM     83  C   UNL     1     -13.132  11.906  14.070  1.00  0.00     0.041 A 
ATOM     84  F   UNL     1     -11.594  11.403  12.373  1.00  0.00    -0.206 F 
ATOM     85  C   UNL     1     -13.616  11.702  15.359  1.00  0.00     0.022 A 
BRANCH  82  86
ATOM     86  S   UNL     1     -13.674  10.500  17.842  1.00  0.00     0.124 S 
ATOM     87  O   UNL     1     -13.666  11.823  18.462  1.00  0.00    -0.237 OA
ATOM     88  O   UNL     1     -14.992   9.992  17.473  1.00  0.00    -0.237 OA
ATOM     89  O   UNL     1     -12.772   9.525  18.446  1.00  0.00    -0.744 OA
ENDBRANCH  82  86
ENDBRANCH  56  79
ENDBRANCH  30  31
ENDBRANCH  23  25
ENDBRANCH  22  23
ENDBRANCH   1  22
TORSDOF 15
