REMARK SMILES C/C(=N\[NH+]=C1\NC(=O)[C@H](CC(=O)OCCOC(=O)c2ccc(-c3c4nc(c(-c5cc(S(=O)(=O)[O-])ccc5F)c5ccc([nH]5)c(-c5cc(S(=O)(=O)[O-])ccc5F)c5nc(c(-c6cc(S(=O)(=O)[O-])ccc6F)c6ccc3[nH]6)C=C5)C=C4)cc2)S1)c1ccc([N+](=O)[O-])cc1
REMARK SMILES IDX 14 1 13 2 11 3 12 4 10 5 9 6 4 7 5 8 6 10 82 11 7 12 8 14
REMARK SMILES IDX 3 15 1 16 2 17 83 18 84 19 91 20 85 21 90 22 86 23 87 24
REMARK SMILES IDX 88 25 89 26 15 27 16 28 17 29 18 30 19 31 20 32 81 33 21 34
REMARK SMILES IDX 80 35 22 36 23 37 24 38 74 39 25 40 79 41 73 42 75 43 26 44
REMARK SMILES IDX 78 45 72 46 71 47 27 49 59 50 39 51 58 52 40 53 43 54 57 55
REMARK SMILES IDX 76 56 41 57 42 58 56 60 77 61 44 62 28 63 29 64 37 65 30 66
REMARK SMILES IDX 36 67 38 68 35 69 31 70 32 71 33 72 34 73 60 74 61 75 69 76
REMARK SMILES IDX 62 77 68 78 70 79 67 80 63 81 64 82 65 83 66 84 45 85 46 86
REMARK SMILES IDX 54 87 47 88 53 89 55 90 52 91 48 92 49 93 50 94 51 95
REMARK H PARENT 4 9 6 13 75 48 43 59
REMARK Flexibility Score: inf
ROOT
ATOM      1  C   UNL     1      -3.736  -6.590   0.583  1.00  0.00     0.274 C 
ENDROOT
BRANCH   1   2
ATOM      2  O   UNL     1      -3.521  -5.246   0.117  1.00  0.00    -0.462 OA
BRANCH   2   3
ATOM      3  C   UNL     1      -4.037  -4.235   0.853  1.00  0.00     0.307 C 
ATOM      4  O   UNL     1      -4.665  -4.377   1.893  1.00  0.00    -0.252 OA
BRANCH   3   5
ATOM      5  C   UNL     1      -3.817  -2.892   0.199  1.00  0.00     0.150 C 
BRANCH   5   6
ATOM      6  C   UNL     1      -2.354  -2.624  -0.107  1.00  0.00     0.184 C 
ATOM      7  N   UNL     1      -0.237  -0.114  -2.137  1.00  0.00    -0.142 N 
ATOM      8  C   UNL     1      -1.042  -0.959  -1.589  1.00  0.00     0.337 C 
ATOM      9  H   UNL     1       0.264  -0.335  -2.955  1.00  0.00     0.343 HD
ATOM     10  N   UNL     1      -1.183  -2.182  -2.141  1.00  0.00    -0.202 N 
ATOM     11  S   UNL     1      -2.009  -0.817  -0.157  1.00  0.00    -0.020 SA
ATOM     12  C   UNL     1      -1.929  -3.112  -1.486  1.00  0.00     0.322 C 
ATOM     13  H   UNL     1      -0.755  -2.397  -3.001  1.00  0.00     0.316 HD
ATOM     14  O   UNL     1      -2.175  -4.204  -1.982  1.00  0.00    -0.246 OA
BRANCH   7  15
ATOM     15  N   UNL     1      -0.112   1.123  -1.518  1.00  0.00    -0.090 NA
ATOM     16  C   UNL     1       1.745   0.079  -0.212  1.00  0.00     0.071 C 
ATOM     17  C   UNL     1       0.872   1.235  -0.668  1.00  0.00     0.088 C 
BRANCH  17  18
ATOM     18  C   UNL     1       1.169   2.592  -0.103  1.00  0.00    -0.000 A 
ATOM     19  C   UNL     1       0.196   3.600  -0.185  1.00  0.00     0.017 A 
ATOM     20  C   UNL     1       2.429   2.897   0.433  1.00  0.00     0.017 A 
ATOM     21  C   UNL     1       0.482   4.902   0.240  1.00  0.00     0.086 A 
ATOM     22  C   UNL     1       2.726   4.198   0.852  1.00  0.00     0.086 A 
ATOM     23  C   UNL     1       1.755   5.200   0.743  1.00  0.00     0.269 A 
BRANCH  23  24
ATOM     24  N   UNL     1       2.089   6.581   1.114  1.00  0.00     0.062 N 
ATOM     25  O   UNL     1       1.183   7.426   1.064  1.00  0.00    -0.258 OA
ATOM     26  O   UNL     1       3.265   6.829   1.415  1.00  0.00    -0.258 OA
ENDBRANCH  23  24
ENDBRANCH  17  18
ENDBRANCH   7  15
ENDBRANCH   5   6
ENDBRANCH   3   5
ENDBRANCH   2   3
ENDBRANCH   1   2
BRANCH   1  27
ATOM     27  C   UNL     1      -2.509  -7.137   1.315  1.00  0.00     0.275 C 
BRANCH  27  28
ATOM     28  O   UNL     1      -2.372  -6.545   2.620  1.00  0.00    -0.458 OA
BRANCH  28  29
ATOM     29  C   UNL     1      -1.581  -5.447   2.671  1.00  0.00     0.338 C 
ATOM     30  O   UNL     1      -0.937  -4.966   1.754  1.00  0.00    -0.246 OA
BRANCH  29  31
ATOM     31  C   UNL     1      -1.708  -4.801   3.988  1.00  0.00     0.060 A 
ATOM     32  C   UNL     1      -2.076  -3.452   4.025  1.00  0.00     0.016 A 
ATOM     33  C   UNL     1      -1.410  -5.489   5.166  1.00  0.00     0.016 A 
ATOM     34  C   UNL     1      -2.136  -2.781   5.245  1.00  0.00     0.010 A 
ATOM     35  C   UNL     1      -1.476  -4.814   6.389  1.00  0.00     0.010 A 
ATOM     36  C   UNL     1      -1.827  -3.454   6.435  1.00  0.00    -0.014 A 
BRANCH  36  37
ATOM     37  C   UNL     1      -1.831  -2.712   7.721  1.00  0.00     0.031 A 
ATOM     38  C   UNL     1      -0.530  -2.336   8.372  1.00  0.00     0.074 A 
ATOM     39  C   UNL     1      -3.000  -2.360   8.287  1.00  0.00     0.049 A 
ATOM     40  N   UNL     1      -0.318  -1.725   9.508  1.00  0.00    -0.248 NA
ATOM     41  C   UNL     1       0.694  -2.702   7.644  1.00  0.00     0.031 C 
ATOM     42  C   UNL     1      -4.324  -2.643   7.729  1.00  0.00     0.029 A 
ATOM     43  N   UNL     1      -3.265  -1.690   9.454  1.00  0.00    -0.354 N 
ATOM     44  C   UNL     1       1.064  -1.635   9.640  1.00  0.00     0.074 A 
ATOM     45  C   UNL     1       1.636  -2.290   8.480  1.00  0.00     0.031 C 
ATOM     46  C   UNL     1      -5.260  -2.147   8.554  1.00  0.00     0.029 A 
ATOM     47  C   UNL     1      -4.608  -1.553   9.718  1.00  0.00     0.049 A 
ATOM     48  H   UNL     1      -2.561  -1.341  10.047  1.00  0.00     0.167 HD
ATOM     49  C   UNL     1       1.785  -1.053  10.631  1.00  0.00     0.034 A 
ATOM     50  C   UNL     1      -5.239  -1.030  10.788  1.00  0.00     0.034 A 
ATOM     51  C   UNL     1       1.198  -0.415  11.785  1.00  0.00     0.049 A 
ATOM     52  C   UNL     1      -4.415  -0.459  11.914  1.00  0.00     0.074 A 
ATOM     53  C   UNL     1       1.834   0.215  12.841  1.00  0.00     0.029 A 
ATOM     54  N   UNL     1      -0.166  -0.336  12.044  1.00  0.00    -0.354 N 
ATOM     55  N   UNL     1      -3.108  -0.377  12.024  1.00  0.00    -0.248 NA
ATOM     56  C   UNL     1      -5.151   0.095  13.057  1.00  0.00     0.031 C 
ATOM     57  C   UNL     1       0.863   0.615  13.766  1.00  0.00     0.029 A 
ATOM     58  C   UNL     1      -0.387   0.302  13.256  1.00  0.00     0.049 A 
ATOM     59  H   UNL     1      -0.872  -0.682  11.452  1.00  0.00     0.167 HD
ATOM     60  C   UNL     1      -2.869   0.257  13.240  1.00  0.00     0.074 A 
ATOM     61  C   UNL     1      -4.166   0.553  13.815  1.00  0.00     0.031 C 
ATOM     62  C   UNL     1      -1.686   0.570  13.828  1.00  0.00     0.034 A 
BRANCH  49  63
ATOM     63  C   UNL     1       3.290  -1.133  10.527  1.00  0.00     0.023 A 
ATOM     64  C   UNL     1       3.995  -0.503   9.486  1.00  0.00     0.031 A 
ATOM     65  C   UNL     1       4.027  -1.879  11.464  1.00  0.00     0.131 A 
ATOM     66  C   UNL     1       5.381  -0.690   9.365  1.00  0.00     0.055 A 
ATOM     67  C   UNL     1       5.416  -1.997  11.383  1.00  0.00     0.041 A 
ATOM     68  F   UNL     1       3.407  -2.521  12.466  1.00  0.00    -0.206 F 
ATOM     69  C   UNL     1       6.099  -1.413  10.320  1.00  0.00     0.022 A 
BRANCH  66  70
ATOM     70  S   UNL     1       6.208  -0.097   7.864  1.00  0.00     0.124 S 
ATOM     71  O   UNL     1       5.474  -0.807   6.819  1.00  0.00    -0.237 OA
ATOM     72  O   UNL     1       5.989   1.343   7.929  1.00  0.00    -0.237 OA
ATOM     73  O   UNL     1       7.593  -0.527   8.042  1.00  0.00    -0.744 OA
ENDBRANCH  66  70
ENDBRANCH  49  63
BRANCH  50  74
ATOM     74  C   UNL     1      -6.727  -1.062  10.874  1.00  0.00     0.023 A 
ATOM     75  C   UNL     1      -7.480   0.122  10.902  1.00  0.00     0.031 A 
ATOM     76  C   UNL     1      -7.415  -2.284  10.979  1.00  0.00     0.131 A 
ATOM     77  C   UNL     1      -8.872   0.061  11.072  1.00  0.00     0.055 A 
ATOM     78  C   UNL     1      -8.804  -2.342  11.096  1.00  0.00     0.041 A 
ATOM     79  F   UNL     1      -6.742  -3.446  10.960  1.00  0.00    -0.206 F 
ATOM     80  C   UNL     1      -9.540  -1.163  11.156  1.00  0.00     0.022 A 
BRANCH  77  81
ATOM     81  S   UNL     1      -9.793   1.611  11.265  1.00  0.00     0.124 S 
ATOM     82  O   UNL     1      -9.147   2.198  12.434  1.00  0.00    -0.237 OA
ATOM     83  O   UNL     1      -9.539   2.275   9.991  1.00  0.00    -0.237 OA
ATOM     84  O   UNL     1     -11.170   1.166  11.470  1.00  0.00    -0.744 OA
ENDBRANCH  77  81
ENDBRANCH  50  74
BRANCH  62  85
ATOM     85  C   UNL     1      -1.754   1.300  15.148  1.00  0.00     0.023 A 
ATOM     86  C   UNL     1      -2.255   0.684  16.308  1.00  0.00     0.031 A 
ATOM     87  C   UNL     1      -1.334   2.639  15.239  1.00  0.00     0.131 A 
ATOM     88  C   UNL     1      -2.379   1.423  17.495  1.00  0.00     0.055 A 
ATOM     89  C   UNL     1      -1.405   3.352  16.437  1.00  0.00     0.041 A 
ATOM     90  F   UNL     1      -0.849   3.278  14.162  1.00  0.00    -0.206 F 
ATOM     91  C   UNL     1      -1.943   2.748  17.570  1.00  0.00     0.022 A 
BRANCH  88  92
ATOM     92  S   UNL     1      -3.206   0.657  18.916  1.00  0.00     0.124 S 
ATOM     93  O   UNL     1      -4.518   0.333  18.366  1.00  0.00    -0.237 OA
ATOM     94  O   UNL     1      -2.338  -0.479  19.208  1.00  0.00    -0.237 OA
ATOM     95  O   UNL     1      -3.201   1.714  19.927  1.00  0.00    -0.744 OA
ENDBRANCH  88  92
ENDBRANCH  62  85
ENDBRANCH  36  37
ENDBRANCH  29  31
ENDBRANCH  28  29
ENDBRANCH  27  28
ENDBRANCH   1  27
TORSDOF 18
