REMARK SMILES O=C(OCCOC(=O)c1ccc([C@H]2CCCN(C(=O)c3ccc4[nH]ccc4c3)C2)cc1)c1ccc(-c2c3nc(c(-c4cc(S(=O)(=O)[O-])ccc4F)c4ccc([nH]4)c(-c4cc(S(=O)(=O)[O-])ccc4F)c4nc(c(-c5cc(S(=O)(=O)[O-])ccc5F)c5ccc2[nH]5)C=C4)C=C3)cc1
REMARK SMILES IDX 4 1 3 2 2 3 1 4 32 5 33 6 94 7 34 8 93 9 35 10 36 11 37 12
REMARK SMILES IDX 87 13 38 14 92 15 86 16 88 17 39 18 91 19 85 20 84 21 40 23
REMARK SMILES IDX 72 24 52 25 71 26 53 27 56 28 70 29 89 30 54 31 55 32 69 34
REMARK SMILES IDX 90 35 57 36 41 37 42 38 50 39 43 40 49 41 51 42 48 43 44 44
REMARK SMILES IDX 45 45 46 46 47 47 73 48 74 49 82 50 75 51 81 52 83 53 80 54
REMARK SMILES IDX 76 55 77 56 78 57 79 58 58 59 59 60 67 61 60 62 66 63 68 64
REMARK SMILES IDX 65 65 61 66 62 67 63 68 64 69 5 70 6 71 7 72 8 73 9 74 10 75
REMARK SMILES IDX 31 76 11 77 30 78 12 79 13 80 14 81 29 82 15 83 17 84 16 85
REMARK SMILES IDX 18 86 19 87 20 88 21 89 28 90 22 91 27 92 23 93 26 94 24 95
REMARK SMILES IDX 25 96
REMARK H PARENT 88 22 56 33 24 97
REMARK Flexibility Score: inf
ROOT
ATOM      1  C   UNL     1      -5.787   6.471  -7.225  1.00  0.00     0.275 C 
ENDROOT
BRANCH   1   2
ATOM      2  O   UNL     1      -6.049   5.166  -6.692  1.00  0.00    -0.458 OA
BRANCH   2   3
ATOM      3  C   UNL     1      -5.565   3.968  -7.097  1.00  0.00     0.338 C 
ATOM      4  O   UNL     1      -6.088   2.946  -6.653  1.00  0.00    -0.246 OA
BRANCH   3   5
ATOM      5  C   UNL     1      -4.327   3.819  -7.927  1.00  0.00     0.060 A 
ATOM      6  C   UNL     1      -3.870   4.683  -8.929  1.00  0.00     0.016 A 
ATOM      7  C   UNL     1      -3.568   2.671  -7.667  1.00  0.00     0.016 A 
ATOM      8  C   UNL     1      -2.643   4.471  -9.580  1.00  0.00     0.010 A 
ATOM      9  C   UNL     1      -2.358   2.451  -8.323  1.00  0.00     0.010 A 
ATOM     10  C   UNL     1      -1.866   3.358  -9.273  1.00  0.00    -0.014 A 
BRANCH  10  11
ATOM     11  C   UNL     1      -0.650   3.012 -10.059  1.00  0.00     0.031 A 
ATOM     12  C   UNL     1      -0.730   1.804 -10.950  1.00  0.00     0.074 A 
ATOM     13  C   UNL     1       0.503   3.702  -9.944  1.00  0.00     0.049 A 
ATOM     14  N   UNL     1       0.216   1.176 -11.592  1.00  0.00    -0.248 NA
ATOM     15  C   UNL     1      -2.070   1.219 -11.118  1.00  0.00     0.031 C 
ATOM     16  C   UNL     1       0.686   4.923  -9.161  1.00  0.00     0.029 A 
ATOM     17  N   UNL     1       1.761   3.446 -10.441  1.00  0.00    -0.354 N 
ATOM     18  C   UNL     1      -0.423   0.142 -12.268  1.00  0.00     0.074 A 
ATOM     19  C   UNL     1      -1.806   0.150 -11.847  1.00  0.00     0.031 C 
ATOM     20  C   UNL     1       1.991   5.253  -9.147  1.00  0.00     0.029 A 
ATOM     21  C   UNL     1       2.740   4.268  -9.918  1.00  0.00     0.049 A 
ATOM     22  H   UNL     1       1.945   2.744 -11.106  1.00  0.00     0.167 HD
ATOM     23  C   UNL     1       0.082  -0.696 -13.206  1.00  0.00     0.034 A 
ATOM     24  C   UNL     1       4.086   4.200 -10.014  1.00  0.00     0.034 A 
ATOM     25  C   UNL     1       1.469  -0.690 -13.590  1.00  0.00     0.049 A 
ATOM     26  C   UNL     1       4.676   3.122 -10.893  1.00  0.00     0.074 A 
ATOM     27  C   UNL     1       2.112  -1.455 -14.544  1.00  0.00     0.029 A 
ATOM     28  N   UNL     1       2.437   0.124 -13.010  1.00  0.00    -0.354 N 
ATOM     29  N   UNL     1       4.057   2.170 -11.555  1.00  0.00    -0.248 NA
ATOM     30  C   UNL     1       6.134   3.123 -11.064  1.00  0.00     0.031 C 
ATOM     31  C   UNL     1       3.478  -1.151 -14.493  1.00  0.00     0.029 A 
ATOM     32  C   UNL     1       3.678  -0.147 -13.556  1.00  0.00     0.049 A 
ATOM     33  H   UNL     1       2.264   0.795 -12.311  1.00  0.00     0.167 HD
ATOM     34  C   UNL     1       5.042   1.511 -12.286  1.00  0.00     0.074 A 
ATOM     35  C   UNL     1       6.301   2.142 -11.941  1.00  0.00     0.031 C 
ATOM     36  C   UNL     1       4.914   0.508 -13.192  1.00  0.00     0.034 A 
BRANCH  23  37
ATOM     37  C   UNL     1      -0.887  -1.670 -13.835  1.00  0.00     0.023 A 
ATOM     38  C   UNL     1      -2.031  -1.214 -14.519  1.00  0.00     0.031 A 
ATOM     39  C   UNL     1      -0.743  -3.054 -13.649  1.00  0.00     0.131 A 
ATOM     40  C   UNL     1      -3.047  -2.116 -14.866  1.00  0.00     0.055 A 
ATOM     41  C   UNL     1      -1.713  -3.958 -14.091  1.00  0.00     0.041 A 
ATOM     42  F   UNL     1       0.316  -3.550 -12.991  1.00  0.00    -0.206 F 
ATOM     43  C   UNL     1      -2.886  -3.489 -14.678  1.00  0.00     0.022 A 
BRANCH  40  44
ATOM     44  S   UNL     1      -4.661  -1.444 -15.356  1.00  0.00     0.124 S 
ATOM     45  O   UNL     1      -5.000  -0.618 -14.198  1.00  0.00    -0.237 OA
ATOM     46  O   UNL     1      -4.343  -0.723 -16.582  1.00  0.00    -0.237 OA
ATOM     47  O   UNL     1      -5.491  -2.634 -15.526  1.00  0.00    -0.744 OA
ENDBRANCH  40  44
ENDBRANCH  23  37
BRANCH  24  48
ATOM     48  C   UNL     1       4.969   5.107  -9.211  1.00  0.00     0.023 A 
ATOM     49  C   UNL     1       5.786   6.089  -9.787  1.00  0.00     0.031 A 
ATOM     50  C   UNL     1       5.041   4.956  -7.815  1.00  0.00     0.131 A 
ATOM     51  C   UNL     1       6.651   6.849  -8.973  1.00  0.00     0.055 A 
ATOM     52  C   UNL     1       5.881   5.720  -7.006  1.00  0.00     0.041 A 
ATOM     53  F   UNL     1       4.276   4.050  -7.207  1.00  0.00    -0.206 F 
ATOM     54  C   UNL     1       6.702   6.672  -7.588  1.00  0.00     0.022 A 
BRANCH  51  55
ATOM     55  S   UNL     1       7.752   8.061  -9.755  1.00  0.00     0.124 S 
ATOM     56  O   UNL     1       8.525   7.221 -10.662  1.00  0.00    -0.237 OA
ATOM     57  O   UNL     1       6.798   8.972 -10.379  1.00  0.00    -0.237 OA
ATOM     58  O   UNL     1       8.500   8.622  -8.631  1.00  0.00    -0.744 OA
ENDBRANCH  51  55
ENDBRANCH  24  48
BRANCH  36  59
ATOM     59  C   UNL     1       6.152   0.105 -13.950  1.00  0.00     0.023 A 
ATOM     60  C   UNL     1       7.188  -0.632 -13.356  1.00  0.00     0.031 A 
ATOM     61  C   UNL     1       6.263   0.440 -15.313  1.00  0.00     0.131 A 
ATOM     62  C   UNL     1       8.309  -0.988 -14.122  1.00  0.00     0.055 A 
ATOM     63  C   UNL     1       7.354   0.039 -16.080  1.00  0.00     0.041 A 
ATOM     64  F   UNL     1       5.296   1.145 -15.922  1.00  0.00    -0.206 F 
ATOM     65  C   UNL     1       8.388  -0.674 -15.483  1.00  0.00     0.022 A 
BRANCH  62  66
ATOM     66  S   UNL     1       9.695  -1.828 -13.309  1.00  0.00     0.124 S 
ATOM     67  O   UNL     1      10.160  -0.808 -12.375  1.00  0.00    -0.237 OA
ATOM     68  O   UNL     1       9.057  -2.997 -12.711  1.00  0.00    -0.237 OA
ATOM     69  O   UNL     1      10.611  -2.123 -14.410  1.00  0.00    -0.744 OA
ENDBRANCH  62  66
ENDBRANCH  36  59
ENDBRANCH  10  11
ENDBRANCH   3   5
ENDBRANCH   2   3
ENDBRANCH   1   2
BRANCH   1  70
ATOM     70  C   UNL     1      -4.596   7.194  -6.589  1.00  0.00     0.275 C 
BRANCH  70  71
ATOM     71  O   UNL     1      -3.424   6.376  -6.442  1.00  0.00    -0.458 OA
BRANCH  71  72
ATOM     72  C   UNL     1      -3.248   5.811  -5.217  1.00  0.00     0.338 C 
ATOM     73  O   UNL     1      -3.969   5.950  -4.242  1.00  0.00    -0.246 OA
BRANCH  72  74
ATOM     74  C   UNL     1      -2.097   4.879  -5.258  1.00  0.00     0.060 A 
ATOM     75  C   UNL     1      -2.262   3.579  -4.772  1.00  0.00     0.016 A 
ATOM     76  C   UNL     1      -0.870   5.260  -5.795  1.00  0.00     0.016 A 
ATOM     77  C   UNL     1      -1.235   2.634  -4.922  1.00  0.00     0.005 A 
ATOM     78  C   UNL     1       0.166   4.319  -5.904  1.00  0.00     0.005 A 
ATOM     79  C   UNL     1      -0.015   2.975  -5.530  1.00  0.00    -0.043 A 
BRANCH  79  80
ATOM     80  C   UNL     1       1.029   1.879  -5.808  1.00  0.00     0.039 C 
ATOM     81  C   UNL     1       0.516   0.895  -6.886  1.00  0.00     0.012 C 
ATOM     82  C   UNL     1       2.406   2.406  -6.249  1.00  0.00     0.128 C 
ATOM     83  C   UNL     1       1.544  -0.164  -7.292  1.00  0.00     0.022 C 
ATOM     84  N   UNL     1       3.331   1.343  -6.637  1.00  0.00    -0.338 N 
ATOM     85  C   UNL     1       2.858   0.479  -7.716  1.00  0.00     0.120 C 
BRANCH  84  86
ATOM     86  C   UNL     1       4.584   1.280  -6.041  1.00  0.00     0.253 C 
ATOM     87  O   UNL     1       4.927   1.967  -5.080  1.00  0.00    -0.269 OA
BRANCH  86  88
ATOM     88  C   UNL     1       5.552   0.288  -6.542  1.00  0.00     0.040 A 
ATOM     89  C   UNL     1       5.706  -0.897  -5.820  1.00  0.00     0.016 A 
ATOM     90  C   UNL     1       6.321   0.563  -7.682  1.00  0.00     0.024 A 
ATOM     91  C   UNL     1       6.624  -1.865  -6.233  1.00  0.00     0.027 A 
ATOM     92  C   UNL     1       7.262  -0.398  -8.101  1.00  0.00     0.000 A 
ATOM     93  C   UNL     1       7.386  -1.587  -7.375  1.00  0.00     0.045 A 
ATOM     94  C   UNL     1       8.201  -0.463  -9.166  1.00  0.00     0.028 A 
ATOM     95  N   UNL     1       8.348  -2.346  -8.006  1.00  0.00    -0.361 N 
ATOM     96  C   UNL     1       8.853  -1.671  -9.080  1.00  0.00     0.083 A 
ATOM     97  H   UNL     1       8.630  -3.245  -7.723  1.00  0.00     0.166 HD
ENDBRANCH  86  88
ENDBRANCH  84  86
ENDBRANCH  79  80
ENDBRANCH  72  74
ENDBRANCH  71  72
ENDBRANCH  70  71
ENDBRANCH   1  70
TORSDOF 17
