REMARK SMILES Cc1cccc(S(=O)(=O)Nc2cc(C(=O)OCCOC(=O)c3ccc(-c4c5nc(c(-c6cc(S(=O)(=O)[O-])ccc6F)c6ccc([nH]6)c(-c6cc(S(=O)(=O)[O-])ccc6F)c6nc(c(-c7cc(S(=O)(=O)[O-])ccc7F)c7ccc4[nH]7)C=C6)C=C5)cc3)ccc2N2CCC[C@H](C[NH+]3CCCC3)C2)c1
REMARK SMILES IDX 17 1 16 2 14 3 15 4 13 5 11 6 12 7 87 8 86 9 85 10 10 11
REMARK SMILES IDX 7 13 8 14 9 15 6 16 1 17 2 18 3 19 100 20 4 21 5 22 88 23
REMARK SMILES IDX 89 24 99 25 90 26 92 27 91 28 93 29 94 30 95 31 98 32 96 34
REMARK SMILES IDX 97 35 18 36 19 37 20 38 21 39 22 40 23 41 84 42 24 43 83 44
REMARK SMILES IDX 25 45 26 46 27 47 77 48 28 49 82 50 76 51 78 52 29 53 81 54
REMARK SMILES IDX 75 55 74 56 30 58 62 59 42 60 61 61 43 62 46 63 60 64 79 65
REMARK SMILES IDX 44 66 45 67 59 69 80 70 47 71 31 72 32 73 40 74 33 75 39 76
REMARK SMILES IDX 41 77 38 78 34 79 35 80 36 81 37 82 63 83 64 84 72 85 65 86
REMARK SMILES IDX 71 87 73 88 70 89 66 90 67 91 68 92 69 93 48 94 49 95 57 96
REMARK SMILES IDX 50 97 56 98 58 99 55 100 51 101 52 102 53 103 54 104
REMARK H PARENT 10 12 94 33 78 57 46 68
REMARK Flexibility Score: inf
ROOT
ATOM      1  C   UNL     1       2.462   1.740  -4.882  1.00  0.00     0.275 C 
ENDROOT
BRANCH   1   2
ATOM      2  O   UNL     1       2.167   2.933  -4.138  1.00  0.00    -0.458 OA
BRANCH   2   3
ATOM      3  C   UNL     1       1.621   2.635  -2.945  1.00  0.00     0.338 C 
ATOM      4  O   UNL     1       1.349   1.512  -2.548  1.00  0.00    -0.246 OA
BRANCH   3   5
ATOM      5  C   UNL     1       1.281   3.765  -2.079  1.00  0.00     0.062 A 
ATOM      6  C   UNL     1      -0.260   4.137  -0.229  1.00  0.00     0.073 A 
ATOM      7  C   UNL     1       0.020   3.644  -1.502  1.00  0.00     0.044 A 
ATOM      8  C   UNL     1       0.704   4.976   0.410  1.00  0.00     0.061 A 
ATOM      9  C   UNL     1       1.939   5.172  -0.275  1.00  0.00     0.029 A 
ATOM     10  C   UNL     1       2.245   4.563  -1.495  1.00  0.00     0.018 A 
BRANCH   6  11
ATOM     11  N   UNL     1      -1.380   3.565   0.472  1.00  0.00    -0.277 N 
ATOM     12  H   UNL     1      -1.355   3.600   1.455  1.00  0.00     0.180 HD
BRANCH  11  13
ATOM     13  S   UNL     1      -2.725   2.842  -0.232  1.00  0.00     0.261 S 
ATOM     14  O   UNL     1      -3.059   3.556  -1.446  1.00  0.00    -0.201 OA
ATOM     15  O   UNL     1      -3.685   2.783   0.858  1.00  0.00    -0.201 OA
BRANCH  13  16
ATOM     16  C   UNL     1      -2.395   1.142  -0.687  1.00  0.00     0.088 A 
ATOM     17  C   UNL     1       0.363  -1.199  -1.920  1.00  0.00     0.044 C 
ATOM     18  C   UNL     1      -0.973  -0.663  -1.491  1.00  0.00    -0.050 A 
ATOM     19  C   UNL     1      -2.098  -1.454  -1.721  1.00  0.00     0.003 A 
ATOM     20  C   UNL     1      -1.123   0.619  -0.918  1.00  0.00     0.025 A 
ATOM     21  C   UNL     1      -3.364  -0.965  -1.424  1.00  0.00     0.002 A 
ATOM     22  C   UNL     1      -3.515   0.333  -0.928  1.00  0.00     0.022 A 
ENDBRANCH  13  16
ENDBRANCH  11  13
ENDBRANCH   6  11
BRANCH   8  23
ATOM     23  N   UNL     1       0.580   5.626   1.648  1.00  0.00    -0.369 N 
ATOM     24  C   UNL     1       0.797   7.084   1.625  1.00  0.00     0.116 C 
ATOM     25  C   UNL     1      -0.199   5.110   2.775  1.00  0.00     0.126 C 
ATOM     26  C   UNL     1       1.403   7.553   2.943  1.00  0.00     0.022 C 
ATOM     27  C   UNL     1       0.325   5.605   4.144  1.00  0.00     0.064 C 
ATOM     28  C   UNL     1       0.517   7.128   4.106  1.00  0.00     0.013 C 
BRANCH  27  29
ATOM     29  C   UNL     1       1.574   4.788   4.567  1.00  0.00     0.267 C 
BRANCH  29  30
ATOM     30  N   UNL     1       2.048   4.859   5.952  1.00  0.00    -0.335 N 
ATOM     31  C   UNL     1       1.073   4.539   6.989  1.00  0.00     0.262 C 
ATOM     32  C   UNL     1       2.766   6.061   6.354  1.00  0.00     0.262 C 
ATOM     33  H   UNL     1       2.727   4.100   5.895  1.00  0.00     0.348 HD
ATOM     34  C   UNL     1       0.682   5.879   7.579  1.00  0.00     0.067 C 
ATOM     35  C   UNL     1       1.950   6.708   7.469  1.00  0.00     0.067 C 
ENDBRANCH  29  30
ENDBRANCH  27  29
ENDBRANCH   8  23
ENDBRANCH   3   5
ENDBRANCH   2   3
ENDBRANCH   1   2
BRANCH   1  36
ATOM     36  C   UNL     1       3.850   1.786  -5.510  1.00  0.00     0.275 C 
BRANCH  36  37
ATOM     37  O   UNL     1       4.885   2.537  -4.820  1.00  0.00    -0.458 OA
BRANCH  37  38
ATOM     38  C   UNL     1       5.061   2.735  -3.485  1.00  0.00     0.338 C 
ATOM     39  O   UNL     1       5.391   3.843  -3.069  1.00  0.00    -0.246 OA
BRANCH  38  40
ATOM     40  C   UNL     1       4.736   1.646  -2.526  1.00  0.00     0.060 A 
ATOM     41  C   UNL     1       4.484   1.952  -1.169  1.00  0.00     0.016 A 
ATOM     42  C   UNL     1       4.610   0.337  -2.953  1.00  0.00     0.016 A 
ATOM     43  C   UNL     1       4.007   0.978  -0.275  1.00  0.00     0.010 A 
ATOM     44  C   UNL     1       4.029  -0.590  -2.111  1.00  0.00     0.010 A 
ATOM     45  C   UNL     1       3.755  -0.302  -0.754  1.00  0.00    -0.014 A 
BRANCH  45  46
ATOM     46  C   UNL     1       3.407  -1.493   0.041  1.00  0.00     0.031 A 
ATOM     47  C   UNL     1       2.111  -1.760   0.713  1.00  0.00     0.074 A 
ATOM     48  C   UNL     1       4.334  -2.475  -0.063  1.00  0.00     0.049 A 
ATOM     49  N   UNL     1       1.680  -2.964   0.883  1.00  0.00    -0.248 NA
ATOM     50  C   UNL     1       1.153  -0.762   1.208  1.00  0.00     0.031 C 
ATOM     51  C   UNL     1       4.285  -3.890   0.263  1.00  0.00     0.029 A 
ATOM     52  N   UNL     1       5.691  -2.237  -0.285  1.00  0.00    -0.354 N 
ATOM     53  C   UNL     1       0.435  -2.923   1.455  1.00  0.00     0.074 A 
ATOM     54  C   UNL     1       0.101  -1.527   1.565  1.00  0.00     0.031 C 
ATOM     55  C   UNL     1       5.534  -4.304   0.550  1.00  0.00     0.029 A 
ATOM     56  C   UNL     1       6.377  -3.117   0.555  1.00  0.00     0.049 A 
ATOM     57  H   UNL     1       6.084  -1.583  -0.907  1.00  0.00     0.167 HD
ATOM     58  C   UNL     1      -0.102  -4.091   1.895  1.00  0.00     0.034 A 
ATOM     59  C   UNL     1       6.986  -2.572   1.652  1.00  0.00     0.034 A 
ATOM     60  C   UNL     1       0.980  -4.931   2.378  1.00  0.00     0.049 A 
ATOM     61  C   UNL     1       6.360  -3.073   2.935  1.00  0.00     0.074 A 
ATOM     62  C   UNL     1       1.703  -6.003   1.895  1.00  0.00     0.029 A 
ATOM     63  N   UNL     1       1.666  -4.445   3.479  1.00  0.00    -0.354 N 
ATOM     64  N   UNL     1       5.133  -3.515   3.043  1.00  0.00    -0.248 NA
ATOM     65  C   UNL     1       7.111  -3.196   4.175  1.00  0.00     0.031 C 
ATOM     66  C   UNL     1       2.915  -6.061   2.651  1.00  0.00     0.029 A 
ATOM     67  C   UNL     1       2.886  -5.059   3.609  1.00  0.00     0.049 A 
ATOM     68  H   UNL     1       1.323  -3.751   4.088  1.00  0.00     0.167 HD
ATOM     69  C   UNL     1       4.944  -4.040   4.296  1.00  0.00     0.074 A 
ATOM     70  C   UNL     1       6.214  -3.808   4.966  1.00  0.00     0.031 C 
ATOM     71  C   UNL     1       3.775  -4.640   4.682  1.00  0.00     0.034 A 
BRANCH  58  72
ATOM     72  C   UNL     1      -1.534  -4.543   1.816  1.00  0.00     0.023 A 
ATOM     73  C   UNL     1      -1.805  -5.926   1.958  1.00  0.00     0.031 A 
ATOM     74  C   UNL     1      -2.622  -3.744   1.431  1.00  0.00     0.131 A 
ATOM     75  C   UNL     1      -3.073  -6.466   1.673  1.00  0.00     0.055 A 
ATOM     76  C   UNL     1      -3.892  -4.280   1.158  1.00  0.00     0.041 A 
ATOM     77  F   UNL     1      -2.501  -2.420   1.283  1.00  0.00    -0.206 F 
ATOM     78  C   UNL     1      -4.120  -5.648   1.265  1.00  0.00     0.022 A 
BRANCH  75  79
ATOM     79  S   UNL     1      -3.311  -8.265   1.773  1.00  0.00     0.124 S 
ATOM     80  O   UNL     1      -2.322  -8.766   0.823  1.00  0.00    -0.237 OA
ATOM     81  O   UNL     1      -3.048  -8.537   3.182  1.00  0.00    -0.237 OA
ATOM     82  O   UNL     1      -4.703  -8.448   1.361  1.00  0.00    -0.744 OA
ENDBRANCH  75  79
ENDBRANCH  58  72
BRANCH  59  83
ATOM     83  C   UNL     1       7.538  -1.193   1.385  1.00  0.00     0.023 A 
ATOM     84  C   UNL     1       8.289  -1.027   0.193  1.00  0.00     0.031 A 
ATOM     85  C   UNL     1       7.060  -0.028   2.000  1.00  0.00     0.131 A 
ATOM     86  C   UNL     1       8.358   0.218  -0.450  1.00  0.00     0.055 A 
ATOM     87  C   UNL     1       7.237   1.238   1.411  1.00  0.00     0.041 A 
ATOM     88  F   UNL     1       6.328  -0.095   3.121  1.00  0.00    -0.206 F 
ATOM     89  C   UNL     1       7.845   1.360   0.158  1.00  0.00     0.022 A 
BRANCH  86  90
ATOM     90  S   UNL     1       8.818   0.245  -2.214  1.00  0.00     0.124 S 
ATOM     91  O   UNL     1      10.275   0.295  -2.149  1.00  0.00    -0.237 OA
ATOM     92  O   UNL     1       8.245  -1.004  -2.716  1.00  0.00    -0.237 OA
ATOM     93  O   UNL     1       8.167   1.450  -2.721  1.00  0.00    -0.744 OA
ENDBRANCH  86  90
ENDBRANCH  59  83
BRANCH  71  94
ATOM     94  C   UNL     1       3.368  -4.922   6.116  1.00  0.00     0.023 A 
ATOM     95  C   UNL     1       4.064  -4.402   7.212  1.00  0.00     0.031 A 
ATOM     96  C   UNL     1       2.193  -5.650   6.436  1.00  0.00     0.131 A 
ATOM     97  C   UNL     1       3.686  -4.700   8.530  1.00  0.00     0.055 A 
ATOM     98  C   UNL     1       1.755  -5.854   7.749  1.00  0.00     0.041 A 
ATOM     99  F   UNL     1       1.404  -6.179   5.490  1.00  0.00    -0.206 F 
ATOM    100  C   UNL     1       2.519  -5.401   8.811  1.00  0.00     0.022 A 
BRANCH  97 101
ATOM    101  S   UNL     1       4.831  -4.232   9.849  1.00  0.00     0.124 S 
ATOM    102  O   UNL     1       6.043  -4.947   9.459  1.00  0.00    -0.237 OA
ATOM    103  O   UNL     1       4.884  -2.780   9.715  1.00  0.00    -0.237 OA
ATOM    104  O   UNL     1       4.181  -4.725  11.061  1.00  0.00    -0.744 OA
ENDBRANCH  97 101
ENDBRANCH  71  94
ENDBRANCH  45  46
ENDBRANCH  38  40
ENDBRANCH  37  38
ENDBRANCH  36  37
ENDBRANCH   1  36
TORSDOF 20
