REMARK SMILES Cc1ncc(CNC(=O)N(CC(=O)OCCOC(=O)c2ccc(-c3c4nc(c(-c5cc(S(=O)(=O)[O-])ccc5F)c5ccc([nH]5)c(-c5cc(S(=O)(=O)[O-])ccc5F)c5nc(c(-c6cc(S(=O)(=O)[O-])ccc6F)c6ccc3[nH]6)C=C5)C=C4)cc2)C(C)(C)C)s1
REMARK SMILES IDX 15 1 14 2 12 3 13 4 11 5 10 6 8 7 7 8 9 10 6 11 5 12 1 13
REMARK SMILES IDX 2 14 3 15 87 16 4 17 83 18 84 19 85 20 86 21 16 22 17 23
REMARK SMILES IDX 18 24 19 25 20 26 21 27 82 28 22 29 81 30 23 31 24 32 25 33
REMARK SMILES IDX 75 34 26 35 80 36 74 37 76 38 27 39 79 40 73 41 72 42 28 44
REMARK SMILES IDX 60 45 40 46 59 47 41 48 44 49 58 50 77 51 42 52 43 53 57 55
REMARK SMILES IDX 78 56 45 57 29 58 30 59 38 60 31 61 37 62 39 63 36 64 32 65
REMARK SMILES IDX 33 66 34 67 35 68 61 69 62 70 70 71 63 72 69 73 71 74 68 75
REMARK SMILES IDX 64 76 65 77 66 78 67 79 46 80 47 81 55 82 48 83 54 84 56 85
REMARK SMILES IDX 53 86 49 87 50 88 51 89 52 90
REMARK H PARENT 7 9 76 43 44 54
REMARK Flexibility Score: inf
ROOT
ATOM      1  C   UNL     1       6.964   1.444   2.326  1.00  0.00     0.274 C 
ENDROOT
BRANCH   1   2
ATOM      2  O   UNL     1       5.934   2.055   1.524  1.00  0.00    -0.461 OA
BRANCH   2   3
ATOM      3  C   UNL     1       4.665   1.823   1.956  1.00  0.00     0.325 C 
ATOM      4  O   UNL     1       4.380   1.104   2.911  1.00  0.00    -0.250 OA
BRANCH   3   5
ATOM      5  C   UNL     1       3.594   2.609   1.202  1.00  0.00     0.244 C 
BRANCH   5   6
ATOM      6  N   UNL     1       3.949   3.136  -0.116  1.00  0.00    -0.309 N 
BRANCH   6   7
ATOM      7  C   UNL     1       3.910   2.368  -1.257  1.00  0.00     0.318 C 
ATOM      8  N   UNL     1       3.519   1.082  -1.297  1.00  0.00    -0.333 N 
ATOM      9  H   UNL     1       3.458   0.778  -2.231  1.00  0.00     0.165 HD
ATOM     10  O   UNL     1       4.226   2.804  -2.368  1.00  0.00    -0.249 OA
BRANCH   8  11
ATOM     11  C   UNL     1       3.160   0.003  -0.399  1.00  0.00     0.166 C 
BRANCH  11  12
ATOM     12  C   UNL     1       1.692  -0.272  -0.381  1.00  0.00     0.044 A 
ATOM     13  C   UNL     1      -2.159   0.151  -0.062  1.00  0.00     0.079 C 
ATOM     14  C   UNL     1      -0.733  -0.248  -0.208  1.00  0.00     0.090 A 
ATOM     15  N   UNL     1      -0.305  -1.492  -0.231  1.00  0.00    -0.250 NA
ATOM     16  S   UNL     1       0.487   0.952  -0.350  1.00  0.00    -0.122 S 
ATOM     17  C   UNL     1       1.071  -1.506  -0.313  1.00  0.00     0.128 A 
ENDBRANCH  11  12
ENDBRANCH   8  11
ENDBRANCH   6   7
BRANCH   6  18
ATOM     18  C   UNL     1       4.312   4.610  -0.240  1.00  0.00     0.037 C 
ATOM     19  C   UNL     1       5.762   4.778  -0.745  1.00  0.00     0.034 C 
ATOM     20  C   UNL     1       3.329   5.328  -1.197  1.00  0.00     0.034 C 
ATOM     21  C   UNL     1       4.240   5.409   1.088  1.00  0.00     0.034 C 
ENDBRANCH   6  18
ENDBRANCH   5   6
ENDBRANCH   3   5
ENDBRANCH   2   3
ENDBRANCH   1   2
BRANCH   1  22
ATOM     22  C   UNL     1       7.492   2.424   3.375  1.00  0.00     0.275 C 
BRANCH  22  23
ATOM     23  O   UNL     1       6.393   2.999   4.102  1.00  0.00    -0.458 OA
BRANCH  23  24
ATOM     24  C   UNL     1       6.443   4.336   4.294  1.00  0.00     0.338 C 
ATOM     25  O   UNL     1       7.391   5.068   4.032  1.00  0.00    -0.246 OA
BRANCH  24  26
ATOM     26  C   UNL     1       5.162   4.839   4.846  1.00  0.00     0.060 A 
ATOM     27  C   UNL     1       3.950   4.188   4.600  1.00  0.00     0.016 A 
ATOM     28  C   UNL     1       5.157   6.040   5.558  1.00  0.00     0.016 A 
ATOM     29  C   UNL     1       2.741   4.768   4.989  1.00  0.00     0.010 A 
ATOM     30  C   UNL     1       3.953   6.562   6.044  1.00  0.00     0.010 A 
ATOM     31  C   UNL     1       2.726   5.943   5.752  1.00  0.00    -0.014 A 
BRANCH  31  32
ATOM     32  C   UNL     1       1.445   6.506   6.273  1.00  0.00     0.031 A 
ATOM     33  C   UNL     1       1.049   7.928   5.964  1.00  0.00     0.074 A 
ATOM     34  C   UNL     1       0.655   5.755   7.069  1.00  0.00     0.049 A 
ATOM     35  N   UNL     1       0.094   8.653   6.490  1.00  0.00    -0.248 NA
ATOM     36  C   UNL     1       1.844   8.633   4.947  1.00  0.00     0.031 C 
ATOM     37  C   UNL     1       0.906   4.359   7.442  1.00  0.00     0.029 A 
ATOM     38  N   UNL     1      -0.516   6.059   7.719  1.00  0.00    -0.354 N 
ATOM     39  C   UNL     1       0.212   9.917   5.918  1.00  0.00     0.074 A 
ATOM     40  C   UNL     1       1.331   9.855   5.000  1.00  0.00     0.031 C 
ATOM     41  C   UNL     1      -0.090   3.924   8.226  1.00  0.00     0.029 A 
ATOM     42  C   UNL     1      -1.001   5.029   8.494  1.00  0.00     0.049 A 
ATOM     43  H   UNL     1      -0.966   6.931   7.639  1.00  0.00     0.167 HD
ATOM     44  C   UNL     1      -0.538  11.024   6.146  1.00  0.00     0.034 A 
ATOM     45  C   UNL     1      -2.028   4.985   9.365  1.00  0.00     0.034 A 
ATOM     46  C   UNL     1      -1.689  11.057   7.018  1.00  0.00     0.049 A 
ATOM     47  C   UNL     1      -2.838   6.230   9.604  1.00  0.00     0.074 A 
ATOM     48  C   UNL     1      -2.558  12.110   7.254  1.00  0.00     0.029 A 
ATOM     49  N   UNL     1      -2.134   9.996   7.793  1.00  0.00    -0.354 N 
ATOM     50  N   UNL     1      -2.696   7.420   9.070  1.00  0.00    -0.248 NA
ATOM     51  C   UNL     1      -3.936   6.126  10.572  1.00  0.00     0.031 C 
ATOM     52  C   UNL     1      -3.492  11.704   8.214  1.00  0.00     0.029 A 
ATOM     53  C   UNL     1      -3.246  10.378   8.530  1.00  0.00     0.049 A 
ATOM     54  H   UNL     1      -1.722   9.103   7.816  1.00  0.00     0.167 HD
ATOM     55  C   UNL     1      -3.698   8.205   9.633  1.00  0.00     0.074 A 
ATOM     56  C   UNL     1      -4.449   7.346  10.525  1.00  0.00     0.031 C 
ATOM     57  C   UNL     1      -3.971   9.519   9.434  1.00  0.00     0.034 A 
BRANCH  44  58
ATOM     58  C   UNL     1      -0.110  12.312   5.488  1.00  0.00     0.023 A 
ATOM     59  C   UNL     1      -0.200  12.515   4.101  1.00  0.00     0.031 A 
ATOM     60  C   UNL     1       0.382  13.366   6.280  1.00  0.00     0.131 A 
ATOM     61  C   UNL     1       0.238  13.727   3.544  1.00  0.00     0.055 A 
ATOM     62  C   UNL     1       0.758  14.591   5.726  1.00  0.00     0.041 A 
ATOM     63  F   UNL     1       0.506  13.220   7.609  1.00  0.00    -0.206 F 
ATOM     64  C   UNL     1       0.695  14.774   4.349  1.00  0.00     0.022 A 
BRANCH  61  65
ATOM     65  S   UNL     1       0.291  13.887   1.738  1.00  0.00     0.124 S 
ATOM     66  O   UNL     1       1.221  12.820   1.375  1.00  0.00    -0.237 OA
ATOM     67  O   UNL     1      -1.101  13.676   1.361  1.00  0.00    -0.237 OA
ATOM     68  O   UNL     1       0.796  15.242   1.527  1.00  0.00    -0.744 OA
ENDBRANCH  61  65
ENDBRANCH  44  58
BRANCH  45  69
ATOM     69  C   UNL     1      -2.309   3.740  10.135  1.00  0.00     0.023 A 
ATOM     70  C   UNL     1      -3.512   3.039   9.961  1.00  0.00     0.031 A 
ATOM     71  C   UNL     1      -1.395   3.257  11.089  1.00  0.00     0.131 A 
ATOM     72  C   UNL     1      -3.786   1.916  10.756  1.00  0.00     0.055 A 
ATOM     73  C   UNL     1      -1.648   2.109  11.839  1.00  0.00     0.041 A 
ATOM     74  F   UNL     1      -0.229   3.892  11.294  1.00  0.00    -0.206 F 
ATOM     75  C   UNL     1      -2.857   1.438  11.683  1.00  0.00     0.022 A 
BRANCH  72  76
ATOM     76  S   UNL     1      -5.418   1.137  10.622  1.00  0.00     0.124 S 
ATOM     77  O   UNL     1      -6.309   2.260  10.893  1.00  0.00    -0.237 OA
ATOM     78  O   UNL     1      -5.406   0.647   9.248  1.00  0.00    -0.237 OA
ATOM     79  O   UNL     1      -5.387   0.102  11.652  1.00  0.00    -0.744 OA
ENDBRANCH  72  76
ENDBRANCH  45  69
BRANCH  57  80
ATOM     80  C   UNL     1      -5.154  10.081  10.179  1.00  0.00     0.023 A 
ATOM     81  C   UNL     1      -5.135  10.235  11.576  1.00  0.00     0.031 A 
ATOM     82  C   UNL     1      -6.331  10.417   9.489  1.00  0.00     0.131 A 
ATOM     83  C   UNL     1      -6.293  10.652  12.248  1.00  0.00     0.055 A 
ATOM     84  C   UNL     1      -7.463  10.884  10.157  1.00  0.00     0.041 A 
ATOM     85  F   UNL     1      -6.402  10.284   8.155  1.00  0.00    -0.206 F 
ATOM     86  C   UNL     1      -7.454  10.989  11.546  1.00  0.00     0.022 A 
BRANCH  83  87
ATOM     87  S   UNL     1      -6.296  10.651  14.062  1.00  0.00     0.124 S 
ATOM     88  O   UNL     1      -5.977   9.260  14.366  1.00  0.00    -0.237 OA
ATOM     89  O   UNL     1      -5.257  11.627  14.376  1.00  0.00    -0.237 OA
ATOM     90  O   UNL     1      -7.656  11.064  14.403  1.00  0.00    -0.744 OA
ENDBRANCH  83  87
ENDBRANCH  57  80
ENDBRANCH  31  32
ENDBRANCH  24  26
ENDBRANCH  23  24
ENDBRANCH  22  23
ENDBRANCH   1  22
TORSDOF 19
