REMARK SMILES O=C1O[C@@H](c2ccc(O)c(O)c2)[C@H](C(=O)OCCOC(=O)c2ccc(-c3c4nc(c(-c5cc(S(=O)(=O)[O-])ccc5F)c5ccc([nH]5)c(-c5cc(S(=O)(=O)[O-])ccc5F)c5nc(c(-c6cc(S(=O)(=O)[O-])ccc6F)c6ccc3[nH]6)C=C5)C=C4)cc2)/C1=C\c1ccc(O)c(O)c1
REMARK SMILES IDX 18 1 17 2 16 3 14 4 15 5 13 6 1 7 2 8 3 9 85 10 4 11 86 12
REMARK SMILES IDX 5 13 6 14 12 15 7 16 10 17 8 18 11 19 9 21 87 23 88 24 94 25
REMARK SMILES IDX 89 26 92 27 90 28 93 29 91 31 19 33 20 34 21 35 22 36 23 37
REMARK SMILES IDX 84 38 24 39 83 40 25 41 26 42 27 43 77 44 28 45 82 46 76 47
REMARK SMILES IDX 78 48 29 49 81 50 75 51 74 52 30 54 62 55 42 56 61 57 43 58
REMARK SMILES IDX 46 59 60 60 79 61 44 62 45 63 59 65 80 66 47 67 31 68 32 69
REMARK SMILES IDX 40 70 33 71 39 72 41 73 38 74 34 75 35 76 36 77 37 78 63 79
REMARK SMILES IDX 64 80 72 81 65 82 71 83 73 84 70 85 66 86 67 87 68 88 69 89
REMARK SMILES IDX 48 90 49 91 57 92 50 93 56 94 58 95 55 96 51 97 52 98 53 99
REMARK SMILES IDX 54 100
REMARK H PARENT 11 20 9 22 93 30 91 32 78 53 46 64
REMARK Flexibility Score: inf
ROOT
ATOM      1  C   UNL     1       2.570   2.923   4.230  1.00  0.00     0.275 C 
ENDROOT
BRANCH   1   2
ATOM      2  C   UNL     1       2.967   1.567   3.632  1.00  0.00     0.274 C 
BRANCH   2   3
ATOM      3  O   UNL     1       2.871   1.548   2.189  1.00  0.00    -0.461 OA
BRANCH   3   4
ATOM      4  C   UNL     1       1.712   1.047   1.670  1.00  0.00     0.318 C 
ATOM      5  O   UNL     1       0.829   0.538   2.347  1.00  0.00    -0.251 OA
BRANCH   4   6
ATOM      6  C   UNL     1       1.726   1.099   0.145  1.00  0.00     0.182 C 
ATOM      7  O   UNL     1      -1.469  -0.240  -0.550  1.00  0.00    -0.247 OA
ATOM      8  C   UNL     1      -0.288  -0.023  -0.446  1.00  0.00     0.335 C 
ATOM      9  O   UNL     1       0.691  -0.962  -0.281  1.00  0.00    -0.453 OA
ATOM     10  C   UNL     1       0.383   1.305  -0.465  1.00  0.00     0.056 C 
ATOM     11  C   UNL     1       1.988  -0.333  -0.317  1.00  0.00     0.226 C 
ATOM     12  C   UNL     1      -0.194   2.341  -1.096  1.00  0.00     0.020 C 
BRANCH  11  13
ATOM     13  C   UNL     1       2.601  -0.454  -1.707  1.00  0.00    -0.002 A 
ATOM     14  C   UNL     1       3.730   0.312  -2.053  1.00  0.00     0.012 A 
ATOM     15  C   UNL     1       2.069  -1.337  -2.664  1.00  0.00     0.057 A 
ATOM     16  C   UNL     1       4.271   0.257  -3.341  1.00  0.00     0.050 A 
ATOM     17  C   UNL     1       2.619  -1.392  -3.937  1.00  0.00     0.157 A 
ATOM     18  C   UNL     1       3.701  -0.591  -4.280  1.00  0.00     0.157 A 
BRANCH  17  19
ATOM     19  O   UNL     1       2.072  -2.235  -4.862  1.00  0.00    -0.504 OA
ATOM     20  H   UNL     1       2.434  -2.282  -5.725  1.00  0.00     0.293 HD
ENDBRANCH  17  19
BRANCH  18  21
ATOM     21  O   UNL     1       4.175  -0.669  -5.560  1.00  0.00    -0.504 OA
ATOM     22  H   UNL     1       4.903  -0.142  -5.823  1.00  0.00     0.293 HD
ENDBRANCH  18  21
ENDBRANCH  11  13
BRANCH  12  23
ATOM     23  C   UNL     1       0.363   3.690  -1.260  1.00  0.00    -0.021 A 
ATOM     24  C   UNL     1       1.198   4.052  -2.320  1.00  0.00     0.012 A 
ATOM     25  C   UNL     1      -0.014   4.681  -0.356  1.00  0.00     0.058 A 
ATOM     26  C   UNL     1       1.636   5.384  -2.455  1.00  0.00     0.051 A 
ATOM     27  C   UNL     1       0.470   5.974  -0.443  1.00  0.00     0.157 A 
ATOM     28  C   UNL     1       1.268   6.334  -1.509  1.00  0.00     0.157 A 
BRANCH  27  29
ATOM     29  O   UNL     1       0.125   6.886   0.513  1.00  0.00    -0.504 OA
ATOM     30  H   UNL     1       0.449   7.764   0.461  1.00  0.00     0.293 HD
ENDBRANCH  27  29
BRANCH  28  31
ATOM     31  O   UNL     1       1.645   7.642  -1.609  1.00  0.00    -0.504 OA
ATOM     32  H   UNL     1       2.186   7.920  -2.321  1.00  0.00     0.293 HD
ENDBRANCH  28  31
ENDBRANCH  12  23
ENDBRANCH   4   6
ENDBRANCH   3   4
ENDBRANCH   2   3
ENDBRANCH   1   2
BRANCH   1  33
ATOM     33  O   UNL     1       1.141   3.130   4.218  1.00  0.00    -0.458 OA
BRANCH  33  34
ATOM     34  C   UNL     1       0.710   3.713   3.077  1.00  0.00     0.338 C 
ATOM     35  O   UNL     1       1.428   4.028   2.140  1.00  0.00    -0.246 OA
BRANCH  34  36
ATOM     36  C   UNL     1      -0.757   3.863   3.000  1.00  0.00     0.060 A 
ATOM     37  C   UNL     1      -1.456   2.889   2.289  1.00  0.00     0.016 A 
ATOM     38  C   UNL     1      -1.324   5.128   3.182  1.00  0.00     0.016 A 
ATOM     39  C   UNL     1      -2.626   3.241   1.611  1.00  0.00     0.010 A 
ATOM     40  C   UNL     1      -2.563   5.438   2.589  1.00  0.00     0.010 A 
ATOM     41  C   UNL     1      -3.201   4.522   1.736  1.00  0.00    -0.014 A 
BRANCH  41  42
ATOM     42  C   UNL     1      -4.435   4.871   0.956  1.00  0.00     0.031 A 
ATOM     43  C   UNL     1      -4.509   6.060   0.015  1.00  0.00     0.074 A 
ATOM     44  C   UNL     1      -5.508   4.059   1.045  1.00  0.00     0.049 A 
ATOM     45  N   UNL     1      -5.539   6.552  -0.635  1.00  0.00    -0.248 NA
ATOM     46  C   UNL     1      -3.262   6.787  -0.242  1.00  0.00     0.031 C 
ATOM     47  C   UNL     1      -5.572   2.833   1.845  1.00  0.00     0.029 A 
ATOM     48  N   UNL     1      -6.744   4.128   0.451  1.00  0.00    -0.354 N 
ATOM     49  C   UNL     1      -5.067   7.651  -1.356  1.00  0.00     0.074 A 
ATOM     50  C   UNL     1      -3.655   7.756  -1.061  1.00  0.00     0.031 C 
ATOM     51  C   UNL     1      -6.754   2.241   1.652  1.00  0.00     0.029 A 
ATOM     52  C   UNL     1      -7.590   3.121   0.849  1.00  0.00     0.049 A 
ATOM     53  H   UNL     1      -6.998   4.828  -0.193  1.00  0.00     0.167 HD
ATOM     54  C   UNL     1      -5.750   8.498  -2.173  1.00  0.00     0.034 A 
ATOM     55  C   UNL     1      -8.914   2.952   0.679  1.00  0.00     0.034 A 
ATOM     56  C   UNL     1      -7.167   8.378  -2.455  1.00  0.00     0.049 A 
ATOM     57  C   UNL     1      -9.681   3.969  -0.108  1.00  0.00     0.074 A 
ATOM     58  C   UNL     1      -7.959   9.178  -3.264  1.00  0.00     0.029 A 
ATOM     59  N   UNL     1      -8.009   7.405  -1.929  1.00  0.00    -0.354 N 
ATOM     60  N   UNL     1      -9.240   5.048  -0.712  1.00  0.00    -0.248 NA
ATOM     61  C   UNL     1     -11.124   3.749  -0.227  1.00  0.00     0.031 C 
ATOM     62  C   UNL     1      -9.286   8.745  -3.158  1.00  0.00     0.029 A 
ATOM     63  C   UNL     1      -9.314   7.615  -2.358  1.00  0.00     0.049 A 
ATOM     64  H   UNL     1      -7.722   6.673  -1.337  1.00  0.00     0.167 HD
ATOM     65  C   UNL     1     -10.358   5.634  -1.294  1.00  0.00     0.074 A 
ATOM     66  C   UNL     1     -11.483   4.771  -0.989  1.00  0.00     0.031 C 
ATOM     67  C   UNL     1     -10.442   6.780  -2.016  1.00  0.00     0.034 A 
BRANCH  54  68
ATOM     68  C   UNL     1      -5.012   9.685  -2.766  1.00  0.00     0.023 A 
ATOM     69  C   UNL     1      -3.974   9.550  -3.707  1.00  0.00     0.031 A 
ATOM     70  C   UNL     1      -5.396  10.993  -2.405  1.00  0.00     0.131 A 
ATOM     71  C   UNL     1      -3.339  10.694  -4.226  1.00  0.00     0.055 A 
ATOM     72  C   UNL     1      -4.812  12.125  -2.977  1.00  0.00     0.041 A 
ATOM     73  F   UNL     1      -6.361  11.193  -1.493  1.00  0.00    -0.206 F 
ATOM     74  C   UNL     1      -3.772  11.980  -3.889  1.00  0.00     0.022 A 
BRANCH  71  75
ATOM     75  S   UNL     1      -1.866  10.491  -5.270  1.00  0.00     0.124 S 
ATOM     76  O   UNL     1      -0.988   9.695  -4.413  1.00  0.00    -0.237 OA
ATOM     77  O   UNL     1      -2.400   9.811  -6.444  1.00  0.00    -0.237 OA
ATOM     78  O   UNL     1      -1.414  11.863  -5.498  1.00  0.00    -0.744 OA
ENDBRANCH  71  75
ENDBRANCH  54  68
BRANCH  55  79
ATOM     79  C   UNL     1      -9.592   1.827   1.379  1.00  0.00     0.023 A 
ATOM     80  C   UNL     1     -10.212   0.789   0.671  1.00  0.00     0.031 A 
ATOM     81  C   UNL     1      -9.595   1.765   2.788  1.00  0.00     0.131 A 
ATOM     82  C   UNL     1     -10.814  -0.265   1.375  1.00  0.00     0.055 A 
ATOM     83  C   UNL     1     -10.133   0.681   3.478  1.00  0.00     0.041 A 
ATOM     84  F   UNL     1      -9.022   2.740   3.513  1.00  0.00    -0.206 F 
ATOM     85  C   UNL     1     -10.754  -0.340   2.770  1.00  0.00     0.022 A 
BRANCH  82  86
ATOM     86  S   UNL     1     -11.742  -1.511   0.443  1.00  0.00     0.124 S 
ATOM     87  O   UNL     1     -12.727  -0.691  -0.253  1.00  0.00    -0.237 OA
ATOM     88  O   UNL     1     -10.702  -2.108  -0.389  1.00  0.00    -0.237 OA
ATOM     89  O   UNL     1     -12.281  -2.383   1.484  1.00  0.00    -0.744 OA
ENDBRANCH  82  86
ENDBRANCH  55  79
BRANCH  67  90
ATOM     90  C   UNL     1     -11.810   7.137  -2.544  1.00  0.00     0.023 A 
ATOM     91  C   UNL     1     -12.872   7.452  -1.677  1.00  0.00     0.031 A 
ATOM     92  C   UNL     1     -12.078   7.079  -3.923  1.00  0.00     0.131 A 
ATOM     93  C   UNL     1     -14.168   7.609  -2.188  1.00  0.00     0.055 A 
ATOM     94  C   UNL     1     -13.357   7.309  -4.432  1.00  0.00     0.041 A 
ATOM     95  F   UNL     1     -11.105   6.778  -4.797  1.00  0.00    -0.206 F 
ATOM     96  C   UNL     1     -14.415   7.554  -3.562  1.00  0.00     0.022 A 
BRANCH  93  97
ATOM     97  S   UNL     1     -15.551   7.740  -1.021  1.00  0.00     0.124 S 
ATOM     98  O   UNL     1     -15.409   6.512  -0.245  1.00  0.00    -0.237 OA
ATOM     99  O   UNL     1     -15.246   8.980  -0.314  1.00  0.00    -0.237 OA
ATOM    100  O   UNL     1     -16.727   7.794  -1.887  1.00  0.00    -0.744 OA
ENDBRANCH  93  97
ENDBRANCH  67  90
ENDBRANCH  41  42
ENDBRANCH  34  36
ENDBRANCH  33  34
ENDBRANCH   1  33
TORSDOF 20
