REMARK SMILES NS(=O)(=O)CCNC(=O)N1[C@@H]2CC[C@H]1C[C@H](CC(=O)OCCOC(=O)c1ccc(-c3c4nc(c(-c5cc(S(=O)(=O)[O-])ccc5F)c5ccc([nH]5)c(-c5cc(S(=O)(=O)[O-])ccc5F)c5nc(c(-c6cc(S(=O)(=O)[O-])ccc6F)c6ccc3[nH]6)C=C5)C=C4)cc1)C2
REMARK SMILES IDX 20 1 18 2 19 3 17 4 16 5 10 6 11 7 14 8 12 9 89 10 13 11
REMARK SMILES IDX 15 12 8 13 7 14 9 16 6 17 5 18 2 19 3 20 4 21 1 22 21 25
REMARK SMILES IDX 22 26 23 27 24 28 25 29 26 30 27 31 88 32 28 33 87 34 29 35
REMARK SMILES IDX 30 36 31 37 81 38 32 39 86 40 80 41 82 42 33 43 85 44 79 45
REMARK SMILES IDX 78 46 34 48 66 49 46 50 65 51 47 52 50 53 64 54 83 55 48 56
REMARK SMILES IDX 49 57 63 59 84 60 51 61 35 62 36 63 44 64 37 65 43 66 45 67
REMARK SMILES IDX 42 68 38 69 39 70 40 71 41 72 67 73 68 74 76 75 69 76 75 77
REMARK SMILES IDX 77 78 74 79 70 80 71 81 72 82 73 83 52 84 53 85 61 86 54 87
REMARK SMILES IDX 60 88 62 89 59 90 55 91 56 92 57 93 58 94
REMARK H PARENT 7 15 1 23 1 24 82 47 50 58
REMARK Flexibility Score: inf
ROOT
ATOM      1  O   UNL     1       0.772   5.015  -5.117  1.00  0.00    -0.462 OA
ENDROOT
BRANCH   1   2
ATOM      2  C   UNL     1       2.060   4.707  -5.406  1.00  0.00     0.306 C 
ATOM      3  O   UNL     1       2.500   4.559  -6.538  1.00  0.00    -0.252 OA
BRANCH   2   4
ATOM      4  C   UNL     1       2.896   4.476  -4.158  1.00  0.00     0.126 C 
BRANCH   4   5
ATOM      5  C   UNL     1       2.729   5.482  -2.993  1.00  0.00     0.004 C 
ATOM      6  N   UNL     1       2.112   4.861  -0.283  1.00  0.00    -0.319 N 
ATOM      7  C   UNL     1       3.381   5.541  -0.480  1.00  0.00     0.087 C 
ATOM      8  C   UNL     1       1.123   5.679  -0.950  1.00  0.00     0.087 C 
ATOM      9  C   UNL     1       3.039   7.025  -0.321  1.00  0.00     0.027 C 
ATOM     10  C   UNL     1       3.817   5.197  -1.914  1.00  0.00     0.029 C 
ATOM     11  C   UNL     1       1.531   7.105  -0.565  1.00  0.00     0.027 C 
ATOM     12  C   UNL     1       1.274   5.465  -2.455  1.00  0.00     0.029 C 
BRANCH   6  13
ATOM     13  C   UNL     1       2.010   3.720   0.435  1.00  0.00     0.317 C 
ATOM     14  N   UNL     1       0.955   2.887   0.294  1.00  0.00    -0.337 N 
ATOM     15  H   UNL     1       0.714   2.397   1.114  1.00  0.00     0.165 HD
ATOM     16  O   UNL     1       2.883   3.361   1.228  1.00  0.00    -0.249 OA
BRANCH  14  17
ATOM     17  C   UNL     1       0.111   2.584  -0.854  1.00  0.00     0.135 C 
BRANCH  17  18
ATOM     18  C   UNL     1       0.822   1.714  -1.882  1.00  0.00     0.175 C 
BRANCH  18  19
ATOM     19  S   UNL     1       0.576  -0.030  -1.571  1.00  0.00     0.210 S 
ATOM     20  O   UNL     1       1.457  -0.799  -2.419  1.00  0.00    -0.213 OA
ATOM     21  O   UNL     1      -0.837  -0.315  -1.493  1.00  0.00    -0.213 OA
BRANCH  19  22
ATOM     22  N   UNL     1       1.167  -0.230  -0.018  1.00  0.00    -0.229 NA
ATOM     23  H   UNL     1       1.072  -1.207   0.259  1.00  0.00     0.137 HD
ATOM     24  H   UNL     1       0.639   0.360   0.625  1.00  0.00     0.137 HD
ENDBRANCH  19  22
ENDBRANCH  18  19
ENDBRANCH  17  18
ENDBRANCH  14  17
ENDBRANCH   6  13
ENDBRANCH   4   5
ENDBRANCH   2   4
ENDBRANCH   1   2
BRANCH   1  25
ATOM     25  C   UNL     1      -0.090   5.357  -6.216  1.00  0.00     0.274 C 
BRANCH  25  26
ATOM     26  C   UNL     1      -0.163   6.874  -6.398  1.00  0.00     0.275 C 
BRANCH  26  27
ATOM     27  O   UNL     1       1.091   7.394  -6.873  1.00  0.00    -0.458 OA
BRANCH  27  28
ATOM     28  C   UNL     1       1.885   7.947  -5.926  1.00  0.00     0.338 C 
ATOM     29  O   UNL     1       1.621   8.113  -4.748  1.00  0.00    -0.246 OA
BRANCH  28  30
ATOM     30  C   UNL     1       3.205   8.232  -6.506  1.00  0.00     0.060 A 
ATOM     31  C   UNL     1       4.275   7.390  -6.194  1.00  0.00     0.016 A 
ATOM     32  C   UNL     1       3.401   9.368  -7.288  1.00  0.00     0.016 A 
ATOM     33  C   UNL     1       5.554   7.684  -6.654  1.00  0.00     0.010 A 
ATOM     34  C   UNL     1       4.683   9.653  -7.766  1.00  0.00     0.010 A 
ATOM     35  C   UNL     1       5.770   8.819  -7.443  1.00  0.00    -0.014 A 
BRANCH  35  36
ATOM     36  C   UNL     1       7.143   9.165  -7.886  1.00  0.00     0.031 A 
ATOM     37  C   UNL     1       7.823  10.376  -7.315  1.00  0.00     0.074 A 
ATOM     38  C   UNL     1       7.772   8.393  -8.793  1.00  0.00     0.049 A 
ATOM     39  N   UNL     1       8.958  10.929  -7.655  1.00  0.00    -0.248 NA
ATOM     40  C   UNL     1       7.123  11.062  -6.218  1.00  0.00     0.031 C 
ATOM     41  C   UNL     1       7.232   7.161  -9.371  1.00  0.00     0.029 A 
ATOM     42  N   UNL     1       8.997   8.534  -9.394  1.00  0.00    -0.354 N 
ATOM     43  C   UNL     1       9.099  12.042  -6.834  1.00  0.00     0.074 A 
ATOM     44  C   UNL     1       7.916  12.100  -6.000  1.00  0.00     0.031 C 
ATOM     45  C   UNL     1       8.123   6.658 -10.239  1.00  0.00     0.029 A 
ATOM     46  C   UNL     1       9.263   7.565 -10.334  1.00  0.00     0.049 A 
ATOM     47  H   UNL     1       9.626   9.258  -9.173  1.00  0.00     0.167 HD
ATOM     48  C   UNL     1      10.124  12.929  -6.784  1.00  0.00     0.034 A 
ATOM     49  C   UNL     1      10.287   7.446 -11.202  1.00  0.00     0.034 A 
ATOM     50  C   UNL     1      11.293  12.846  -7.627  1.00  0.00     0.049 A 
ATOM     51  C   UNL     1      11.369   8.498 -11.192  1.00  0.00     0.074 A 
ATOM     52  C   UNL     1      12.397  13.681  -7.654  1.00  0.00     0.029 A 
ATOM     53  N   UNL     1      11.506  11.878  -8.602  1.00  0.00    -0.354 N 
ATOM     54  N   UNL     1      11.485   9.558 -10.424  1.00  0.00    -0.248 NA
ATOM     55  C   UNL     1      12.457   8.338 -12.165  1.00  0.00     0.031 C 
ATOM     56  C   UNL     1      13.234  13.268  -8.696  1.00  0.00     0.029 A 
ATOM     57  C   UNL     1      12.703  12.118  -9.259  1.00  0.00     0.049 A 
ATOM     58  H   UNL     1      10.896  11.131  -8.797  1.00  0.00     0.167 HD
ATOM     59  C   UNL     1      12.679  10.169 -10.799  1.00  0.00     0.074 A 
ATOM     60  C   UNL     1      13.248   9.353 -11.852  1.00  0.00     0.031 C 
ATOM     61  C   UNL     1      13.256  11.298 -10.313  1.00  0.00     0.034 A 
BRANCH  48  62
ATOM     62  C   UNL     1       9.992  14.094  -5.831  1.00  0.00     0.023 A 
ATOM     63  C   UNL     1       9.910  13.914  -4.439  1.00  0.00     0.031 A 
ATOM     64  C   UNL     1       9.920  15.408  -6.328  1.00  0.00     0.131 A 
ATOM     65  C   UNL     1       9.686  15.018  -3.602  1.00  0.00     0.055 A 
ATOM     66  C   UNL     1       9.784  16.511  -5.482  1.00  0.00     0.041 A 
ATOM     67  F   UNL     1       9.966  15.643  -7.649  1.00  0.00    -0.206 F 
ATOM     68  C   UNL     1       9.650  16.318  -4.111  1.00  0.00     0.022 A 
BRANCH  65  69
ATOM     69  S   UNL     1       9.287  14.717  -1.858  1.00  0.00     0.124 S 
ATOM     70  O   UNL     1       8.103  13.868  -1.969  1.00  0.00    -0.237 OA
ATOM     71  O   UNL     1      10.496  14.068  -1.365  1.00  0.00    -0.237 OA
ATOM     72  O   UNL     1       9.036  16.056  -1.327  1.00  0.00    -0.744 OA
ENDBRANCH  65  69
ENDBRANCH  48  62
BRANCH  49  73
ATOM     73  C   UNL     1      10.321   6.325 -12.185  1.00  0.00     0.023 A 
ATOM     74  C   UNL     1      11.365   5.386 -12.177  1.00  0.00     0.031 A 
ATOM     75  C   UNL     1       9.336   6.204 -13.182  1.00  0.00     0.131 A 
ATOM     76  C   UNL     1      11.427   4.401 -13.175  1.00  0.00     0.055 A 
ATOM     77  C   UNL     1       9.367   5.183 -14.133  1.00  0.00     0.041 A 
ATOM     78  F   UNL     1       8.317   7.077 -13.242  1.00  0.00    -0.206 F 
ATOM     79  C   UNL     1      10.427   4.282 -14.142  1.00  0.00     0.022 A 
BRANCH  76  80
ATOM     80  S   UNL     1      12.894   3.337 -13.251  1.00  0.00     0.124 S 
ATOM     81  O   UNL     1      13.963   4.318 -13.396  1.00  0.00    -0.237 OA
ATOM     82  O   UNL     1      12.831   2.641 -11.971  1.00  0.00    -0.237 OA
ATOM     83  O   UNL     1      12.648   2.503 -14.426  1.00  0.00    -0.744 OA
ENDBRANCH  76  80
ENDBRANCH  49  73
BRANCH  61  84
ATOM     84  C   UNL     1      14.604  11.680 -10.878  1.00  0.00     0.023 A 
ATOM     85  C   UNL     1      14.768  12.070 -12.219  1.00  0.00     0.031 A 
ATOM     86  C   UNL     1      15.745  11.647 -10.056  1.00  0.00     0.131 A 
ATOM     87  C   UNL     1      16.051  12.355 -12.711  1.00  0.00     0.055 A 
ATOM     88  C   UNL     1      17.008  11.999 -10.534  1.00  0.00     0.041 A 
ATOM     89  F   UNL     1      15.650  11.278  -8.768  1.00  0.00    -0.206 F 
ATOM     90  C   UNL     1      17.168  12.342 -11.872  1.00  0.00     0.022 A 
BRANCH  87  91
ATOM     91  S   UNL     1      16.256  12.647 -14.490  1.00  0.00     0.124 S 
ATOM     92  O   UNL     1      15.740  11.408 -15.062  1.00  0.00    -0.237 OA
ATOM     93  O   UNL     1      15.442  13.838 -14.708  1.00  0.00    -0.237 OA
ATOM     94  O   UNL     1      17.697  12.846 -14.640  1.00  0.00    -0.744 OA
ENDBRANCH  87  91
ENDBRANCH  61  84
ENDBRANCH  35  36
ENDBRANCH  28  30
ENDBRANCH  27  28
ENDBRANCH  26  27
ENDBRANCH  25  26
ENDBRANCH   1  25
TORSDOF 20
