REMARK SMILES Cc1n[nH]c(C)c1CC(=O)N1CC[C@H](C(=O)OCCOC(=O)c2ccc(-c3c4nc(c(-c5cc(S(=O)(=O)[O-])ccc5F)c5ccc([nH]5)c(-c5cc(S(=O)(=O)[O-])ccc5F)c5nc(c(-c6cc(S(=O)(=O)[O-])ccc6F)c6ccc3[nH]6)C=C5)C=C4)cc2)[C@H]1C
REMARK SMILES IDX 18 1 17 2 15 3 16 4 14 5 11 6 12 7 86 8 13 9 87 10 9 11
REMARK SMILES IDX 10 12 8 13 7 14 1 15 2 16 3 17 4 18 5 19 6 21 19 22 20 23
REMARK SMILES IDX 21 24 22 25 23 26 24 27 85 28 25 29 84 30 26 31 27 32 28 33
REMARK SMILES IDX 78 34 29 35 83 36 77 37 79 38 30 39 82 40 76 41 75 42 31 44
REMARK SMILES IDX 63 45 43 46 62 47 44 48 47 49 61 50 80 51 45 52 46 53 60 55
REMARK SMILES IDX 81 56 48 57 32 58 33 59 41 60 34 61 40 62 42 63 39 64 35 65
REMARK SMILES IDX 36 66 37 67 38 68 64 69 65 70 73 71 66 72 72 73 74 74 71 75
REMARK SMILES IDX 67 76 68 77 69 78 70 79 49 80 50 81 58 82 51 83 57 84 59 85
REMARK SMILES IDX 56 86 52 87 53 88 54 89 55 90
REMARK H PARENT 4 20 79 43 47 54
REMARK Flexibility Score: inf
ROOT
ATOM      1  C   UNL     1      -2.770  -0.104   5.044  1.00  0.00     0.274 C 
ENDROOT
BRANCH   1   2
ATOM      2  O   UNL     1      -1.554  -0.486   4.360  1.00  0.00    -0.462 OA
BRANCH   2   3
ATOM      3  C   UNL     1      -0.510  -0.813   5.162  1.00  0.00     0.311 C 
ATOM      4  O   UNL     1      -0.553  -0.802   6.390  1.00  0.00    -0.252 OA
BRANCH   3   5
ATOM      5  C   UNL     1       0.766  -1.183   4.428  1.00  0.00     0.123 C 
ATOM      6  N   UNL     1       0.399  -2.492   2.475  1.00  0.00    -0.339 N 
ATOM      7  C   UNL     1       0.379  -3.389   3.619  1.00  0.00     0.121 C 
ATOM      8  C   UNL     1       0.769  -1.132   2.888  1.00  0.00     0.096 C 
ATOM      9  C   UNL     1       1.138  -2.641   4.702  1.00  0.00     0.039 C 
ATOM     10  C   UNL     1       2.179  -0.758   2.424  1.00  0.00     0.032 C 
BRANCH   6  11
ATOM     11  C   UNL     1      -0.158  -2.920   1.284  1.00  0.00     0.227 C 
ATOM     12  O   UNL     1      -0.867  -3.934   1.263  1.00  0.00    -0.275 OA
BRANCH  11  13
ATOM     13  C   UNL     1       0.244  -2.293  -0.043  1.00  0.00     0.139 C 
BRANCH  13  14
ATOM     14  C   UNL     1       0.076  -0.823  -0.222  1.00  0.00     0.005 A 
ATOM     15  C   UNL     1      -2.481  -0.520   0.232  1.00  0.00     0.069 C 
ATOM     16  C   UNL     1      -1.111  -0.049  -0.090  1.00  0.00     0.063 A 
ATOM     17  N   UNL     1      -0.882   1.251  -0.316  1.00  0.00    -0.181 NA
ATOM     18  N   UNL     1       0.410   1.302  -0.660  1.00  0.00    -0.282 N 
ATOM     19  C   UNL     1       1.026   0.084  -0.669  1.00  0.00     0.036 A 
ATOM     20  H   UNL     1       0.874   2.140  -0.886  1.00  0.00     0.190 HD
ATOM     21  C   UNL     1       2.434  -0.072  -1.111  1.00  0.00     0.066 C 
ENDBRANCH  13  14
ENDBRANCH  11  13
ENDBRANCH   6  11
ENDBRANCH   3   5
ENDBRANCH   2   3
ENDBRANCH   1   2
BRANCH   1  22
ATOM     22  C   UNL     1      -3.769  -1.260   5.084  1.00  0.00     0.275 C 
BRANCH  22  23
ATOM     23  O   UNL     1      -3.170  -2.374   5.760  1.00  0.00    -0.458 OA
BRANCH  23  24
ATOM     24  C   UNL     1      -3.534  -3.601   5.323  1.00  0.00     0.338 C 
ATOM     25  O   UNL     1      -4.417  -3.842   4.508  1.00  0.00    -0.246 OA
BRANCH  24  26
ATOM     26  C   UNL     1      -2.688  -4.640   5.962  1.00  0.00     0.060 A 
ATOM     27  C   UNL     1      -1.438  -4.325   6.498  1.00  0.00     0.016 A 
ATOM     28  C   UNL     1      -3.107  -5.971   5.962  1.00  0.00     0.016 A 
ATOM     29  C   UNL     1      -0.573  -5.334   6.928  1.00  0.00     0.010 A 
ATOM     30  C   UNL     1      -2.285  -6.967   6.507  1.00  0.00     0.010 A 
ATOM     31  C   UNL     1      -0.991  -6.670   6.972  1.00  0.00    -0.014 A 
BRANCH  31  32
ATOM     32  C   UNL     1      -0.088  -7.754   7.474  1.00  0.00     0.031 A 
ATOM     33  C   UNL     1       0.156  -8.983   6.629  1.00  0.00     0.074 A 
ATOM     34  C   UNL     1       0.512  -7.665   8.681  1.00  0.00     0.049 A 
ATOM     35  N   UNL     1       0.647 -10.146   6.976  1.00  0.00    -0.248 NA
ATOM     36  C   UNL     1      -0.221  -8.893   5.210  1.00  0.00     0.031 C 
ATOM     37  C   UNL     1       0.435  -6.520   9.592  1.00  0.00     0.029 A 
ATOM     38  N   UNL     1       1.310  -8.561   9.356  1.00  0.00    -0.354 N 
ATOM     39  C   UNL     1       0.574 -10.947   5.840  1.00  0.00     0.074 A 
ATOM     40  C   UNL     1      -0.008 -10.134   4.793  1.00  0.00     0.031 C 
ATOM     41  C   UNL     1       1.183  -6.764  10.678  1.00  0.00     0.029 A 
ATOM     42  C   UNL     1       1.694  -8.127  10.606  1.00  0.00     0.049 A 
ATOM     43  H   UNL     1       1.580  -9.430   8.982  1.00  0.00     0.167 HD
ATOM     44  C   UNL     1       0.950 -12.242   5.690  1.00  0.00     0.034 A 
ATOM     45  C   UNL     1       2.323  -8.766  11.614  1.00  0.00     0.034 A 
ATOM     46  C   UNL     1       1.581 -13.025   6.725  1.00  0.00     0.049 A 
ATOM     47  C   UNL     1       2.694 -10.216  11.439  1.00  0.00     0.074 A 
ATOM     48  C   UNL     1       1.983 -14.351   6.684  1.00  0.00     0.029 A 
ATOM     49  N   UNL     1       1.928 -12.549   7.982  1.00  0.00    -0.354 N 
ATOM     50  N   UNL     1       2.506 -10.997  10.401  1.00  0.00    -0.248 NA
ATOM     51  C   UNL     1       3.343 -10.875  12.580  1.00  0.00     0.031 C 
ATOM     52  C   UNL     1       2.535 -14.685   7.926  1.00  0.00     0.029 A 
ATOM     53  C   UNL     1       2.534 -13.552   8.722  1.00  0.00     0.049 A 
ATOM     54  H   UNL     1       1.768 -11.631   8.301  1.00  0.00     0.167 HD
ATOM     55  C   UNL     1       3.027 -12.236  10.763  1.00  0.00     0.074 A 
ATOM     56  C   UNL     1       3.560 -12.091  12.101  1.00  0.00     0.031 C 
ATOM     57  C   UNL     1       3.056 -13.393  10.057  1.00  0.00     0.034 A 
BRANCH  44  58
ATOM     58  C   UNL     1       0.637 -12.915   4.375  1.00  0.00     0.023 A 
ATOM     59  C   UNL     1       1.280 -12.556   3.179  1.00  0.00     0.031 A 
ATOM     60  C   UNL     1      -0.324 -13.942   4.326  1.00  0.00     0.131 A 
ATOM     61  C   UNL     1       0.919 -13.185   1.976  1.00  0.00     0.055 A 
ATOM     62  C   UNL     1      -0.631 -14.609   3.139  1.00  0.00     0.041 A 
ATOM     63  F   UNL     1      -0.982 -14.314   5.435  1.00  0.00    -0.206 F 
ATOM     64  C   UNL     1      -0.014 -14.225   1.952  1.00  0.00     0.022 A 
BRANCH  61  65
ATOM     65  S   UNL     1       1.618 -12.562   0.423  1.00  0.00     0.124 S 
ATOM     66  O   UNL     1       1.100 -11.197   0.392  1.00  0.00    -0.237 OA
ATOM     67  O   UNL     1       3.053 -12.696   0.644  1.00  0.00    -0.237 OA
ATOM     68  O   UNL     1       1.058 -13.457  -0.589  1.00  0.00    -0.744 OA
ENDBRANCH  61  65
ENDBRANCH  44  58
BRANCH  45  69
ATOM     69  C   UNL     1       2.561  -8.079  12.919  1.00  0.00     0.023 A 
ATOM     70  C   UNL     1       3.862  -7.886  13.410  1.00  0.00     0.031 A 
ATOM     71  C   UNL     1       1.486  -7.663  13.726  1.00  0.00     0.131 A 
ATOM     72  C   UNL     1       4.053  -7.338  14.689  1.00  0.00     0.055 A 
ATOM     73  C   UNL     1       1.683  -7.059  14.968  1.00  0.00     0.041 A 
ATOM     74  F   UNL     1       0.220  -7.831  13.311  1.00  0.00    -0.206 F 
ATOM     75  C   UNL     1       2.973  -6.908  15.463  1.00  0.00     0.022 A 
BRANCH  72  76
ATOM     76  S   UNL     1       5.732  -7.298  15.375  1.00  0.00     0.124 S 
ATOM     77  O   UNL     1       6.131  -8.697  15.267  1.00  0.00    -0.237 OA
ATOM     78  O   UNL     1       6.404  -6.368  14.475  1.00  0.00    -0.237 OA
ATOM     79  O   UNL     1       5.530  -6.810  16.738  1.00  0.00    -0.744 OA
ENDBRANCH  72  76
ENDBRANCH  45  69
BRANCH  57  80
ATOM     80  C   UNL     1       3.735 -14.569  10.710  1.00  0.00     0.023 A 
ATOM     81  C   UNL     1       3.177 -15.216  11.826  1.00  0.00     0.031 A 
ATOM     82  C   UNL     1       4.975 -15.023  10.228  1.00  0.00     0.131 A 
ATOM     83  C   UNL     1       3.886 -16.247  12.460  1.00  0.00     0.055 A 
ATOM     84  C   UNL     1       5.652 -16.083  10.832  1.00  0.00     0.041 A 
ATOM     85  F   UNL     1       5.551 -14.438   9.166  1.00  0.00    -0.206 F 
ATOM     86  C   UNL     1       5.114 -16.692  11.963  1.00  0.00     0.022 A 
BRANCH  83  87
ATOM     87  S   UNL     1       3.224 -16.942  13.999  1.00  0.00     0.124 S 
ATOM     88  O   UNL     1       3.160 -15.766  14.862  1.00  0.00    -0.237 OA
ATOM     89  O   UNL     1       1.940 -17.487  13.569  1.00  0.00    -0.237 OA
ATOM     90  O   UNL     1       4.222 -17.939  14.383  1.00  0.00    -0.744 OA
ENDBRANCH  83  87
ENDBRANCH  57  80
ENDBRANCH  31  32
ENDBRANCH  24  26
ENDBRANCH  23  24
ENDBRANCH  22  23
ENDBRANCH   1  22
TORSDOF 17
