REMARK SMILES COc1ccc(-c2ccc(CCC(=O)OCCOC(=O)c3ccc(-c4c5nc(c(-c6cc(S(=O)(=O)[O-])ccc6F)c6ccc([nH]6)c(-c6cc(S(=O)(=O)[O-])ccc6F)c6nc(c(-c7cc(S(=O)(=O)[O-])ccc7F)c7ccc4[nH]7)C=C6)C=C5)cc3)n2-c2ccc(C(C)=O)cc2)cc1
REMARK SMILES IDX 16 1 15 2 13 3 14 4 12 5 11 6 10 7 7 8 8 9 84 10 9 11 6 12
REMARK SMILES IDX 3 13 4 14 95 15 5 16 94 17 2 18 1 19 85 20 86 21 93 22 87 23
REMARK SMILES IDX 92 24 88 25 89 26 90 27 91 28 17 29 18 30 19 31 20 32 21 33
REMARK SMILES IDX 22 34 83 35 23 36 82 37 24 38 25 39 26 40 76 41 27 42 81 43
REMARK SMILES IDX 75 44 77 45 28 46 80 47 74 48 73 49 29 51 61 52 41 53 60 54
REMARK SMILES IDX 42 55 45 56 59 57 78 58 43 59 44 60 58 62 79 63 46 64 30 65
REMARK SMILES IDX 31 66 39 67 32 68 38 69 40 70 37 71 33 72 34 73 35 74 36 75
REMARK SMILES IDX 62 76 63 77 71 78 64 79 70 80 72 81 69 82 65 83 66 84 67 85
REMARK SMILES IDX 68 86 47 87 48 88 56 89 49 90 55 91 57 92 54 93 50 94 51 95
REMARK SMILES IDX 52 96 53 97
REMARK H PARENT 77 50 45 61
REMARK Flexibility Score: inf
ROOT
ATOM      1  C   UNL     1       6.107   5.380   8.667  1.00  0.00     0.274 C 
ENDROOT
BRANCH   1   2
ATOM      2  O   UNL     1       4.933   4.548   8.589  1.00  0.00    -0.462 OA
BRANCH   2   3
ATOM      3  C   UNL     1       4.322   4.224   9.757  1.00  0.00     0.306 C 
ATOM      4  O   UNL     1       4.753   4.516  10.868  1.00  0.00    -0.252 OA
BRANCH   3   5
ATOM      5  C   UNL     1       3.086   3.373   9.555  1.00  0.00     0.129 C 
BRANCH   5   6
ATOM      6  C   UNL     1       1.894   4.020   8.846  1.00  0.00     0.066 C 
BRANCH   6   7
ATOM      7  C   UNL     1       2.027   4.067   7.344  1.00  0.00     0.024 A 
ATOM      8  C   UNL     1       1.923   3.359   5.202  1.00  0.00     0.053 A 
ATOM      9  C   UNL     1       2.767   4.450   5.243  1.00  0.00     0.029 A 
ATOM     10  N   UNL     1       1.378   3.199   6.473  1.00  0.00    -0.314 N 
ATOM     11  C   UNL     1       2.785   4.918   6.560  1.00  0.00     0.024 A 
BRANCH   8  12
ATOM     12  C   UNL     1       1.514   2.666   3.991  1.00  0.00    -0.001 A 
ATOM     13  C   UNL     1       0.805   1.498   1.556  1.00  0.00     0.118 A 
ATOM     14  C   UNL     1      -0.122   2.265   2.262  1.00  0.00     0.047 A 
ATOM     15  C   UNL     1       2.099   1.335   2.057  1.00  0.00     0.047 A 
ATOM     16  C   UNL     1       0.227   2.845   3.479  1.00  0.00     0.014 A 
ATOM     17  C   UNL     1       2.452   1.920   3.273  1.00  0.00     0.014 A 
BRANCH  13  18
ATOM     18  O   UNL     1       0.359   0.998   0.364  1.00  0.00    -0.497 OA
ATOM     19  C   UNL     1       0.980  -0.211  -0.051  1.00  0.00     0.278 C 
ENDBRANCH  13  18
ENDBRANCH   8  12
BRANCH  10  20
ATOM     20  C   UNL     1       0.309   2.338   6.820  1.00  0.00     0.046 A 
ATOM     21  C   UNL     1      -0.826   2.883   7.431  1.00  0.00     0.027 A 
ATOM     22  C   UNL     1       0.383   0.975   6.542  1.00  0.00     0.027 A 
ATOM     23  C   UNL     1      -1.895   2.055   7.781  1.00  0.00     0.014 A 
ATOM     24  C   UNL     1      -0.680   0.150   6.916  1.00  0.00     0.014 A 
ATOM     25  C   UNL     1      -1.827   0.679   7.536  1.00  0.00     0.017 A 
BRANCH  25  26
ATOM     26  C   UNL     1      -2.918  -0.275   7.907  1.00  0.00     0.159 C 
ATOM     27  C   UNL     1      -4.243   0.218   8.431  1.00  0.00     0.093 C 
ATOM     28  O   UNL     1      -2.730  -1.485   7.765  1.00  0.00    -0.295 OA
ENDBRANCH  25  26
ENDBRANCH  10  20
ENDBRANCH   6   7
ENDBRANCH   5   6
ENDBRANCH   3   5
ENDBRANCH   2   3
ENDBRANCH   1   2
BRANCH   1  29
ATOM     29  C   UNL     1       5.822   6.888   8.600  1.00  0.00     0.275 C 
BRANCH  29  30
ATOM     30  O   UNL     1       5.168   7.425   9.760  1.00  0.00    -0.458 OA
BRANCH  30  31
ATOM     31  C   UNL     1       3.829   7.300   9.676  1.00  0.00     0.338 C 
ATOM     32  O   UNL     1       3.213   6.652   8.852  1.00  0.00    -0.246 OA
BRANCH  31  33
ATOM     33  C   UNL     1       3.055   8.176  10.525  1.00  0.00     0.060 A 
ATOM     34  C   UNL     1       1.855   7.653  11.030  1.00  0.00     0.016 A 
ATOM     35  C   UNL     1       3.287   9.545  10.399  1.00  0.00     0.016 A 
ATOM     36  C   UNL     1       0.839   8.521  11.367  1.00  0.00     0.010 A 
ATOM     37  C   UNL     1       2.260  10.413  10.715  1.00  0.00     0.010 A 
ATOM     38  C   UNL     1       1.044   9.894  11.193  1.00  0.00    -0.014 A 
BRANCH  38  39
ATOM     39  C   UNL     1       0.062  10.804  11.797  1.00  0.00     0.031 A 
ATOM     40  C   UNL     1       0.394  10.985  13.303  1.00  0.00     0.074 A 
ATOM     41  C   UNL     1      -0.918  11.282  10.967  1.00  0.00     0.049 A 
ATOM     42  N   UNL     1      -0.357  11.347  14.295  1.00  0.00    -0.248 NA
ATOM     43  C   UNL     1       1.759  10.614  13.801  1.00  0.00     0.031 C 
ATOM     44  C   UNL     1      -1.072  10.947   9.526  1.00  0.00     0.029 A 
ATOM     45  N   UNL     1      -1.982  12.139  11.147  1.00  0.00    -0.354 N 
ATOM     46  C   UNL     1       0.491  11.539  15.416  1.00  0.00     0.074 A 
ATOM     47  C   UNL     1       1.730  10.912  15.098  1.00  0.00     0.031 C 
ATOM     48  C   UNL     1      -2.183  11.523   9.002  1.00  0.00     0.029 A 
ATOM     49  C   UNL     1      -2.839  12.322  10.019  1.00  0.00     0.049 A 
ATOM     50  H   UNL     1      -2.142  12.598  12.003  1.00  0.00     0.167 HD
ATOM     51  C   UNL     1       0.178  12.368  16.454  1.00  0.00     0.034 A 
ATOM     52  C   UNL     1      -4.002  13.048   9.937  1.00  0.00     0.034 A 
ATOM     53  C   UNL     1      -1.138  12.880  16.264  1.00  0.00     0.049 A 
ATOM     54  C   UNL     1      -4.045  13.774  11.215  1.00  0.00     0.074 A 
ATOM     55  C   UNL     1      -2.374  12.293  16.286  1.00  0.00     0.029 A 
ATOM     56  N   UNL     1      -1.237  14.117  15.669  1.00  0.00    -0.354 N 
ATOM     57  N   UNL     1      -3.293  14.788  11.514  1.00  0.00    -0.248 NA
ATOM     58  C   UNL     1      -4.952  13.296  12.266  1.00  0.00     0.031 C 
ATOM     59  C   UNL     1      -3.056  12.960  15.250  1.00  0.00     0.029 A 
ATOM     60  C   UNL     1      -2.298  14.053  14.806  1.00  0.00     0.049 A 
ATOM     61  H   UNL     1      -0.658  14.897  15.833  1.00  0.00     0.167 HD
ATOM     62  C   UNL     1      -3.415  14.855  12.877  1.00  0.00     0.074 A 
ATOM     63  C   UNL     1      -4.651  14.180  13.213  1.00  0.00     0.031 C 
ATOM     64  C   UNL     1      -2.297  14.919  13.645  1.00  0.00     0.034 A 
BRANCH  51  65
ATOM     65  C   UNL     1       1.010  13.028  17.529  1.00  0.00     0.023 A 
ATOM     66  C   UNL     1       0.278  13.783  18.480  1.00  0.00     0.031 A 
ATOM     67  C   UNL     1       2.390  13.260  17.489  1.00  0.00     0.131 A 
ATOM     68  C   UNL     1       0.860  14.845  19.178  1.00  0.00     0.055 A 
ATOM     69  C   UNL     1       2.993  14.262  18.268  1.00  0.00     0.041 A 
ATOM     70  F   UNL     1       3.197  12.602  16.648  1.00  0.00    -0.206 F 
ATOM     71  C   UNL     1       2.221  15.094  19.077  1.00  0.00     0.022 A 
BRANCH  68  72
ATOM     72  S   UNL     1      -0.253  16.013  20.011  1.00  0.00     0.124 S 
ATOM     73  O   UNL     1      -1.165  16.384  18.934  1.00  0.00    -0.237 OA
ATOM     74  O   UNL     1      -0.821  15.187  21.072  1.00  0.00    -0.237 OA
ATOM     75  O   UNL     1       0.646  17.073  20.461  1.00  0.00    -0.744 OA
ENDBRANCH  68  72
ENDBRANCH  51  65
BRANCH  52  76
ATOM     76  C   UNL     1      -5.202  13.299   9.023  1.00  0.00     0.023 A 
ATOM     77  C   UNL     1      -5.405  12.807   7.721  1.00  0.00     0.031 A 
ATOM     78  C   UNL     1      -6.311  14.050   9.543  1.00  0.00     0.131 A 
ATOM     79  C   UNL     1      -6.664  13.002   7.070  1.00  0.00     0.055 A 
ATOM     80  C   UNL     1      -7.565  14.149   8.945  1.00  0.00     0.041 A 
ATOM     81  F   UNL     1      -6.237  14.742  10.688  1.00  0.00    -0.206 F 
ATOM     82  C   UNL     1      -7.754  13.607   7.702  1.00  0.00     0.022 A 
BRANCH  79  83
ATOM     83  S   UNL     1      -6.958  12.466   5.355  1.00  0.00     0.124 S 
ATOM     84  O   UNL     1      -6.607  13.665   4.601  1.00  0.00    -0.237 OA
ATOM     85  O   UNL     1      -6.060  11.326   5.206  1.00  0.00    -0.237 OA
ATOM     86  O   UNL     1      -8.382  12.129   5.352  1.00  0.00    -0.744 OA
ENDBRANCH  79  83
ENDBRANCH  52  76
BRANCH  64  87
ATOM     87  C   UNL     1      -1.075  15.526  12.953  1.00  0.00     0.023 A 
ATOM     88  C   UNL     1      -1.146  16.813  12.384  1.00  0.00     0.031 A 
ATOM     89  C   UNL     1       0.129  14.832  12.739  1.00  0.00     0.131 A 
ATOM     90  C   UNL     1      -0.076  17.335  11.626  1.00  0.00     0.055 A 
ATOM     91  C   UNL     1       1.196  15.346  11.989  1.00  0.00     0.041 A 
ATOM     92  F   UNL     1       0.317  13.615  13.243  1.00  0.00    -0.206 F 
ATOM     93  C   UNL     1       1.095  16.605  11.422  1.00  0.00     0.022 A 
BRANCH  90  94
ATOM     94  S   UNL     1      -0.212  19.001  10.921  1.00  0.00     0.124 S 
ATOM     95  O   UNL     1      -1.219  18.828   9.880  1.00  0.00    -0.237 OA
ATOM     96  O   UNL     1      -0.614  19.802  12.073  1.00  0.00    -0.237 OA
ATOM     97  O   UNL     1       1.139  19.276  10.429  1.00  0.00    -0.744 OA
ENDBRANCH  90  94
ENDBRANCH  64  87
ENDBRANCH  38  39
ENDBRANCH  31  33
ENDBRANCH  30  31
ENDBRANCH  29  30
ENDBRANCH   1  29
TORSDOF 20
