REMARK SMILES O=C(OCCOC(=O)c1ccc(-c2c3nc(c(-c4cc(S(=O)(=O)[O-])ccc4F)c4ccc([nH]4)c(-c4cc(S(=O)(=O)[O-])ccc4F)c4nc(c(-c5cc(S(=O)(=O)[O-])ccc5F)c5ccc2[nH]5)C=C4)C=C3)cc1)C1=Cc2c(ccc(Cl)c2-c2ccccc2)O[C@H]1C(F)(F)F
REMARK SMILES IDX 5 1 4 2 3 3 2 4 1 5 72 6 73 7 88 8 74 9 87 10 75 11 80 12
REMARK SMILES IDX 76 13 78 14 77 15 79 16 89 17 90 18 91 19 92 20 81 21 82 22
REMARK SMILES IDX 86 23 83 24 85 25 84 26 6 27 7 28 8 29 9 30 10 31 71 32
REMARK SMILES IDX 11 33 70 34 12 35 13 36 14 37 64 38 15 39 69 40 63 41 65 42
REMARK SMILES IDX 16 43 68 44 62 45 61 46 17 48 49 49 29 50 48 51 30 52 33 53
REMARK SMILES IDX 47 54 66 55 31 56 32 57 46 59 67 60 34 61 18 62 19 63 27 64
REMARK SMILES IDX 20 65 26 66 28 67 25 68 21 69 22 70 23 71 24 72 50 73 51 74
REMARK SMILES IDX 59 75 52 76 58 77 60 78 57 79 53 80 54 81 55 82 56 83 35 84
REMARK SMILES IDX 36 85 44 86 37 87 43 88 45 89 42 90 38 91 39 92 40 93 41 94
REMARK H PARENT 65 47 33 58
REMARK Flexibility Score: inf
ROOT
ATOM      1  C   UNL     1       2.153  -1.333   1.425  1.00  0.00     0.275 C 
ENDROOT
BRANCH   1   2
ATOM      2  C   UNL     1       1.770  -0.029   0.740  1.00  0.00     0.275 C 
BRANCH   2   3
ATOM      3  O   UNL     1       1.676  -0.233  -0.684  1.00  0.00    -0.459 OA
BRANCH   3   4
ATOM      4  C   UNL     1       2.736  -0.229  -1.526  1.00  0.00     0.338 C 
ATOM      5  O   UNL     1       2.555  -0.046  -2.726  1.00  0.00    -0.246 OA
BRANCH   4   6
ATOM      6  C   UNL     1       4.123  -0.469  -1.043  1.00  0.00     0.087 C 
ATOM      7  C   UNL     1       4.535  -0.600   0.229  1.00  0.00     0.028 C 
ATOM      8  C   UNL     1       5.176  -0.425  -2.124  1.00  0.00     0.316 C 
ATOM      9  C   UNL     1       5.526   0.430   0.596  1.00  0.00     0.027 A 
ATOM     10  O   UNL     1       6.459   0.100  -1.641  1.00  0.00    -0.475 OA
ATOM     11  C   UNL     1       6.455   0.734  -0.418  1.00  0.00     0.128 A 
ATOM     12  C   UNL     1       5.537   1.086   1.865  1.00  0.00     0.011 A 
ATOM     13  C   UNL     1       7.430   1.690  -0.187  1.00  0.00     0.049 A 
ATOM     14  C   UNL     1       6.540   2.053   2.056  1.00  0.00     0.049 A 
ATOM     15  C   UNL     1       7.467   2.350   1.044  1.00  0.00     0.025 A 
ATOM     16  Cl  UNL     1       6.682   2.937   3.539  1.00  0.00    -0.084 Cl
BRANCH   8  17
ATOM     17  C   UNL     1       5.332  -1.833  -2.737  1.00  0.00     0.430 C 
ATOM     18  F   UNL     1       4.149  -2.486  -2.832  1.00  0.00    -0.167 F 
ATOM     19  F   UNL     1       5.868  -1.784  -3.976  1.00  0.00    -0.167 F 
ATOM     20  F   UNL     1       6.139  -2.610  -1.970  1.00  0.00    -0.167 F 
ENDBRANCH   8  17
BRANCH  12  21
ATOM     21  C   UNL     1       4.495   0.847   2.905  1.00  0.00    -0.016 A 
ATOM     22  C   UNL     1       3.400   1.729   3.021  1.00  0.00     0.009 A 
ATOM     23  C   UNL     1       4.507  -0.282   3.745  1.00  0.00     0.009 A 
ATOM     24  C   UNL     1       2.296   1.424   3.827  1.00  0.00     0.001 A 
ATOM     25  C   UNL     1       3.404  -0.580   4.567  1.00  0.00     0.001 A 
ATOM     26  C   UNL     1       2.284   0.253   4.577  1.00  0.00     0.000 A 
ENDBRANCH  12  21
ENDBRANCH   4   6
ENDBRANCH   3   4
ENDBRANCH   2   3
ENDBRANCH   1   2
BRANCH   1  27
ATOM     27  O   UNL     1       1.078  -1.897   2.170  1.00  0.00    -0.458 OA
BRANCH  27  28
ATOM     28  C   UNL     1       0.093  -2.420   1.408  1.00  0.00     0.338 C 
ATOM     29  O   UNL     1      -1.071  -2.087   1.527  1.00  0.00    -0.246 OA
BRANCH  28  30
ATOM     30  C   UNL     1       0.575  -3.403   0.409  1.00  0.00     0.060 A 
ATOM     31  C   UNL     1      -0.124  -3.474  -0.792  1.00  0.00     0.016 A 
ATOM     32  C   UNL     1       1.700  -4.219   0.643  1.00  0.00     0.016 A 
ATOM     33  C   UNL     1       0.206  -4.464  -1.700  1.00  0.00     0.010 A 
ATOM     34  C   UNL     1       2.102  -5.134  -0.319  1.00  0.00     0.010 A 
ATOM     35  C   UNL     1       1.269  -5.338  -1.424  1.00  0.00    -0.014 A 
BRANCH  35  36
ATOM     36  C   UNL     1       1.270  -6.652  -2.094  1.00  0.00     0.031 A 
ATOM     37  C   UNL     1       0.812  -7.841  -1.288  1.00  0.00     0.074 A 
ATOM     38  C   UNL     1       1.562  -6.737  -3.400  1.00  0.00     0.049 A 
ATOM     39  N   UNL     1       0.669  -9.088  -1.646  1.00  0.00    -0.248 NA
ATOM     40  C   UNL     1       0.494  -7.593   0.130  1.00  0.00     0.031 C 
ATOM     41  C   UNL     1       1.985  -5.617  -4.242  1.00  0.00     0.029 A 
ATOM     42  N   UNL     1       1.523  -7.806  -4.248  1.00  0.00    -0.354 N 
ATOM     43  C   UNL     1       0.263  -9.763  -0.497  1.00  0.00     0.074 A 
ATOM     44  C   UNL     1       0.275  -8.812   0.585  1.00  0.00     0.031 C 
ATOM     45  C   UNL     1       2.142  -6.058  -5.501  1.00  0.00     0.029 A 
ATOM     46  C   UNL     1       1.869  -7.492  -5.539  1.00  0.00     0.049 A 
ATOM     47  H   UNL     1       1.270  -8.714  -3.962  1.00  0.00     0.167 HD
ATOM     48  C   UNL     1      -0.123 -11.055  -0.370  1.00  0.00     0.034 A 
ATOM     49  C   UNL     1       1.960  -8.289  -6.619  1.00  0.00     0.034 A 
ATOM     50  C   UNL     1      -0.130 -11.962  -1.486  1.00  0.00     0.049 A 
ATOM     51  C   UNL     1       1.576  -9.738  -6.455  1.00  0.00     0.074 A 
ATOM     52  C   UNL     1      -0.491 -13.294  -1.520  1.00  0.00     0.029 A 
ATOM     53  N   UNL     1       0.256 -11.616  -2.778  1.00  0.00    -0.354 N 
ATOM     54  N   UNL     1       1.181 -10.369  -5.370  1.00  0.00    -0.248 NA
ATOM     55  C   UNL     1       1.629 -10.576  -7.655  1.00  0.00     0.031 C 
ATOM     56  C   UNL     1      -0.250 -13.771  -2.813  1.00  0.00     0.029 A 
ATOM     57  C   UNL     1       0.172 -12.716  -3.611  1.00  0.00     0.049 A 
ATOM     58  H   UNL     1       0.546 -10.717  -3.058  1.00  0.00     0.167 HD
ATOM     59  C   UNL     1       0.904 -11.673  -5.765  1.00  0.00     0.074 A 
ATOM     60  C   UNL     1       1.178 -11.733  -7.189  1.00  0.00     0.031 C 
ATOM     61  C   UNL     1       0.456 -12.724  -5.029  1.00  0.00     0.034 A 
BRANCH  48  62
ATOM     62  C   UNL     1      -0.491 -11.532   1.019  1.00  0.00     0.023 A 
ATOM     63  C   UNL     1      -1.524 -10.931   1.766  1.00  0.00     0.031 A 
ATOM     64  C   UNL     1       0.280 -12.520   1.655  1.00  0.00     0.131 A 
ATOM     65  C   UNL     1      -1.670 -11.230   3.131  1.00  0.00     0.055 A 
ATOM     66  C   UNL     1       0.058 -12.890   2.984  1.00  0.00     0.041 A 
ATOM     67  F   UNL     1       1.297 -13.114   1.011  1.00  0.00    -0.206 F 
ATOM     68  C   UNL     1      -0.905 -12.226   3.738  1.00  0.00     0.022 A 
BRANCH  65  69
ATOM     69  S   UNL     1      -2.716 -10.146   4.148  1.00  0.00     0.124 S 
ATOM     70  O   UNL     1      -2.084  -8.846   3.935  1.00  0.00    -0.237 OA
ATOM     71  O   UNL     1      -4.032 -10.325   3.549  1.00  0.00    -0.237 OA
ATOM     72  O   UNL     1      -2.563 -10.689   5.496  1.00  0.00    -0.744 OA
ENDBRANCH  65  69
ENDBRANCH  48  62
BRANCH  49  73
ATOM     73  C   UNL     1       2.438  -7.730  -7.914  1.00  0.00     0.023 A 
ATOM     74  C   UNL     1       1.603  -7.652  -9.038  1.00  0.00     0.031 A 
ATOM     75  C   UNL     1       3.753  -7.241  -8.034  1.00  0.00     0.131 A 
ATOM     76  C   UNL     1       2.099  -7.121 -10.241  1.00  0.00     0.055 A 
ATOM     77  C   UNL     1       4.226  -6.671  -9.217  1.00  0.00     0.041 A 
ATOM     78  F   UNL     1       4.592  -7.284  -6.986  1.00  0.00    -0.206 F 
ATOM     79  C   UNL     1       3.399  -6.617 -10.333  1.00  0.00     0.022 A 
BRANCH  76  80
ATOM     80  S   UNL     1       1.035  -7.148 -11.710  1.00  0.00     0.124 S 
ATOM     81  O   UNL     1       0.748  -8.572 -11.843  1.00  0.00    -0.237 OA
ATOM     82  O   UNL     1      -0.080  -6.304 -11.293  1.00  0.00    -0.237 OA
ATOM     83  O   UNL     1       1.885  -6.583 -12.756  1.00  0.00    -0.744 OA
ENDBRANCH  76  80
ENDBRANCH  49  73
BRANCH  61  84
ATOM     84  C   UNL     1       0.178 -14.006  -5.769  1.00  0.00     0.023 A 
ATOM     85  C   UNL     1       1.210 -14.781  -6.321  1.00  0.00     0.031 A 
ATOM     86  C   UNL     1      -1.144 -14.473  -5.882  1.00  0.00     0.131 A 
ATOM     87  C   UNL     1       0.897 -15.967  -7.000  1.00  0.00     0.055 A 
ATOM     88  C   UNL     1      -1.442 -15.685  -6.502  1.00  0.00     0.041 A 
ATOM     89  F   UNL     1      -2.164 -13.766  -5.370  1.00  0.00    -0.206 F 
ATOM     90  C   UNL     1      -0.418 -16.435  -7.074  1.00  0.00     0.022 A 
BRANCH  87  91
ATOM     91  S   UNL     1       2.227 -16.856  -7.852  1.00  0.00     0.124 S 
ATOM     92  O   UNL     1       2.704 -15.852  -8.797  1.00  0.00    -0.237 OA
ATOM     93  O   UNL     1       3.135 -17.185  -6.758  1.00  0.00    -0.237 OA
ATOM     94  O   UNL     1       1.543 -18.000  -8.453  1.00  0.00    -0.744 OA
ENDBRANCH  87  91
ENDBRANCH  61  84
ENDBRANCH  35  36
ENDBRANCH  28  30
ENDBRANCH  27  28
ENDBRANCH   1  27
TORSDOF 16
