REMARK SMILES CC[C@H]1CCCC[C@@H]1Sc1csc(C(=O)OCCOC(=O)c2ccc(-c3c4nc(c(-c5cc(S(=O)(=O)[O-])ccc5F)c5ccc([nH]5)c(-c5cc(S(=O)(=O)[O-])ccc5F)c5nc(c(-c6cc(S(=O)(=O)[O-])ccc6F)c6ccc3[nH]6)C=C5)C=C4)cc2)c1
REMARK SMILES IDX 17 1 16 2 14 3 15 4 13 5 10 6 11 7 85 8 12 9 9 10 8 11 3 12
REMARK SMILES IDX 4 13 5 14 7 15 6 16 2 17 1 18 18 19 19 20 20 21 21 22 22 23
REMARK SMILES IDX 23 24 84 25 24 26 83 27 25 28 26 29 27 30 77 31 28 32 82 33
REMARK SMILES IDX 76 34 78 35 29 36 81 37 75 38 74 39 30 41 62 42 42 43 61 44
REMARK SMILES IDX 43 45 46 46 60 47 79 48 44 49 45 50 59 52 80 53 47 54 31 55
REMARK SMILES IDX 32 56 40 57 33 58 39 59 41 60 38 61 34 62 35 63 36 64 37 65
REMARK SMILES IDX 63 66 64 67 72 68 65 69 71 70 73 71 70 72 66 73 67 74 68 75
REMARK SMILES IDX 69 76 48 77 49 78 57 79 50 80 56 81 58 82 55 83 51 84 52 85
REMARK SMILES IDX 53 86 54 87
REMARK H PARENT 78 40 46 51
REMARK Flexibility Score: inf
ROOT
ATOM      1  C   UNL     1       1.790   8.965   5.998  1.00  0.00     0.275 C 
ENDROOT
BRANCH   1   2
ATOM      2  O   UNL     1       1.582   8.059   4.896  1.00  0.00    -0.458 OA
BRANCH   2   3
ATOM      3  C   UNL     1       0.295   7.966   4.439  1.00  0.00     0.348 C 
ATOM      4  O   UNL     1      -0.644   8.582   4.922  1.00  0.00    -0.245 OA
BRANCH   3   5
ATOM      5  C   UNL     1       0.226   7.074   3.294  1.00  0.00     0.113 A 
ATOM      6  C   UNL     1       0.682   5.470   1.651  1.00  0.00     0.019 A 
ATOM      7  C   UNL     1      -0.494   6.001   1.182  1.00  0.00     0.080 A 
ATOM      8  C   UNL     1       1.124   6.125   2.842  1.00  0.00     0.042 A 
ATOM      9  S   UNL     1      -1.169   7.111   2.289  1.00  0.00    -0.136 S 
BRANCH   6  10
ATOM     10  S   UNL     1       1.603   4.142   0.976  1.00  0.00    -0.122 SA
BRANCH  10  11
ATOM     11  C   UNL     1       0.790   3.741  -0.628  1.00  0.00     0.055 C 
ATOM     12  C   UNL     1       1.175   2.288  -1.030  1.00  0.00     0.002 C 
ATOM     13  C   UNL     1       2.675   2.194  -1.384  1.00  0.00     0.005 C 
ATOM     14  C   UNL     1       3.115   3.221  -2.427  1.00  0.00     0.000 C 
ATOM     15  C   UNL     1       1.201   4.738  -1.722  1.00  0.00     0.015 C 
ATOM     16  C   UNL     1       2.681   4.646  -2.092  1.00  0.00     0.001 C 
BRANCH  12  17
ATOM     17  C   UNL     1       0.275   1.775  -2.182  1.00  0.00     0.001 C 
ATOM     18  C   UNL     1       0.323   0.260  -2.347  1.00  0.00     0.004 C 
ENDBRANCH  12  17
ENDBRANCH  10  11
ENDBRANCH   6  10
ENDBRANCH   3   5
ENDBRANCH   2   3
ENDBRANCH   1   2
BRANCH   1  19
ATOM     19  C   UNL     1       2.354  10.314   5.542  1.00  0.00     0.275 C 
BRANCH  19  20
ATOM     20  O   UNL     1       1.413  11.038   4.729  1.00  0.00    -0.458 OA
BRANCH  20  21
ATOM     21  C   UNL     1       1.657  11.000   3.397  1.00  0.00     0.338 C 
ATOM     22  O   UNL     1       2.588  10.446   2.837  1.00  0.00    -0.246 OA
BRANCH  21  23
ATOM     23  C   UNL     1       0.542  11.621   2.667  1.00  0.00     0.060 A 
ATOM     24  C   UNL     1      -0.458  10.776   2.198  1.00  0.00     0.016 A 
ATOM     25  C   UNL     1       0.527  12.973   2.336  1.00  0.00     0.016 A 
ATOM     26  C   UNL     1      -1.465  11.256   1.372  1.00  0.00     0.010 A 
ATOM     27  C   UNL     1      -0.522  13.473   1.548  1.00  0.00     0.010 A 
ATOM     28  C   UNL     1      -1.526  12.617   1.053  1.00  0.00    -0.014 A 
BRANCH  28  29
ATOM     29  C   UNL     1      -2.640  13.120   0.202  1.00  0.00     0.031 A 
ATOM     30  C   UNL     1      -2.357  13.722  -1.147  1.00  0.00     0.074 A 
ATOM     31  C   UNL     1      -3.914  13.002   0.632  1.00  0.00     0.049 A 
ATOM     32  N   UNL     1      -3.173  14.327  -1.972  1.00  0.00    -0.248 NA
ATOM     33  C   UNL     1      -0.971  13.635  -1.629  1.00  0.00     0.031 C 
ATOM     34  C   UNL     1      -4.324  12.373   1.890  1.00  0.00     0.029 A 
ATOM     35  N   UNL     1      -5.099  13.398   0.062  1.00  0.00    -0.354 N 
ATOM     36  C   UNL     1      -2.397  14.725  -3.056  1.00  0.00     0.074 A 
ATOM     37  C   UNL     1      -1.040  14.306  -2.770  1.00  0.00     0.031 C 
ATOM     38  C   UNL     1      -5.661  12.405   1.984  1.00  0.00     0.029 A 
ATOM     39  C   UNL     1      -6.200  13.142   0.847  1.00  0.00     0.049 A 
ATOM     40  H   UNL     1      -5.155  13.825  -0.824  1.00  0.00     0.167 HD
ATOM     41  C   UNL     1      -2.786  15.378  -4.180  1.00  0.00     0.034 A 
ATOM     42  C   UNL     1      -7.490  13.505   0.702  1.00  0.00     0.034 A 
ATOM     43  C   UNL     1      -4.150  15.773  -4.447  1.00  0.00     0.049 A 
ATOM     44  C   UNL     1      -7.877  14.322  -0.503  1.00  0.00     0.074 A 
ATOM     45  C   UNL     1      -4.657  16.425  -5.558  1.00  0.00     0.029 A 
ATOM     46  N   UNL     1      -5.225  15.561  -3.591  1.00  0.00    -0.354 N 
ATOM     47  N   UNL     1      -7.128  14.721  -1.505  1.00  0.00    -0.248 NA
ATOM     48  C   UNL     1      -9.280  14.745  -0.592  1.00  0.00     0.031 C 
ATOM     49  C   UNL     1      -6.014  16.681  -5.338  1.00  0.00     0.029 A 
ATOM     50  C   UNL     1      -6.380  16.110  -4.129  1.00  0.00     0.049 A 
ATOM     51  H   UNL     1      -5.174  15.089  -2.728  1.00  0.00     0.167 HD
ATOM     52  C   UNL     1      -7.975  15.430  -2.352  1.00  0.00     0.074 A 
ATOM     53  C   UNL     1      -9.294  15.377  -1.756  1.00  0.00     0.031 C 
ATOM     54  C   UNL     1      -7.687  16.069  -3.514  1.00  0.00     0.034 A 
BRANCH  41  55
ATOM     55  C   UNL     1      -1.713  15.767  -5.171  1.00  0.00     0.023 A 
ATOM     56  C   UNL     1      -0.949  14.812  -5.864  1.00  0.00     0.031 A 
ATOM     57  C   UNL     1      -1.438  17.127  -5.412  1.00  0.00     0.131 A 
ATOM     58  C   UNL     1       0.093  15.228  -6.709  1.00  0.00     0.055 A 
ATOM     59  C   UNL     1      -0.456  17.534  -6.316  1.00  0.00     0.041 A 
ATOM     60  F   UNL     1      -2.118  18.086  -4.763  1.00  0.00    -0.206 F 
ATOM     61  C   UNL     1       0.327  16.582  -6.960  1.00  0.00     0.022 A 
BRANCH  58  62
ATOM     62  S   UNL     1       1.231  13.977  -7.365  1.00  0.00     0.124 S 
ATOM     63  O   UNL     1       1.737  13.365  -6.138  1.00  0.00    -0.237 OA
ATOM     64  O   UNL     1       0.352  13.145  -8.178  1.00  0.00    -0.237 OA
ATOM     65  O   UNL     1       2.213  14.762  -8.110  1.00  0.00    -0.744 OA
ENDBRANCH  58  62
ENDBRANCH  41  55
BRANCH  42  66
ATOM     66  C   UNL     1      -8.492  13.178   1.760  1.00  0.00     0.023 A 
ATOM     67  C   UNL     1      -9.617  12.389   1.478  1.00  0.00     0.031 A 
ATOM     68  C   UNL     1      -8.363  13.696   3.063  1.00  0.00     0.131 A 
ATOM     69  C   UNL     1     -10.588  12.175   2.470  1.00  0.00     0.055 A 
ATOM     70  C   UNL     1      -9.296  13.424   4.064  1.00  0.00     0.041 A 
ATOM     71  F   UNL     1      -7.313  14.468   3.388  1.00  0.00    -0.206 F 
ATOM     72  C   UNL     1     -10.425  12.670   3.766  1.00  0.00     0.022 A 
BRANCH  69  73
ATOM     73  S   UNL     1     -12.122  11.322   2.014  1.00  0.00     0.124 S 
ATOM     74  O   UNL     1     -12.624  12.170   0.939  1.00  0.00    -0.237 OA
ATOM     75  O   UNL     1     -11.632  10.006   1.617  1.00  0.00    -0.237 OA
ATOM     76  O   UNL     1     -12.906  11.348   3.247  1.00  0.00    -0.744 OA
ENDBRANCH  69  73
ENDBRANCH  42  66
BRANCH  54  77
ATOM     77  C   UNL     1      -8.839  16.735  -4.228  1.00  0.00     0.023 A 
ATOM     78  C   UNL     1      -9.513  17.837  -3.673  1.00  0.00     0.031 A 
ATOM     79  C   UNL     1      -9.280  16.249  -5.472  1.00  0.00     0.131 A 
ATOM     80  C   UNL     1     -10.629  18.377  -4.329  1.00  0.00     0.055 A 
ATOM     81  C   UNL     1     -10.348  16.835  -6.153  1.00  0.00     0.041 A 
ATOM     82  F   UNL     1      -8.678  15.195  -6.047  1.00  0.00    -0.206 F 
ATOM     83  C   UNL     1     -11.038  17.896  -5.575  1.00  0.00     0.022 A 
BRANCH  80  84
ATOM     84  S   UNL     1     -11.604  19.651  -3.483  1.00  0.00     0.124 S 
ATOM     85  O   UNL     1     -12.016  18.958  -2.266  1.00  0.00    -0.237 OA
ATOM     86  O   UNL     1     -10.632  20.725  -3.308  1.00  0.00    -0.237 OA
ATOM     87  O   UNL     1     -12.683  19.940  -4.426  1.00  0.00    -0.744 OA
ENDBRANCH  80  84
ENDBRANCH  54  77
ENDBRANCH  28  29
ENDBRANCH  21  23
ENDBRANCH  20  21
ENDBRANCH  19  20
ENDBRANCH   1  19
TORSDOF 17
