REMARK SMILES O=C(OCCOC(=O)[C@@H]1CCC[N@@H+](Cc2cccc3ccccc23)C1)c1ccc(-c2c3nc(c(-c4cc(S(=O)(=O)[O-])ccc4F)c4ccc([nH]4)c(-c4cc(S(=O)(=O)[O-])ccc4F)c4nc(c(-c5cc(S(=O)(=O)[O-])ccc5F)c5ccc2[nH]5)C=C4)C=C3)cc1
REMARK SMILES IDX 4 1 3 2 2 3 1 4 26 5 27 6 88 7 28 8 87 9 29 10 30 11 31 12
REMARK SMILES IDX 81 13 32 14 86 15 80 16 82 17 33 18 85 19 79 20 78 21 34 23
REMARK SMILES IDX 66 24 46 25 65 26 47 27 50 28 64 29 83 30 48 31 49 32 63 34
REMARK SMILES IDX 84 35 51 36 35 37 36 38 44 39 37 40 43 41 45 42 42 43 38 44
REMARK SMILES IDX 39 45 40 46 41 47 67 48 68 49 76 50 69 51 75 52 77 53 74 54
REMARK SMILES IDX 70 55 71 56 72 57 73 58 52 59 53 60 61 61 54 62 60 63 62 64
REMARK SMILES IDX 59 65 55 66 56 67 57 68 58 69 5 70 6 71 7 72 8 73 9 74 10 75
REMARK SMILES IDX 25 76 11 77 13 78 12 79 14 81 15 82 16 83 24 84 17 85 19 86
REMARK SMILES IDX 23 87 18 88 20 89 22 90 21 91
REMARK H PARENT 82 22 50 33 13 80
REMARK Flexibility Score: inf
ROOT
ATOM      1  C   UNL     1       4.317   1.424  -1.497  1.00  0.00     0.275 C 
ENDROOT
BRANCH   1   2
ATOM      2  O   UNL     1       3.722   0.129  -1.483  1.00  0.00    -0.458 OA
BRANCH   2   3
ATOM      3  C   UNL     1       3.835  -0.834  -0.544  1.00  0.00     0.338 C 
ATOM      4  O   UNL     1       3.069  -1.794  -0.640  1.00  0.00    -0.246 OA
BRANCH   3   5
ATOM      5  C   UNL     1       4.786  -0.789   0.629  1.00  0.00     0.060 A 
ATOM      6  C   UNL     1       5.804   0.127   0.931  1.00  0.00     0.016 A 
ATOM      7  C   UNL     1       4.557  -1.785   1.574  1.00  0.00     0.016 A 
ATOM      8  C   UNL     1       6.486   0.108   2.172  1.00  0.00     0.010 A 
ATOM      9  C   UNL     1       5.148  -1.738   2.835  1.00  0.00     0.010 A 
ATOM     10  C   UNL     1       6.123  -0.789   3.176  1.00  0.00    -0.014 A 
BRANCH  10  11
ATOM     11  C   UNL     1       6.681  -0.792   4.572  1.00  0.00     0.031 A 
ATOM     12  C   UNL     1       7.079  -2.122   5.181  1.00  0.00     0.074 A 
ATOM     13  C   UNL     1       6.662   0.299   5.374  1.00  0.00     0.049 A 
ATOM     14  N   UNL     1       7.318  -2.437   6.429  1.00  0.00    -0.248 NA
ATOM     15  C   UNL     1       7.121  -3.271   4.261  1.00  0.00     0.031 C 
ATOM     16  C   UNL     1       6.241   1.653   5.002  1.00  0.00     0.029 A 
ATOM     17  N   UNL     1       6.947   0.421   6.719  1.00  0.00    -0.354 N 
ATOM     18  C   UNL     1       7.489  -3.817   6.427  1.00  0.00     0.074 A 
ATOM     19  C   UNL     1       7.112  -4.279   5.113  1.00  0.00     0.031 C 
ATOM     20  C   UNL     1       6.216   2.436   6.096  1.00  0.00     0.029 A 
ATOM     21  C   UNL     1       6.658   1.662   7.247  1.00  0.00     0.049 A 
ATOM     22  H   UNL     1       7.324  -0.314   7.255  1.00  0.00     0.167 HD
ATOM     23  C   UNL     1       8.040  -4.622   7.370  1.00  0.00     0.034 A 
ATOM     24  C   UNL     1       6.750   2.130   8.510  1.00  0.00     0.034 A 
ATOM     25  C   UNL     1       8.519  -4.137   8.634  1.00  0.00     0.049 A 
ATOM     26  C   UNL     1       7.371   1.250   9.567  1.00  0.00     0.074 A 
ATOM     27  C   UNL     1       9.242  -4.805   9.604  1.00  0.00     0.029 A 
ATOM     28  N   UNL     1       8.331  -2.841   9.094  1.00  0.00    -0.354 N 
ATOM     29  N   UNL     1       7.701  -0.018   9.497  1.00  0.00    -0.248 NA
ATOM     30  C   UNL     1       7.710   1.890  10.845  1.00  0.00     0.031 C 
ATOM     31  C   UNL     1       9.466  -3.921  10.666  1.00  0.00     0.029 A 
ATOM     32  C   UNL     1       8.928  -2.688  10.332  1.00  0.00     0.049 A 
ATOM     33  H   UNL     1       7.846  -2.135   8.609  1.00  0.00     0.167 HD
ATOM     34  C   UNL     1       8.371  -0.299  10.685  1.00  0.00     0.074 A 
ATOM     35  C   UNL     1       8.374   0.923  11.461  1.00  0.00     0.031 C 
ATOM     36  C   UNL     1       8.958  -1.457  11.082  1.00  0.00     0.034 A 
BRANCH  23  37
ATOM     37  C   UNL     1       8.233  -6.074   6.997  1.00  0.00     0.023 A 
ATOM     38  C   UNL     1       8.963  -6.423   5.843  1.00  0.00     0.031 A 
ATOM     39  C   UNL     1       7.623  -7.109   7.720  1.00  0.00     0.131 A 
ATOM     40  C   UNL     1       8.918  -7.733   5.353  1.00  0.00     0.055 A 
ATOM     41  C   UNL     1       7.697  -8.440   7.296  1.00  0.00     0.041 A 
ATOM     42  F   UNL     1       6.911  -6.846   8.827  1.00  0.00    -0.206 F 
ATOM     43  C   UNL     1       8.318  -8.754   6.089  1.00  0.00     0.022 A 
BRANCH  40  44
ATOM     44  S   UNL     1       9.450  -8.019   3.643  1.00  0.00     0.124 S 
ATOM     45  O   UNL     1       8.469  -7.230   2.900  1.00  0.00    -0.237 OA
ATOM     46  O   UNL     1      10.814  -7.502   3.641  1.00  0.00    -0.237 OA
ATOM     47  O   UNL     1       9.328  -9.466   3.485  1.00  0.00    -0.744 OA
ENDBRANCH  40  44
ENDBRANCH  23  37
BRANCH  24  48
ATOM     48  C   UNL     1       6.348   3.527   8.852  1.00  0.00     0.023 A 
ATOM     49  C   UNL     1       7.320   4.499   9.141  1.00  0.00     0.031 A 
ATOM     50  C   UNL     1       4.997   3.887   8.985  1.00  0.00     0.131 A 
ATOM     51  C   UNL     1       6.933   5.761   9.619  1.00  0.00     0.055 A 
ATOM     52  C   UNL     1       4.614   5.160   9.421  1.00  0.00     0.041 A 
ATOM     53  F   UNL     1       4.027   3.001   8.711  1.00  0.00    -0.206 F 
ATOM     54  C   UNL     1       5.586   6.101   9.758  1.00  0.00     0.022 A 
BRANCH  51  55
ATOM     55  S   UNL     1       8.225   6.918  10.152  1.00  0.00     0.124 S 
ATOM     56  O   UNL     1       8.921   6.138  11.169  1.00  0.00    -0.237 OA
ATOM     57  O   UNL     1       8.954   7.146   8.909  1.00  0.00    -0.237 OA
ATOM     58  O   UNL     1       7.471   8.066  10.649  1.00  0.00    -0.744 OA
ENDBRANCH  51  55
ENDBRANCH  24  48
BRANCH  36  59
ATOM     59  C   UNL     1       9.751  -1.429  12.362  1.00  0.00     0.023 A 
ATOM     60  C   UNL     1       9.144  -1.236  13.612  1.00  0.00     0.031 A 
ATOM     61  C   UNL     1      11.147  -1.601  12.320  1.00  0.00     0.131 A 
ATOM     62  C   UNL     1       9.937  -1.164  14.766  1.00  0.00     0.055 A 
ATOM     63  C   UNL     1      11.923  -1.595  13.479  1.00  0.00     0.041 A 
ATOM     64  F   UNL     1      11.780  -1.784  11.149  1.00  0.00    -0.206 F 
ATOM     65  C   UNL     1      11.319  -1.362  14.711  1.00  0.00     0.022 A 
BRANCH  62  66
ATOM     66  S   UNL     1       9.145  -0.717  16.334  1.00  0.00     0.124 S 
ATOM     67  O   UNL     1       8.585   0.595  16.026  1.00  0.00    -0.237 OA
ATOM     68  O   UNL     1       8.178  -1.795  16.515  1.00  0.00    -0.237 OA
ATOM     69  O   UNL     1      10.252  -0.712  17.288  1.00  0.00    -0.744 OA
ENDBRANCH  62  66
ENDBRANCH  36  59
ENDBRANCH  10  11
ENDBRANCH   3   5
ENDBRANCH   2   3
ENDBRANCH   1   2
BRANCH   1  70
ATOM     70  C   UNL     1       3.686   2.427  -0.526  1.00  0.00     0.274 C 
BRANCH  70  71
ATOM     71  O   UNL     1       3.266   1.893   0.748  1.00  0.00    -0.462 OA
BRANCH  71  72
ATOM     72  C   UNL     1       1.933   1.633   0.862  1.00  0.00     0.314 C 
ATOM     73  O   UNL     1       1.148   1.690  -0.082  1.00  0.00    -0.252 OA
BRANCH  72  74
ATOM     74  C   UNL     1       1.445   1.343   2.280  1.00  0.00     0.154 C 
ATOM     75  C   UNL     1       2.267   1.922   3.432  1.00  0.00     0.027 C 
ATOM     76  C   UNL     1       0.998  -0.122   2.469  1.00  0.00     0.277 C 
ATOM     77  C   UNL     1       3.171   0.904   4.094  1.00  0.00     0.062 C 
ATOM     78  N   UNL     1       1.956  -0.998   3.144  1.00  0.00    -0.330 N 
ATOM     79  C   UNL     1       2.490  -0.425   4.379  1.00  0.00     0.262 C 
ATOM     80  H   UNL     1       2.763  -1.047   2.524  1.00  0.00     0.348 HD
BRANCH  78  81
ATOM     81  C   UNL     1       1.528  -2.419   3.234  1.00  0.00     0.299 C 
BRANCH  81  82
ATOM     82  C   UNL     1       1.169  -2.955   4.614  1.00  0.00     0.014 A 
ATOM     83  C   UNL     1       0.049  -2.380   5.242  1.00  0.00     0.010 A 
ATOM     84  C   UNL     1       1.946  -3.941   5.310  1.00  0.00    -0.010 A 
ATOM     85  C   UNL     1      -0.241  -2.653   6.570  1.00  0.00     0.001 A 
ATOM     86  C   UNL     1       1.642  -4.187   6.675  1.00  0.00    -0.018 A 
ATOM     87  C   UNL     1       3.006  -4.707   4.753  1.00  0.00     0.009 A 
ATOM     88  C   UNL     1       0.569  -3.525   7.287  1.00  0.00     0.009 A 
ATOM     89  C   UNL     1       2.412  -5.088   7.431  1.00  0.00     0.009 A 
ATOM     90  C   UNL     1       3.736  -5.635   5.509  1.00  0.00     0.001 A 
ATOM     91  C   UNL     1       3.454  -5.808   6.854  1.00  0.00     0.001 A 
ENDBRANCH  81  82
ENDBRANCH  78  81
ENDBRANCH  72  74
ENDBRANCH  71  72
ENDBRANCH  70  71
ENDBRANCH   1  70
TORSDOF 16
