REMARK SMILES CC[C@@H](C)[C@H](NC(=O)[C@H](C)N1C(=O)N2CCC3=c4cc(OC)ccc4=N[C@H]3[C@@]2(C)C1=O)C(=O)OCCOC(=O)c1ccc(-c2c3nc(c(-c4cc(S(=O)(=O)[O-])ccc4F)c4ccc([nH]4)c(-c4cc(S(=O)(=O)[O-])ccc4F)c4nc(c(-c5cc(S(=O)(=O)[O-])ccc5F)c5ccc2[nH]5)C=C4)C=C3)cc1
REMARK SMILES IDX 35 1 34 2 32 3 33 4 5 5 3 6 4 7 2 8 1 9 6 10 7 11 8 13 9 14
REMARK SMILES IDX 10 15 11 16 12 17 30 18 14 19 13 20 28 21 31 22 15 23 27 24
REMARK SMILES IDX 29 25 16 26 17 27 26 28 18 29 25 30 19 31 24 32 20 33 23 34
REMARK SMILES IDX 21 35 22 36 36 37 37 38 38 39 39 40 40 41 41 42 102 43 42 44
REMARK SMILES IDX 101 45 43 46 44 47 45 48 95 49 46 50 100 51 94 52 96 53
REMARK SMILES IDX 47 54 99 55 93 56 92 57 48 59 80 60 60 61 79 62 61 63 64 64
REMARK SMILES IDX 78 65 97 66 62 67 63 68 77 70 98 71 65 72 49 73 50 74 58 75
REMARK SMILES IDX 51 76 57 77 59 78 56 79 52 80 53 81 54 82 55 83 81 84 82 85
REMARK SMILES IDX 90 86 83 87 89 88 91 89 88 90 84 91 85 92 86 93 87 94 66 95
REMARK SMILES IDX 67 96 75 97 68 98 74 99 76 100 73 101 69 102 70 103 71 104
REMARK SMILES IDX 72 105
REMARK H PARENT 6 12 96 58 64 69
REMARK Flexibility Score: inf
ROOT
ATOM      1  C   UNL     1       4.192  -1.827  -2.932  1.00  0.00     0.274 C 
ENDROOT
BRANCH   1   2
ATOM      2  O   UNL     1       2.795  -2.270  -3.029  1.00  0.00    -0.461 OA
BRANCH   2   3
ATOM      3  C   UNL     1       2.112  -2.121  -4.235  1.00  0.00     0.329 C 
ATOM      4  O   UNL     1       2.493  -1.398  -5.150  1.00  0.00    -0.250 OA
BRANCH   3   5
ATOM      5  C   UNL     1       0.971  -3.220  -4.350  1.00  0.00     0.195 C 
BRANCH   5   6
ATOM      6  C   UNL     1       0.172  -3.606  -5.671  1.00  0.00     0.019 C 
ATOM      7  C   UNL     1       0.635  -2.880  -6.934  1.00  0.00     0.010 C 
BRANCH   6   8
ATOM      8  C   UNL     1      -1.372  -3.719  -5.583  1.00  0.00     0.002 C 
ATOM      9  C   UNL     1      -2.003  -4.416  -6.803  1.00  0.00     0.004 C 
ENDBRANCH   6   8
ENDBRANCH   5   6
BRANCH   5  10
ATOM     10  N   UNL     1       0.279  -3.477  -3.096  1.00  0.00    -0.341 N 
ATOM     11  C   UNL     1       0.627  -4.059  -1.913  1.00  0.00     0.243 C 
ATOM     12  H   UNL     1      -0.653  -3.159  -3.103  1.00  0.00     0.164 HD
ATOM     13  O   UNL     1      -0.282  -3.927  -1.073  1.00  0.00    -0.273 OA
BRANCH  11  14
ATOM     14  C   UNL     1       2.074  -4.587  -1.425  1.00  0.00     0.181 C 
ATOM     15  C   UNL     1       2.499  -3.561  -0.370  1.00  0.00     0.042 C 
BRANCH  14  16
ATOM     16  N   UNL     1       3.114  -5.284  -2.326  1.00  0.00    -0.250 N 
ATOM     17  C   UNL     1       3.495  -6.644  -2.271  1.00  0.00     0.328 C 
ATOM     18  C   UNL     1       3.221  -5.070  -3.642  1.00  0.00     0.259 C 
ATOM     19  N   UNL     1       3.523  -7.160  -3.711  1.00  0.00    -0.307 N 
ATOM     20  O   UNL     1       3.524  -7.371  -1.291  1.00  0.00    -0.248 OA
ATOM     21  C   UNL     1       2.570  -6.247  -4.340  1.00  0.00     0.147 C 
ATOM     22  O   UNL     1       3.975  -4.290  -4.213  1.00  0.00    -0.271 OA
ATOM     23  C   UNL     1       3.262  -8.620  -4.077  1.00  0.00     0.127 C 
ATOM     24  C   UNL     1       1.105  -6.768  -3.717  1.00  0.00     0.168 C 
ATOM     25  C   UNL     1       2.705  -6.145  -5.857  1.00  0.00     0.048 C 
ATOM     26  C   UNL     1       1.679  -8.993  -4.621  1.00  0.00     0.055 C 
ATOM     27  C   UNL     1       0.427  -8.090  -4.051  1.00  0.00    -0.032 C 
ATOM     28  N   UNL     1       0.903  -6.677  -2.215  1.00  0.00    -0.274 NA
ATOM     29  C   UNL     1      -0.341  -8.472  -2.962  1.00  0.00     0.005 A 
ATOM     30  C   UNL     1       0.613  -7.929  -1.932  1.00  0.00     0.066 A 
ATOM     31  C   UNL     1      -1.588  -7.821  -2.327  1.00  0.00     0.056 A 
ATOM     32  C   UNL     1       0.588  -8.619  -0.647  1.00  0.00     0.032 A 
ATOM     33  C   UNL     1      -1.617  -7.744  -0.946  1.00  0.00     0.119 A 
ATOM     34  C   UNL     1      -0.659  -8.549  -0.173  1.00  0.00     0.048 A 
BRANCH  33  35
ATOM     35  O   UNL     1      -2.136  -6.640  -0.267  1.00  0.00    -0.497 OA
ATOM     36  C   UNL     1      -1.228  -6.061   0.716  1.00  0.00     0.278 C 
ENDBRANCH  33  35
ENDBRANCH  14  16
ENDBRANCH  11  14
ENDBRANCH   5  10
ENDBRANCH   3   5
ENDBRANCH   2   3
ENDBRANCH   1   2
BRANCH   1  37
ATOM     37  C   UNL     1       5.065  -2.419  -1.734  1.00  0.00     0.275 C 
BRANCH  37  38
ATOM     38  O   UNL     1       5.413  -3.852  -1.741  1.00  0.00    -0.458 OA
BRANCH  38  39
ATOM     39  C   UNL     1       5.851  -4.409  -0.549  1.00  0.00     0.338 C 
ATOM     40  O   UNL     1       5.952  -3.776   0.495  1.00  0.00    -0.246 OA
BRANCH  39  41
ATOM     41  C   UNL     1       6.123  -5.908  -0.588  1.00  0.00     0.060 A 
ATOM     42  C   UNL     1       6.049  -6.698   0.572  1.00  0.00     0.016 A 
ATOM     43  C   UNL     1       6.449  -6.588  -1.755  1.00  0.00     0.016 A 
ATOM     44  C   UNL     1       6.155  -8.130   0.526  1.00  0.00     0.010 A 
ATOM     45  C   UNL     1       6.548  -8.018  -1.782  1.00  0.00     0.010 A 
ATOM     46  C   UNL     1       6.298  -8.862  -0.672  1.00  0.00    -0.014 A 
BRANCH  46  47
ATOM     47  C   UNL     1       6.274 -10.424  -0.727  1.00  0.00     0.031 A 
ATOM     48  C   UNL     1       6.746 -11.214  -1.948  1.00  0.00     0.074 A 
ATOM     49  C   UNL     1       5.752 -11.268   0.211  1.00  0.00     0.049 A 
ATOM     50  N   UNL     1       7.417 -12.343  -2.009  1.00  0.00    -0.248 NA
ATOM     51  C   UNL     1       6.356 -10.712  -3.272  1.00  0.00     0.031 C 
ATOM     52  C   UNL     1       4.889 -10.910   1.334  1.00  0.00     0.029 A 
ATOM     53  N   UNL     1       5.889 -12.650   0.361  1.00  0.00    -0.354 N 
ATOM     54  C   UNL     1       7.686 -12.562  -3.360  1.00  0.00     0.074 A 
ATOM     55  C   UNL     1       7.025 -11.508  -4.094  1.00  0.00     0.031 C 
ATOM     56  C   UNL     1       4.671 -11.992   2.105  1.00  0.00     0.029 A 
ATOM     57  C   UNL     1       5.374 -13.148   1.546  1.00  0.00     0.049 A 
ATOM     58  H   UNL     1       6.316 -13.221  -0.317  1.00  0.00     0.167 HD
ATOM     59  C   UNL     1       8.405 -13.546  -3.955  1.00  0.00     0.034 A 
ATOM     60  C   UNL     1       5.488 -14.354   2.159  1.00  0.00     0.034 A 
ATOM     61  C   UNL     1       8.806 -14.761  -3.302  1.00  0.00     0.049 A 
ATOM     62  C   UNL     1       6.342 -15.460   1.558  1.00  0.00     0.074 A 
ATOM     63  C   UNL     1       9.601 -15.785  -3.792  1.00  0.00     0.029 A 
ATOM     64  N   UNL     1       8.350 -15.170  -2.062  1.00  0.00    -0.354 N 
ATOM     65  N   UNL     1       7.020 -15.467   0.436  1.00  0.00    -0.248 NA
ATOM     66  C   UNL     1       6.477 -16.713   2.328  1.00  0.00     0.031 C 
ATOM     67  C   UNL     1       9.558 -16.844  -2.881  1.00  0.00     0.029 A 
ATOM     68  C   UNL     1       8.808 -16.446  -1.787  1.00  0.00     0.049 A 
ATOM     69  H   UNL     1       7.782 -14.633  -1.464  1.00  0.00     0.167 HD
ATOM     70  C   UNL     1       7.691 -16.694   0.391  1.00  0.00     0.074 A 
ATOM     71  C   UNL     1       7.350 -17.402   1.602  1.00  0.00     0.031 C 
ATOM     72  C   UNL     1       8.515 -17.174  -0.576  1.00  0.00     0.034 A 
BRANCH  59  73
ATOM     73  C   UNL     1       8.867 -13.325  -5.376  1.00  0.00     0.023 A 
ATOM     74  C   UNL     1       8.533 -14.204  -6.422  1.00  0.00     0.031 A 
ATOM     75  C   UNL     1       9.798 -12.300  -5.642  1.00  0.00     0.131 A 
ATOM     76  C   UNL     1       9.142 -14.051  -7.677  1.00  0.00     0.055 A 
ATOM     77  C   UNL     1      10.379 -12.137  -6.898  1.00  0.00     0.041 A 
ATOM     78  F   UNL     1      10.166 -11.446  -4.672  1.00  0.00    -0.206 F 
ATOM     79  C   UNL     1      10.058 -13.021  -7.920  1.00  0.00     0.022 A 
BRANCH  76  80
ATOM     80  S   UNL     1       8.812 -15.203  -9.039  1.00  0.00     0.124 S 
ATOM     81  O   UNL     1       8.333 -14.300 -10.084  1.00  0.00    -0.237 OA
ATOM     82  O   UNL     1      10.130 -15.785  -9.275  1.00  0.00    -0.237 OA
ATOM     83  O   UNL     1       7.806 -16.109  -8.496  1.00  0.00    -0.744 OA
ENDBRANCH  76  80
ENDBRANCH  59  73
BRANCH  60  84
ATOM     84  C   UNL     1       4.904 -14.541   3.531  1.00  0.00     0.023 A 
ATOM     85  C   UNL     1       3.517 -14.542   3.762  1.00  0.00     0.031 A 
ATOM     86  C   UNL     1       5.754 -14.668   4.648  1.00  0.00     0.131 A 
ATOM     87  C   UNL     1       3.029 -14.617   5.078  1.00  0.00     0.055 A 
ATOM     88  C   UNL     1       5.263 -14.808   5.947  1.00  0.00     0.041 A 
ATOM     89  F   UNL     1       7.086 -14.672   4.483  1.00  0.00    -0.206 F 
ATOM     90  C   UNL     1       3.892 -14.768   6.169  1.00  0.00     0.022 A 
BRANCH  87  91
ATOM     91  S   UNL     1       1.261 -14.413   5.437  1.00  0.00     0.124 S 
ATOM     92  O   UNL     1       0.937 -15.666   6.112  1.00  0.00    -0.237 OA
ATOM     93  O   UNL     1       1.265 -13.223   6.284  1.00  0.00    -0.237 OA
ATOM     94  O   UNL     1       0.662 -14.234   4.118  1.00  0.00    -0.744 OA
ENDBRANCH  87  91
ENDBRANCH  60  84
BRANCH  72  95
ATOM     95  C   UNL     1       9.165 -18.533  -0.426  1.00  0.00     0.023 A 
ATOM     96  C   UNL     1      10.572 -18.637  -0.447  1.00  0.00     0.031 A 
ATOM     97  C   UNL     1       8.418 -19.722  -0.475  1.00  0.00     0.131 A 
ATOM     98  C   UNL     1      11.185 -19.891  -0.572  1.00  0.00     0.055 A 
ATOM     99  C   UNL     1       9.035 -20.975  -0.551  1.00  0.00     0.041 A 
ATOM    100  F   UNL     1       7.076 -19.686  -0.477  1.00  0.00    -0.206 F 
ATOM    101  C   UNL     1      10.423 -21.062  -0.619  1.00  0.00     0.022 A 
BRANCH  98 102
ATOM    102  S   UNL     1      12.981 -20.043  -0.793  1.00  0.00     0.124 S 
ATOM    103  O   UNL     1      13.363 -20.834   0.374  1.00  0.00    -0.237 OA
ATOM    104  O   UNL     1      13.076 -20.737  -2.074  1.00  0.00    -0.237 OA
ATOM    105  O   UNL     1      13.454 -18.663  -0.790  1.00  0.00    -0.744 OA
ENDBRANCH  98 102
ENDBRANCH  72  95
ENDBRANCH  46  47
ENDBRANCH  39  41
ENDBRANCH  38  39
ENDBRANCH  37  38
ENDBRANCH   1  37
TORSDOF 20
