REMARK SMILES COc1ccc2c(c1)O[C@@]1(CCC(=O)N([C@@H](C)C(=O)OCCOC(=O)c3ccc(-c4c5nc(c(-c6cc(S(=O)(=O)[O-])ccc6F)c6ccc([nH]6)c(-c6cc(S(=O)(=O)[O-])ccc6F)c6nc(c(-c7cc(S(=O)(=O)[O-])ccc7F)c7ccc4[nH]7)C=C6)C=C5)cc3)CC1)CC2=O
REMARK SMILES IDX 21 1 20 2 18 3 19 4 16 5 17 6 15 7 89 8 90 9 10 10 3 11 4 12
REMARK SMILES IDX 8 13 5 14 7 15 6 16 9 17 92 18 91 19 93 20 2 21 1 22 11 23
REMARK SMILES IDX 13 25 14 26 12 27 22 29 23 30 24 31 25 32 26 33 27 34 88 35
REMARK SMILES IDX 28 36 87 37 29 38 30 39 31 40 81 41 32 42 86 43 80 44 82 45
REMARK SMILES IDX 33 46 85 47 79 48 78 49 34 51 66 52 46 53 65 54 47 55 50 56
REMARK SMILES IDX 64 57 83 58 48 59 49 60 63 62 84 63 51 64 35 65 36 66 44 67
REMARK SMILES IDX 37 68 43 69 45 70 42 71 38 72 39 73 40 74 41 75 67 76 68 77
REMARK SMILES IDX 76 78 69 79 75 80 77 81 74 82 70 83 71 84 72 85 73 86 52 87
REMARK SMILES IDX 53 88 61 89 54 90 60 91 62 92 59 93 55 94 56 95 57 96 58 97
REMARK H PARENT 82 50 50 61
REMARK Flexibility Score: 80.00
ROOT
ATOM      1  C   UNL     1      -1.089  -0.503  -2.714  1.00  0.00     0.274 C 
ENDROOT
BRANCH   1   2
ATOM      2  O   UNL     1      -2.206   0.355  -2.435  1.00  0.00    -0.461 OA
BRANCH   2   3
ATOM      3  C   UNL     1      -3.425  -0.193  -2.679  1.00  0.00     0.328 C 
ATOM      4  O   UNL     1      -3.590  -1.307  -3.169  1.00  0.00    -0.250 OA
BRANCH   3   5
ATOM      5  C   UNL     1      -4.585   0.755  -2.340  1.00  0.00     0.192 C 
ATOM      6  C   UNL     1      -5.367   1.032  -3.635  1.00  0.00     0.044 C 
BRANCH   5   7
ATOM      7  N   UNL     1      -4.311   1.986  -1.519  1.00  0.00    -0.329 N 
BRANCH   7   8
ATOM      8  C   UNL     1      -3.556   1.966  -0.245  1.00  0.00     0.124 C 
BRANCH   8   9
ATOM      9  C   UNL     1      -4.405   1.673   1.055  1.00  0.00     0.070 C 
BRANCH   9  10
ATOM     10  C   UNL     1      -5.387   0.524   0.810  1.00  0.00     0.118 C 
ATOM     11  C   UNL     1      -2.063  -3.056   0.800  1.00  0.00     0.122 A 
ATOM     12  C   UNL     1      -2.881  -3.886   1.567  1.00  0.00     0.047 A 
ATOM     13  C   UNL     1      -2.572  -1.816   0.380  1.00  0.00     0.093 A 
ATOM     14  C   UNL     1      -4.155  -3.481   1.961  1.00  0.00     0.019 A 
ATOM     15  C   UNL     1      -3.884  -1.425   0.734  1.00  0.00     0.134 A 
ATOM     16  C   UNL     1      -4.625  -2.231   1.569  1.00  0.00     0.060 A 
ATOM     17  O   UNL     1      -4.546  -0.417   0.069  1.00  0.00    -0.486 OA
ATOM     18  C   UNL     1      -5.929  -1.715   1.960  1.00  0.00     0.170 C 
ATOM     19  C   UNL     1      -6.056  -0.205   2.009  1.00  0.00     0.129 C 
ATOM     20  O   UNL     1      -6.829  -2.484   2.276  1.00  0.00    -0.294 OA
BRANCH  11  21
ATOM     21  O   UNL     1      -0.881  -3.669   0.493  1.00  0.00    -0.497 OA
ATOM     22  C   UNL     1       0.251  -2.940   0.070  1.00  0.00     0.278 C 
ENDBRANCH  11  21
BRANCH  10  23
ATOM     23  C   UNL     1      -6.614   1.203   0.025  1.00  0.00     0.059 CG0
ATOM     24  G   UNL     1      -6.546   2.530  -0.791  1.00  0.00     0.000 G0
ENDBRANCH  10  23
ENDBRANCH   9  10
ENDBRANCH   8   9
ENDBRANCH   7   8
BRANCH   7  25
ATOM     25  C   UNL     1      -5.282   2.953  -1.494  1.00  0.00     0.223 C 
ATOM     26  O   UNL     1      -5.120   4.076  -1.960  1.00  0.00    -0.275 OA
BRANCH  25  27
ATOM     27  C   UNL     1      -6.546   2.530  -0.791  1.00  0.00     0.104 CG0
ATOM     28  G   UNL     1      -6.614   1.203   0.025  1.00  0.00     0.000 G0
ENDBRANCH  25  27
ENDBRANCH   7  25
ENDBRANCH   5   7
ENDBRANCH   3   5
ENDBRANCH   2   3
ENDBRANCH   1   2
BRANCH   1  29
ATOM     29  C   UNL     1       0.180   0.128  -2.128  1.00  0.00     0.275 C 
BRANCH  29  30
ATOM     30  O   UNL     1       0.220  -0.050  -0.691  1.00  0.00    -0.458 OA
BRANCH  30  31
ATOM     31  C   UNL     1       0.248   1.046   0.123  1.00  0.00     0.338 C 
ATOM     32  O   UNL     1       0.264   2.193  -0.219  1.00  0.00    -0.246 OA
BRANCH  31  33
ATOM     33  C   UNL     1       0.048   0.564   1.530  1.00  0.00     0.060 A 
ATOM     34  C   UNL     1       0.919  -0.321   2.170  1.00  0.00     0.016 A 
ATOM     35  C   UNL     1      -1.096   0.980   2.206  1.00  0.00     0.016 A 
ATOM     36  C   UNL     1       0.586  -0.858   3.432  1.00  0.00     0.010 A 
ATOM     37  C   UNL     1      -1.445   0.435   3.453  1.00  0.00     0.010 A 
ATOM     38  C   UNL     1      -0.606  -0.491   4.091  1.00  0.00    -0.014 A 
BRANCH  38  39
ATOM     39  C   UNL     1      -0.767  -0.719   5.563  1.00  0.00     0.031 A 
ATOM     40  C   UNL     1      -1.663  -1.754   6.197  1.00  0.00     0.074 A 
ATOM     41  C   UNL     1      -0.119   0.159   6.355  1.00  0.00     0.049 A 
ATOM     42  N   UNL     1      -1.854  -1.998   7.473  1.00  0.00    -0.248 NA
ATOM     43  C   UNL     1      -2.453  -2.614   5.310  1.00  0.00     0.031 C 
ATOM     44  C   UNL     1       0.718   1.250   5.853  1.00  0.00     0.029 A 
ATOM     45  N   UNL     1      -0.078   0.305   7.718  1.00  0.00    -0.354 N 
ATOM     46  C   UNL     1      -2.776  -3.042   7.549  1.00  0.00     0.074 A 
ATOM     47  C   UNL     1      -3.129  -3.365   6.179  1.00  0.00     0.031 C 
ATOM     48  C   UNL     1       1.180   1.959   6.887  1.00  0.00     0.029 A 
ATOM     49  C   UNL     1       0.650   1.399   8.126  1.00  0.00     0.049 A 
ATOM     50  H   UNL     1      -0.524  -0.311   8.343  1.00  0.00     0.167 HD
ATOM     51  C   UNL     1      -3.261  -3.665   8.656  1.00  0.00     0.034 A 
ATOM     52  C   UNL     1       0.870   1.920   9.349  1.00  0.00     0.034 A 
ATOM     53  C   UNL     1      -2.876  -3.322  10.012  1.00  0.00     0.049 A 
ATOM     54  C   UNL     1       0.345   1.201  10.556  1.00  0.00     0.074 A 
ATOM     55  C   UNL     1      -3.212  -3.982  11.185  1.00  0.00     0.029 A 
ATOM     56  N   UNL     1      -2.102  -2.234  10.386  1.00  0.00    -0.354 N 
ATOM     57  N   UNL     1      -0.393   0.118  10.603  1.00  0.00    -0.248 NA
ATOM     58  C   UNL     1       0.700   1.744  11.873  1.00  0.00     0.031 C 
ATOM     59  C   UNL     1      -2.726  -3.244  12.264  1.00  0.00     0.029 A 
ATOM     60  C   UNL     1      -1.997  -2.177  11.769  1.00  0.00     0.049 A 
ATOM     61  H   UNL     1      -1.687  -1.595   9.762  1.00  0.00     0.167 HD
ATOM     62  C   UNL     1      -0.573  -0.163  11.952  1.00  0.00     0.074 A 
ATOM     63  C   UNL     1       0.152   0.852  12.689  1.00  0.00     0.031 C 
ATOM     64  C   UNL     1      -1.277  -1.173  12.518  1.00  0.00     0.034 A 
BRANCH  51  65
ATOM     65  C   UNL     1      -4.227  -4.833   8.525  1.00  0.00     0.023 A 
ATOM     66  C   UNL     1      -5.489  -4.786   9.161  1.00  0.00     0.031 A 
ATOM     67  C   UNL     1      -3.798  -6.071   8.015  1.00  0.00     0.131 A 
ATOM     68  C   UNL     1      -6.242  -5.960   9.320  1.00  0.00     0.055 A 
ATOM     69  C   UNL     1      -4.572  -7.229   8.140  1.00  0.00     0.041 A 
ATOM     70  F   UNL     1      -2.597  -6.186   7.426  1.00  0.00    -0.206 F 
ATOM     71  C   UNL     1      -5.791  -7.181   8.811  1.00  0.00     0.022 A 
BRANCH  68  72
ATOM     72  S   UNL     1      -7.779  -5.979  10.292  1.00  0.00     0.124 S 
ATOM     73  O   UNL     1      -8.748  -6.464   9.312  1.00  0.00    -0.237 OA
ATOM     74  O   UNL     1      -7.455  -6.918  11.362  1.00  0.00    -0.237 OA
ATOM     75  O   UNL     1      -7.953  -4.590  10.701  1.00  0.00    -0.744 OA
ENDBRANCH  68  72
ENDBRANCH  51  65
BRANCH  52  76
ATOM     76  C   UNL     1       1.700   3.154   9.441  1.00  0.00     0.023 A 
ATOM     77  C   UNL     1       1.271   4.344   8.821  1.00  0.00     0.031 A 
ATOM     78  C   UNL     1       3.003   3.105   9.957  1.00  0.00     0.131 A 
ATOM     79  C   UNL     1       2.175   5.397   8.642  1.00  0.00     0.055 A 
ATOM     80  C   UNL     1       3.873   4.191   9.852  1.00  0.00     0.041 A 
ATOM     81  F   UNL     1       3.461   1.983  10.533  1.00  0.00    -0.206 F 
ATOM     82  C   UNL     1       3.469   5.334   9.168  1.00  0.00     0.022 A 
BRANCH  79  83
ATOM     83  S   UNL     1       1.768   6.786   7.546  1.00  0.00     0.124 S 
ATOM     84  O   UNL     1       1.790   7.916   8.469  1.00  0.00    -0.237 OA
ATOM     85  O   UNL     1       2.864   6.735   6.580  1.00  0.00    -0.237 OA
ATOM     86  O   UNL     1       0.458   6.430   7.011  1.00  0.00    -0.744 OA
ENDBRANCH  79  83
ENDBRANCH  52  76
BRANCH  64  87
ATOM     87  C   UNL     1      -1.332  -1.269  14.024  1.00  0.00     0.023 A 
ATOM     88  C   UNL     1      -0.812  -2.405  14.676  1.00  0.00     0.031 A 
ATOM     89  C   UNL     1      -2.045  -0.332  14.791  1.00  0.00     0.131 A 
ATOM     90  C   UNL     1      -1.064  -2.603  16.040  1.00  0.00     0.055 A 
ATOM     91  C   UNL     1      -2.248  -0.508  16.161  1.00  0.00     0.041 A 
ATOM     92  F   UNL     1      -2.564   0.765  14.216  1.00  0.00    -0.206 F 
ATOM     93  C   UNL     1      -1.772  -1.657  16.787  1.00  0.00     0.022 A 
BRANCH  90  94
ATOM     94  S   UNL     1      -0.561  -4.135  16.872  1.00  0.00     0.124 S 
ATOM     95  O   UNL     1       0.263  -3.630  17.968  1.00  0.00    -0.237 OA
ATOM     96  O   UNL     1      -1.846  -4.703  17.270  1.00  0.00    -0.237 OA
ATOM     97  O   UNL     1       0.163  -4.874  15.843  1.00  0.00    -0.744 OA
ENDBRANCH  90  94
ENDBRANCH  64  87
ENDBRANCH  38  39
ENDBRANCH  31  33
ENDBRANCH  30  31
ENDBRANCH  29  30
ENDBRANCH   1  29
TORSDOF 16
