REMARK SMILES CC(C)C[C@H](NC(=O)[C@H](Cc1ccccc1)NC(=O)CNC(=O)CNC(=O)OCc1ccccc1)C(=O)OCCOC(=O)c1ccc(-c2c3nc(c(-c4cc(S(=O)(=O)[O-])ccc4F)c4ccc([nH]4)c(-c4cc(S(=O)(=O)[O-])ccc4F)c4nc(c(-c5cc(S(=O)(=O)[O-])ccc5F)c5ccc2[nH]5)C=C4)C=C3)cc1
REMARK SMILES IDX 5 1 4 2 2 3 1 4 3 5 36 6 37 7 38 8 39 9 40 10 41 11 42 12
REMARK SMILES IDX 43 13 44 14 45 15 106 16 46 17 105 18 47 19 48 20 49 21
REMARK SMILES IDX 99 22 50 23 104 24 98 25 100 26 51 27 103 28 97 29 96 30
REMARK SMILES IDX 52 32 84 33 64 34 83 35 65 36 68 37 82 38 101 39 66 40 67 41
REMARK SMILES IDX 81 43 102 44 69 45 53 46 54 47 62 48 55 49 61 50 63 51 60 52
REMARK SMILES IDX 56 53 57 54 58 55 59 56 85 57 86 58 94 59 87 60 93 61 95 62
REMARK SMILES IDX 92 63 88 64 89 65 90 66 91 67 70 68 71 69 79 70 72 71 78 72
REMARK SMILES IDX 80 73 77 74 73 75 74 76 75 77 76 78 6 79 7 80 8 82 9 83
REMARK SMILES IDX 17 84 18 85 19 87 20 88 21 89 22 90 23 92 24 93 25 94 26 95
REMARK SMILES IDX 27 97 28 98 29 99 30 100 31 101 35 102 32 103 34 104 33 105
REMARK SMILES IDX 10 106 11 107 12 108 16 109 13 110 15 111 14 112
REMARK H PARENT 100 31 68 42 6 81 17 86 21 91 25 96
REMARK Flexibility Score: inf
ROOT
ATOM      1  C   UNL     1      -3.153   4.319  -0.610  1.00  0.00     0.192 C 
ENDROOT
BRANCH   1   2
ATOM      2  C   UNL     1      -3.628   3.060  -1.395  1.00  0.00     0.040 C 
BRANCH   2   3
ATOM      3  C   UNL     1      -4.254   3.392  -2.781  1.00  0.00    -0.015 C 
ATOM      4  C   UNL     1      -3.256   3.975  -3.783  1.00  0.00     0.007 C 
ATOM      5  C   UNL     1      -4.907   2.146  -3.387  1.00  0.00     0.007 C 
ENDBRANCH   2   3
ENDBRANCH   1   2
BRANCH   1   6
ATOM      6  C   UNL     1      -3.645   4.267   0.909  1.00  0.00     0.328 C 
ATOM      7  O   UNL     1      -4.705   3.769   1.268  1.00  0.00    -0.250 OA
BRANCH   6   8
ATOM      8  O   UNL     1      -2.848   4.980   1.763  1.00  0.00    -0.461 OA
BRANCH   8   9
ATOM      9  C   UNL     1      -3.367   5.417   3.070  1.00  0.00     0.274 C 
BRANCH   9  10
ATOM     10  C   UNL     1      -2.759   6.792   3.530  1.00  0.00     0.275 C 
BRANCH  10  11
ATOM     11  O   UNL     1      -3.714   7.856   3.277  1.00  0.00    -0.458 OA
BRANCH  11  12
ATOM     12  C   UNL     1      -3.326   9.168   3.201  1.00  0.00     0.338 C 
ATOM     13  O   UNL     1      -2.238   9.606   3.525  1.00  0.00    -0.246 OA
BRANCH  12  14
ATOM     14  C   UNL     1      -4.395   9.951   2.479  1.00  0.00     0.060 A 
ATOM     15  C   UNL     1      -5.450   9.239   1.946  1.00  0.00     0.016 A 
ATOM     16  C   UNL     1      -4.300  11.304   2.126  1.00  0.00     0.016 A 
ATOM     17  C   UNL     1      -6.170   9.755   0.878  1.00  0.00     0.010 A 
ATOM     18  C   UNL     1      -5.237  11.885   1.216  1.00  0.00     0.010 A 
ATOM     19  C   UNL     1      -6.179  11.098   0.525  1.00  0.00    -0.014 A 
BRANCH  19  20
ATOM     20  C   UNL     1      -7.146  11.559  -0.554  1.00  0.00     0.031 A 
ATOM     21  C   UNL     1      -6.760  12.643  -1.536  1.00  0.00     0.074 A 
ATOM     22  C   UNL     1      -8.360  10.974  -0.755  1.00  0.00     0.049 A 
ATOM     23  N   UNL     1      -7.532  13.433  -2.242  1.00  0.00    -0.248 NA
ATOM     24  C   UNL     1      -5.325  12.878  -1.741  1.00  0.00     0.031 C 
ATOM     25  C   UNL     1      -8.915   9.835  -0.011  1.00  0.00     0.029 A 
ATOM     26  N   UNL     1      -9.356  11.231  -1.681  1.00  0.00    -0.354 N 
ATOM     27  C   UNL     1      -6.684  14.332  -2.884  1.00  0.00     0.074 A 
ATOM     28  C   UNL     1      -5.334  13.960  -2.509  1.00  0.00     0.031 C 
ATOM     29  C   UNL     1     -10.039   9.405  -0.593  1.00  0.00     0.029 A 
ATOM     30  C   UNL     1     -10.452  10.399  -1.562  1.00  0.00     0.049 A 
ATOM     31  H   UNL     1      -9.289  11.941  -2.360  1.00  0.00     0.167 HD
ATOM     32  C   UNL     1      -7.014  15.381  -3.683  1.00  0.00     0.034 A 
ATOM     33  C   UNL     1     -11.711  10.473  -2.043  1.00  0.00     0.034 A 
ATOM     34  C   UNL     1      -8.366  15.670  -4.111  1.00  0.00     0.049 A 
ATOM     35  C   UNL     1     -12.086  11.677  -2.858  1.00  0.00     0.074 A 
ATOM     36  C   UNL     1      -8.842  16.751  -4.835  1.00  0.00     0.029 A 
ATOM     37  N   UNL     1      -9.460  14.840  -3.890  1.00  0.00    -0.354 N 
ATOM     38  N   UNL     1     -11.330  12.679  -3.241  1.00  0.00    -0.248 NA
ATOM     39  C   UNL     1     -13.491  11.783  -3.267  1.00  0.00     0.031 C 
ATOM     40  C   UNL     1     -10.223  16.594  -5.016  1.00  0.00     0.029 A 
ATOM     41  C   UNL     1     -10.601  15.383  -4.463  1.00  0.00     0.049 A 
ATOM     42  H   UNL     1      -9.429  13.989  -3.397  1.00  0.00     0.167 HD
ATOM     43  C   UNL     1     -12.175  13.543  -3.926  1.00  0.00     0.074 A 
ATOM     44  C   UNL     1     -13.482  12.917  -3.950  1.00  0.00     0.031 C 
ATOM     45  C   UNL     1     -11.901  14.757  -4.468  1.00  0.00     0.034 A 
BRANCH  32  46
ATOM     46  C   UNL     1      -5.911  16.351  -4.048  1.00  0.00     0.023 A 
ATOM     47  C   UNL     1      -4.820  15.993  -4.856  1.00  0.00     0.031 A 
ATOM     48  C   UNL     1      -5.933  17.657  -3.519  1.00  0.00     0.131 A 
ATOM     49  C   UNL     1      -3.760  16.899  -5.042  1.00  0.00     0.055 A 
ATOM     50  C   UNL     1      -4.919  18.581  -3.777  1.00  0.00     0.041 A 
ATOM     51  F   UNL     1      -6.939  18.054  -2.723  1.00  0.00    -0.206 F 
ATOM     52  C   UNL     1      -3.814  18.197  -4.529  1.00  0.00     0.022 A 
BRANCH  49  53
ATOM     53  S   UNL     1      -2.238  16.305  -5.830  1.00  0.00     0.124 S 
ATOM     54  O   UNL     1      -1.836  15.235  -4.920  1.00  0.00    -0.237 OA
ATOM     55  O   UNL     1      -2.707  15.883  -7.145  1.00  0.00    -0.237 OA
ATOM     56  O   UNL     1      -1.367  17.478  -5.824  1.00  0.00    -0.744 OA
ENDBRANCH  49  53
ENDBRANCH  32  46
BRANCH  33  57
ATOM     57  C   UNL     1     -12.760   9.492  -1.608  1.00  0.00     0.023 A 
ATOM     58  C   UNL     1     -13.470   8.716  -2.536  1.00  0.00     0.031 A 
ATOM     59  C   UNL     1     -13.108   9.359  -0.247  1.00  0.00     0.131 A 
ATOM     60  C   UNL     1     -14.505   7.871  -2.097  1.00  0.00     0.055 A 
ATOM     61  C   UNL     1     -14.079   8.459   0.191  1.00  0.00     0.041 A 
ATOM     62  F   UNL     1     -12.485  10.091   0.692  1.00  0.00    -0.206 F 
ATOM     63  C   UNL     1     -14.796   7.718  -0.739  1.00  0.00     0.022 A 
BRANCH  60  64
ATOM     64  S   UNL     1     -15.548   7.053  -3.336  1.00  0.00     0.124 S 
ATOM     65  O   UNL     1     -16.037   8.189  -4.109  1.00  0.00    -0.237 OA
ATOM     66  O   UNL     1     -14.590   6.183  -4.010  1.00  0.00    -0.237 OA
ATOM     67  O   UNL     1     -16.555   6.364  -2.532  1.00  0.00    -0.744 OA
ENDBRANCH  60  64
ENDBRANCH  33  57
BRANCH  45  68
ATOM     68  C   UNL     1     -13.046  15.446  -5.164  1.00  0.00     0.023 A 
ATOM     69  C   UNL     1     -14.169  15.904  -4.451  1.00  0.00     0.031 A 
ATOM     70  C   UNL     1     -13.048  15.575  -6.562  1.00  0.00     0.131 A 
ATOM     71  C   UNL     1     -15.282  16.398  -5.147  1.00  0.00     0.055 A 
ATOM     72  C   UNL     1     -14.133  16.128  -7.245  1.00  0.00     0.041 A 
ATOM     73  F   UNL     1     -12.005  15.146  -7.290  1.00  0.00    -0.206 F 
ATOM     74  C   UNL     1     -15.265  16.526  -6.538  1.00  0.00     0.022 A 
BRANCH  71  75
ATOM     75  S   UNL     1     -16.800  16.750  -4.219  1.00  0.00     0.124 S 
ATOM     76  O   UNL     1     -17.074  15.464  -3.586  1.00  0.00    -0.237 OA
ATOM     77  O   UNL     1     -16.377  17.823  -3.325  1.00  0.00    -0.237 OA
ATOM     78  O   UNL     1     -17.751  17.146  -5.256  1.00  0.00    -0.744 OA
ENDBRANCH  71  75
ENDBRANCH  45  68
ENDBRANCH  19  20
ENDBRANCH  12  14
ENDBRANCH  11  12
ENDBRANCH  10  11
ENDBRANCH   9  10
ENDBRANCH   8   9
ENDBRANCH   6   8
ENDBRANCH   1   6
BRANCH   1  79
ATOM     79  N   UNL     1      -1.742   4.635  -0.977  1.00  0.00    -0.341 N 
ATOM     80  C   UNL     1      -1.030   5.809  -0.985  1.00  0.00     0.243 C 
ATOM     81  H   UNL     1      -1.222   3.852  -1.270  1.00  0.00     0.164 HD
ATOM     82  O   UNL     1      -0.139   5.945  -1.827  1.00  0.00    -0.273 OA
BRANCH  80  83
ATOM     83  C   UNL     1      -1.252   6.865   0.094  1.00  0.00     0.175 C 
BRANCH  83  84
ATOM     84  N   UNL     1      -0.004   7.268   0.785  1.00  0.00    -0.342 N 
ATOM     85  C   UNL     1       0.702   6.602   1.761  1.00  0.00     0.240 C 
ATOM     86  H   UNL     1       0.373   8.134   0.507  1.00  0.00     0.164 HD
ATOM     87  O   UNL     1       1.362   7.260   2.569  1.00  0.00    -0.273 OA
BRANCH  85  88
ATOM     88  C   UNL     1       0.662   5.067   1.878  1.00  0.00     0.216 C 
BRANCH  88  89
ATOM     89  N   UNL     1      -0.141   4.498   2.962  1.00  0.00    -0.346 N 
ATOM     90  C   UNL     1      -0.698   3.263   3.150  1.00  0.00     0.239 C 
ATOM     91  H   UNL     1      -0.313   5.127   3.700  1.00  0.00     0.164 HD
ATOM     92  O   UNL     1      -1.066   2.990   4.300  1.00  0.00    -0.273 OA
BRANCH  90  93
ATOM     93  C   UNL     1      -0.915   2.212   2.038  1.00  0.00     0.219 C 
BRANCH  93  94
ATOM     94  N   UNL     1      -0.653   2.670   0.706  1.00  0.00    -0.312 N 
ATOM     95  C   UNL     1       0.366   2.335  -0.120  1.00  0.00     0.407 C 
ATOM     96  H   UNL     1      -1.302   3.315   0.342  1.00  0.00     0.167 HD
ATOM     97  O   UNL     1       0.723   3.123  -0.981  1.00  0.00    -0.225 OA
BRANCH  95  98
ATOM     98  O   UNL     1       0.885   1.108   0.095  1.00  0.00    -0.445 OA
BRANCH  98  99
ATOM     99  C   UNL     1       1.918   0.773  -0.848  1.00  0.00     0.270 C 
BRANCH  99 100
ATOM    100  C   UNL     1       1.442   0.765  -2.288  1.00  0.00    -0.011 A 
ATOM    101  C   UNL     1       0.261   0.106  -2.654  1.00  0.00     0.007 A 
ATOM    102  C   UNL     1       2.138   1.502  -3.259  1.00  0.00     0.007 A 
ATOM    103  C   UNL     1      -0.220   0.196  -3.962  1.00  0.00     0.000 A 
ATOM    104  C   UNL     1       1.657   1.588  -4.565  1.00  0.00     0.000 A 
ATOM    105  C   UNL     1       0.478   0.935  -4.916  1.00  0.00     0.000 A 
ENDBRANCH  99 100
ENDBRANCH  98  99
ENDBRANCH  95  98
ENDBRANCH  93  94
ENDBRANCH  90  93
ENDBRANCH  88  89
ENDBRANCH  85  88
ENDBRANCH  83  84
BRANCH  83 106
ATOM    106  C   UNL     1      -2.063   8.053  -0.480  1.00  0.00     0.070 C 
BRANCH 106 107
ATOM    107  C   UNL     1      -3.489   7.687  -0.862  1.00  0.00    -0.045 A 
ATOM    108  C   UNL     1      -4.358   7.150   0.092  1.00  0.00     0.004 A 
ATOM    109  C   UNL     1      -3.981   7.812  -2.160  1.00  0.00     0.004 A 
ATOM    110  C   UNL     1      -5.639   6.679  -0.216  1.00  0.00     0.000 A 
ATOM    111  C   UNL     1      -5.281   7.378  -2.477  1.00  0.00     0.000 A 
ATOM    112  C   UNL     1      -6.106   6.800  -1.511  1.00  0.00     0.000 A 
ENDBRANCH 106 107
ENDBRANCH  83 106
ENDBRANCH  80  83
ENDBRANCH   1  79
TORSDOF 28
