REMARK SMILES CC[C@H](C)c1ccccc1Oc1cccc(F)c1C(=O)OCCOC(=O)c1ccc(-c2c3nc(c(-c4cc(S(=O)(=O)[O-])ccc4F)c4ccc([nH]4)c(-c4cc(S(=O)(=O)[O-])ccc4F)c4nc(c(-c5cc(S(=O)(=O)[O-])ccc5F)c5ccc2[nH]5)C=C4)C=C3)cc1
REMARK SMILES IDX 22 1 21 2 19 3 20 4 18 5 12 6 13 7 14 8 16 9 15 10 17 11
REMARK SMILES IDX 11 12 10 13 5 14 6 15 7 16 9 17 8 18 3 19 4 20 2 21 1 22
REMARK SMILES IDX 23 23 24 24 25 25 26 26 27 27 28 28 89 29 29 30 88 31 30 32
REMARK SMILES IDX 31 33 32 34 82 35 33 36 87 37 81 38 83 39 34 40 86 41 80 42
REMARK SMILES IDX 79 43 35 45 67 46 47 47 66 48 48 49 51 50 65 51 84 52 49 53
REMARK SMILES IDX 50 54 64 56 85 57 52 58 36 59 37 60 45 61 38 62 44 63 46 64
REMARK SMILES IDX 43 65 39 66 40 67 41 68 42 69 68 70 69 71 77 72 70 73 76 74
REMARK SMILES IDX 78 75 75 76 71 77 72 78 73 79 74 80 53 81 54 82 62 83 55 84
REMARK SMILES IDX 61 85 63 86 60 87 56 88 57 89 58 90 59 91
REMARK H PARENT 83 44 51 55
REMARK Flexibility Score: inf
ROOT
ATOM      1  C   UNL     1      -2.878  -1.208  -3.368  1.00  0.00     0.275 C 
ENDROOT
BRANCH   1   2
ATOM      2  O   UNL     1      -2.002  -2.350  -3.343  1.00  0.00    -0.458 OA
BRANCH   2   3
ATOM      3  C   UNL     1      -0.940  -2.201  -2.516  1.00  0.00     0.345 C 
ATOM      4  O   UNL     1      -0.680  -1.239  -1.811  1.00  0.00    -0.246 OA
BRANCH   3   5
ATOM      5  C   UNL     1      -0.097  -3.389  -2.572  1.00  0.00     0.138 A 
ATOM      6  C   UNL     1       1.110  -3.457  -3.277  1.00  0.00     0.144 A 
ATOM      7  C   UNL     1       1.909  -4.605  -3.134  1.00  0.00     0.048 A 
ATOM      8  C   UNL     1       1.537  -5.644  -2.278  1.00  0.00     0.007 A 
ATOM      9  C   UNL     1      -0.468  -4.438  -1.727  1.00  0.00     0.141 A 
ATOM     10  C   UNL     1       0.345  -5.557  -1.567  1.00  0.00     0.040 A 
ATOM     11  F   UNL     1      -1.600  -4.368  -1.013  1.00  0.00    -0.206 F 
BRANCH   6  12
ATOM     12  O   UNL     1       1.738  -2.473  -4.020  1.00  0.00    -0.456 OA
BRANCH  12  13
ATOM     13  C   UNL     1       1.041  -1.375  -4.450  1.00  0.00     0.130 A 
ATOM     14  C   UNL     1       1.230  -0.093  -3.889  1.00  0.00    -0.002 A 
ATOM     15  C   UNL     1       0.560   0.963  -4.558  1.00  0.00     0.008 A 
ATOM     16  C   UNL     1      -0.258   0.762  -5.677  1.00  0.00     0.001 A 
ATOM     17  C   UNL     1       0.234  -1.575  -5.590  1.00  0.00     0.047 A 
ATOM     18  C   UNL     1      -0.426  -0.512  -6.193  1.00  0.00     0.004 A 
BRANCH  14  19
ATOM     19  C   UNL     1       2.168   0.272  -2.708  1.00  0.00     0.019 C 
ATOM     20  C   UNL     1       1.672   1.498  -1.905  1.00  0.00     0.013 C 
BRANCH  19  21
ATOM     21  C   UNL     1       2.686  -0.817  -1.716  1.00  0.00     0.005 C 
ATOM     22  C   UNL     1       2.143  -0.817  -0.286  1.00  0.00     0.004 C 
ENDBRANCH  19  21
ENDBRANCH  14  19
ENDBRANCH  12  13
ENDBRANCH   6  12
ENDBRANCH   3   5
ENDBRANCH   2   3
ENDBRANCH   1   2
BRANCH   1  23
ATOM     23  C   UNL     1      -3.974  -1.342  -2.314  1.00  0.00     0.275 C 
BRANCH  23  24
ATOM     24  O   UNL     1      -3.385  -1.399  -1.006  1.00  0.00    -0.458 OA
BRANCH  24  25
ATOM     25  C   UNL     1      -4.095  -2.089  -0.085  1.00  0.00     0.338 C 
ATOM     26  O   UNL     1      -5.208  -2.563  -0.249  1.00  0.00    -0.246 OA
BRANCH  25  27
ATOM     27  C   UNL     1      -3.360  -2.152   1.202  1.00  0.00     0.060 A 
ATOM     28  C   UNL     1      -1.964  -2.216   1.271  1.00  0.00     0.016 A 
ATOM     29  C   UNL     1      -4.112  -2.222   2.377  1.00  0.00     0.016 A 
ATOM     30  C   UNL     1      -1.325  -2.411   2.501  1.00  0.00     0.010 A 
ATOM     31  C   UNL     1      -3.471  -2.361   3.610  1.00  0.00     0.010 A 
ATOM     32  C   UNL     1      -2.074  -2.495   3.683  1.00  0.00    -0.014 A 
BRANCH  32  33
ATOM     33  C   UNL     1      -1.443  -2.826   4.990  1.00  0.00     0.031 A 
ATOM     34  C   UNL     1      -1.816  -4.115   5.676  1.00  0.00     0.074 A 
ATOM     35  C   UNL     1      -0.571  -1.987   5.581  1.00  0.00     0.049 A 
ATOM     36  N   UNL     1      -1.607  -4.495   6.910  1.00  0.00    -0.248 NA
ATOM     37  C   UNL     1      -2.547  -5.095   4.858  1.00  0.00     0.031 C 
ATOM     38  C   UNL     1      -0.077  -0.734   5.012  1.00  0.00     0.029 A 
ATOM     39  N   UNL     1       0.045  -2.063   6.806  1.00  0.00    -0.354 N 
ATOM     40  C   UNL     1      -2.233  -5.732   7.036  1.00  0.00     0.074 A 
ATOM     41  C   UNL     1      -2.829  -6.033   5.750  1.00  0.00     0.031 C 
ATOM     42  C   UNL     1       0.775  -0.164   5.881  1.00  0.00     0.029 A 
ATOM     43  C   UNL     1       0.834  -0.974   7.095  1.00  0.00     0.049 A 
ATOM     44  H   UNL     1      -0.066  -2.825   7.420  1.00  0.00     0.167 HD
ATOM     45  C   UNL     1      -2.312  -6.536   8.126  1.00  0.00     0.034 A 
ATOM     46  C   UNL     1       1.493  -0.644   8.223  1.00  0.00     0.034 A 
ATOM     47  C   UNL     1      -1.683  -6.240   9.390  1.00  0.00     0.049 A 
ATOM     48  C   UNL     1       1.389  -1.546   9.426  1.00  0.00     0.074 A 
ATOM     49  C   UNL     1      -1.714  -6.970  10.567  1.00  0.00     0.029 A 
ATOM     50  N   UNL     1      -0.890  -5.127   9.637  1.00  0.00    -0.354 N 
ATOM     51  N   UNL     1       0.710  -2.661   9.568  1.00  0.00    -0.248 NA
ATOM     52  C   UNL     1       2.130  -1.135  10.626  1.00  0.00     0.031 C 
ATOM     53  C   UNL     1      -0.969  -6.282  11.533  1.00  0.00     0.029 A 
ATOM     54  C   UNL     1      -0.430  -5.149  10.945  1.00  0.00     0.049 A 
ATOM     55  H   UNL     1      -0.684  -4.425   8.979  1.00  0.00     0.167 HD
ATOM     56  C   UNL     1       0.942  -3.082  10.873  1.00  0.00     0.074 A 
ATOM     57  C   UNL     1       1.844  -2.117  11.468  1.00  0.00     0.031 C 
ATOM     58  C   UNL     1       0.452  -4.166  11.526  1.00  0.00     0.034 A 
BRANCH  45  59
ATOM     59  C   UNL     1      -3.167  -7.772   8.005  1.00  0.00     0.023 A 
ATOM     60  C   UNL     1      -2.820  -8.838   7.156  1.00  0.00     0.031 A 
ATOM     61  C   UNL     1      -4.380  -7.859   8.710  1.00  0.00     0.131 A 
ATOM     62  C   UNL     1      -3.710  -9.908   6.979  1.00  0.00     0.055 A 
ATOM     63  C   UNL     1      -5.228  -8.960   8.585  1.00  0.00     0.041 A 
ATOM     64  F   UNL     1      -4.772  -6.861   9.519  1.00  0.00    -0.206 F 
ATOM     65  C   UNL     1      -4.902  -9.986   7.703  1.00  0.00     0.022 A 
BRANCH  62  66
ATOM     66  S   UNL     1      -3.355 -11.128   5.684  1.00  0.00     0.124 S 
ATOM     67  O   UNL     1      -3.310 -10.289   4.489  1.00  0.00    -0.237 OA
ATOM     68  O   UNL     1      -2.081 -11.688   6.119  1.00  0.00    -0.237 OA
ATOM     69  O   UNL     1      -4.494 -12.042   5.752  1.00  0.00    -0.744 OA
ENDBRANCH  62  66
ENDBRANCH  45  59
BRANCH  46  70
ATOM     70  C   UNL     1       2.257   0.631   8.302  1.00  0.00     0.023 A 
ATOM     71  C   UNL     1       3.657   0.629   8.410  1.00  0.00     0.031 A 
ATOM     72  C   UNL     1       1.593   1.870   8.309  1.00  0.00     0.131 A 
ATOM     73  C   UNL     1       4.346   1.844   8.553  1.00  0.00     0.055 A 
ATOM     74  C   UNL     1       2.286   3.076   8.409  1.00  0.00     0.041 A 
ATOM     75  F   UNL     1       0.255   1.922   8.207  1.00  0.00    -0.206 F 
ATOM     76  C   UNL     1       3.671   3.067   8.541  1.00  0.00     0.022 A 
BRANCH  73  77
ATOM     77  S   UNL     1       6.140   1.800   8.814  1.00  0.00     0.124 S 
ATOM     78  O   UNL     1       6.244   1.032  10.051  1.00  0.00    -0.237 OA
ATOM     79  O   UNL     1       6.607   1.131   7.604  1.00  0.00    -0.237 OA
ATOM     80  O   UNL     1       6.504   3.211   8.923  1.00  0.00    -0.744 OA
ENDBRANCH  73  77
ENDBRANCH  46  70
BRANCH  58  81
ATOM     81  C   UNL     1       0.911  -4.365  12.946  1.00  0.00     0.023 A 
ATOM     82  C   UNL     1       0.465  -3.530  13.985  1.00  0.00     0.031 A 
ATOM     83  C   UNL     1       1.828  -5.384  13.255  1.00  0.00     0.131 A 
ATOM     84  C   UNL     1       0.975  -3.700  15.281  1.00  0.00     0.055 A 
ATOM     85  C   UNL     1       2.300  -5.573  14.554  1.00  0.00     0.041 A 
ATOM     86  F   UNL     1       2.284  -6.205  12.296  1.00  0.00    -0.206 F 
ATOM     87  C   UNL     1       1.882  -4.722  15.574  1.00  0.00     0.022 A 
BRANCH  84  88
ATOM     88  S   UNL     1       0.495  -2.515  16.570  1.00  0.00     0.124 S 
ATOM     89  O   UNL     1       0.923  -1.245  15.992  1.00  0.00    -0.237 OA
ATOM     90  O   UNL     1      -0.947  -2.721  16.661  1.00  0.00    -0.237 OA
ATOM     91  O   UNL     1       1.258  -2.952  17.738  1.00  0.00    -0.744 OA
ENDBRANCH  84  88
ENDBRANCH  58  81
ENDBRANCH  32  33
ENDBRANCH  25  27
ENDBRANCH  24  25
ENDBRANCH  23  24
ENDBRANCH   1  23
TORSDOF 18
