REMARK SMILES O=C(C[C@H]1CC[C@@H](C(=O)OCCOC(=O)c2ccc(-c3c4nc(c(-c5cc(S(=O)(=O)[O-])ccc5F)c5ccc([nH]5)c(-c5cc(S(=O)(=O)[O-])ccc5F)c5nc(c(-c6cc(S(=O)(=O)[O-])ccc6F)c6ccc3[nH]6)C=C5)C=C4)cc2)C1)c1ccc(Cl)cc1
REMARK SMILES IDX 11 1 10 2 8 3 9 4 7 5 4 6 5 7 79 8 6 9 3 10 2 11 1 12 80 13
REMARK SMILES IDX 81 14 86 15 82 16 85 17 83 18 84 19 12 20 13 21 14 22 15 23
REMARK SMILES IDX 16 24 17 25 78 26 18 27 77 28 19 29 20 30 21 31 71 32 22 33
REMARK SMILES IDX 76 34 70 35 72 36 23 37 75 38 69 39 68 40 24 42 56 43 36 44
REMARK SMILES IDX 55 45 37 46 40 47 54 48 73 49 38 50 39 51 53 53 74 54 41 55
REMARK SMILES IDX 25 56 26 57 34 58 27 59 33 60 35 61 32 62 28 63 29 64 30 65
REMARK SMILES IDX 31 66 57 67 58 68 66 69 59 70 65 71 67 72 64 73 60 74 61 75
REMARK SMILES IDX 62 76 63 77 42 78 43 79 51 80 44 81 50 82 52 83 49 84 45 85
REMARK SMILES IDX 46 86 47 87 48 88
REMARK H PARENT 72 41 40 52
REMARK Flexibility Score: inf
ROOT
ATOM      1  C   UNL     1       4.130  -3.832   4.845  1.00  0.00     0.274 C 
ENDROOT
BRANCH   1   2
ATOM      2  O   UNL     1       3.999  -3.092   3.614  1.00  0.00    -0.462 OA
BRANCH   2   3
ATOM      3  C   UNL     1       4.405  -3.581   2.408  1.00  0.00     0.309 C 
ATOM      4  O   UNL     1       4.886  -4.691   2.239  1.00  0.00    -0.252 OA
BRANCH   3   5
ATOM      5  C   UNL     1       4.129  -2.574   1.272  1.00  0.00     0.099 C 
ATOM      6  C   UNL     1       4.587  -0.358   2.104  1.00  0.00    -0.003 C 
ATOM      7  C   UNL     1       5.390  -0.497   0.824  1.00  0.00     0.005 C 
ATOM      8  C   UNL     1       3.430  -1.329   1.800  1.00  0.00     0.019 C 
ATOM      9  C   UNL     1       5.311  -1.989   0.479  1.00  0.00     0.015 C 
BRANCH   6  10
ATOM     10  C   UNL     1       5.400  -0.565   3.422  1.00  0.00     0.084 C 
BRANCH  10  11
ATOM     11  C   UNL     1       6.868  -1.091   3.499  1.00  0.00     0.163 C 
ATOM     12  O   UNL     1       7.810  -0.308   3.634  1.00  0.00    -0.294 OA
BRANCH  11  13
ATOM     13  C   UNL     1       7.224  -2.544   3.564  1.00  0.00     0.018 A 
ATOM     14  C   UNL     1       7.745  -3.193   2.441  1.00  0.00     0.013 A 
ATOM     15  C   UNL     1       7.185  -3.254   4.768  1.00  0.00     0.013 A 
ATOM     16  C   UNL     1       7.930  -4.585   2.434  1.00  0.00     0.021 A 
ATOM     17  C   UNL     1       7.428  -4.641   4.785  1.00  0.00     0.021 A 
ATOM     18  C   UNL     1       7.731  -5.311   3.601  1.00  0.00     0.041 A 
ATOM     19  Cl  UNL     1       7.858  -7.027   3.587  1.00  0.00    -0.084 Cl
ENDBRANCH  11  13
ENDBRANCH  10  11
ENDBRANCH   6  10
ENDBRANCH   3   5
ENDBRANCH   2   3
ENDBRANCH   1   2
BRANCH   1  20
ATOM     20  C   UNL     1       2.782  -4.053   5.523  1.00  0.00     0.275 C 
BRANCH  20  21
ATOM     21  O   UNL     1       2.058  -5.051   4.804  1.00  0.00    -0.458 OA
BRANCH  21  22
ATOM     22  C   UNL     1       1.395  -4.553   3.731  1.00  0.00     0.338 C 
ATOM     23  O   UNL     1       1.131  -3.393   3.501  1.00  0.00    -0.246 OA
BRANCH  22  24
ATOM     24  C   UNL     1       1.298  -5.633   2.742  1.00  0.00     0.060 A 
ATOM     25  C   UNL     1       1.733  -5.341   1.448  1.00  0.00     0.016 A 
ATOM     26  C   UNL     1       0.789  -6.887   3.065  1.00  0.00     0.016 A 
ATOM     27  C   UNL     1       1.669  -6.295   0.453  1.00  0.00     0.010 A 
ATOM     28  C   UNL     1       0.661  -7.834   2.054  1.00  0.00     0.010 A 
ATOM     29  C   UNL     1       1.073  -7.521   0.745  1.00  0.00    -0.014 A 
BRANCH  29  30
ATOM     30  C   UNL     1       0.627  -8.348  -0.386  1.00  0.00     0.031 A 
ATOM     31  C   UNL     1      -0.788  -8.170  -0.847  1.00  0.00     0.074 A 
ATOM     32  C   UNL     1       1.488  -9.164  -1.010  1.00  0.00     0.049 A 
ATOM     33  N   UNL     1      -1.456  -8.833  -1.750  1.00  0.00    -0.248 NA
ATOM     34  C   UNL     1      -1.556  -7.095  -0.193  1.00  0.00     0.031 C 
ATOM     35  C   UNL     1       2.908  -9.303  -0.685  1.00  0.00     0.029 A 
ATOM     36  N   UNL     1       1.288 -10.031  -2.047  1.00  0.00    -0.354 N 
ATOM     37  C   UNL     1      -2.728  -8.270  -1.759  1.00  0.00     0.074 A 
ATOM     38  C   UNL     1      -2.745  -7.231  -0.755  1.00  0.00     0.031 C 
ATOM     39  C   UNL     1       3.448 -10.224  -1.500  1.00  0.00     0.029 A 
ATOM     40  C   UNL     1       2.402 -10.771  -2.360  1.00  0.00     0.049 A 
ATOM     41  H   UNL     1       0.430 -10.117  -2.523  1.00  0.00     0.167 HD
ATOM     42  C   UNL     1      -3.781  -8.602  -2.542  1.00  0.00     0.034 A 
ATOM     43  C   UNL     1       2.532 -11.800  -3.217  1.00  0.00     0.034 A 
ATOM     44  C   UNL     1      -3.721  -9.661  -3.518  1.00  0.00     0.049 A 
ATOM     45  C   UNL     1       1.315 -12.225  -4.003  1.00  0.00     0.074 A 
ATOM     46  C   UNL     1      -4.718 -10.123  -4.355  1.00  0.00     0.029 A 
ATOM     47  N   UNL     1      -2.592 -10.432  -3.778  1.00  0.00    -0.354 N 
ATOM     48  N   UNL     1       0.098 -11.723  -3.983  1.00  0.00    -0.248 NA
ATOM     49  C   UNL     1       1.488 -13.347  -4.930  1.00  0.00     0.031 C 
ATOM     50  C   UNL     1      -4.217 -11.220  -5.063  1.00  0.00     0.029 A 
ATOM     51  C   UNL     1      -2.877 -11.385  -4.741  1.00  0.00     0.049 A 
ATOM     52  H   UNL     1      -1.717 -10.317  -3.340  1.00  0.00     0.167 HD
ATOM     53  C   UNL     1      -0.628 -12.447  -4.925  1.00  0.00     0.074 A 
ATOM     54  C   UNL     1       0.295 -13.406  -5.502  1.00  0.00     0.031 C 
ATOM     55  C   UNL     1      -1.932 -12.332  -5.289  1.00  0.00     0.034 A 
BRANCH  42  56
ATOM     56  C   UNL     1      -5.079  -7.871  -2.302  1.00  0.00     0.023 A 
ATOM     57  C   UNL     1      -5.201  -6.483  -2.492  1.00  0.00     0.031 A 
ATOM     58  C   UNL     1      -6.198  -8.567  -1.812  1.00  0.00     0.131 A 
ATOM     59  C   UNL     1      -6.386  -5.827  -2.125  1.00  0.00     0.055 A 
ATOM     60  C   UNL     1      -7.404  -7.921  -1.531  1.00  0.00     0.041 A 
ATOM     61  F   UNL     1      -6.133  -9.887  -1.575  1.00  0.00    -0.206 F 
ATOM     62  C   UNL     1      -7.498  -6.540  -1.672  1.00  0.00     0.022 A 
BRANCH  59  63
ATOM     63  S   UNL     1      -6.403  -4.012  -2.097  1.00  0.00     0.124 S 
ATOM     64  O   UNL     1      -5.331  -3.722  -1.148  1.00  0.00    -0.237 OA
ATOM     65  O   UNL     1      -6.134  -3.672  -3.489  1.00  0.00    -0.237 OA
ATOM     66  O   UNL     1      -7.748  -3.689  -1.624  1.00  0.00    -0.744 OA
ENDBRANCH  59  63
ENDBRANCH  42  56
BRANCH  43  67
ATOM     67  C   UNL     1       3.829 -12.523  -3.344  1.00  0.00     0.023 A 
ATOM     68  C   UNL     1       4.519 -12.567  -4.564  1.00  0.00     0.031 A 
ATOM     69  C   UNL     1       4.376 -13.225  -2.253  1.00  0.00     0.131 A 
ATOM     70  C   UNL     1       5.687 -13.337  -4.680  1.00  0.00     0.055 A 
ATOM     71  C   UNL     1       5.571 -13.939  -2.357  1.00  0.00     0.041 A 
ATOM     72  F   UNL     1       3.756 -13.222  -1.062  1.00  0.00    -0.206 F 
ATOM     73  C   UNL     1       6.226 -14.010  -3.582  1.00  0.00     0.022 A 
BRANCH  70  74
ATOM     74  S   UNL     1       6.439 -13.528  -6.320  1.00  0.00     0.124 S 
ATOM     75  O   UNL     1       5.333 -14.087  -7.089  1.00  0.00    -0.237 OA
ATOM     76  O   UNL     1       6.815 -12.155  -6.642  1.00  0.00    -0.237 OA
ATOM     77  O   UNL     1       7.556 -14.438  -6.078  1.00  0.00    -0.744 OA
ENDBRANCH  70  74
ENDBRANCH  43  67
BRANCH  55  78
ATOM     78  C   UNL     1      -2.408 -13.232  -6.404  1.00  0.00     0.023 A 
ATOM     79  C   UNL     1      -2.448 -14.629  -6.266  1.00  0.00     0.031 A 
ATOM     80  C   UNL     1      -2.806 -12.676  -7.634  1.00  0.00     0.131 A 
ATOM     81  C   UNL     1      -2.801 -15.428  -7.363  1.00  0.00     0.055 A 
ATOM     82  C   UNL     1      -3.234 -13.472  -8.696  1.00  0.00     0.041 A 
ATOM     83  F   UNL     1      -2.786 -11.347  -7.823  1.00  0.00    -0.206 F 
ATOM     84  C   UNL     1      -3.215 -14.858  -8.570  1.00  0.00     0.022 A 
BRANCH  81  85
ATOM     85  S   UNL     1      -2.587 -17.224  -7.232  1.00  0.00     0.124 S 
ATOM     86  O   UNL     1      -1.173 -17.334  -6.888  1.00  0.00    -0.237 OA
ATOM     87  O   UNL     1      -3.530 -17.574  -6.175  1.00  0.00    -0.237 OA
ATOM     88  O   UNL     1      -2.941 -17.708  -8.565  1.00  0.00    -0.744 OA
ENDBRANCH  81  85
ENDBRANCH  55  78
ENDBRANCH  29  30
ENDBRANCH  22  24
ENDBRANCH  21  22
ENDBRANCH  20  21
ENDBRANCH   1  20
TORSDOF 17
