REMARK SMILES O=C(CN(CC(=O)OCCOC(=O)c1ccc(-c2c3nc(c(-c4cc(S(=O)(=O)[O-])ccc4F)c4ccc([nH]4)c(-c4cc(S(=O)(=O)[O-])ccc4F)c4nc(c(-c5cc(S(=O)(=O)[O-])ccc5F)c5ccc2[nH]5)C=C4)C=C3)cc1)c1ccccc1)NCc1ccccc1
REMARK SMILES IDX 9 1 8 2 6 3 7 4 5 5 4 6 3 7 2 8 1 9 83 10 84 12 85 13 86 14
REMARK SMILES IDX 90 15 87 16 89 17 88 18 77 19 78 20 82 21 79 22 81 23 80 24
REMARK SMILES IDX 10 25 11 26 12 27 13 28 14 29 15 30 76 31 16 32 75 33 17 34
REMARK SMILES IDX 18 35 19 36 69 37 20 38 74 39 68 40 70 41 21 42 73 43 67 44
REMARK SMILES IDX 66 45 22 47 54 48 34 49 53 50 35 51 38 52 52 53 71 54 36 55
REMARK SMILES IDX 37 56 51 58 72 59 39 60 23 61 24 62 32 63 25 64 31 65 33 66
REMARK SMILES IDX 30 67 26 68 27 69 28 70 29 71 55 72 56 73 64 74 57 75 63 76
REMARK SMILES IDX 65 77 62 78 58 79 59 80 60 81 61 82 40 83 41 84 49 85 42 86
REMARK SMILES IDX 48 87 50 88 47 89 43 90 44 91 45 92 46 93
REMARK H PARENT 83 11 70 46 38 57
REMARK Flexibility Score: inf
ROOT
ATOM      1  C   UNL     1       5.808   4.634  -2.525  1.00  0.00     0.274 C 
ENDROOT
BRANCH   1   2
ATOM      2  O   UNL     1       4.971   3.736  -1.770  1.00  0.00    -0.461 OA
BRANCH   2   3
ATOM      3  C   UNL     1       5.440   2.473  -1.602  1.00  0.00     0.325 C 
ATOM      4  O   UNL     1       6.449   2.034  -2.149  1.00  0.00    -0.250 OA
BRANCH   3   5
ATOM      5  C   UNL     1       4.675   1.653  -0.568  1.00  0.00     0.239 C 
BRANCH   5   6
ATOM      6  N   UNL     1       3.220   1.838  -0.527  1.00  0.00    -0.351 N 
BRANCH   6   7
ATOM      7  C   UNL     1       2.335   0.894  -1.232  1.00  0.00     0.217 C 
BRANCH   7   8
ATOM      8  C   UNL     1       1.807  -0.268  -0.367  1.00  0.00     0.239 C 
ATOM      9  O   UNL     1       0.664  -0.704  -0.503  1.00  0.00    -0.273 OA
ATOM     10  N   UNL     1       2.714  -0.817   0.516  1.00  0.00    -0.350 N 
ATOM     11  H   UNL     1       3.669  -0.604   0.408  1.00  0.00     0.163 HD
BRANCH  10  12
ATOM     12  C   UNL     1       2.312  -1.692   1.593  1.00  0.00     0.151 C 
BRANCH  12  13
ATOM     13  C   UNL     1       2.735  -3.123   1.405  1.00  0.00    -0.029 A 
ATOM     14  C   UNL     1       1.775  -4.143   1.484  1.00  0.00     0.005 A 
ATOM     15  C   UNL     1       4.083  -3.475   1.249  1.00  0.00     0.005 A 
ATOM     16  C   UNL     1       2.153  -5.484   1.417  1.00  0.00     0.000 A 
ATOM     17  C   UNL     1       4.460  -4.819   1.177  1.00  0.00     0.000 A 
ATOM     18  C   UNL     1       3.496  -5.822   1.265  1.00  0.00     0.000 A 
ENDBRANCH  12  13
ENDBRANCH  10  12
ENDBRANCH   7   8
ENDBRANCH   6   7
BRANCH   6  19
ATOM     19  C   UNL     1       2.700   2.665   0.460  1.00  0.00     0.038 A 
ATOM     20  C   UNL     1       2.454   4.016   0.198  1.00  0.00     0.026 A 
ATOM     21  C   UNL     1       2.456   2.207   1.762  1.00  0.00     0.026 A 
ATOM     22  C   UNL     1       2.001   4.880   1.204  1.00  0.00     0.002 A 
ATOM     23  C   UNL     1       1.987   3.058   2.767  1.00  0.00     0.002 A 
ATOM     24  C   UNL     1       1.767   4.401   2.489  1.00  0.00     0.000 A 
ENDBRANCH   6  19
ENDBRANCH   5   6
ENDBRANCH   3   5
ENDBRANCH   2   3
ENDBRANCH   1   2
BRANCH   1  25
ATOM     25  C   UNL     1       6.182   5.832  -1.659  1.00  0.00     0.275 C 
BRANCH  25  26
ATOM     26  O   UNL     1       6.831   5.363  -0.461  1.00  0.00    -0.458 OA
BRANCH  26  27
ATOM     27  C   UNL     1       6.112   5.548   0.670  1.00  0.00     0.338 C 
ATOM     28  O   UNL     1       5.048   6.130   0.781  1.00  0.00    -0.246 OA
BRANCH  27  29
ATOM     29  C   UNL     1       6.835   5.001   1.827  1.00  0.00     0.060 A 
ATOM     30  C   UNL     1       7.015   3.624   1.979  1.00  0.00     0.016 A 
ATOM     31  C   UNL     1       7.215   5.885   2.839  1.00  0.00     0.016 A 
ATOM     32  C   UNL     1       7.504   3.124   3.186  1.00  0.00     0.010 A 
ATOM     33  C   UNL     1       7.760   5.386   4.020  1.00  0.00     0.010 A 
ATOM     34  C   UNL     1       7.876   4.002   4.217  1.00  0.00    -0.014 A 
BRANCH  34  35
ATOM     35  C   UNL     1       8.408   3.482   5.499  1.00  0.00     0.031 A 
ATOM     36  C   UNL     1       7.603   3.596   6.763  1.00  0.00     0.074 A 
ATOM     37  C   UNL     1       9.635   2.931   5.517  1.00  0.00     0.049 A 
ATOM     38  N   UNL     1       7.943   3.296   7.990  1.00  0.00    -0.248 NA
ATOM     39  C   UNL     1       6.237   4.123   6.628  1.00  0.00     0.031 C 
ATOM     40  C   UNL     1      10.495   2.761   4.344  1.00  0.00     0.029 A 
ATOM     41  N   UNL     1      10.374   2.421   6.551  1.00  0.00    -0.354 N 
ATOM     42  C   UNL     1       6.843   3.613   8.781  1.00  0.00     0.074 A 
ATOM     43  C   UNL     1       5.831   4.146   7.891  1.00  0.00     0.031 C 
ATOM     44  C   UNL     1      11.641   2.177   4.723  1.00  0.00     0.029 A 
ATOM     45  C   UNL     1      11.620   1.985   6.168  1.00  0.00     0.049 A 
ATOM     46  H   UNL     1      10.045   2.372   7.477  1.00  0.00     0.167 HD
ATOM     47  C   UNL     1       6.697   3.472  10.123  1.00  0.00     0.034 A 
ATOM     48  C   UNL     1      12.644   1.514   6.904  1.00  0.00     0.034 A 
ATOM     49  C   UNL     1       7.727   2.948  10.992  1.00  0.00     0.049 A 
ATOM     50  C   UNL     1      12.473   1.401   8.392  1.00  0.00     0.074 A 
ATOM     51  C   UNL     1       7.690   2.759  12.364  1.00  0.00     0.029 A 
ATOM     52  N   UNL     1       8.986   2.534  10.572  1.00  0.00    -0.354 N 
ATOM     53  N   UNL     1      11.436   1.727   9.129  1.00  0.00    -0.248 NA
ATOM     54  C   UNL     1      13.609   0.860   9.145  1.00  0.00     0.031 C 
ATOM     55  C   UNL     1       8.941   2.282  12.777  1.00  0.00     0.029 A 
ATOM     56  C   UNL     1       9.741   2.115  11.658  1.00  0.00     0.049 A 
ATOM     57  H   UNL     1       9.297   2.538   9.638  1.00  0.00     0.167 HD
ATOM     58  C   UNL     1      11.796   1.428  10.438  1.00  0.00     0.074 A 
ATOM     59  C   UNL     1      13.134   0.871  10.383  1.00  0.00     0.031 C 
ATOM     60  C   UNL     1      11.088   1.599  11.583  1.00  0.00     0.034 A 
BRANCH  47  61
ATOM     61  C   UNL     1       5.400   3.947  10.734  1.00  0.00     0.023 A 
ATOM     62  C   UNL     1       4.173   3.318  10.456  1.00  0.00     0.031 A 
ATOM     63  C   UNL     1       5.387   5.064  11.588  1.00  0.00     0.131 A 
ATOM     64  C   UNL     1       2.981   3.845  10.978  1.00  0.00     0.055 A 
ATOM     65  C   UNL     1       4.205   5.544  12.158  1.00  0.00     0.041 A 
ATOM     66  F   UNL     1       6.524   5.719  11.874  1.00  0.00    -0.206 F 
ATOM     67  C   UNL     1       2.991   4.941  11.844  1.00  0.00     0.022 A 
BRANCH  64  68
ATOM     68  S   UNL     1       1.402   3.154  10.411  1.00  0.00     0.124 S 
ATOM     69  O   UNL     1       1.496   3.345   8.965  1.00  0.00    -0.237 OA
ATOM     70  O   UNL     1       1.475   1.775  10.879  1.00  0.00    -0.237 OA
ATOM     71  O   UNL     1       0.403   3.987  11.077  1.00  0.00    -0.744 OA
ENDBRANCH  64  68
ENDBRANCH  47  61
BRANCH  48  72
ATOM     72  C   UNL     1      13.927   1.159   6.242  1.00  0.00     0.023 A 
ATOM     73  C   UNL     1      14.352  -0.175   6.155  1.00  0.00     0.031 A 
ATOM     74  C   UNL     1      14.739   2.155   5.673  1.00  0.00     0.131 A 
ATOM     75  C   UNL     1      15.569  -0.476   5.526  1.00  0.00     0.055 A 
ATOM     76  C   UNL     1      15.929   1.847   5.014  1.00  0.00     0.041 A 
ATOM     77  F   UNL     1      14.367   3.444   5.722  1.00  0.00    -0.206 F 
ATOM     78  C   UNL     1      16.354   0.524   4.944  1.00  0.00     0.022 A 
BRANCH  75  79
ATOM     79  S   UNL     1      16.134  -2.199   5.509  1.00  0.00     0.124 S 
ATOM     80  O   UNL     1      16.212  -2.502   6.934  1.00  0.00    -0.237 OA
ATOM     81  O   UNL     1      15.065  -2.861   4.769  1.00  0.00    -0.237 OA
ATOM     82  O   UNL     1      17.418  -2.129   4.815  1.00  0.00    -0.744 OA
ENDBRANCH  75  79
ENDBRANCH  48  72
BRANCH  60  83
ATOM     83  C   UNL     1      11.766   1.162  12.854  1.00  0.00     0.023 A 
ATOM     84  C   UNL     1      12.872   1.861  13.369  1.00  0.00     0.031 A 
ATOM     85  C   UNL     1      11.341   0.002  13.524  1.00  0.00     0.131 A 
ATOM     86  C   UNL     1      13.556   1.357  14.485  1.00  0.00     0.055 A 
ATOM     87  C   UNL     1      11.995  -0.466  14.664  1.00  0.00     0.041 A 
ATOM     88  F   UNL     1      10.292  -0.703  13.069  1.00  0.00    -0.206 F 
ATOM     89  C   UNL     1      13.118   0.204  15.142  1.00  0.00     0.022 A 
BRANCH  86  90
ATOM     90  S   UNL     1      15.091   2.173  15.005  1.00  0.00     0.124 S 
ATOM     91  O   UNL     1      15.903   2.094  13.794  1.00  0.00    -0.237 OA
ATOM     92  O   UNL     1      14.626   3.506  15.374  1.00  0.00    -0.237 OA
ATOM     93  O   UNL     1      15.557   1.349  16.118  1.00  0.00    -0.744 OA
ENDBRANCH  86  90
ENDBRANCH  60  83
ENDBRANCH  34  35
ENDBRANCH  27  29
ENDBRANCH  26  27
ENDBRANCH  25  26
ENDBRANCH   1  25
TORSDOF 20
