REMARK SMILES CCCCCCNC(=O)Oc1cccc(-c2ccc([C@@H](C)C(=O)OCCOC(=O)c3ccc(-c4c5nc(c(-c6cc(S(=O)(=O)[O-])ccc6F)c6ccc([nH]6)c(-c6cc(S(=O)(=O)[O-])ccc6F)c6nc(c(-c7cc(S(=O)(=O)[O-])ccc7F)c7ccc4[nH]7)C=C6)C=C5)cc3)cc2F)c1
REMARK SMILES IDX 20 1 21 2 19 3 16 4 17 5 94 6 18 7 93 8 95 9 15 10 11 11
REMARK SMILES IDX 12 12 96 13 13 14 14 15 10 16 8 17 7 18 9 20 6 21 5 22 4 23
REMARK SMILES IDX 3 24 2 25 1 26 22 27 23 28 24 29 25 30 26 31 27 32 28 33
REMARK SMILES IDX 29 34 30 35 31 36 92 37 32 38 91 39 33 40 34 41 35 42 85 43
REMARK SMILES IDX 36 44 90 45 84 46 86 47 37 48 89 49 83 50 82 51 38 53 70 54
REMARK SMILES IDX 50 55 69 56 51 57 54 58 68 59 87 60 52 61 53 62 67 64 88 65
REMARK SMILES IDX 55 66 39 67 40 68 48 69 41 70 47 71 49 72 46 73 42 74 43 75
REMARK SMILES IDX 44 76 45 77 71 78 72 79 80 80 73 81 79 82 81 83 78 84 74 85
REMARK SMILES IDX 75 86 76 87 77 88 56 89 57 90 65 91 58 92 64 93 66 94 63 95
REMARK SMILES IDX 59 96 60 97 61 98 62 99
REMARK H PARENT 7 19 86 52 54 63
REMARK Flexibility Score: inf
ROOT
ATOM      1  C   UNL     1      -4.775  -7.182  11.768  1.00  0.00     0.126 C 
ATOM      2  C   UNL     1      -6.063  -7.768  12.344  1.00  0.00     0.025 C 
ENDROOT
BRANCH   1   3
ATOM      3  C   UNL     1      -4.827  -7.049  10.253  1.00  0.00    -0.031 A 
ATOM      4  C   UNL     1      -4.950  -6.733   7.420  1.00  0.00     0.018 A 
ATOM      5  C   UNL     1      -5.128  -7.989   8.024  1.00  0.00     0.012 A 
ATOM      6  C   UNL     1      -4.697  -5.648   8.267  1.00  0.00     0.131 A 
ATOM      7  C   UNL     1      -5.072  -8.145   9.415  1.00  0.00     0.005 A 
ATOM      8  C   UNL     1      -4.641  -5.794   9.654  1.00  0.00     0.044 A 
ATOM      9  F   UNL     1      -4.539  -4.415   7.760  1.00  0.00    -0.206 F 
BRANCH   4  10
ATOM     10  C   UNL     1      -5.060  -6.572   5.960  1.00  0.00    -0.012 A 
ATOM     11  C   UNL     1      -4.213  -5.762   3.833  1.00  0.00     0.133 A 
ATOM     12  C   UNL     1      -5.339  -6.240   3.168  1.00  0.00     0.047 A 
ATOM     13  C   UNL     1      -4.071  -5.908   5.215  1.00  0.00     0.056 A 
ATOM     14  C   UNL     1      -6.327  -6.900   3.890  1.00  0.00     0.004 A 
ATOM     15  C   UNL     1      -6.187  -7.064   5.272  1.00  0.00     0.009 A 
BRANCH  11  16
ATOM     16  O   UNL     1      -3.300  -5.013   3.075  1.00  0.00    -0.410 OA
BRANCH  16  17
ATOM     17  C   UNL     1      -1.969  -5.404   3.088  1.00  0.00     0.412 C 
ATOM     18  N   UNL     1      -1.159  -4.573   2.361  1.00  0.00    -0.321 N 
ATOM     19  H   UNL     1      -0.200  -4.794   2.349  1.00  0.00     0.167 HD
ATOM     20  O   UNL     1      -1.516  -6.399   3.641  1.00  0.00    -0.224 OA
BRANCH  18  21
ATOM     21  C   UNL     1      -1.565  -3.403   1.605  1.00  0.00     0.119 C 
BRANCH  21  22
ATOM     22  C   UNL     1      -0.912  -2.118   2.110  1.00  0.00     0.021 C 
BRANCH  22  23
ATOM     23  C   UNL     1       0.616  -2.074   1.991  1.00  0.00     0.002 C 
BRANCH  23  24
ATOM     24  C   UNL     1       1.183  -2.287   0.583  1.00  0.00    -0.000 C 
BRANCH  24  25
ATOM     25  C   UNL     1       0.692  -1.305  -0.485  1.00  0.00    -0.003 C 
ATOM     26  C   UNL     1       1.072   0.139  -0.199  1.00  0.00     0.004 C 
ENDBRANCH  24  25
ENDBRANCH  23  24
ENDBRANCH  22  23
ENDBRANCH  21  22
ENDBRANCH  18  21
ENDBRANCH  16  17
ENDBRANCH  11  16
ENDBRANCH   4  10
ENDBRANCH   1   3
BRANCH   1  27
ATOM     27  C   UNL     1      -3.572  -7.924  12.340  1.00  0.00     0.313 C 
ATOM     28  O   UNL     1      -3.152  -7.708  13.473  1.00  0.00    -0.252 OA
BRANCH  27  29
ATOM     29  O   UNL     1      -3.063  -8.873  11.511  1.00  0.00    -0.462 OA
BRANCH  29  30
ATOM     30  C   UNL     1      -1.893  -9.577  11.970  1.00  0.00     0.274 C 
BRANCH  30  31
ATOM     31  C   UNL     1      -0.620  -9.049  11.303  1.00  0.00     0.275 C 
BRANCH  31  32
ATOM     32  O   UNL     1      -0.297  -7.721  11.755  1.00  0.00    -0.458 OA
BRANCH  32  33
ATOM     33  C   UNL     1      -0.785  -6.729  10.973  1.00  0.00     0.338 C 
ATOM     34  O   UNL     1      -1.411  -6.856   9.936  1.00  0.00    -0.246 OA
BRANCH  33  35
ATOM     35  C   UNL     1      -0.573  -5.426  11.619  1.00  0.00     0.060 A 
ATOM     36  C   UNL     1      -1.704  -4.687  11.971  1.00  0.00     0.016 A 
ATOM     37  C   UNL     1       0.704  -4.884  11.771  1.00  0.00     0.016 A 
ATOM     38  C   UNL     1      -1.573  -3.385  12.441  1.00  0.00     0.010 A 
ATOM     39  C   UNL     1       0.837  -3.577  12.255  1.00  0.00     0.010 A 
ATOM     40  C   UNL     1      -0.302  -2.812  12.567  1.00  0.00    -0.014 A 
BRANCH  40  41
ATOM     41  C   UNL     1      -0.190  -1.378  12.934  1.00  0.00     0.031 A 
ATOM     42  C   UNL     1       0.152  -0.369  11.872  1.00  0.00     0.074 A 
ATOM     43  C   UNL     1      -0.448  -0.982  14.194  1.00  0.00     0.049 A 
ATOM     44  N   UNL     1       0.343   0.920  11.982  1.00  0.00    -0.248 NA
ATOM     45  C   UNL     1       0.302  -0.885  10.503  1.00  0.00     0.031 C 
ATOM     46  C   UNL     1      -0.843  -1.867  15.291  1.00  0.00     0.029 A 
ATOM     47  N   UNL     1      -0.424   0.266  14.763  1.00  0.00    -0.354 N 
ATOM     48  C   UNL     1       0.654   1.369  10.703  1.00  0.00     0.074 A 
ATOM     49  C   UNL     1       0.648   0.208   9.838  1.00  0.00     0.031 C 
ATOM     50  C   UNL     1      -1.027  -1.133  16.400  1.00  0.00     0.029 A 
ATOM     51  C   UNL     1      -0.720   0.264  16.107  1.00  0.00     0.049 A 
ATOM     52  H   UNL     1      -0.214   1.084  14.258  1.00  0.00     0.167 HD
ATOM     53  C   UNL     1       0.917   2.634  10.290  1.00  0.00     0.034 A 
ATOM     54  C   UNL     1      -0.716   1.272  17.002  1.00  0.00     0.034 A 
ATOM     55  C   UNL     1       0.913   3.781  11.168  1.00  0.00     0.049 A 
ATOM     56  C   UNL     1      -0.366   2.662  16.529  1.00  0.00     0.074 A 
ATOM     57  C   UNL     1       1.166   5.106  10.860  1.00  0.00     0.029 A 
ATOM     58  N   UNL     1       0.644   3.737  12.531  1.00  0.00    -0.354 N 
ATOM     59  N   UNL     1      -0.051   3.069  15.321  1.00  0.00    -0.248 NA
ATOM     60  C   UNL     1      -0.376   3.726  17.541  1.00  0.00     0.031 C 
ATOM     61  C   UNL     1       1.107   5.853  12.044  1.00  0.00     0.029 A 
ATOM     62  C   UNL     1       0.750   5.006  13.081  1.00  0.00     0.049 A 
ATOM     63  H   UNL     1       0.412   2.923  13.034  1.00  0.00     0.167 HD
ATOM     64  C   UNL     1       0.154   4.442  15.425  1.00  0.00     0.074 A 
ATOM     65  C   UNL     1      -0.094   4.794  16.809  1.00  0.00     0.031 C 
ATOM     66  C   UNL     1       0.513   5.334  14.467  1.00  0.00     0.034 A 
BRANCH  53  67
ATOM     67  C   UNL     1       1.298   2.825   8.842  1.00  0.00     0.023 A 
ATOM     68  C   UNL     1       0.393   2.591   7.791  1.00  0.00     0.031 A 
ATOM     69  C   UNL     1       2.607   3.217   8.508  1.00  0.00     0.131 A 
ATOM     70  C   UNL     1       0.825   2.692   6.458  1.00  0.00     0.055 A 
ATOM     71  C   UNL     1       3.011   3.386   7.182  1.00  0.00     0.041 A 
ATOM     72  F   UNL     1       3.522   3.431   9.467  1.00  0.00    -0.206 F 
ATOM     73  C   UNL     1       2.122   3.111   6.148  1.00  0.00     0.022 A 
BRANCH  70  74
ATOM     74  S   UNL     1      -0.291   2.157   5.131  1.00  0.00     0.124 S 
ATOM     75  O   UNL     1      -0.481   0.745   5.452  1.00  0.00    -0.237 OA
ATOM     76  O   UNL     1      -1.451   3.019   5.324  1.00  0.00    -0.237 OA
ATOM     77  O   UNL     1       0.476   2.410   3.912  1.00  0.00    -0.744 OA
ENDBRANCH  70  74
ENDBRANCH  53  67
BRANCH  54  78
ATOM     78  C   UNL     1      -1.000   1.009  18.441  1.00  0.00     0.023 A 
ATOM     79  C   UNL     1      -2.113   1.576  19.081  1.00  0.00     0.031 A 
ATOM     80  C   UNL     1      -0.121   0.229  19.215  1.00  0.00     0.131 A 
ATOM     81  C   UNL     1      -2.293   1.394  20.462  1.00  0.00     0.055 A 
ATOM     82  C   UNL     1      -0.333   0.008  20.576  1.00  0.00     0.041 A 
ATOM     83  F   UNL     1       0.960  -0.336  18.653  1.00  0.00    -0.206 F 
ATOM     84  C   UNL     1      -1.417   0.605  21.211  1.00  0.00     0.022 A 
BRANCH  81  85
ATOM     85  S   UNL     1      -3.642   2.284  21.287  1.00  0.00     0.124 S 
ATOM     86  O   UNL     1      -3.344   3.668  20.940  1.00  0.00    -0.237 OA
ATOM     87  O   UNL     1      -4.820   1.702  20.652  1.00  0.00    -0.237 OA
ATOM     88  O   UNL     1      -3.463   1.941  22.697  1.00  0.00    -0.744 OA
ENDBRANCH  81  85
ENDBRANCH  54  78
BRANCH  66  89
ATOM     89  C   UNL     1       0.616   6.778  14.890  1.00  0.00     0.023 A 
ATOM     90  C   UNL     1       1.623   7.221  15.766  1.00  0.00     0.031 A 
ATOM     91  C   UNL     1      -0.325   7.717  14.433  1.00  0.00     0.131 A 
ATOM     92  C   UNL     1       1.631   8.554  16.203  1.00  0.00     0.055 A 
ATOM     93  C   UNL     1      -0.280   9.054  14.828  1.00  0.00     0.041 A 
ATOM     94  F   UNL     1      -1.308   7.347  13.596  1.00  0.00    -0.206 F 
ATOM     95  C   UNL     1       0.694   9.476  15.729  1.00  0.00     0.022 A 
BRANCH  92  96
ATOM     96  S   UNL     1       2.829   9.048  17.473  1.00  0.00     0.124 S 
ATOM     97  O   UNL     1       2.508   8.135  18.566  1.00  0.00    -0.237 OA
ATOM     98  O   UNL     1       4.106   8.818  16.804  1.00  0.00    -0.237 OA
ATOM     99  O   UNL     1       2.506  10.451  17.723  1.00  0.00    -0.744 OA
ENDBRANCH  92  96
ENDBRANCH  66  89
ENDBRANCH  40  41
ENDBRANCH  33  35
ENDBRANCH  32  33
ENDBRANCH  31  32
ENDBRANCH  30  31
ENDBRANCH  29  30
ENDBRANCH  27  29
ENDBRANCH   1  27
TORSDOF 23
