REMARK SMILES CC(C)c1nc(C(=O)OCCOC(=O)c2ccc(-c3c4nc(c(-c5cc(S(=O)(=O)[O-])ccc5F)c5ccc([nH]5)c(-c5cc(S(=O)(=O)[O-])ccc5F)c5nc(c(-c6cc(S(=O)(=O)[O-])ccc6F)c6ccc3[nH]6)C=C5)C=C4)cc2)nn1-c1ccccc1F
REMARK SMILES IDX 11 1 10 2 9 3 7 4 8 5 6 6 4 7 5 8 79 9 78 10 2 11 1 12 3 13
REMARK SMILES IDX 80 14 81 15 85 16 82 17 84 18 86 19 83 20 12 21 13 22 14 23
REMARK SMILES IDX 15 24 16 25 77 26 17 27 76 28 18 29 19 30 20 31 70 32 21 33
REMARK SMILES IDX 75 34 69 35 71 36 22 37 74 38 68 39 67 40 23 42 55 43 35 44
REMARK SMILES IDX 54 45 36 46 39 47 53 48 72 49 37 50 38 51 52 53 73 54 40 55
REMARK SMILES IDX 24 56 25 57 33 58 26 59 32 60 34 61 31 62 27 63 28 64 29 65
REMARK SMILES IDX 30 66 56 67 57 68 65 69 58 70 64 71 66 72 63 73 59 74 60 75
REMARK SMILES IDX 61 76 62 77 41 78 42 79 50 80 43 81 49 82 51 83 48 84 44 85
REMARK SMILES IDX 45 86 46 87 47 88
REMARK H PARENT 71 41 39 52
REMARK Flexibility Score: inf
ROOT
ATOM      1  C   UNL     1      -7.501  -1.492   0.489  1.00  0.00     0.275 C 
ENDROOT
BRANCH   1   2
ATOM      2  C   UNL     1      -7.161  -0.946   1.868  1.00  0.00     0.275 C 
BRANCH   2   3
ATOM      3  O   UNL     1      -5.854  -0.359   1.887  1.00  0.00    -0.456 OA
BRANCH   3   4
ATOM      4  C   UNL     1      -4.793  -1.193   2.142  1.00  0.00     0.378 C 
ATOM      5  O   UNL     1      -4.913  -2.352   2.540  1.00  0.00    -0.242 OA
BRANCH   4   6
ATOM      6  C   UNL     1      -3.503  -0.535   1.869  1.00  0.00     0.260 A 
ATOM      7  C   UNL     1      -1.427  -0.232   1.433  1.00  0.00     0.136 A 
ATOM      8  N   UNL     1      -2.307  -1.194   1.672  1.00  0.00    -0.205 NA
ATOM      9  N   UNL     1      -2.101   0.983   1.448  1.00  0.00    -0.214 N 
ATOM     10  N   UNL     1      -3.373   0.800   1.863  1.00  0.00    -0.138 NA
BRANCH   7  11
ATOM     11  C   UNL     1       0.063  -0.473   1.445  1.00  0.00     0.051 C 
ATOM     12  C   UNL     1       0.742  -0.387   0.085  1.00  0.00     0.016 C 
ATOM     13  C   UNL     1       0.796   0.357   2.498  1.00  0.00     0.016 C 
ENDBRANCH   7  11
BRANCH   9  14
ATOM     14  C   UNL     1      -1.630   2.302   1.358  1.00  0.00     0.102 A 
ATOM     15  C   UNL     1      -1.967   3.201   2.381  1.00  0.00     0.031 A 
ATOM     16  C   UNL     1      -0.905   2.740   0.260  1.00  0.00     0.148 A 
ATOM     17  C   UNL     1      -1.498   4.511   2.336  1.00  0.00     0.002 A 
ATOM     18  C   UNL     1      -0.445   4.053   0.207  1.00  0.00     0.041 A 
ATOM     19  F   UNL     1      -0.718   1.953  -0.806  1.00  0.00    -0.205 F 
ATOM     20  C   UNL     1      -0.727   4.935   1.253  1.00  0.00     0.003 A 
ENDBRANCH   9  14
ENDBRANCH   4   6
ENDBRANCH   3   4
ENDBRANCH   2   3
ENDBRANCH   1   2
BRANCH   1  21
ATOM     21  O   UNL     1      -6.846  -2.737   0.258  1.00  0.00    -0.458 OA
BRANCH  21  22
ATOM     22  C   UNL     1      -5.688  -2.661  -0.440  1.00  0.00     0.338 C 
ATOM     23  O   UNL     1      -4.993  -1.673  -0.593  1.00  0.00    -0.246 OA
BRANCH  22  24
ATOM     24  C   UNL     1      -5.505  -3.918  -1.177  1.00  0.00     0.060 A 
ATOM     25  C   UNL     1      -4.349  -4.058  -1.948  1.00  0.00     0.016 A 
ATOM     26  C   UNL     1      -6.579  -4.816  -1.292  1.00  0.00     0.016 A 
ATOM     27  C   UNL     1      -4.337  -5.010  -2.948  1.00  0.00     0.010 A 
ATOM     28  C   UNL     1      -6.570  -5.754  -2.297  1.00  0.00     0.010 A 
ATOM     29  C   UNL     1      -5.479  -5.796  -3.158  1.00  0.00    -0.014 A 
BRANCH  29  30
ATOM     30  C   UNL     1      -5.455  -6.781  -4.220  1.00  0.00     0.031 A 
ATOM     31  C   UNL     1      -4.518  -7.893  -3.940  1.00  0.00     0.074 A 
ATOM     32  C   UNL     1      -6.279  -6.753  -5.285  1.00  0.00     0.049 A 
ATOM     33  N   UNL     1      -3.397  -8.136  -4.529  1.00  0.00    -0.248 NA
ATOM     34  C   UNL     1      -4.753  -8.710  -2.739  1.00  0.00     0.031 C 
ATOM     35  C   UNL     1      -7.416  -5.867  -5.542  1.00  0.00     0.029 A 
ATOM     36  N   UNL     1      -6.313  -7.600  -6.348  1.00  0.00    -0.354 N 
ATOM     37  C   UNL     1      -2.894  -9.282  -3.926  1.00  0.00     0.074 A 
ATOM     38  C   UNL     1      -3.651  -9.461  -2.717  1.00  0.00     0.031 C 
ATOM     39  C   UNL     1      -8.153  -6.368  -6.564  1.00  0.00     0.029 A 
ATOM     40  C   UNL     1      -7.467  -7.524  -7.121  1.00  0.00     0.049 A 
ATOM     41  H   UNL     1      -5.577  -8.220  -6.555  1.00  0.00     0.167 HD
ATOM     42  C   UNL     1      -2.061 -10.116  -4.605  1.00  0.00     0.034 A 
ATOM     43  C   UNL     1      -7.845  -8.384  -8.108  1.00  0.00     0.034 A 
ATOM     44  C   UNL     1      -1.486  -9.448  -5.752  1.00  0.00     0.049 A 
ATOM     45  C   UNL     1      -6.602  -9.055  -8.575  1.00  0.00     0.074 A 
ATOM     46  C   UNL     1      -0.702  -8.321  -5.914  1.00  0.00     0.029 A 
ATOM     47  N   UNL     1      -2.038  -9.694  -6.990  1.00  0.00    -0.354 N 
ATOM     48  N   UNL     1      -5.628  -8.418  -9.168  1.00  0.00    -0.248 NA
ATOM     49  C   UNL     1      -6.220 -10.304  -7.930  1.00  0.00     0.031 C 
ATOM     50  C   UNL     1      -1.231  -7.671  -7.068  1.00  0.00     0.029 A 
ATOM     51  C   UNL     1      -2.239  -8.479  -7.599  1.00  0.00     0.049 A 
ATOM     52  H   UNL     1      -2.249 -10.578  -7.369  1.00  0.00     0.167 HD
ATOM     53  C   UNL     1      -4.467  -8.937  -8.613  1.00  0.00     0.074 A 
ATOM     54  C   UNL     1      -4.892 -10.151  -7.916  1.00  0.00     0.031 C 
ATOM     55  C   UNL     1      -3.322  -8.196  -8.524  1.00  0.00     0.034 A 
BRANCH  42  56
ATOM     56  C   UNL     1      -2.065 -11.620  -4.465  1.00  0.00     0.023 A 
ATOM     57  C   UNL     1      -1.161 -12.338  -5.271  1.00  0.00     0.031 A 
ATOM     58  C   UNL     1      -3.073 -12.389  -3.838  1.00  0.00     0.131 A 
ATOM     59  C   UNL     1      -1.346 -13.709  -5.517  1.00  0.00     0.055 A 
ATOM     60  C   UNL     1      -3.211 -13.765  -4.033  1.00  0.00     0.041 A 
ATOM     61  F   UNL     1      -4.037 -11.851  -3.084  1.00  0.00    -0.206 F 
ATOM     62  C   UNL     1      -2.367 -14.428  -4.904  1.00  0.00     0.022 A 
BRANCH  59  63
ATOM     63  S   UNL     1      -0.340 -14.490  -6.803  1.00  0.00     0.124 S 
ATOM     64  O   UNL     1      -0.586 -13.612  -7.942  1.00  0.00    -0.237 OA
ATOM     65  O   UNL     1       0.995 -14.429  -6.218  1.00  0.00    -0.237 OA
ATOM     66  O   UNL     1      -0.913 -15.830  -6.912  1.00  0.00    -0.744 OA
ENDBRANCH  59  63
ENDBRANCH  42  56
BRANCH  43  67
ATOM     67  C   UNL     1      -9.218  -8.924  -8.354  1.00  0.00     0.023 A 
ATOM     68  C   UNL     1      -9.610  -9.541  -9.565  1.00  0.00     0.031 A 
ATOM     69  C   UNL     1     -10.113  -9.054  -7.266  1.00  0.00     0.131 A 
ATOM     70  C   UNL     1     -10.843 -10.239  -9.648  1.00  0.00     0.055 A 
ATOM     71  C   UNL     1     -11.323  -9.746  -7.353  1.00  0.00     0.041 A 
ATOM     72  F   UNL     1      -9.802  -8.581  -6.050  1.00  0.00    -0.206 F 
ATOM     73  C   UNL     1     -11.690 -10.350  -8.543  1.00  0.00     0.022 A 
BRANCH  70  74
ATOM     74  S   UNL     1     -11.341 -11.087 -11.187  1.00  0.00     0.124 S 
ATOM     75  O   UNL     1     -11.546  -9.972 -12.104  1.00  0.00    -0.237 OA
ATOM     76  O   UNL     1     -10.196 -11.949 -11.457  1.00  0.00    -0.237 OA
ATOM     77  O   UNL     1     -12.563 -11.798 -10.807  1.00  0.00    -0.744 OA
ENDBRANCH  70  74
ENDBRANCH  43  67
BRANCH  55  78
ATOM     78  C   UNL     1      -3.228  -6.892  -9.292  1.00  0.00     0.023 A 
ATOM     79  C   UNL     1      -4.062  -5.765  -9.103  1.00  0.00     0.031 A 
ATOM     80  C   UNL     1      -2.121  -6.750 -10.149  1.00  0.00     0.131 A 
ATOM     81  C   UNL     1      -3.762  -4.553  -9.763  1.00  0.00     0.055 A 
ATOM     82  C   UNL     1      -1.815  -5.545 -10.777  1.00  0.00     0.041 A 
ATOM     83  F   UNL     1      -1.281  -7.779 -10.350  1.00  0.00    -0.206 F 
ATOM     84  C   UNL     1      -2.636  -4.441 -10.586  1.00  0.00     0.022 A 
BRANCH  81  85
ATOM     85  S   UNL     1      -4.830  -3.086  -9.566  1.00  0.00     0.124 S 
ATOM     86  O   UNL     1      -6.164  -3.597  -9.855  1.00  0.00    -0.237 OA
ATOM     87  O   UNL     1      -4.579  -2.691  -8.183  1.00  0.00    -0.237 OA
ATOM     88  O   UNL     1      -4.310  -2.149 -10.565  1.00  0.00    -0.744 OA
ENDBRANCH  81  85
ENDBRANCH  55  78
ENDBRANCH  29  30
ENDBRANCH  22  24
ENDBRANCH  21  22
ENDBRANCH   1  21
TORSDOF 16
