REMARK SMILES CS(=O)(=O)c1ccc(C2=NN(c3ccc(C(=O)OCCOC(=O)c4ccc(-c5c6nc(c(-c7cc(S(=O)(=O)[O-])ccc7F)c7ccc([nH]7)c(-c7cc(S(=O)(=O)[O-])ccc7F)c7nc(c(-c8cc(S(=O)(=O)[O-])ccc8F)c8ccc5[nH]8)C=C7)C=C6)cc4)cc3)[C@H](c3ccccc3)C2)cc1
REMARK SMILES IDX 19 1 18 2 16 3 17 4 15 5 12 6 13 7 88 8 14 9 87 10 11 11
REMARK SMILES IDX 9 12 10 13 96 14 89 15 8 16 5 17 6 18 98 19 7 20 97 21 2 22
REMARK SMILES IDX 1 23 3 24 4 25 90 26 91 27 95 28 92 29 94 30 93 31 20 32
REMARK SMILES IDX 21 33 22 34 23 35 24 36 25 37 86 38 26 39 85 40 27 41 28 42
REMARK SMILES IDX 29 43 79 44 30 45 84 46 78 47 80 48 31 49 83 50 77 51 76 52
REMARK SMILES IDX 32 54 64 55 44 56 63 57 45 58 48 59 62 60 81 61 46 62 47 63
REMARK SMILES IDX 61 65 82 66 49 67 33 68 34 69 42 70 35 71 41 72 43 73 40 74
REMARK SMILES IDX 36 75 37 76 38 77 39 78 65 79 66 80 74 81 67 82 73 83 75 84
REMARK SMILES IDX 72 85 68 86 69 87 70 88 71 89 50 90 51 91 59 92 52 93 58 94
REMARK SMILES IDX 60 95 57 96 53 97 54 98 55 99 56 100
REMARK H PARENT 80 53 48 64
REMARK Flexibility Score: inf
ROOT
ATOM      1  C   UNL     1       1.543  -5.194 -15.457  1.00  0.00     0.275 C 
ENDROOT
BRANCH   1   2
ATOM      2  O   UNL     1       1.888  -4.961 -14.078  1.00  0.00    -0.458 OA
BRANCH   2   3
ATOM      3  C   UNL     1       1.854  -3.665 -13.678  1.00  0.00     0.338 C 
ATOM      4  O   UNL     1       1.602  -2.700 -14.382  1.00  0.00    -0.246 OA
BRANCH   3   5
ATOM      5  C   UNL     1       2.110  -3.546 -12.222  1.00  0.00     0.060 A 
ATOM      6  C   UNL     1       2.694  -3.122  -9.508  1.00  0.00     0.060 A 
ATOM      7  C   UNL     1       1.866  -2.232 -10.196  1.00  0.00     0.029 A 
ATOM      8  C   UNL     1       3.166  -4.263 -10.173  1.00  0.00     0.029 A 
ATOM      9  C   UNL     1       1.608  -2.421 -11.552  1.00  0.00     0.018 A 
ATOM     10  C   UNL     1       2.872  -4.484 -11.522  1.00  0.00     0.018 A 
BRANCH   6  11
ATOM     11  N   UNL     1       3.194  -2.801  -8.242  1.00  0.00    -0.257 N 
ATOM     12  C   UNL     1       2.778  -1.947  -6.330  1.00  0.00     0.071 C 
ATOM     13  N   UNL     1       2.362  -2.844  -7.170  1.00  0.00    -0.176 NA
ATOM     14  C   UNL     1       3.932  -1.101  -6.794  1.00  0.00     0.091 C 
ATOM     15  C   UNL     1       4.197  -1.728  -8.167  1.00  0.00     0.144 C 
BRANCH  12  16
ATOM     16  C   UNL     1       2.186  -1.779  -4.989  1.00  0.00    -0.002 A 
ATOM     17  C   UNL     1       1.113  -1.568  -2.421  1.00  0.00     0.067 A 
ATOM     18  C   UNL     1       1.234  -2.824  -3.024  1.00  0.00     0.021 A 
ATOM     19  C   UNL     1       1.509  -0.413  -3.104  1.00  0.00     0.021 A 
ATOM     20  C   UNL     1       1.757  -2.926  -4.312  1.00  0.00     0.011 A 
ATOM     21  C   UNL     1       2.058  -0.522  -4.389  1.00  0.00     0.011 A 
BRANCH  17  22
ATOM     22  S   UNL     1       0.491  -1.514  -0.755  1.00  0.00     0.175 S 
ATOM     23  C   UNL     1       1.097  -0.020  -0.027  1.00  0.00     0.163 C 
ATOM     24  O   UNL     1       1.132  -2.604  -0.040  1.00  0.00    -0.224 OA
ATOM     25  O   UNL     1      -0.950  -1.412  -0.840  1.00  0.00    -0.224 OA
ENDBRANCH  17  22
ENDBRANCH  12  16
BRANCH  15  26
ATOM     26  C   UNL     1       5.569  -2.322  -8.451  1.00  0.00    -0.023 A 
ATOM     27  C   UNL     1       6.373  -2.908  -7.464  1.00  0.00     0.006 A 
ATOM     28  C   UNL     1       5.987  -2.426  -9.794  1.00  0.00     0.006 A 
ATOM     29  C   UNL     1       7.552  -3.576  -7.811  1.00  0.00     0.000 A 
ATOM     30  C   UNL     1       7.147  -3.118 -10.141  1.00  0.00     0.000 A 
ATOM     31  C   UNL     1       7.931  -3.692  -9.147  1.00  0.00     0.000 A 
ENDBRANCH  15  26
ENDBRANCH   6  11
ENDBRANCH   3   5
ENDBRANCH   2   3
ENDBRANCH   1   2
BRANCH   1  32
ATOM     32  C   UNL     1       0.118  -5.729 -15.577  1.00  0.00     0.275 C 
BRANCH  32  33
ATOM     33  O   UNL     1      -0.820  -4.733 -15.133  1.00  0.00    -0.458 OA
BRANCH  33  34
ATOM     34  C   UNL     1      -1.560  -5.066 -14.049  1.00  0.00     0.338 C 
ATOM     35  O   UNL     1      -1.579  -6.135 -13.466  1.00  0.00    -0.246 OA
BRANCH  34  36
ATOM     36  C   UNL     1      -2.351  -3.900 -13.622  1.00  0.00     0.060 A 
ATOM     37  C   UNL     1      -1.690  -2.823 -13.041  1.00  0.00     0.016 A 
ATOM     38  C   UNL     1      -3.742  -3.921 -13.672  1.00  0.00     0.016 A 
ATOM     39  C   UNL     1      -2.409  -1.798 -12.434  1.00  0.00     0.010 A 
ATOM     40  C   UNL     1      -4.465  -2.841 -13.145  1.00  0.00     0.010 A 
ATOM     41  C   UNL     1      -3.810  -1.782 -12.488  1.00  0.00    -0.014 A 
BRANCH  41  42
ATOM     42  C   UNL     1      -4.569  -0.684 -11.817  1.00  0.00     0.031 A 
ATOM     43  C   UNL     1      -5.574  -1.001 -10.737  1.00  0.00     0.074 A 
ATOM     44  C   UNL     1      -4.348   0.603 -12.156  1.00  0.00     0.049 A 
ATOM     45  N   UNL     1      -6.427  -0.210 -10.136  1.00  0.00    -0.248 NA
ATOM     46  C   UNL     1      -5.641  -2.400 -10.293  1.00  0.00     0.031 C 
ATOM     47  C   UNL     1      -3.389   1.058 -13.164  1.00  0.00     0.029 A 
ATOM     48  N   UNL     1      -4.909   1.767 -11.687  1.00  0.00    -0.354 N 
ATOM     49  C   UNL     1      -7.176  -1.025  -9.291  1.00  0.00     0.074 A 
ATOM     50  C   UNL     1      -6.680  -2.374  -9.473  1.00  0.00     0.031 C 
ATOM     51  C   UNL     1      -3.400   2.398 -13.212  1.00  0.00     0.029 A 
ATOM     52  C   UNL     1      -4.431   2.898 -12.310  1.00  0.00     0.049 A 
ATOM     53  H   UNL     1      -5.587   1.790 -10.974  1.00  0.00     0.167 HD
ATOM     54  C   UNL     1      -8.181  -0.679  -8.445  1.00  0.00     0.034 A 
ATOM     55  C   UNL     1      -4.807   4.189 -12.211  1.00  0.00     0.034 A 
ATOM     56  C   UNL     1      -8.625   0.681  -8.239  1.00  0.00     0.049 A 
ATOM     57  C   UNL     1      -5.929   4.551 -11.277  1.00  0.00     0.074 A 
ATOM     58  C   UNL     1      -9.592   1.149  -7.365  1.00  0.00     0.029 A 
ATOM     59  N   UNL     1      -8.136   1.794  -8.913  1.00  0.00    -0.354 N 
ATOM     60  N   UNL     1      -6.646   3.767 -10.505  1.00  0.00    -0.248 NA
ATOM     61  C   UNL     1      -6.298   5.969 -11.209  1.00  0.00     0.031 C 
ATOM     62  C   UNL     1      -9.738   2.528  -7.562  1.00  0.00     0.029 A 
ATOM     63  C   UNL     1      -8.806   2.939  -8.503  1.00  0.00     0.049 A 
ATOM     64  H   UNL     1      -7.417   1.774  -9.585  1.00  0.00     0.167 HD
ATOM     65  C   UNL     1      -7.556   4.599  -9.861  1.00  0.00     0.074 A 
ATOM     66  C   UNL     1      -7.269   5.949 -10.308  1.00  0.00     0.031 C 
ATOM     67  C   UNL     1      -8.542   4.276  -8.985  1.00  0.00     0.034 A 
BRANCH  54  68
ATOM     68  C   UNL     1      -8.914  -1.800  -7.738  1.00  0.00     0.023 A 
ATOM     69  C   UNL     1      -8.278  -2.670  -6.835  1.00  0.00     0.031 A 
ATOM     70  C   UNL     1     -10.275  -2.029  -8.017  1.00  0.00     0.131 A 
ATOM     71  C   UNL     1      -8.974  -3.775  -6.317  1.00  0.00     0.055 A 
ATOM     72  C   UNL     1     -10.985  -3.078  -7.429  1.00  0.00     0.041 A 
ATOM     73  F   UNL     1     -10.936  -1.246  -8.885  1.00  0.00    -0.206 F 
ATOM     74  C   UNL     1     -10.330  -3.970  -6.589  1.00  0.00     0.022 A 
BRANCH  71  75
ATOM     75  S   UNL     1      -8.040  -5.050  -5.425  1.00  0.00     0.124 S 
ATOM     76  O   UNL     1      -7.014  -5.403  -6.403  1.00  0.00    -0.237 OA
ATOM     77  O   UNL     1      -7.580  -4.330  -4.243  1.00  0.00    -0.237 OA
ATOM     78  O   UNL     1      -9.035  -6.091  -5.175  1.00  0.00    -0.744 OA
ENDBRANCH  71  75
ENDBRANCH  54  68
BRANCH  55  79
ATOM     79  C   UNL     1      -4.166   5.217 -13.081  1.00  0.00     0.023 A 
ATOM     80  C   UNL     1      -3.377   6.245 -12.543  1.00  0.00     0.031 A 
ATOM     81  C   UNL     1      -4.338   5.176 -14.477  1.00  0.00     0.131 A 
ATOM     82  C   UNL     1      -2.802   7.201 -13.397  1.00  0.00     0.055 A 
ATOM     83  C   UNL     1      -3.723   6.097 -15.325  1.00  0.00     0.041 A 
ATOM     84  F   UNL     1      -5.083   4.212 -15.041  1.00  0.00    -0.206 F 
ATOM     85  C   UNL     1      -2.955   7.123 -14.784  1.00  0.00     0.022 A 
BRANCH  82  86
ATOM     86  S   UNL     1      -1.880   8.582 -12.666  1.00  0.00     0.124 S 
ATOM     87  O   UNL     1      -2.907   9.235 -11.863  1.00  0.00    -0.237 OA
ATOM     88  O   UNL     1      -0.831   7.890 -11.925  1.00  0.00    -0.237 OA
ATOM     89  O   UNL     1      -1.421   9.339 -13.829  1.00  0.00    -0.744 OA
ENDBRANCH  82  86
ENDBRANCH  55  79
BRANCH  67  90
ATOM     90  C   UNL     1      -9.371   5.420  -8.449  1.00  0.00     0.023 A 
ATOM     91  C   UNL     1     -10.214   6.172  -9.287  1.00  0.00     0.031 A 
ATOM     92  C   UNL     1      -9.284   5.790  -7.096  1.00  0.00     0.131 A 
ATOM     93  C   UNL     1     -10.882   7.297  -8.779  1.00  0.00     0.055 A 
ATOM     94  C   UNL     1     -10.003   6.871  -6.582  1.00  0.00     0.041 A 
ATOM     95  F   UNL     1      -8.490   5.113  -6.251  1.00  0.00    -0.206 F 
ATOM     96  C   UNL     1     -10.795   7.641  -7.428  1.00  0.00     0.022 A 
BRANCH  93  97
ATOM     97  S   UNL     1     -11.772   8.377  -9.934  1.00  0.00     0.124 S 
ATOM     98  O   UNL     1     -10.719   8.746 -10.876  1.00  0.00    -0.237 OA
ATOM     99  O   UNL     1     -12.810   7.493 -10.452  1.00  0.00    -0.237 OA
ATOM    100  O   UNL     1     -12.252   9.466  -9.085  1.00  0.00    -0.744 OA
ENDBRANCH  93  97
ENDBRANCH  67  90
ENDBRANCH  41  42
ENDBRANCH  34  36
ENDBRANCH  33  34
ENDBRANCH  32  33
ENDBRANCH   1  32
TORSDOF 18
