REMARK SMILES COc1ccc(C(=O)Nc2cc(C(=O)OCCOC(=O)c3ccc(-c4c5nc(c(-c6cc(S(=O)(=O)[O-])ccc6F)c6ccc([nH]6)c(-c6cc(S(=O)(=O)[O-])ccc6F)c6nc(c(-c7cc(S(=O)(=O)[O-])ccc7F)c7ccc4[nH]7)C=C6)C=C5)cc3)c(Cl)cc2Cl)cc1Cl
REMARK SMILES IDX 16 1 15 2 13 3 14 4 12 5 10 6 11 7 87 8 86 9 88 10 84 11
REMARK SMILES IDX 85 12 9 13 7 14 8 15 6 17 3 18 4 19 90 20 5 21 89 22 91 23
REMARK SMILES IDX 2 24 1 25 17 26 18 27 19 28 20 29 21 30 22 31 83 32 23 33
REMARK SMILES IDX 82 34 24 35 25 36 26 37 76 38 27 39 81 40 75 41 77 42 28 43
REMARK SMILES IDX 80 44 74 45 73 46 29 48 61 49 41 50 60 51 42 52 45 53 59 54
REMARK SMILES IDX 78 55 43 56 44 57 58 59 79 60 46 61 30 62 31 63 39 64 32 65
REMARK SMILES IDX 38 66 40 67 37 68 33 69 34 70 35 71 36 72 62 73 63 74 71 75
REMARK SMILES IDX 64 76 70 77 72 78 69 79 65 80 66 81 67 82 68 83 47 84 48 85
REMARK SMILES IDX 56 86 49 87 55 88 57 89 54 90 50 91 51 92 52 93 53 94
REMARK H PARENT 9 16 77 47 45 58
REMARK Flexibility Score: inf
ROOT
ATOM      1  C   UNL     1       6.721  -2.677  -0.365  1.00  0.00     0.275 C 
ENDROOT
BRANCH   1   2
ATOM      2  O   UNL     1       6.530  -1.819  -1.510  1.00  0.00    -0.458 OA
BRANCH   2   3
ATOM      3  C   UNL     1       6.377  -2.437  -2.703  1.00  0.00     0.339 C 
ATOM      4  O   UNL     1       6.330  -3.642  -2.898  1.00  0.00    -0.246 OA
BRANCH   3   5
ATOM      5  C   UNL     1       6.167  -1.464  -3.796  1.00  0.00     0.080 A 
ATOM      6  C   UNL     1       4.799  -0.844  -5.721  1.00  0.00     0.061 A 
ATOM      7  C   UNL     1       5.052  -1.667  -4.624  1.00  0.00     0.045 A 
ATOM      8  C   UNL     1       5.738   0.130  -6.066  1.00  0.00     0.066 A 
ATOM      9  C   UNL     1       6.843   0.357  -5.239  1.00  0.00     0.044 A 
ATOM     10  Cl  UNL     1       5.513   1.143  -7.446  1.00  0.00    -0.082 Cl
ATOM     11  C   UNL     1       7.055  -0.430  -4.098  1.00  0.00     0.057 A 
ATOM     12  Cl  UNL     1       8.468  -0.103  -3.162  1.00  0.00    -0.083 Cl
BRANCH   6  13
ATOM     13  N   UNL     1       3.616  -0.997  -6.461  1.00  0.00    -0.321 N 
ATOM     14  C   UNL     1       2.325  -1.243  -6.030  1.00  0.00     0.255 C 
ATOM     15  O   UNL     1       1.533  -1.742  -6.826  1.00  0.00    -0.269 OA
ATOM     16  H   UNL     1       3.721  -0.917  -7.436  1.00  0.00     0.170 HD
BRANCH  14  17
ATOM     17  C   UNL     1       1.829  -0.782  -4.688  1.00  0.00     0.041 A 
ATOM     18  C   UNL     1       0.741   0.134  -2.227  1.00  0.00     0.137 A 
ATOM     19  C   UNL     1       0.002  -0.680  -3.088  1.00  0.00     0.049 A 
ATOM     20  C   UNL     1       1.993   0.576  -2.653  1.00  0.00     0.083 A 
ATOM     21  C   UNL     1       0.543  -1.159  -4.290  1.00  0.00     0.018 A 
ATOM     22  C   UNL     1       2.513   0.137  -3.881  1.00  0.00     0.038 A 
ATOM     23  Cl  UNL     1       2.943   1.748  -1.805  1.00  0.00    -0.080 Cl
BRANCH  18  24
ATOM     24  O   UNL     1       0.076   0.484  -1.084  1.00  0.00    -0.495 OA
ATOM     25  C   UNL     1       0.841   0.500   0.115  1.00  0.00     0.278 C 
ENDBRANCH  18  24
ENDBRANCH  14  17
ENDBRANCH   6  13
ENDBRANCH   3   5
ENDBRANCH   2   3
ENDBRANCH   1   2
BRANCH   1  26
ATOM     26  C   UNL     1       5.497  -2.693   0.556  1.00  0.00     0.275 C 
BRANCH  26  27
ATOM     27  O   UNL     1       4.421  -3.482   0.012  1.00  0.00    -0.458 OA
BRANCH  27  28
ATOM     28  C   UNL     1       3.566  -2.784  -0.766  1.00  0.00     0.338 C 
ATOM     29  O   UNL     1       3.627  -1.594  -1.028  1.00  0.00    -0.246 OA
BRANCH  28  30
ATOM     30  C   UNL     1       2.573  -3.665  -1.393  1.00  0.00     0.060 A 
ATOM     31  C   UNL     1       2.778  -3.986  -2.729  1.00  0.00     0.016 A 
ATOM     32  C   UNL     1       1.375  -4.002  -0.769  1.00  0.00     0.016 A 
ATOM     33  C   UNL     1       1.741  -4.506  -3.494  1.00  0.00     0.010 A 
ATOM     34  C   UNL     1       0.374  -4.648  -1.513  1.00  0.00     0.010 A 
ATOM     35  C   UNL     1       0.523  -4.861  -2.897  1.00  0.00    -0.014 A 
BRANCH  35  36
ATOM     36  C   UNL     1      -0.563  -5.449  -3.739  1.00  0.00     0.031 A 
ATOM     37  C   UNL     1      -1.903  -4.767  -3.880  1.00  0.00     0.074 A 
ATOM     38  C   UNL     1      -0.321  -6.574  -4.444  1.00  0.00     0.049 A 
ATOM     39  N   UNL     1      -2.931  -5.094  -4.624  1.00  0.00    -0.248 NA
ATOM     40  C   UNL     1      -2.109  -3.541  -3.100  1.00  0.00     0.031 C 
ATOM     41  C   UNL     1       0.944  -7.313  -4.452  1.00  0.00     0.029 A 
ATOM     42  N   UNL     1      -1.124  -7.292  -5.296  1.00  0.00    -0.354 N 
ATOM     43  C   UNL     1      -3.875  -4.087  -4.441  1.00  0.00     0.074 A 
ATOM     44  C   UNL     1      -3.315  -3.156  -3.488  1.00  0.00     0.031 C 
ATOM     45  C   UNL     1       0.839  -8.360  -5.282  1.00  0.00     0.029 A 
ATOM     46  C   UNL     1      -0.525  -8.427  -5.791  1.00  0.00     0.049 A 
ATOM     47  H   UNL     1      -2.041  -7.021  -5.530  1.00  0.00     0.167 HD
ATOM     48  C   UNL     1      -5.105  -3.954  -4.999  1.00  0.00     0.034 A 
ATOM     49  C   UNL     1      -1.026  -9.442  -6.521  1.00  0.00     0.034 A 
ATOM     50  C   UNL     1      -5.714  -4.953  -5.840  1.00  0.00     0.049 A 
ATOM     51  C   UNL     1      -2.469  -9.389  -6.940  1.00  0.00     0.074 A 
ATOM     52  C   UNL     1      -6.983  -4.961  -6.395  1.00  0.00     0.029 A 
ATOM     53  N   UNL     1      -5.116  -6.152  -6.206  1.00  0.00    -0.354 N 
ATOM     54  N   UNL     1      -3.345  -8.428  -6.760  1.00  0.00    -0.248 NA
ATOM     55  C   UNL     1      -2.996 -10.563  -7.646  1.00  0.00     0.031 C 
ATOM     56  C   UNL     1      -7.184  -6.203  -7.010  1.00  0.00     0.029 A 
ATOM     57  C   UNL     1      -6.011  -6.936  -6.916  1.00  0.00     0.049 A 
ATOM     58  H   UNL     1      -4.189  -6.407  -5.992  1.00  0.00     0.167 HD
ATOM     59  C   UNL     1      -4.524  -8.875  -7.349  1.00  0.00     0.074 A 
ATOM     60  C   UNL     1      -4.241 -10.186  -7.898  1.00  0.00     0.031 C 
ATOM     61  C   UNL     1      -5.728  -8.254  -7.433  1.00  0.00     0.034 A 
BRANCH  48  62
ATOM     62  C   UNL     1      -5.903  -2.729  -4.622  1.00  0.00     0.023 A 
ATOM     63  C   UNL     1      -5.532  -1.441  -5.049  1.00  0.00     0.031 A 
ATOM     64  C   UNL     1      -7.036  -2.850  -3.798  1.00  0.00     0.131 A 
ATOM     65  C   UNL     1      -6.263  -0.322  -4.615  1.00  0.00     0.055 A 
ATOM     66  C   UNL     1      -7.790  -1.740  -3.415  1.00  0.00     0.041 A 
ATOM     67  F   UNL     1      -7.419  -4.051  -3.337  1.00  0.00    -0.206 F 
ATOM     68  C   UNL     1      -7.400  -0.466  -3.815  1.00  0.00     0.022 A 
BRANCH  65  69
ATOM     69  S   UNL     1      -5.647   1.339  -5.011  1.00  0.00     0.124 S 
ATOM     70  O   UNL     1      -4.302   1.301  -4.442  1.00  0.00    -0.237 OA
ATOM     71  O   UNL     1      -5.727   1.365  -6.467  1.00  0.00    -0.237 OA
ATOM     72  O   UNL     1      -6.582   2.225  -4.320  1.00  0.00    -0.744 OA
ENDBRANCH  65  69
ENDBRANCH  48  62
BRANCH  49  73
ATOM     73  C   UNL     1      -0.181 -10.638  -6.809  1.00  0.00     0.023 A 
ATOM     74  C   UNL     1       0.146 -11.009  -8.121  1.00  0.00     0.031 A 
ATOM     75  C   UNL     1       0.293 -11.446  -5.756  1.00  0.00     0.131 A 
ATOM     76  C   UNL     1       0.908 -12.167  -8.348  1.00  0.00     0.055 A 
ATOM     77  C   UNL     1       1.095 -12.563  -5.984  1.00  0.00     0.041 A 
ATOM     78  F   UNL     1      -0.000 -11.142  -4.481  1.00  0.00    -0.206 F 
ATOM     79  C   UNL     1       1.400 -12.935  -7.288  1.00  0.00     0.022 A 
BRANCH  76  80
ATOM     80  S   UNL     1       1.192 -12.705 -10.056  1.00  0.00     0.124 S 
ATOM     81  O   UNL     1      -0.171 -12.858 -10.551  1.00  0.00    -0.237 OA
ATOM     82  O   UNL     1       1.954 -11.587 -10.604  1.00  0.00    -0.237 OA
ATOM     83  O   UNL     1       1.943 -13.949  -9.901  1.00  0.00    -0.744 OA
ENDBRANCH  76  80
ENDBRANCH  49  73
BRANCH  61  84
ATOM     84  C   UNL     1      -6.819  -8.983  -8.173  1.00  0.00     0.023 A 
ATOM     85  C   UNL     1      -7.398 -10.158  -7.663  1.00  0.00     0.031 A 
ATOM     86  C   UNL     1      -7.274  -8.503  -9.414  1.00  0.00     0.131 A 
ATOM     87  C   UNL     1      -8.364 -10.843  -8.416  1.00  0.00     0.055 A 
ATOM     88  C   UNL     1      -8.274  -9.158 -10.132  1.00  0.00     0.041 A 
ATOM     89  F   UNL     1      -6.753  -7.386  -9.947  1.00  0.00    -0.206 F 
ATOM     90  C   UNL     1      -8.816 -10.341  -9.639  1.00  0.00     0.022 A 
BRANCH  87  91
ATOM     91  S   UNL     1      -8.963 -12.445  -7.814  1.00  0.00     0.124 S 
ATOM     92  O   UNL     1      -7.733 -13.228  -7.756  1.00  0.00    -0.237 OA
ATOM     93  O   UNL     1      -9.557 -12.094  -6.528  1.00  0.00    -0.237 OA
ATOM     94  O   UNL     1      -9.916 -12.863  -8.841  1.00  0.00    -0.744 OA
ENDBRANCH  87  91
ENDBRANCH  61  84
ENDBRANCH  35  36
ENDBRANCH  28  30
ENDBRANCH  27  28
ENDBRANCH  26  27
ENDBRANCH   1  26
TORSDOF 17
