REMARK SMILES O=C(OCCOC(=O)c1ccc(-c2c3nc(c(-c4cc(S(=O)(=O)[O-])ccc4F)c4ccc([nH]4)c(-c4cc(S(=O)(=O)[O-])ccc4F)c4nc(c(-c5cc(S(=O)(=O)[O-])ccc5F)c5ccc2[nH]5)C=C4)C=C3)cc1)C1=Cc2c(ccc(Cl)c2Oc2ccccc2)O[C@H]1C(F)(F)F
REMARK SMILES IDX 5 1 4 2 3 3 2 4 1 5 72 6 73 7 89 8 74 9 88 10 75 11 80 12
REMARK SMILES IDX 76 13 78 14 77 15 79 16 90 17 91 18 92 19 93 20 81 21 82 22
REMARK SMILES IDX 83 23 87 24 84 25 86 26 85 27 6 28 7 29 8 30 9 31 10 32
REMARK SMILES IDX 71 33 11 34 70 35 12 36 13 37 14 38 64 39 15 40 69 41 63 42
REMARK SMILES IDX 65 43 16 44 68 45 62 46 61 47 17 49 49 50 29 51 48 52 30 53
REMARK SMILES IDX 33 54 47 55 66 56 31 57 32 58 46 60 67 61 34 62 18 63 19 64
REMARK SMILES IDX 27 65 20 66 26 67 28 68 25 69 21 70 22 71 23 72 24 73 50 74
REMARK SMILES IDX 51 75 59 76 52 77 58 78 60 79 57 80 53 81 54 82 55 83 56 84
REMARK SMILES IDX 35 85 36 86 44 87 37 88 43 89 45 90 42 91 38 92 39 93 40 94
REMARK SMILES IDX 41 95
REMARK H PARENT 65 48 33 59
REMARK Flexibility Score: inf
ROOT
ATOM      1  C   UNL     1       1.937   0.819   0.099  1.00  0.00     0.275 C 
ENDROOT
BRANCH   1   2
ATOM      2  C   UNL     1       2.454   0.554  -1.291  1.00  0.00     0.275 C 
BRANCH   2   3
ATOM      3  O   UNL     1       2.598  -0.826  -1.619  1.00  0.00    -0.459 OA
BRANCH   3   4
ATOM      4  C   UNL     1       3.320  -1.770  -0.992  1.00  0.00     0.338 C 
ATOM      5  O   UNL     1       3.185  -2.938  -1.357  1.00  0.00    -0.246 OA
BRANCH   4   6
ATOM      6  C   UNL     1       4.370  -1.490   0.029  1.00  0.00     0.088 C 
ATOM      7  C   UNL     1       4.599  -0.413   0.820  1.00  0.00     0.031 C 
ATOM      8  C   UNL     1       5.573  -2.365  -0.262  1.00  0.00     0.316 C 
ATOM      9  C   UNL     1       5.605   0.497   0.225  1.00  0.00     0.062 A 
ATOM     10  O   UNL     1       6.775  -1.555  -0.442  1.00  0.00    -0.475 OA
ATOM     11  C   UNL     1       6.567  -0.193  -0.563  1.00  0.00     0.131 A 
ATOM     12  C   UNL     1       5.583   1.910   0.250  1.00  0.00     0.156 A 
ATOM     13  C   UNL     1       7.342   0.478  -1.493  1.00  0.00     0.049 A 
ATOM     14  C   UNL     1       6.367   2.560  -0.731  1.00  0.00     0.084 A 
ATOM     15  C   UNL     1       7.197   1.854  -1.615  1.00  0.00     0.028 A 
ATOM     16  Cl  UNL     1       6.283   4.280  -0.956  1.00  0.00    -0.080 Cl
BRANCH   8  17
ATOM     17  C   UNL     1       5.719  -3.464   0.805  1.00  0.00     0.430 C 
ATOM     18  F   UNL     1       5.860  -2.944   2.049  1.00  0.00    -0.167 F 
ATOM     19  F   UNL     1       4.641  -4.281   0.836  1.00  0.00    -0.167 F 
ATOM     20  F   UNL     1       6.801  -4.242   0.571  1.00  0.00    -0.167 F 
ENDBRANCH   8  17
BRANCH  12  21
ATOM     21  O   UNL     1       4.838   2.802   1.007  1.00  0.00    -0.455 OA
BRANCH  21  22
ATOM     22  C   UNL     1       4.085   2.510   2.115  1.00  0.00     0.127 A 
ATOM     23  C   UNL     1       2.778   3.033   2.115  1.00  0.00     0.047 A 
ATOM     24  C   UNL     1       4.528   1.808   3.226  1.00  0.00     0.047 A 
ATOM     25  C   UNL     1       1.850   2.636   3.078  1.00  0.00     0.004 A 
ATOM     26  C   UNL     1       3.613   1.468   4.233  1.00  0.00     0.004 A 
ATOM     27  C   UNL     1       2.266   1.831   4.131  1.00  0.00     0.000 A 
ENDBRANCH  21  22
ENDBRANCH  12  21
ENDBRANCH   4   6
ENDBRANCH   3   4
ENDBRANCH   2   3
ENDBRANCH   1   2
BRANCH   1  28
ATOM     28  O   UNL     1       1.888  -0.302   0.960  1.00  0.00    -0.458 OA
BRANCH  28  29
ATOM     29  C   UNL     1       0.676  -0.811   1.175  1.00  0.00     0.338 C 
ATOM     30  O   UNL     1      -0.354  -0.498   0.585  1.00  0.00    -0.246 OA
BRANCH  29  31
ATOM     31  C   UNL     1       0.770  -1.765   2.289  1.00  0.00     0.060 A 
ATOM     32  C   UNL     1      -0.379  -2.504   2.541  1.00  0.00     0.016 A 
ATOM     33  C   UNL     1       1.905  -1.879   3.123  1.00  0.00     0.016 A 
ATOM     34  C   UNL     1      -0.431  -3.287   3.670  1.00  0.00     0.010 A 
ATOM     35  C   UNL     1       1.874  -2.715   4.231  1.00  0.00     0.010 A 
ATOM     36  C   UNL     1       0.689  -3.389   4.515  1.00  0.00    -0.014 A 
BRANCH  36  37
ATOM     37  C   UNL     1       0.541  -4.282   5.668  1.00  0.00     0.031 A 
ATOM     38  C   UNL     1       0.190  -3.693   6.989  1.00  0.00     0.074 A 
ATOM     39  C   UNL     1       0.475  -5.588   5.361  1.00  0.00     0.049 A 
ATOM     40  N   UNL     1      -0.429  -4.245   7.991  1.00  0.00    -0.248 NA
ATOM     41  C   UNL     1       0.577  -2.291   7.212  1.00  0.00     0.031 C 
ATOM     42  C   UNL     1       0.834  -6.142   4.048  1.00  0.00     0.029 A 
ATOM     43  N   UNL     1      -0.026  -6.650   6.051  1.00  0.00    -0.354 N 
ATOM     44  C   UNL     1      -0.522  -3.258   8.965  1.00  0.00     0.074 A 
ATOM     45  C   UNL     1       0.147  -2.085   8.449  1.00  0.00     0.031 C 
ATOM     46  C   UNL     1       0.422  -7.414   3.985  1.00  0.00     0.029 A 
ATOM     47  C   UNL     1      -0.180  -7.770   5.261  1.00  0.00     0.049 A 
ATOM     48  H   UNL     1      -0.253  -6.622   7.008  1.00  0.00     0.167 HD
ATOM     49  C   UNL     1      -1.127  -3.358  10.174  1.00  0.00     0.034 A 
ATOM     50  C   UNL     1      -0.794  -8.933   5.540  1.00  0.00     0.034 A 
ATOM     51  C   UNL     1      -1.748  -4.592  10.602  1.00  0.00     0.049 A 
ATOM     52  C   UNL     1      -1.483  -9.006   6.875  1.00  0.00     0.074 A 
ATOM     53  C   UNL     1      -2.377  -4.888  11.794  1.00  0.00     0.029 A 
ATOM     54  N   UNL     1      -1.800  -5.753   9.825  1.00  0.00    -0.354 N 
ATOM     55  N   UNL     1      -1.591  -8.069   7.796  1.00  0.00    -0.248 NA
ATOM     56  C   UNL     1      -2.148 -10.264   7.203  1.00  0.00     0.031 C 
ATOM     57  C   UNL     1      -2.737  -6.242  11.767  1.00  0.00     0.029 A 
ATOM     58  C   UNL     1      -2.424  -6.772  10.521  1.00  0.00     0.049 A 
ATOM     59  H   UNL     1      -1.442  -5.834   8.912  1.00  0.00     0.167 HD
ATOM     60  C   UNL     1      -2.351  -8.623   8.816  1.00  0.00     0.074 A 
ATOM     61  C   UNL     1      -2.707  -9.961   8.365  1.00  0.00     0.031 C 
ATOM     62  C   UNL     1      -2.719  -8.097  10.016  1.00  0.00     0.034 A 
BRANCH  49  63
ATOM     63  C   UNL     1      -1.056  -2.163  11.098  1.00  0.00     0.023 A 
ATOM     64  C   UNL     1      -1.590  -0.907  10.750  1.00  0.00     0.031 A 
ATOM     65  C   UNL     1      -0.373  -2.258  12.325  1.00  0.00     0.131 A 
ATOM     66  C   UNL     1      -1.363   0.211  11.572  1.00  0.00     0.055 A 
ATOM     67  C   UNL     1      -0.224  -1.161  13.179  1.00  0.00     0.041 A 
ATOM     68  F   UNL     1       0.193  -3.414  12.705  1.00  0.00    -0.206 F 
ATOM     69  C   UNL     1      -0.706   0.086  12.797  1.00  0.00     0.022 A 
BRANCH  66  70
ATOM     70  S   UNL     1      -1.794   1.860  10.944  1.00  0.00     0.124 S 
ATOM     71  O   UNL     1      -0.975   1.938   9.737  1.00  0.00    -0.237 OA
ATOM     72  O   UNL     1      -3.233   1.753  10.733  1.00  0.00    -0.237 OA
ATOM     73  O   UNL     1      -1.387   2.757  12.024  1.00  0.00    -0.744 OA
ENDBRANCH  66  70
ENDBRANCH  49  63
BRANCH  50  74
ATOM     74  C   UNL     1      -0.797 -10.046   4.545  1.00  0.00     0.023 A 
ATOM     75  C   UNL     1      -1.986 -10.591   4.037  1.00  0.00     0.031 A 
ATOM     76  C   UNL     1       0.418 -10.581   4.072  1.00  0.00     0.131 A 
ATOM     77  C   UNL     1      -1.935 -11.655   3.118  1.00  0.00     0.055 A 
ATOM     78  C   UNL     1       0.465 -11.593   3.112  1.00  0.00     0.041 A 
ATOM     79  F   UNL     1       1.591 -10.102   4.518  1.00  0.00    -0.206 F 
ATOM     80  C   UNL     1      -0.718 -12.146   2.640  1.00  0.00     0.022 A 
BRANCH  77  81
ATOM     81  S   UNL     1      -3.485 -12.460   2.624  1.00  0.00     0.124 S 
ATOM     82  O   UNL     1      -4.080 -12.780   3.916  1.00  0.00    -0.237 OA
ATOM     83  O   UNL     1      -4.141 -11.407   1.857  1.00  0.00    -0.237 OA
ATOM     84  O   UNL     1      -3.035 -13.611   1.843  1.00  0.00    -0.744 OA
ENDBRANCH  77  81
ENDBRANCH  50  74
BRANCH  62  85
ATOM     85  C   UNL     1      -3.560  -8.993  10.884  1.00  0.00     0.023 A 
ATOM     86  C   UNL     1      -3.055 -10.203  11.385  1.00  0.00     0.031 A 
ATOM     87  C   UNL     1      -4.893  -8.653  11.167  1.00  0.00     0.131 A 
ATOM     88  C   UNL     1      -3.912 -11.083  12.054  1.00  0.00     0.055 A 
ATOM     89  C   UNL     1      -5.714  -9.492  11.916  1.00  0.00     0.041 A 
ATOM     90  F   UNL     1      -5.420  -7.506  10.708  1.00  0.00    -0.206 F 
ATOM     91  C   UNL     1      -5.232 -10.726  12.344  1.00  0.00     0.022 A 
BRANCH  88  92
ATOM     92  S   UNL     1      -3.322 -12.764  12.385  1.00  0.00     0.124 S 
ATOM     93  O   UNL     1      -2.959 -13.223  11.048  1.00  0.00    -0.237 OA
ATOM     94  O   UNL     1      -2.212 -12.530  13.302  1.00  0.00    -0.237 OA
ATOM     95  O   UNL     1      -4.486 -13.424  12.974  1.00  0.00    -0.744 OA
ENDBRANCH  88  92
ENDBRANCH  62  85
ENDBRANCH  36  37
ENDBRANCH  29  31
ENDBRANCH  28  29
ENDBRANCH   1  28
TORSDOF 17
