REMARK SMILES CC[C@@H](C)N(C)C(=O)N1[C@@H](C(=O)OCCOC(=O)c2ccc(-c3c4nc(c(-c5cc(S(=O)(=O)[O-])ccc5F)c5ccc([nH]5)c(-c5cc(S(=O)(=O)[O-])ccc5F)c5nc(c(-c6cc(S(=O)(=O)[O-])ccc6F)c6ccc3[nH]6)C=C5)C=C4)cc2)CC[C@H]2CCCC[C@H]21
REMARK SMILES IDX 14 1 13 2 11 3 12 4 10 5 9 6 89 7 82 8 84 9 88 10 83 11
REMARK SMILES IDX 85 12 87 13 86 14 7 15 8 16 5 17 6 18 3 19 4 20 2 21 1 22
REMARK SMILES IDX 15 23 16 24 17 25 18 26 19 27 20 28 81 29 21 30 80 31 22 32
REMARK SMILES IDX 23 33 24 34 74 35 25 36 79 37 73 38 75 39 26 40 78 41 72 42
REMARK SMILES IDX 71 43 27 45 59 46 39 47 58 48 40 49 43 50 57 51 76 52 41 53
REMARK SMILES IDX 42 54 56 56 77 57 44 58 28 59 29 60 37 61 30 62 36 63 38 64
REMARK SMILES IDX 35 65 31 66 32 67 33 68 34 69 60 70 61 71 69 72 62 73 68 74
REMARK SMILES IDX 70 75 67 76 63 77 64 78 65 79 66 80 45 81 46 82 54 83 47 84
REMARK SMILES IDX 53 85 55 86 52 87 48 88 49 89 50 90 51 91
REMARK H PARENT 75 44 43 55
REMARK Flexibility Score: inf
ROOT
ATOM      1  C   UNL     1       1.185   1.903   6.670  1.00  0.00     0.274 C 
ENDROOT
BRANCH   1   2
ATOM      2  O   UNL     1       0.021   1.064   6.551  1.00  0.00    -0.461 OA
BRANCH   2   3
ATOM      3  C   UNL     1       0.277  -0.256   6.328  1.00  0.00     0.329 C 
ATOM      4  O   UNL     1       1.406  -0.727   6.241  1.00  0.00    -0.250 OA
BRANCH   3   5
ATOM      5  C   UNL     1      -1.009  -1.091   6.160  1.00  0.00     0.197 C 
ATOM      6  N   UNL     1      -1.476  -1.411   4.799  1.00  0.00    -0.308 N 
ATOM      7  C   UNL     1      -2.652  -2.296   4.713  1.00  0.00     0.091 C 
ATOM      8  C   UNL     1      -2.155  -0.598   7.049  1.00  0.00     0.038 C 
ATOM      9  C   UNL     1      -3.797  -1.959   5.692  1.00  0.00     0.012 C 
ATOM     10  C   UNL     1      -3.205  -2.582   3.312  1.00  0.00     0.025 C 
ATOM     11  C   UNL     1      -3.268  -1.643   7.097  1.00  0.00     0.008 C 
ATOM     12  C   UNL     1      -4.778  -0.878   5.216  1.00  0.00     0.006 C 
ATOM     13  C   UNL     1      -4.279  -1.620   2.799  1.00  0.00     0.002 C 
ATOM     14  C   UNL     1      -4.712  -0.509   3.745  1.00  0.00     0.000 C 
BRANCH   6  15
ATOM     15  C   UNL     1      -1.056  -0.640   3.737  1.00  0.00     0.320 C 
ATOM     16  O   UNL     1      -1.815   0.128   3.155  1.00  0.00    -0.248 OA
BRANCH  15  17
ATOM     17  N   UNL     1       0.262  -0.833   3.330  1.00  0.00    -0.325 N 
ATOM     18  C   UNL     1       1.063  -1.998   3.716  1.00  0.00     0.149 C 
BRANCH  17  19
ATOM     19  C   UNL     1       0.808  -0.045   2.209  1.00  0.00     0.083 C 
ATOM     20  C   UNL     1       0.600   1.467   2.365  1.00  0.00     0.031 C 
BRANCH  19  21
ATOM     21  C   UNL     1       0.295  -0.594   0.864  1.00  0.00     0.021 C 
ATOM     22  C   UNL     1       0.952   0.049  -0.347  1.00  0.00     0.006 C 
ENDBRANCH  19  21
ENDBRANCH  17  19
ENDBRANCH  15  17
ENDBRANCH   6  15
ENDBRANCH   3   5
ENDBRANCH   2   3
ENDBRANCH   1   2
BRANCH   1  23
ATOM     23  C   UNL     1       1.661   2.054   8.121  1.00  0.00     0.275 C 
BRANCH  23  24
ATOM     24  O   UNL     1       2.145   0.814   8.674  1.00  0.00    -0.458 OA
BRANCH  24  25
ATOM     25  C   UNL     1       1.222   0.097   9.356  1.00  0.00     0.338 C 
ATOM     26  O   UNL     1       0.073   0.445   9.605  1.00  0.00    -0.246 OA
BRANCH  25  27
ATOM     27  C   UNL     1       1.702  -1.275   9.603  1.00  0.00     0.060 A 
ATOM     28  C   UNL     1       0.870  -2.325   9.198  1.00  0.00     0.016 A 
ATOM     29  C   UNL     1       2.901  -1.546  10.265  1.00  0.00     0.016 A 
ATOM     30  C   UNL     1       1.236  -3.646   9.428  1.00  0.00     0.010 A 
ATOM     31  C   UNL     1       3.255  -2.878  10.526  1.00  0.00     0.010 A 
ATOM     32  C   UNL     1       2.420  -3.933  10.115  1.00  0.00    -0.014 A 
BRANCH  32  33
ATOM     33  C   UNL     1       2.695  -5.341  10.490  1.00  0.00     0.031 A 
ATOM     34  C   UNL     1       2.334  -5.815  11.869  1.00  0.00     0.074 A 
ATOM     35  C   UNL     1       3.169  -6.207   9.576  1.00  0.00     0.049 A 
ATOM     36  N   UNL     1       2.467  -7.002  12.402  1.00  0.00    -0.248 NA
ATOM     37  C   UNL     1       1.736  -4.813  12.763  1.00  0.00     0.031 C 
ATOM     38  C   UNL     1       3.483  -5.875   8.187  1.00  0.00     0.029 A 
ATOM     39  N   UNL     1       3.454  -7.545   9.675  1.00  0.00    -0.354 N 
ATOM     40  C   UNL     1       1.973  -6.893  13.697  1.00  0.00     0.074 A 
ATOM     41  C   UNL     1       1.567  -5.513  13.875  1.00  0.00     0.031 C 
ATOM     42  C   UNL     1       3.913  -6.984   7.561  1.00  0.00     0.029 A 
ATOM     43  C   UNL     1       3.944  -8.092   8.513  1.00  0.00     0.049 A 
ATOM     44  H   UNL     1       3.321  -8.065  10.501  1.00  0.00     0.167 HD
ATOM     45  C   UNL     1       1.863  -7.856  14.647  1.00  0.00     0.034 A 
ATOM     46  C   UNL     1       4.385  -9.340   8.254  1.00  0.00     0.034 A 
ATOM     47  C   UNL     1       2.292  -9.222  14.458  1.00  0.00     0.049 A 
ATOM     48  C   UNL     1       4.340 -10.372   9.354  1.00  0.00     0.074 A 
ATOM     49  C   UNL     1       2.250 -10.274  15.357  1.00  0.00     0.029 A 
ATOM     50  N   UNL     1       2.851  -9.726  13.289  1.00  0.00    -0.354 N 
ATOM     51  N   UNL     1       3.898 -10.251  10.585  1.00  0.00    -0.248 NA
ATOM     52  C   UNL     1       4.850 -11.709   9.025  1.00  0.00     0.031 C 
ATOM     53  C   UNL     1       2.843 -11.391  14.757  1.00  0.00     0.029 A 
ATOM     54  C   UNL     1       3.186 -11.062  13.455  1.00  0.00     0.049 A 
ATOM     55  H   UNL     1       2.990  -9.209  12.463  1.00  0.00     0.167 HD
ATOM     56  C   UNL     1       4.056 -11.504  11.170  1.00  0.00     0.074 A 
ATOM     57  C   UNL     1       4.615 -12.369  10.150  1.00  0.00     0.031 C 
ATOM     58  C   UNL     1       3.764 -11.907  12.434  1.00  0.00     0.034 A 
BRANCH  45  59
ATOM     59  C   UNL     1       1.323  -7.431  15.992  1.00  0.00     0.023 A 
ATOM     60  C   UNL     1       0.009  -6.955  16.148  1.00  0.00     0.031 A 
ATOM     61  C   UNL     1       2.157  -7.444  17.125  1.00  0.00     0.131 A 
ATOM     62  C   UNL     1      -0.405  -6.436  17.385  1.00  0.00     0.055 A 
ATOM     63  C   UNL     1       1.712  -7.002  18.372  1.00  0.00     0.041 A 
ATOM     64  F   UNL     1       3.428  -7.864  17.033  1.00  0.00    -0.206 F 
ATOM     65  C   UNL     1       0.429  -6.478  18.504  1.00  0.00     0.022 A 
BRANCH  62  66
ATOM     66  S   UNL     1      -1.991  -5.557  17.470  1.00  0.00     0.124 S 
ATOM     67  O   UNL     1      -1.804  -4.513  16.464  1.00  0.00    -0.237 OA
ATOM     68  O   UNL     1      -2.950  -6.603  17.136  1.00  0.00    -0.237 OA
ATOM     69  O   UNL     1      -2.044  -5.079  18.850  1.00  0.00    -0.744 OA
ENDBRANCH  62  66
ENDBRANCH  45  59
BRANCH  46  70
ATOM     70  C   UNL     1       4.950  -9.677   6.916  1.00  0.00     0.023 A 
ATOM     71  C   UNL     1       4.338 -10.625   6.080  1.00  0.00     0.031 A 
ATOM     72  C   UNL     1       6.147  -9.083   6.474  1.00  0.00     0.131 A 
ATOM     73  C   UNL     1       4.944 -10.978   4.863  1.00  0.00     0.055 A 
ATOM     74  C   UNL     1       6.719  -9.402   5.242  1.00  0.00     0.041 A 
ATOM     75  F   UNL     1       6.774  -8.173   7.236  1.00  0.00    -0.206 F 
ATOM     76  C   UNL     1       6.122 -10.363   4.433  1.00  0.00     0.022 A 
BRANCH  73  77
ATOM     77  S   UNL     1       4.204 -12.307   3.875  1.00  0.00     0.124 S 
ATOM     78  O   UNL     1       4.261 -13.433   4.800  1.00  0.00    -0.237 OA
ATOM     79  O   UNL     1       2.876 -11.773   3.595  1.00  0.00    -0.237 OA
ATOM     80  O   UNL     1       5.090 -12.404   2.717  1.00  0.00    -0.744 OA
ENDBRANCH  73  77
ENDBRANCH  46  70
BRANCH  58  81
ATOM     81  C   UNL     1       4.015 -13.360  12.761  1.00  0.00     0.023 A 
ATOM     82  C   UNL     1       5.314 -13.899  12.791  1.00  0.00     0.031 A 
ATOM     83  C   UNL     1       2.935 -14.225  13.014  1.00  0.00     0.131 A 
ATOM     84  C   UNL     1       5.496 -15.275  13.003  1.00  0.00     0.055 A 
ATOM     85  C   UNL     1       3.127 -15.581  13.286  1.00  0.00     0.041 A 
ATOM     86  F   UNL     1       1.673 -13.767  12.997  1.00  0.00    -0.206 F 
ATOM     87  C   UNL     1       4.412 -16.116  13.265  1.00  0.00     0.022 A 
BRANCH  84  88
ATOM     88  S   UNL     1       7.161 -15.972  12.821  1.00  0.00     0.124 S 
ATOM     89  O   UNL     1       7.515 -15.565  11.465  1.00  0.00    -0.237 OA
ATOM     90  O   UNL     1       7.894 -15.312  13.896  1.00  0.00    -0.237 OA
ATOM     91  O   UNL     1       6.954 -17.407  13.003  1.00  0.00    -0.744 OA
ENDBRANCH  84  88
ENDBRANCH  58  81
ENDBRANCH  32  33
ENDBRANCH  25  27
ENDBRANCH  24  25
ENDBRANCH  23  24
ENDBRANCH   1  23
TORSDOF 18
