REMARK SMILES O=C(OCCOC(=O)c1cc2c(c(S(=O)(=O)Nc3cc(C(F)(F)F)ccc3-n3cccn3)c1)CCC2)c1ccc(-c2c3nc(c(-c4cc(S(=O)(=O)[O-])ccc4F)c4ccc([nH]4)c(-c4cc(S(=O)(=O)[O-])ccc4F)c4nc(c(-c5cc(S(=O)(=O)[O-])ccc5F)c5ccc2[nH]5)C=C4)C=C3)cc1
REMARK SMILES IDX 5 1 4 2 3 3 2 4 1 5 37 6 38 7 99 8 39 9 98 10 40 11 41 12
REMARK SMILES IDX 42 13 92 14 43 15 97 16 91 17 93 18 44 19 96 20 90 21 89 22
REMARK SMILES IDX 45 24 77 25 57 26 76 27 58 28 61 29 75 30 94 31 59 32 60 33
REMARK SMILES IDX 74 35 95 36 62 37 46 38 47 39 55 40 48 41 54 42 56 43 53 44
REMARK SMILES IDX 49 45 50 46 51 47 52 48 78 49 79 50 87 51 80 52 86 53 88 54
REMARK SMILES IDX 85 55 81 56 82 57 83 58 84 59 63 60 64 61 72 62 65 63 71 64
REMARK SMILES IDX 73 65 70 66 66 67 67 68 68 69 69 70 6 71 7 72 8 73 9 74
REMARK SMILES IDX 10 75 33 76 11 77 13 78 12 79 36 80 34 81 35 82 14 83 15 84
REMARK SMILES IDX 16 85 17 86 18 88 19 89 27 90 20 91 26 92 25 93 28 94 29 95
REMARK SMILES IDX 32 96 30 97 31 98 21 99 22 100 23 101 24 102
REMARK H PARENT 93 23 61 34 17 87
REMARK Flexibility Score: inf
ROOT
ATOM      1  C   UNL     1       4.241  -0.532  -1.525  1.00  0.00     0.275 C 
ENDROOT
BRANCH   1   2
ATOM      2  C   UNL     1       4.642  -1.230  -0.225  1.00  0.00     0.275 C 
BRANCH   2   3
ATOM      3  O   UNL     1       3.593  -1.531   0.716  1.00  0.00    -0.458 OA
BRANCH   3   4
ATOM      4  C   UNL     1       2.466  -0.785   0.682  1.00  0.00     0.338 C 
ATOM      5  O   UNL     1       1.552  -0.945  -0.110  1.00  0.00    -0.246 OA
BRANCH   4   6
ATOM      6  C   UNL     1       2.430   0.174   1.808  1.00  0.00     0.060 A 
ATOM      7  C   UNL     1       3.607   0.664   2.389  1.00  0.00     0.016 A 
ATOM      8  C   UNL     1       1.185   0.613   2.269  1.00  0.00     0.016 A 
ATOM      9  C   UNL     1       3.542   1.541   3.463  1.00  0.00     0.010 A 
ATOM     10  C   UNL     1       1.123   1.505   3.335  1.00  0.00     0.010 A 
ATOM     11  C   UNL     1       2.301   1.946   3.955  1.00  0.00    -0.014 A 
BRANCH  11  12
ATOM     12  C   UNL     1       2.280   2.907   5.065  1.00  0.00     0.031 A 
ATOM     13  C   UNL     1       2.881   4.258   4.819  1.00  0.00     0.074 A 
ATOM     14  C   UNL     1       1.597   2.667   6.206  1.00  0.00     0.049 A 
ATOM     15  N   UNL     1       3.550   5.009   5.633  1.00  0.00    -0.248 NA
ATOM     16  C   UNL     1       2.724   4.863   3.489  1.00  0.00     0.031 C 
ATOM     17  C   UNL     1       0.763   1.500   6.508  1.00  0.00     0.029 A 
ATOM     18  N   UNL     1       1.402   3.478   7.290  1.00  0.00    -0.354 N 
ATOM     19  C   UNL     1       3.705   6.242   5.001  1.00  0.00     0.074 A 
ATOM     20  C   UNL     1       3.188   6.097   3.671  1.00  0.00     0.031 C 
ATOM     21  C   UNL     1      -0.019   1.778   7.570  1.00  0.00     0.029 A 
ATOM     22  C   UNL     1       0.332   3.090   8.090  1.00  0.00     0.049 A 
ATOM     23  H   UNL     1       1.965   4.262   7.486  1.00  0.00     0.167 HD
ATOM     24  C   UNL     1       4.154   7.343   5.658  1.00  0.00     0.034 A 
ATOM     25  C   UNL     1      -0.282   3.801   9.069  1.00  0.00     0.034 A 
ATOM     26  C   UNL     1       5.026   6.973   6.745  1.00  0.00     0.049 A 
ATOM     27  C   UNL     1       0.658   4.850   9.523  1.00  0.00     0.074 A 
ATOM     28  C   UNL     1       6.172   6.201   6.816  1.00  0.00     0.029 A 
ATOM     29  N   UNL     1       4.602   7.109   8.047  1.00  0.00    -0.354 N 
ATOM     30  N   UNL     1       1.767   4.603  10.162  1.00  0.00    -0.248 NA
ATOM     31  C   UNL     1       0.568   6.176   8.930  1.00  0.00     0.031 C 
ATOM     32  C   UNL     1       6.047   5.479   8.036  1.00  0.00     0.029 A 
ATOM     33  C   UNL     1       4.878   5.913   8.662  1.00  0.00     0.049 A 
ATOM     34  H   UNL     1       4.186   7.902   8.456  1.00  0.00     0.167 HD
ATOM     35  C   UNL     1       2.665   5.547   9.696  1.00  0.00     0.074 A 
ATOM     36  C   UNL     1       1.841   6.562   9.046  1.00  0.00     0.031 C 
ATOM     37  C   UNL     1       4.004   5.281   9.629  1.00  0.00     0.034 A 
BRANCH  24  38
ATOM     38  C   UNL     1       3.503   8.703   5.542  1.00  0.00     0.023 A 
ATOM     39  C   UNL     1       3.982   9.702   6.408  1.00  0.00     0.031 A 
ATOM     40  C   UNL     1       2.258   8.963   4.927  1.00  0.00     0.131 A 
ATOM     41  C   UNL     1       3.163  10.774   6.792  1.00  0.00     0.055 A 
ATOM     42  C   UNL     1       1.480  10.082   5.250  1.00  0.00     0.041 A 
ATOM     43  F   UNL     1       1.697   8.120   4.049  1.00  0.00    -0.206 F 
ATOM     44  C   UNL     1       1.908  10.968   6.226  1.00  0.00     0.022 A 
BRANCH  41  45
ATOM     45  S   UNL     1       3.680  11.738   8.236  1.00  0.00     0.124 S 
ATOM     46  O   UNL     1       3.917  10.677   9.210  1.00  0.00    -0.237 OA
ATOM     47  O   UNL     1       4.864  12.423   7.729  1.00  0.00    -0.237 OA
ATOM     48  O   UNL     1       2.526  12.592   8.503  1.00  0.00    -0.744 OA
ENDBRANCH  41  45
ENDBRANCH  24  38
BRANCH  25  49
ATOM     49  C   UNL     1      -1.707   3.728   9.489  1.00  0.00     0.023 A 
ATOM     50  C   UNL     1      -2.151   4.196  10.741  1.00  0.00     0.031 A 
ATOM     51  C   UNL     1      -2.707   3.371   8.555  1.00  0.00     0.131 A 
ATOM     52  C   UNL     1      -3.535   4.270  11.022  1.00  0.00     0.055 A 
ATOM     53  C   UNL     1      -4.071   3.423   8.846  1.00  0.00     0.041 A 
ATOM     54  F   UNL     1      -2.395   3.035   7.293  1.00  0.00    -0.206 F 
ATOM     55  C   UNL     1      -4.492   3.879  10.082  1.00  0.00     0.022 A 
BRANCH  52  56
ATOM     56  S   UNL     1      -4.118   5.000  12.585  1.00  0.00     0.124 S 
ATOM     57  O   UNL     1      -3.823   3.946  13.549  1.00  0.00    -0.237 OA
ATOM     58  O   UNL     1      -3.318   6.215  12.686  1.00  0.00    -0.237 OA
ATOM     59  O   UNL     1      -5.543   5.229  12.342  1.00  0.00    -0.744 OA
ENDBRANCH  52  56
ENDBRANCH  25  49
BRANCH  37  60
ATOM     60  C   UNL     1       4.564   4.091  10.379  1.00  0.00     0.023 A 
ATOM     61  C   UNL     1       4.072   2.771  10.275  1.00  0.00     0.031 A 
ATOM     62  C   UNL     1       5.737   4.289  11.134  1.00  0.00     0.131 A 
ATOM     63  C   UNL     1       4.737   1.716  10.927  1.00  0.00     0.055 A 
ATOM     64  C   UNL     1       6.406   3.237  11.758  1.00  0.00     0.041 A 
ATOM     65  F   UNL     1       6.280   5.513  11.245  1.00  0.00    -0.206 F 
ATOM     66  C   UNL     1       5.902   1.946  11.664  1.00  0.00     0.022 A 
BRANCH  63  67
ATOM     67  S   UNL     1       4.086   0.018  10.845  1.00  0.00     0.124 S 
ATOM     68  O   UNL     1       2.649   0.187  11.020  1.00  0.00    -0.237 OA
ATOM     69  O   UNL     1       4.525  -0.421   9.523  1.00  0.00    -0.237 OA
ATOM     70  O   UNL     1       4.760  -0.653  11.959  1.00  0.00    -0.744 OA
ENDBRANCH  63  67
ENDBRANCH  37  60
ENDBRANCH  11  12
ENDBRANCH   4   6
ENDBRANCH   3   4
ENDBRANCH   2   3
ENDBRANCH   1   2
BRANCH   1  71
ATOM     71  O   UNL     1       3.785   0.804  -1.250  1.00  0.00    -0.458 OA
BRANCH  71  72
ATOM     72  C   UNL     1       2.737   1.237  -1.993  1.00  0.00     0.338 C 
ATOM     73  O   UNL     1       2.160   0.654  -2.901  1.00  0.00    -0.246 OA
BRANCH  72  74
ATOM     74  C   UNL     1       2.488   2.634  -1.623  1.00  0.00     0.061 A 
ATOM     75  C   UNL     1       3.348   3.586  -2.155  1.00  0.00     0.019 A 
ATOM     76  C   UNL     1       1.424   3.004  -0.781  1.00  0.00     0.038 A 
ATOM     77  C   UNL     1       3.175   4.893  -1.754  1.00  0.00    -0.043 A 
ATOM     78  C   UNL     1       1.249   4.350  -0.368  1.00  0.00     0.092 A 
ATOM     79  C   UNL     1       2.193   5.276  -0.805  1.00  0.00    -0.024 A 
ATOM     80  C   UNL     1       3.999   6.057  -2.221  1.00  0.00     0.036 C 
ATOM     81  C   UNL     1       2.523   6.680  -0.409  1.00  0.00     0.037 C 
ATOM     82  C   UNL     1       3.143   7.212  -1.707  1.00  0.00     0.010 C 
BRANCH  78  83
ATOM     83  S   UNL     1      -0.214   4.644   0.621  1.00  0.00     0.262 S 
ATOM     84  O   UNL     1      -1.253   3.780   0.097  1.00  0.00    -0.201 OA
ATOM     85  O   UNL     1       0.178   4.469   1.997  1.00  0.00    -0.201 OA
BRANCH  83  86
ATOM     86  N   UNL     1      -0.792   6.219   0.573  1.00  0.00    -0.277 N 
ATOM     87  H   UNL     1      -1.228   6.530   1.399  1.00  0.00     0.180 HD
BRANCH  86  88
ATOM     88  C   UNL     1      -0.745   7.174  -0.486  1.00  0.00     0.075 A 
ATOM     89  C   UNL     1      -0.382   8.470  -0.056  1.00  0.00     0.042 A 
ATOM     90  C   UNL     1      -0.869   6.949  -1.859  1.00  0.00     0.089 A 
ATOM     91  C   UNL     1       0.050   9.457  -0.960  1.00  0.00     0.058 A 
ATOM     92  C   UNL     1      -0.485   7.948  -2.775  1.00  0.00     0.031 A 
ATOM     93  C   UNL     1      -0.021   9.188  -2.328  1.00  0.00     0.015 A 
BRANCH  90  94
ATOM     94  N   UNL     1      -1.350   5.744  -2.400  1.00  0.00    -0.239 N 
ATOM     95  C   UNL     1      -2.481   5.056  -2.038  1.00  0.00     0.115 A 
ATOM     96  N   UNL     1      -0.705   5.146  -3.433  1.00  0.00    -0.177 NA
ATOM     97  C   UNL     1      -2.435   3.856  -2.708  1.00  0.00     0.042 A 
ATOM     98  C   UNL     1      -1.288   3.946  -3.514  1.00  0.00     0.135 A 
ENDBRANCH  90  94
BRANCH  91  99
ATOM     99  C   UNL     1       0.682  10.729  -0.439  1.00  0.00     0.416 C 
ATOM    100  F   UNL     1      -0.227  11.601   0.067  1.00  0.00    -0.166 F 
ATOM    101  F   UNL     1       1.579  10.485   0.555  1.00  0.00    -0.166 F 
ATOM    102  F   UNL     1       1.372  11.411  -1.396  1.00  0.00    -0.166 F 
ENDBRANCH  91  99
ENDBRANCH  86  88
ENDBRANCH  83  86
ENDBRANCH  78  83
ENDBRANCH  72  74
ENDBRANCH  71  72
ENDBRANCH   1  71
TORSDOF 19
