REMARK SMILES CSCC[C@H](C(=O)OCCOC(=O)c1ccc(-c2c3nc(c(-c4cc(S(=O)(=O)[O-])ccc4F)c4ccc([nH]4)c(-c4cc(S(=O)(=O)[O-])ccc4F)c4nc(c(-c5cc(S(=O)(=O)[O-])ccc5F)c5ccc2[nH]5)C=C4)C=C3)cc1)N1C(=O)/C(=C/c2cn(C)c3ccccc23)SC1=S
REMARK SMILES IDX 9 1 8 2 6 3 7 4 5 5 4 6 3 7 2 8 1 9 77 10 78 11 93 12 79 13
REMARK SMILES IDX 80 14 92 15 94 16 81 17 82 18 83 19 91 20 84 21 86 22 90 23
REMARK SMILES IDX 85 24 87 25 89 26 88 27 10 28 11 29 12 30 13 31 14 32 15 33
REMARK SMILES IDX 76 34 16 35 75 36 17 37 18 38 19 39 69 40 20 41 74 42 68 43
REMARK SMILES IDX 70 44 21 45 73 46 67 47 66 48 22 50 54 51 34 52 53 53 35 54
REMARK SMILES IDX 38 55 52 56 71 57 36 58 37 59 51 61 72 62 39 63 23 64 24 65
REMARK SMILES IDX 32 66 25 67 31 68 33 69 30 70 26 71 27 72 28 73 29 74 55 75
REMARK SMILES IDX 56 76 64 77 57 78 63 79 65 80 62 81 58 82 59 83 60 84 61 85
REMARK SMILES IDX 40 86 41 87 49 88 42 89 48 90 50 91 47 92 43 93 44 94 45 95
REMARK SMILES IDX 46 96
REMARK H PARENT 70 49 38 60
REMARK Flexibility Score: inf
ROOT
ATOM      1  C   UNL     1       0.653   3.384  -3.047  1.00  0.00     0.274 C 
ENDROOT
BRANCH   1   2
ATOM      2  O   UNL     1       1.261   3.129  -1.758  1.00  0.00    -0.461 OA
BRANCH   2   3
ATOM      3  C   UNL     1       0.489   3.018  -0.642  1.00  0.00     0.329 C 
ATOM      4  O   UNL     1      -0.717   2.815  -0.699  1.00  0.00    -0.250 OA
BRANCH   3   5
ATOM      5  C   UNL     1       1.310   3.258   0.695  1.00  0.00     0.202 C 
BRANCH   5   6
ATOM      6  C   UNL     1       2.890   3.289   0.493  1.00  0.00     0.048 C 
BRANCH   6   7
ATOM      7  C   UNL     1       3.623   3.798  -0.807  1.00  0.00     0.072 C 
BRANCH   7   8
ATOM      8  S   UNL     1       3.756   5.516  -1.535  1.00  0.00    -0.165 SA
ATOM      9  C   UNL     1       2.062   6.062  -1.981  1.00  0.00     0.085 C 
ENDBRANCH   7   8
ENDBRANCH   6   7
ENDBRANCH   5   6
BRANCH   5  10
ATOM     10  N   UNL     1       0.574   4.297   2.006  1.00  0.00    -0.278 N 
ATOM     11  C   UNL     1       0.094   3.362   2.773  1.00  0.00     0.266 C 
ATOM     12  C   UNL     1       0.213   6.275   1.927  1.00  0.00     0.149 C 
ATOM     13  O   UNL     1       0.096   2.175   2.930  1.00  0.00    -0.268 OA
ATOM     14  C   UNL     1      -0.300   4.479   3.442  1.00  0.00     0.081 C 
ATOM     15  S   UNL     1      -0.837   6.836   2.810  1.00  0.00    -0.054 SA
ATOM     16  S   UNL     1       0.765   7.898   0.957  1.00  0.00    -0.052 S 
ATOM     17  C   UNL     1      -0.765   3.959   4.703  1.00  0.00     0.031 C 
BRANCH  17  18
ATOM     18  C   UNL     1      -1.450   4.966   5.403  1.00  0.00     0.001 A 
ATOM     19  C   UNL     1      -0.897   6.026   6.167  1.00  0.00     0.094 A 
ATOM     20  C   UNL     1      -1.516   5.572   4.151  1.00  0.00     0.007 A 
ATOM     21  N   UNL     1       0.237   6.623   5.568  1.00  0.00    -0.350 N 
ATOM     22  C   UNL     1       0.409   5.984   4.349  1.00  0.00     0.048 A 
ATOM     23  C   UNL     1      -1.792   5.013   2.244  1.00  0.00     0.011 A 
ATOM     24  C   UNL     1       0.579   8.039   5.646  1.00  0.00     0.149 C 
ATOM     25  C   UNL     1       1.727   5.791   2.941  1.00  0.00     0.027 A 
ATOM     26  C   UNL     1      -0.533   5.109   0.739  1.00  0.00     0.001 A 
ATOM     27  C   UNL     1       1.423   5.471   1.017  1.00  0.00     0.002 A 
ENDBRANCH  17  18
ENDBRANCH   5  10
ENDBRANCH   3   5
ENDBRANCH   2   3
ENDBRANCH   1   2
BRANCH   1  28
ATOM     28  C   UNL     1       0.629   2.193  -3.997  1.00  0.00     0.275 C 
BRANCH  28  29
ATOM     29  O   UNL     1      -0.299   1.216  -3.544  1.00  0.00    -0.458 OA
BRANCH  29  30
ATOM     30  C   UNL     1       0.200   0.431  -2.561  1.00  0.00     0.338 C 
ATOM     31  O   UNL     1       1.360   0.368  -2.187  1.00  0.00    -0.246 OA
BRANCH  30  32
ATOM     32  C   UNL     1      -0.928  -0.164  -1.842  1.00  0.00     0.060 A 
ATOM     33  C   UNL     1      -0.884  -0.117  -0.446  1.00  0.00     0.016 A 
ATOM     34  C   UNL     1      -2.003  -0.741  -2.520  1.00  0.00     0.016 A 
ATOM     35  C   UNL     1      -1.911  -0.671   0.289  1.00  0.00     0.010 A 
ATOM     36  C   UNL     1      -3.023  -1.327  -1.780  1.00  0.00     0.010 A 
ATOM     37  C   UNL     1      -2.955  -1.319  -0.377  1.00  0.00    -0.014 A 
BRANCH  37  38
ATOM     38  C   UNL     1      -3.862  -2.149   0.427  1.00  0.00     0.031 A 
ATOM     39  C   UNL     1      -3.632  -3.629   0.445  1.00  0.00     0.074 A 
ATOM     40  C   UNL     1      -4.787  -1.561   1.202  1.00  0.00     0.049 A 
ATOM     41  N   UNL     1      -4.297  -4.561   1.069  1.00  0.00    -0.248 NA
ATOM     42  C   UNL     1      -2.496  -4.126  -0.352  1.00  0.00     0.031 C 
ATOM     43  C   UNL     1      -5.013  -0.117   1.292  1.00  0.00     0.029 A 
ATOM     44  N   UNL     1      -5.693  -2.102   2.069  1.00  0.00    -0.354 N 
ATOM     45  C   UNL     1      -3.662  -5.754   0.744  1.00  0.00     0.074 A 
ATOM     46  C   UNL     1      -2.594  -5.434  -0.175  1.00  0.00     0.031 C 
ATOM     47  C   UNL     1      -6.001   0.112   2.171  1.00  0.00     0.029 A 
ATOM     48  C   UNL     1      -6.507  -1.167   2.660  1.00  0.00     0.049 A 
ATOM     49  H   UNL     1      -5.756  -3.067   2.252  1.00  0.00     0.167 HD
ATOM     50  C   UNL     1      -3.944  -6.999   1.194  1.00  0.00     0.034 A 
ATOM     51  C   UNL     1      -7.563  -1.341   3.475  1.00  0.00     0.034 A 
ATOM     52  C   UNL     1      -5.028  -7.278   2.102  1.00  0.00     0.049 A 
ATOM     53  C   UNL     1      -7.921  -2.750   3.877  1.00  0.00     0.074 A 
ATOM     54  C   UNL     1      -5.437  -8.497   2.609  1.00  0.00     0.029 A 
ATOM     55  N   UNL     1      -5.881  -6.318   2.637  1.00  0.00    -0.354 N 
ATOM     56  N   UNL     1      -7.335  -3.881   3.546  1.00  0.00    -0.248 NA
ATOM     57  C   UNL     1      -9.070  -2.906   4.772  1.00  0.00     0.031 C 
ATOM     58  C   UNL     1      -6.583  -8.284   3.383  1.00  0.00     0.029 A 
ATOM     59  C   UNL     1      -6.833  -6.922   3.443  1.00  0.00     0.049 A 
ATOM     60  H   UNL     1      -5.817  -5.350   2.468  1.00  0.00     0.167 HD
ATOM     61  C   UNL     1      -8.033  -4.880   4.218  1.00  0.00     0.074 A 
ATOM     62  C   UNL     1      -9.055  -4.210   4.997  1.00  0.00     0.031 C 
ATOM     63  C   UNL     1      -7.855  -6.228   4.193  1.00  0.00     0.034 A 
BRANCH  50  64
ATOM     64  C   UNL     1      -3.106  -8.136   0.665  1.00  0.00     0.023 A 
ATOM     65  C   UNL     1      -1.724  -8.216   0.913  1.00  0.00     0.031 A 
ATOM     66  C   UNL     1      -3.691  -9.139  -0.127  1.00  0.00     0.131 A 
ATOM     67  C   UNL     1      -0.965  -9.239   0.324  1.00  0.00     0.055 A 
ATOM     68  C   UNL     1      -2.946 -10.202  -0.639  1.00  0.00     0.041 A 
ATOM     69  F   UNL     1      -4.998  -9.095  -0.429  1.00  0.00    -0.206 F 
ATOM     70  C   UNL     1      -1.572 -10.250  -0.425  1.00  0.00     0.022 A 
BRANCH  67  71
ATOM     71  S   UNL     1       0.844  -9.150   0.430  1.00  0.00     0.124 S 
ATOM     72  O   UNL     1       1.114  -7.869  -0.217  1.00  0.00    -0.237 OA
ATOM     73  O   UNL     1       1.080  -9.203   1.867  1.00  0.00    -0.237 OA
ATOM     74  O   UNL     1       1.289 -10.323  -0.320  1.00  0.00    -0.744 OA
ENDBRANCH  67  71
ENDBRANCH  50  64
BRANCH  51  75
ATOM     75  C   UNL     1      -8.383  -0.175   3.909  1.00  0.00     0.023 A 
ATOM     76  C   UNL     1      -8.553   0.137   5.266  1.00  0.00     0.031 A 
ATOM     77  C   UNL     1      -9.069   0.611   2.963  1.00  0.00     0.131 A 
ATOM     78  C   UNL     1      -9.435   1.162   5.642  1.00  0.00     0.055 A 
ATOM     79  C   UNL     1      -9.886   1.677   3.339  1.00  0.00     0.041 A 
ATOM     80  F   UNL     1      -8.950   0.354   1.650  1.00  0.00    -0.206 F 
ATOM     81  C   UNL     1     -10.088   1.946   4.687  1.00  0.00     0.022 A 
BRANCH  78  82
ATOM     82  S   UNL     1      -9.819   1.372   7.402  1.00  0.00     0.124 S 
ATOM     83  O   UNL     1     -10.296   0.041   7.761  1.00  0.00    -0.237 OA
ATOM     84  O   UNL     1      -8.525   1.760   7.951  1.00  0.00    -0.237 OA
ATOM     85  O   UNL     1     -10.836   2.422   7.404  1.00  0.00    -0.744 OA
ENDBRANCH  78  82
ENDBRANCH  51  75
BRANCH  63  86
ATOM     86  C   UNL     1      -8.774  -7.045   5.071  1.00  0.00     0.023 A 
ATOM     87  C   UNL     1     -10.165  -7.053   4.873  1.00  0.00     0.031 A 
ATOM     88  C   UNL     1      -8.256  -7.782   6.151  1.00  0.00     0.131 A 
ATOM     89  C   UNL     1     -10.997  -7.693   5.802  1.00  0.00     0.055 A 
ATOM     90  C   UNL     1      -9.085  -8.497   7.016  1.00  0.00     0.041 A 
ATOM     91  F   UNL     1      -6.936  -7.811   6.392  1.00  0.00    -0.206 F 
ATOM     92  C   UNL     1     -10.466  -8.435   6.859  1.00  0.00     0.022 A 
BRANCH  89  93
ATOM     93  S   UNL     1     -12.784  -7.399   5.703  1.00  0.00     0.124 S 
ATOM     94  O   UNL     1     -12.852  -5.943   5.770  1.00  0.00    -0.237 OA
ATOM     95  O   UNL     1     -13.128  -7.994   4.416  1.00  0.00    -0.237 OA
ATOM     96  O   UNL     1     -13.311  -8.100   6.872  1.00  0.00    -0.744 OA
ENDBRANCH  89  93
ENDBRANCH  63  86
ENDBRANCH  37  38
ENDBRANCH  30  32
ENDBRANCH  29  30
ENDBRANCH  28  29
ENDBRANCH   1  28
TORSDOF 19
