REMARK SMILES C=CCN(CC(=O)OCCOC(=O)c1ccc(-c2c3nc(c(-c4cc(S(=O)(=O)[O-])ccc4F)c4ccc([nH]4)c(-c4cc(S(=O)(=O)[O-])ccc4F)c4nc(c(-c5cc(S(=O)(=O)[O-])ccc5F)c5ccc2[nH]5)C=C4)C=C3)cc1)C(=O)c1sc(N)nc1C
REMARK SMILES IDX 9 1 8 2 6 3 7 4 5 5 4 6 3 7 2 8 1 9 77 10 78 11 79 12 80 13
REMARK SMILES IDX 84 14 81 15 83 16 85 17 82 18 10 21 11 22 12 23 13 24 14 25
REMARK SMILES IDX 15 26 76 27 16 28 75 29 17 30 18 31 19 32 69 33 20 34 74 35
REMARK SMILES IDX 68 36 70 37 21 38 73 39 67 40 66 41 22 43 54 44 34 45 53 46
REMARK SMILES IDX 35 47 38 48 52 49 71 50 36 51 37 52 51 54 72 55 39 56 23 57
REMARK SMILES IDX 24 58 32 59 25 60 31 61 33 62 30 63 26 64 27 65 28 66 29 67
REMARK SMILES IDX 55 68 56 69 64 70 57 71 63 72 65 73 62 74 58 75 59 76 60 77
REMARK SMILES IDX 61 78 40 79 41 80 49 81 42 82 48 83 50 84 47 85 43 86 44 87
REMARK SMILES IDX 45 88 46 89
REMARK H PARENT 82 19 82 20 70 42 38 53
REMARK Flexibility Score: inf
ROOT
ATOM      1  C   UNL     1      -5.879   1.226  -2.208  1.00  0.00     0.274 C 
ENDROOT
BRANCH   1   2
ATOM      2  O   UNL     1      -4.476   1.147  -1.844  1.00  0.00    -0.461 OA
BRANCH   2   3
ATOM      3  C   UNL     1      -3.635   0.788  -2.852  1.00  0.00     0.325 C 
ATOM      4  O   UNL     1      -4.023   0.405  -3.955  1.00  0.00    -0.250 OA
BRANCH   3   5
ATOM      5  C   UNL     1      -2.145   1.070  -2.593  1.00  0.00     0.242 C 
BRANCH   5   6
ATOM      6  N   UNL     1      -1.580   1.099  -1.238  1.00  0.00    -0.323 N 
BRANCH   6   7
ATOM      7  C   UNL     1      -1.294  -0.192  -0.632  1.00  0.00     0.147 C 
BRANCH   7   8
ATOM      8  C   UNL     1       0.097  -0.619  -1.010  1.00  0.00    -0.014 C 
ATOM      9  C   UNL     1       1.131  -0.644  -0.157  1.00  0.00     0.006 C 
ENDBRANCH   7   8
ENDBRANCH   6   7
BRANCH   6  10
ATOM     10  C   UNL     1      -1.177   2.240  -0.523  1.00  0.00     0.266 C 
ATOM     11  O   UNL     1      -0.574   2.116   0.546  1.00  0.00    -0.268 OA
BRANCH  10  12
ATOM     12  C   UNL     1      -1.575   3.557  -0.958  1.00  0.00     0.117 A 
ATOM     13  S   UNL     1      -0.722   4.467  -2.127  1.00  0.00    -0.092 S 
ATOM     14  C   UNL     1      -2.564   4.340  -0.386  1.00  0.00     0.063 A 
ATOM     15  C   UNL     1      -1.800   5.787  -1.868  1.00  0.00     0.180 A 
ATOM     16  N   UNL     1      -2.685   5.616  -0.916  1.00  0.00    -0.225 NA
ATOM     17  C   UNL     1      -3.528   3.902   0.653  1.00  0.00     0.068 C 
BRANCH  15  18
ATOM     18  N   UNL     1      -1.730   6.913  -2.587  1.00  0.00    -0.375 N 
ATOM     19  H   UNL     1      -1.051   7.005  -3.294  1.00  0.00     0.159 HD
ATOM     20  H   UNL     1      -2.357   7.651  -2.408  1.00  0.00     0.159 HD
ENDBRANCH  15  18
ENDBRANCH  10  12
ENDBRANCH   6  10
ENDBRANCH   5   6
ENDBRANCH   3   5
ENDBRANCH   2   3
ENDBRANCH   1   2
BRANCH   1  21
ATOM     21  C   UNL     1      -6.355   2.646  -2.587  1.00  0.00     0.275 C 
BRANCH  21  22
ATOM     22  O   UNL     1      -5.819   3.138  -3.836  1.00  0.00    -0.458 OA
BRANCH  22  23
ATOM     23  C   UNL     1      -4.582   3.640  -3.690  1.00  0.00     0.338 C 
ATOM     24  O   UNL     1      -3.935   3.601  -2.647  1.00  0.00    -0.246 OA
BRANCH  23  25
ATOM     25  C   UNL     1      -3.951   4.186  -4.880  1.00  0.00     0.060 A 
ATOM     26  C   UNL     1      -2.946   3.430  -5.494  1.00  0.00     0.016 A 
ATOM     27  C   UNL     1      -4.120   5.538  -5.181  1.00  0.00     0.016 A 
ATOM     28  C   UNL     1      -2.094   4.031  -6.414  1.00  0.00     0.010 A 
ATOM     29  C   UNL     1      -3.290   6.129  -6.133  1.00  0.00     0.010 A 
ATOM     30  C   UNL     1      -2.276   5.378  -6.752  1.00  0.00    -0.014 A 
BRANCH  30  31
ATOM     31  C   UNL     1      -1.527   5.963  -7.883  1.00  0.00     0.031 A 
ATOM     32  C   UNL     1      -0.407   6.930  -7.670  1.00  0.00     0.074 A 
ATOM     33  C   UNL     1      -1.959   5.647  -9.117  1.00  0.00     0.049 A 
ATOM     34  N   UNL     1       0.203   7.687  -8.544  1.00  0.00    -0.248 NA
ATOM     35  C   UNL     1       0.090   7.070  -6.296  1.00  0.00     0.031 C 
ATOM     36  C   UNL     1      -3.030   4.687  -9.406  1.00  0.00     0.029 A 
ATOM     37  N   UNL     1      -1.592   6.122 -10.345  1.00  0.00    -0.354 N 
ATOM     38  C   UNL     1       1.150   8.410  -7.828  1.00  0.00     0.074 A 
ATOM     39  C   UNL     1       1.020   8.008  -6.441  1.00  0.00     0.031 C 
ATOM     40  C   UNL     1      -3.268   4.683 -10.723  1.00  0.00     0.029 A 
ATOM     41  C   UNL     1      -2.410   5.676 -11.354  1.00  0.00     0.049 A 
ATOM     42  H   UNL     1      -0.824   6.721 -10.491  1.00  0.00     0.167 HD
ATOM     43  C   UNL     1       2.038   9.322  -8.302  1.00  0.00     0.034 A 
ATOM     44  C   UNL     1      -2.507   6.072 -12.635  1.00  0.00     0.034 A 
ATOM     45  C   UNL     1       2.129   9.688  -9.698  1.00  0.00     0.049 A 
ATOM     46  C   UNL     1      -1.567   7.130 -13.126  1.00  0.00     0.074 A 
ATOM     47  C   UNL     1       3.014  10.559 -10.310  1.00  0.00     0.029 A 
ATOM     48  N   UNL     1       1.290   9.212 -10.701  1.00  0.00    -0.354 N 
ATOM     49  N   UNL     1      -0.670   7.807 -12.446  1.00  0.00    -0.248 NA
ATOM     50  C   UNL     1      -1.638   7.467 -14.549  1.00  0.00     0.031 C 
ATOM     51  C   UNL     1       2.672  10.654 -11.666  1.00  0.00     0.029 A 
ATOM     52  C   UNL     1       1.614   9.795 -11.916  1.00  0.00     0.049 A 
ATOM     53  H   UNL     1       0.570   8.554 -10.567  1.00  0.00     0.167 HD
ATOM     54  C   UNL     1      -0.051   8.640 -13.367  1.00  0.00     0.074 A 
ATOM     55  C   UNL     1      -0.679   8.377 -14.649  1.00  0.00     0.031 C 
ATOM     56  C   UNL     1       0.956   9.530 -13.175  1.00  0.00     0.034 A 
BRANCH  43  57
ATOM     57  C   UNL     1       2.933  10.020  -7.304  1.00  0.00     0.023 A 
ATOM     58  C   UNL     1       3.907   9.329  -6.563  1.00  0.00     0.031 A 
ATOM     59  C   UNL     1       2.803  11.404  -7.087  1.00  0.00     0.131 A 
ATOM     60  C   UNL     1       4.672  10.011  -5.602  1.00  0.00     0.055 A 
ATOM     61  C   UNL     1       3.612  12.089  -6.177  1.00  0.00     0.041 A 
ATOM     62  F   UNL     1       1.879  12.115  -7.751  1.00  0.00    -0.206 F 
ATOM     63  C   UNL     1       4.545  11.390  -5.418  1.00  0.00     0.022 A 
BRANCH  60  64
ATOM     64  S   UNL     1       5.749   9.049  -4.503  1.00  0.00     0.124 S 
ATOM     65  O   UNL     1       4.801   8.111  -3.907  1.00  0.00    -0.237 OA
ATOM     66  O   UNL     1       6.716   8.477  -5.433  1.00  0.00    -0.237 OA
ATOM     67  O   UNL     1       6.285  10.051  -3.583  1.00  0.00    -0.744 OA
ENDBRANCH  60  64
ENDBRANCH  43  57
BRANCH  44  68
ATOM     68  C   UNL     1      -3.576   5.496 -13.489  1.00  0.00     0.023 A 
ATOM     69  C   UNL     1      -3.278   4.580 -14.505  1.00  0.00     0.031 A 
ATOM     70  C   UNL     1      -4.927   5.803 -13.241  1.00  0.00     0.131 A 
ATOM     71  C   UNL     1      -4.322   4.001 -15.243  1.00  0.00     0.055 A 
ATOM     72  C   UNL     1      -5.962   5.201 -13.955  1.00  0.00     0.041 A 
ATOM     73  F   UNL     1      -5.259   6.659 -12.260  1.00  0.00    -0.206 F 
ATOM     74  C   UNL     1      -5.660   4.295 -14.967  1.00  0.00     0.022 A 
BRANCH  71  75
ATOM     75  S   UNL     1      -3.902   2.861 -16.588  1.00  0.00     0.124 S 
ATOM     76  O   UNL     1      -3.075   3.702 -17.446  1.00  0.00    -0.237 OA
ATOM     77  O   UNL     1      -3.207   1.794 -15.874  1.00  0.00    -0.237 OA
ATOM     78  O   UNL     1      -5.203   2.493 -17.141  1.00  0.00    -0.744 OA
ENDBRANCH  71  75
ENDBRANCH  44  68
BRANCH  56  79
ATOM     79  C   UNL     1       1.454  10.243 -14.401  1.00  0.00     0.023 A 
ATOM     80  C   UNL     1       0.696  11.249 -15.023  1.00  0.00     0.031 A 
ATOM     81  C   UNL     1       2.692   9.889 -14.965  1.00  0.00     0.131 A 
ATOM     82  C   UNL     1       1.165  11.838 -16.206  1.00  0.00     0.055 A 
ATOM     83  C   UNL     1       3.174  10.512 -16.115  1.00  0.00     0.041 A 
ATOM     84  F   UNL     1       3.447   8.930 -14.406  1.00  0.00    -0.206 F 
ATOM     85  C   UNL     1       2.405  11.485 -16.748  1.00  0.00     0.022 A 
BRANCH  82  86
ATOM     86  S   UNL     1       0.104  13.030 -17.065  1.00  0.00     0.124 S 
ATOM     87  O   UNL     1      -1.034  12.200 -17.445  1.00  0.00    -0.237 OA
ATOM     88  O   UNL     1      -0.151  14.027 -16.031  1.00  0.00    -0.237 OA
ATOM     89  O   UNL     1       0.935  13.490 -18.176  1.00  0.00    -0.744 OA
ENDBRANCH  82  86
ENDBRANCH  56  79
ENDBRANCH  30  31
ENDBRANCH  23  25
ENDBRANCH  22  23
ENDBRANCH  21  22
ENDBRANCH   1  21
TORSDOF 20
