REMARK SMILES O=C(OCCOC(=O)c1ccc(-n2cc(CSc3nc4ccccc4c(=O)n3-c3ccc(Cl)cc3)nn2)cc1)c1ccc(-c2c3nc(c(-c4cc(S(=O)(=O)[O-])ccc4F)c4ccc([nH]4)c(-c4cc(S(=O)(=O)[O-])ccc4F)c4nc(c(-c5cc(S(=O)(=O)[O-])ccc5F)c5ccc2[nH]5)C=C4)C=C3)cc1
REMARK SMILES IDX 5 1 4 2 3 3 2 4 1 5 40 6 41 7 102 8 42 9 101 10 43 11 44 12
REMARK SMILES IDX 45 13 95 14 46 15 100 16 94 17 96 18 47 19 99 20 93 21 92 22
REMARK SMILES IDX 48 24 80 25 60 26 79 27 61 28 64 29 78 30 97 31 62 32 63 33
REMARK SMILES IDX 77 35 98 36 65 37 49 38 50 39 58 40 51 41 57 42 59 43 56 44
REMARK SMILES IDX 52 45 53 46 54 47 55 48 81 49 82 50 90 51 83 52 89 53 91 54
REMARK SMILES IDX 88 55 84 56 85 57 86 58 87 59 66 60 67 61 75 62 68 63 74 64
REMARK SMILES IDX 76 65 73 66 69 67 70 68 71 69 72 70 6 71 7 72 8 73 9 74
REMARK SMILES IDX 10 75 39 76 11 77 38 78 12 79 13 80 14 81 37 82 15 83 36 84
REMARK SMILES IDX 16 85 17 86 18 87 19 88 28 89 20 90 26 91 21 92 25 93 27 94
REMARK SMILES IDX 22 95 24 96 23 97 29 98 30 99 35 100 31 101 34 102 32 103
REMARK SMILES IDX 33 104
REMARK H PARENT 96 23 64 34
REMARK Flexibility Score: inf
ROOT
ATOM      1  C   UNL     1       4.520  -0.443   1.405  1.00  0.00     0.275 C 
ENDROOT
BRANCH   1   2
ATOM      2  C   UNL     1       4.662   0.787   0.507  1.00  0.00     0.275 C 
BRANCH   2   3
ATOM      3  O   UNL     1       3.448   1.359  -0.020  1.00  0.00    -0.458 OA
BRANCH   3   4
ATOM      4  C   UNL     1       2.412   0.559  -0.353  1.00  0.00     0.338 C 
ATOM      5  O   UNL     1       1.434   0.396   0.364  1.00  0.00    -0.246 OA
BRANCH   4   6
ATOM      6  C   UNL     1       2.428   0.120  -1.770  1.00  0.00     0.060 A 
ATOM      7  C   UNL     1       3.598  -0.160  -2.481  1.00  0.00     0.016 A 
ATOM      8  C   UNL     1       1.184  -0.044  -2.393  1.00  0.00     0.016 A 
ATOM      9  C   UNL     1       3.528  -0.496  -3.829  1.00  0.00     0.010 A 
ATOM     10  C   UNL     1       1.113  -0.418  -3.727  1.00  0.00     0.010 A 
ATOM     11  C   UNL     1       2.285  -0.581  -4.466  1.00  0.00    -0.014 A 
BRANCH  11  12
ATOM     12  C   UNL     1       2.238  -0.945  -5.886  1.00  0.00     0.031 A 
ATOM     13  C   UNL     1       2.935  -2.223  -6.240  1.00  0.00     0.074 A 
ATOM     14  C   UNL     1       1.488  -0.282  -6.794  1.00  0.00     0.049 A 
ATOM     15  N   UNL     1       3.912  -2.426  -7.065  1.00  0.00    -0.248 NA
ATOM     16  C   UNL     1       2.556  -3.420  -5.479  1.00  0.00     0.031 C 
ATOM     17  C   UNL     1       0.562   0.835  -6.588  1.00  0.00     0.029 A 
ATOM     18  N   UNL     1       1.334  -0.545  -8.121  1.00  0.00    -0.354 N 
ATOM     19  C   UNL     1       4.145  -3.804  -7.064  1.00  0.00     0.074 A 
ATOM     20  C   UNL     1       3.397  -4.330  -5.969  1.00  0.00     0.031 C 
ATOM     21  C   UNL     1      -0.216   0.991  -7.686  1.00  0.00     0.029 A 
ATOM     22  C   UNL     1       0.257   0.096  -8.729  1.00  0.00     0.049 A 
ATOM     23  H   UNL     1       1.940  -1.145  -8.614  1.00  0.00     0.167 HD
ATOM     24  C   UNL     1       4.803  -4.459  -8.062  1.00  0.00     0.034 A 
ATOM     25  C   UNL     1      -0.225  -0.113  -9.987  1.00  0.00     0.034 A 
ATOM     26  C   UNL     1       5.626  -3.553  -8.813  1.00  0.00     0.049 A 
ATOM     27  C   UNL     1       0.877  -0.748 -10.754  1.00  0.00     0.074 A 
ATOM     28  C   UNL     1       6.681  -2.732  -8.466  1.00  0.00     0.029 A 
ATOM     29  N   UNL     1       5.122  -3.034  -9.982  1.00  0.00    -0.354 N 
ATOM     30  N   UNL     1       2.001  -0.136 -11.013  1.00  0.00    -0.248 NA
ATOM     31  C   UNL     1       0.945  -2.203 -10.767  1.00  0.00     0.031 C 
ATOM     32  C   UNL     1       6.362  -1.486  -9.081  1.00  0.00     0.029 A 
ATOM     33  C   UNL     1       5.219  -1.667  -9.864  1.00  0.00     0.049 A 
ATOM     34  H   UNL     1       4.765  -3.538 -10.748  1.00  0.00     0.167 HD
ATOM     35  C   UNL     1       2.987  -1.085 -10.793  1.00  0.00     0.074 A 
ATOM     36  C   UNL     1       2.272  -2.362 -10.716  1.00  0.00     0.031 C 
ATOM     37  C   UNL     1       4.252  -0.735 -10.414  1.00  0.00     0.034 A 
BRANCH  24  38
ATOM     38  C   UNL     1       4.485  -5.861  -8.537  1.00  0.00     0.023 A 
ATOM     39  C   UNL     1       5.295  -6.426  -9.543  1.00  0.00     0.031 A 
ATOM     40  C   UNL     1       3.276  -6.545  -8.268  1.00  0.00     0.131 A 
ATOM     41  C   UNL     1       4.865  -7.552 -10.271  1.00  0.00     0.055 A 
ATOM     42  C   UNL     1       2.888  -7.706  -8.944  1.00  0.00     0.041 A 
ATOM     43  F   UNL     1       2.355  -6.068  -7.423  1.00  0.00    -0.206 F 
ATOM     44  C   UNL     1       3.668  -8.200  -9.974  1.00  0.00     0.022 A 
BRANCH  41  45
ATOM     45  S   UNL     1       5.806  -8.048 -11.741  1.00  0.00     0.124 S 
ATOM     46  O   UNL     1       5.878  -6.797 -12.488  1.00  0.00    -0.237 OA
ATOM     47  O   UNL     1       7.056  -8.519 -11.155  1.00  0.00    -0.237 OA
ATOM     48  O   UNL     1       4.974  -9.086 -12.345  1.00  0.00    -0.744 OA
ENDBRANCH  41  45
ENDBRANCH  24  38
BRANCH  25  49
ATOM     49  C   UNL     1      -1.654  -0.136 -10.426  1.00  0.00     0.023 A 
ATOM     50  C   UNL     1      -2.072   0.042 -11.767  1.00  0.00     0.031 A 
ATOM     51  C   UNL     1      -2.635  -0.595  -9.519  1.00  0.00     0.131 A 
ATOM     52  C   UNL     1      -3.414  -0.230 -12.141  1.00  0.00     0.055 A 
ATOM     53  C   UNL     1      -3.952  -0.869  -9.895  1.00  0.00     0.041 A 
ATOM     54  F   UNL     1      -2.322  -0.873  -8.243  1.00  0.00    -0.206 F 
ATOM     55  C   UNL     1      -4.346  -0.696 -11.211  1.00  0.00     0.022 A 
BRANCH  52  56
ATOM     56  S   UNL     1      -3.968  -0.049 -13.874  1.00  0.00     0.124 S 
ATOM     57  O   UNL     1      -3.868   1.391 -14.085  1.00  0.00    -0.237 OA
ATOM     58  O   UNL     1      -3.014  -0.879 -14.600  1.00  0.00    -0.237 OA
ATOM     59  O   UNL     1      -5.337  -0.569 -13.854  1.00  0.00    -0.744 OA
ENDBRANCH  52  56
ENDBRANCH  25  49
BRANCH  37  60
ATOM     60  C   UNL     1       4.627   0.738 -10.374  1.00  0.00     0.023 A 
ATOM     61  C   UNL     1       3.949   1.734  -9.628  1.00  0.00     0.031 A 
ATOM     62  C   UNL     1       5.823   1.111 -11.011  1.00  0.00     0.131 A 
ATOM     63  C   UNL     1       4.475   3.041  -9.552  1.00  0.00     0.055 A 
ATOM     64  C   UNL     1       6.355   2.395 -10.908  1.00  0.00     0.041 A 
ATOM     65  F   UNL     1       6.530   0.209 -11.714  1.00  0.00    -0.206 F 
ATOM     66  C   UNL     1       5.679   3.367 -10.183  1.00  0.00     0.022 A 
BRANCH  63  67
ATOM     67  S   UNL     1       3.594   4.362  -8.651  1.00  0.00     0.124 S 
ATOM     68  O   UNL     1       2.218   4.235  -9.114  1.00  0.00    -0.237 OA
ATOM     69  O   UNL     1       3.836   4.011  -7.254  1.00  0.00    -0.237 OA
ATOM     70  O   UNL     1       4.272   5.583  -9.093  1.00  0.00    -0.744 OA
ENDBRANCH  63  67
ENDBRANCH  37  60
ENDBRANCH  11  12
ENDBRANCH   4   6
ENDBRANCH   3   4
ENDBRANCH   2   3
ENDBRANCH   1   2
BRANCH   1  71
ATOM     71  O   UNL     1       4.076  -1.576   0.641  1.00  0.00    -0.458 OA
BRANCH  71  72
ATOM     72  C   UNL     1       2.981  -2.227   1.103  1.00  0.00     0.338 C 
ATOM     73  O   UNL     1       2.364  -2.026   2.137  1.00  0.00    -0.246 OA
BRANCH  72  74
ATOM     74  C   UNL     1       2.614  -3.234   0.096  1.00  0.00     0.060 A 
ATOM     75  C   UNL     1       1.443  -3.071  -0.652  1.00  0.00     0.018 A 
ATOM     76  C   UNL     1       3.450  -4.337  -0.108  1.00  0.00     0.018 A 
ATOM     77  C   UNL     1       1.131  -3.983  -1.661  1.00  0.00     0.029 A 
ATOM     78  C   UNL     1       3.123  -5.273  -1.088  1.00  0.00     0.029 A 
ATOM     79  C   UNL     1       1.980  -5.072  -1.876  1.00  0.00     0.066 A 
BRANCH  79  80
ATOM     80  N   UNL     1       1.569  -6.075  -2.767  1.00  0.00    -0.220 N 
ATOM     81  C   UNL     1       1.050  -7.279  -2.396  1.00  0.00     0.141 A 
ATOM     82  N   UNL     1       1.947  -6.143  -4.043  1.00  0.00    -0.062 NA
ATOM     83  C   UNL     1       1.016  -8.057  -3.526  1.00  0.00     0.093 A 
ATOM     84  N   UNL     1       1.582  -7.322  -4.535  1.00  0.00    -0.134 NA
BRANCH  83  85
ATOM     85  C   UNL     1       0.815  -9.516  -3.693  1.00  0.00     0.138 C 
BRANCH  85  86
ATOM     86  S   UNL     1      -0.773 -10.347  -3.664  1.00  0.00    -0.081 SA
BRANCH  86  87
ATOM     87  C   UNL     1      -2.047  -9.371  -2.990  1.00  0.00     0.176 A 
ATOM     88  N   UNL     1      -3.171  -9.525  -3.628  1.00  0.00    -0.223 NA
ATOM     89  N   UNL     1      -1.946  -8.530  -1.893  1.00  0.00    -0.255 N 
ATOM     90  C   UNL     1      -4.245  -8.697  -3.292  1.00  0.00     0.079 A 
ATOM     91  C   UNL     1      -2.685  -7.344  -2.029  1.00  0.00     0.266 A 
ATOM     92  C   UNL     1      -5.545  -9.004  -3.689  1.00  0.00     0.029 A 
ATOM     93  C   UNL     1      -4.008  -7.488  -2.655  1.00  0.00     0.066 A 
ATOM     94  O   UNL     1      -2.326  -6.221  -1.680  1.00  0.00    -0.268 OA
ATOM     95  C   UNL     1      -6.573  -8.070  -3.512  1.00  0.00     0.002 A 
ATOM     96  C   UNL     1      -5.005  -6.517  -2.534  1.00  0.00     0.016 A 
ATOM     97  C   UNL     1      -6.294  -6.811  -2.975  1.00  0.00     0.001 A 
BRANCH  89  98
ATOM     98  C   UNL     1      -1.114  -8.707  -0.715  1.00  0.00     0.051 A 
ATOM     99  C   UNL     1      -1.177  -7.772   0.343  1.00  0.00     0.028 A 
ATOM    100  C   UNL     1      -0.161  -9.725  -0.567  1.00  0.00     0.028 A 
ATOM    101  C   UNL     1      -0.168  -7.677   1.310  1.00  0.00     0.022 A 
ATOM    102  C   UNL     1       0.889  -9.604   0.358  1.00  0.00     0.022 A 
ATOM    103  C   UNL     1       0.907  -8.549   1.261  1.00  0.00     0.041 A 
ATOM    104  Cl  UNL     1       2.269  -8.298   2.275  1.00  0.00    -0.084 Cl
ENDBRANCH  89  98
ENDBRANCH  86  87
ENDBRANCH  85  86
ENDBRANCH  83  85
ENDBRANCH  79  80
ENDBRANCH  72  74
ENDBRANCH  71  72
ENDBRANCH   1  71
TORSDOF 19
