REMARK SMILES [NH3+]CCOCC(=O)N[C@H](C(=O)OCCOC(=O)c1ccc(-c2c3nc(c(-c4cc(S(=O)(=O)[O-])ccc4F)c4ccc([nH]4)c(-c4cc(S(=O)(=O)[O-])ccc4F)c4nc(c(-c5cc(S(=O)(=O)[O-])ccc5F)c5ccc2[nH]5)C=C4)C=C3)cc1)c1ccccc1
REMARK SMILES IDX 12 1 10 2 11 3 9 4 8 5 6 6 7 7 5 9 4 10 3 11 2 12 1 13 81 17
REMARK SMILES IDX 82 18 86 19 83 20 85 21 84 22 13 23 14 24 15 25 16 26 17 27
REMARK SMILES IDX 18 28 19 29 80 30 20 31 79 32 21 33 22 34 23 35 73 36 24 37
REMARK SMILES IDX 78 38 72 39 74 40 25 41 77 42 71 43 70 44 26 46 58 47 38 48
REMARK SMILES IDX 57 49 39 50 42 51 56 52 75 53 40 54 41 55 55 57 76 58 43 59
REMARK SMILES IDX 27 60 28 61 36 62 29 63 35 64 37 65 34 66 30 67 31 68 32 69
REMARK SMILES IDX 33 70 59 71 60 72 68 73 61 74 67 75 69 76 66 77 62 78 63 79
REMARK SMILES IDX 64 80 65 81 44 82 45 83 53 84 46 85 52 86 54 87 51 88 47 89
REMARK SMILES IDX 48 90 49 91 50 92
REMARK H PARENT 8 8 1 14 1 15 1 16 74 45 42 56
REMARK Flexibility Score: inf
ROOT
ATOM      1  O   UNL     1       2.240   1.338   2.415  1.00  0.00    -0.460 OA
ENDROOT
BRANCH   1   2
ATOM      2  C   UNL     1       3.078   1.302   3.496  1.00  0.00     0.333 C 
ATOM      3  O   UNL     1       4.245   0.935   3.417  1.00  0.00    -0.249 OA
BRANCH   2   4
ATOM      4  C   UNL     1       2.360   1.649   4.818  1.00  0.00     0.223 C 
BRANCH   4   5
ATOM      5  N   UNL     1       2.952   0.796   5.867  1.00  0.00    -0.337 N 
ATOM      6  C   UNL     1       4.184   0.799   6.453  1.00  0.00     0.246 C 
ATOM      7  O   UNL     1       4.483  -0.198   7.122  1.00  0.00    -0.272 OA
ATOM      8  H   UNL     1       2.348   0.097   6.207  1.00  0.00     0.164 HD
BRANCH   6   9
ATOM      9  C   UNL     1       5.175   1.979   6.333  1.00  0.00     0.260 C 
BRANCH   9  10
ATOM     10  O   UNL     1       6.029   2.105   5.218  1.00  0.00    -0.366 OA
BRANCH  10  11
ATOM     11  C   UNL     1       6.795   0.949   4.889  1.00  0.00     0.222 C 
BRANCH  11  12
ATOM     12  C   UNL     1       8.123   0.845   5.654  1.00  0.00     0.287 C 
BRANCH  12  13
ATOM     13  N   UNL     1       7.993   0.433   7.052  1.00  0.00    -0.356 N 
ATOM     14  H   UNL     1       8.917   0.391   7.481  1.00  0.00     0.344 HD
ATOM     15  H   UNL     1       7.555  -0.487   7.096  1.00  0.00     0.344 HD
ATOM     16  H   UNL     1       7.416   1.109   7.553  1.00  0.00     0.344 HD
ENDBRANCH  12  13
ENDBRANCH  11  12
ENDBRANCH  10  11
ENDBRANCH   9  10
ENDBRANCH   6   9
ENDBRANCH   4   5
BRANCH   4  17
ATOM     17  C   UNL     1       2.166   3.112   5.184  1.00  0.00    -0.014 A 
ATOM     18  C   UNL     1       2.159   3.534   6.529  1.00  0.00     0.006 A 
ATOM     19  C   UNL     1       1.878   4.083   4.209  1.00  0.00     0.006 A 
ATOM     20  C   UNL     1       2.024   4.882   6.872  1.00  0.00     0.000 A 
ATOM     21  C   UNL     1       1.723   5.432   4.553  1.00  0.00     0.000 A 
ATOM     22  C   UNL     1       1.823   5.834   5.881  1.00  0.00     0.000 A 
ENDBRANCH   4  17
ENDBRANCH   2   4
ENDBRANCH   1   2
BRANCH   1  23
ATOM     23  C   UNL     1       2.841   0.848   1.196  1.00  0.00     0.274 C 
BRANCH  23  24
ATOM     24  C   UNL     1       3.396   1.982   0.338  1.00  0.00     0.275 C 
BRANCH  24  25
ATOM     25  O   UNL     1       4.236   2.838   1.128  1.00  0.00    -0.458 OA
BRANCH  25  26
ATOM     26  C   UNL     1       4.093   4.162   0.889  1.00  0.00     0.338 C 
ATOM     27  O   UNL     1       3.395   4.665   0.018  1.00  0.00    -0.246 OA
BRANCH  26  28
ATOM     28  C   UNL     1       4.873   4.968   1.852  1.00  0.00     0.060 A 
ATOM     29  C   UNL     1       4.975   4.596   3.192  1.00  0.00     0.016 A 
ATOM     30  C   UNL     1       5.379   6.200   1.437  1.00  0.00     0.016 A 
ATOM     31  C   UNL     1       5.446   5.508   4.139  1.00  0.00     0.010 A 
ATOM     32  C   UNL     1       5.943   7.072   2.372  1.00  0.00     0.010 A 
ATOM     33  C   UNL     1       5.922   6.764   3.744  1.00  0.00    -0.014 A 
BRANCH  33  34
ATOM     34  C   UNL     1       6.287   7.805   4.747  1.00  0.00     0.031 A 
ATOM     35  C   UNL     1       5.543   9.118   4.753  1.00  0.00     0.074 A 
ATOM     36  C   UNL     1       7.257   7.593   5.658  1.00  0.00     0.049 A 
ATOM     37  N   UNL     1       5.832  10.240   5.360  1.00  0.00    -0.248 NA
ATOM     38  C   UNL     1       4.313   9.175   3.946  1.00  0.00     0.031 C 
ATOM     39  C   UNL     1       8.008   6.349   5.828  1.00  0.00     0.029 A 
ATOM     40  N   UNL     1       7.779   8.429   6.616  1.00  0.00    -0.354 N 
ATOM     41  C   UNL     1       4.859  11.153   4.960  1.00  0.00     0.074 A 
ATOM     42  C   UNL     1       3.978  10.451   4.051  1.00  0.00     0.031 C 
ATOM     43  C   UNL     1       8.876   6.495   6.841  1.00  0.00     0.029 A 
ATOM     44  C   UNL     1       8.808   7.867   7.335  1.00  0.00     0.049 A 
ATOM     45  H   UNL     1       7.448   9.343   6.772  1.00  0.00     0.167 HD
ATOM     46  C   UNL     1       4.718  12.455   5.316  1.00  0.00     0.034 A 
ATOM     47  C   UNL     1       9.636   8.407   8.252  1.00  0.00     0.034 A 
ATOM     48  C   UNL     1       5.575  13.127   6.261  1.00  0.00     0.049 A 
ATOM     49  C   UNL     1       9.491   9.866   8.603  1.00  0.00     0.074 A 
ATOM     50  C   UNL     1       5.530  14.445   6.686  1.00  0.00     0.029 A 
ATOM     51  N   UNL     1       6.625  12.528   6.945  1.00  0.00    -0.354 N 
ATOM     52  N   UNL     1       8.632  10.746   8.142  1.00  0.00    -0.248 NA
ATOM     53  C   UNL     1      10.438  10.407   9.587  1.00  0.00     0.031 C 
ATOM     54  C   UNL     1       6.579  14.652   7.591  1.00  0.00     0.029 A 
ATOM     55  C   UNL     1       7.241  13.450   7.778  1.00  0.00     0.049 A 
ATOM     56  H   UNL     1       6.894  11.585   6.851  1.00  0.00     0.167 HD
ATOM     57  C   UNL     1       8.930  11.941   8.792  1.00  0.00     0.074 A 
ATOM     58  C   UNL     1      10.032  11.664   9.689  1.00  0.00     0.031 C 
ATOM     59  C   UNL     1       8.347  13.159   8.658  1.00  0.00     0.034 A 
BRANCH  46  60
ATOM     60  C   UNL     1       3.634  13.246   4.625  1.00  0.00     0.023 A 
ATOM     61  C   UNL     1       2.270  12.965   4.812  1.00  0.00     0.031 A 
ATOM     62  C   UNL     1       3.978  14.272   3.727  1.00  0.00     0.131 A 
ATOM     63  C   UNL     1       1.305  13.651   4.058  1.00  0.00     0.055 A 
ATOM     64  C   UNL     1       3.010  15.003   3.035  1.00  0.00     0.041 A 
ATOM     65  F   UNL     1       5.266  14.571   3.491  1.00  0.00    -0.206 F 
ATOM     66  C   UNL     1       1.664  14.683   3.187  1.00  0.00     0.022 A 
BRANCH  63  67
ATOM     67  S   UNL     1      -0.415  13.076   4.121  1.00  0.00     0.124 S 
ATOM     68  O   UNL     1      -0.279  11.688   3.687  1.00  0.00    -0.237 OA
ATOM     69  O   UNL     1      -0.762  13.276   5.523  1.00  0.00    -0.237 OA
ATOM     70  O   UNL     1      -1.104  13.952   3.175  1.00  0.00    -0.744 OA
ENDBRANCH  63  67
ENDBRANCH  46  60
BRANCH  47  71
ATOM     71  C   UNL     1      10.727   7.590   8.855  1.00  0.00     0.023 A 
ATOM     72  C   UNL     1      10.743   7.301  10.228  1.00  0.00     0.031 A 
ATOM     73  C   UNL     1      11.796   7.123   8.069  1.00  0.00     0.131 A 
ATOM     74  C   UNL     1      11.825   6.598  10.781  1.00  0.00     0.055 A 
ATOM     75  C   UNL     1      12.843   6.379   8.614  1.00  0.00     0.041 A 
ATOM     76  F   UNL     1      11.831   7.376   6.751  1.00  0.00    -0.206 F 
ATOM     77  C   UNL     1      12.867   6.123   9.981  1.00  0.00     0.022 A 
BRANCH  74  78
ATOM     78  S   UNL     1      11.890   6.381  12.581  1.00  0.00     0.124 S 
ATOM     79  O   UNL     1      11.883   7.763  13.047  1.00  0.00    -0.237 OA
ATOM     80  O   UNL     1      10.677   5.612  12.838  1.00  0.00    -0.237 OA
ATOM     81  O   UNL     1      13.142   5.657  12.791  1.00  0.00    -0.744 OA
ENDBRANCH  74  78
ENDBRANCH  47  71
BRANCH  59  82
ATOM     82  C   UNL     1       8.870  14.264   9.539  1.00  0.00     0.023 A 
ATOM     83  C   UNL     1      10.144  14.823   9.342  1.00  0.00     0.031 A 
ATOM     84  C   UNL     1       8.088  14.746  10.603  1.00  0.00     0.131 A 
ATOM     85  C   UNL     1      10.620  15.801  10.229  1.00  0.00     0.055 A 
ATOM     86  C   UNL     1       8.548  15.752  11.454  1.00  0.00     0.041 A 
ATOM     87  F   UNL     1       6.864  14.244  10.834  1.00  0.00    -0.206 F 
ATOM     88  C   UNL     1       9.826  16.277  11.276  1.00  0.00     0.022 A 
BRANCH  85  89
ATOM     89  S   UNL     1      12.326  16.389  10.046  1.00  0.00     0.124 S 
ATOM     90  O   UNL     1      13.091  15.153  10.177  1.00  0.00    -0.237 OA
ATOM     91  O   UNL     1      12.308  16.989   8.716  1.00  0.00    -0.237 OA
ATOM     92  O   UNL     1      12.484  17.335  11.149  1.00  0.00    -0.744 OA
ENDBRANCH  85  89
ENDBRANCH  59  82
ENDBRANCH  33  34
ENDBRANCH  26  28
ENDBRANCH  25  26
ENDBRANCH  24  25
ENDBRANCH  23  24
ENDBRANCH   1  23
TORSDOF 21
