REMARK SMILES C[C@@H]1OCC[C@@H]1C(=O)Nc1ccc(C(=O)OCCOC(=O)c2ccc(-c3c4nc(c(-c5cc(S(=O)(=O)[O-])ccc5F)c5ccc([nH]5)c(-c5cc(S(=O)(=O)[O-])ccc5F)c5nc(c(-c6cc(S(=O)(=O)[O-])ccc6F)c6ccc3[nH]6)C=C5)C=C4)cc2)cc1F
REMARK SMILES IDX 18 1 17 2 16 3 14 4 15 5 13 6 10 7 11 8 86 9 12 10 85 11
REMARK SMILES IDX 87 12 9 13 7 14 8 15 6 17 1 18 2 19 3 20 4 21 5 22 19 23
REMARK SMILES IDX 20 24 21 25 22 26 23 27 84 28 24 29 83 30 25 31 26 32 27 33
REMARK SMILES IDX 77 34 28 35 82 36 76 37 78 38 29 39 81 40 75 41 74 42 30 44
REMARK SMILES IDX 62 45 42 46 61 47 43 48 46 49 60 50 79 51 44 52 45 53 59 55
REMARK SMILES IDX 80 56 47 57 31 58 32 59 40 60 33 61 39 62 41 63 38 64 34 65
REMARK SMILES IDX 35 66 36 67 37 68 63 69 64 70 72 71 65 72 71 73 73 74 70 75
REMARK SMILES IDX 66 76 67 77 68 78 69 79 48 80 49 81 57 82 50 83 56 84 58 85
REMARK SMILES IDX 55 86 51 87 52 88 53 89 54 90
REMARK H PARENT 9 16 78 43 46 54
REMARK Flexibility Score: inf
ROOT
ATOM      1  C   UNL     1       3.934  -2.108   7.669  1.00  0.00     0.275 C 
ENDROOT
BRANCH   1   2
ATOM      2  C   UNL     1       2.498  -2.098   7.151  1.00  0.00     0.275 C 
BRANCH   2   3
ATOM      3  O   UNL     1       2.401  -1.373   5.912  1.00  0.00    -0.458 OA
BRANCH   3   4
ATOM      4  C   UNL     1       1.905  -0.119   6.009  1.00  0.00     0.338 C 
ATOM      5  O   UNL     1       1.526   0.457   7.017  1.00  0.00    -0.246 OA
BRANCH   4   6
ATOM      6  C   UNL     1       1.798   0.467   4.668  1.00  0.00     0.063 A 
ATOM      7  C   UNL     1       1.276   1.646   2.145  1.00  0.00     0.077 A 
ATOM      8  C   UNL     1       2.208   2.208   3.027  1.00  0.00     0.030 A 
ATOM      9  C   UNL     1       0.613   0.488   2.592  1.00  0.00     0.147 A 
ATOM     10  C   UNL     1       2.458   1.632   4.279  1.00  0.00     0.018 A 
ATOM     11  C   UNL     1       0.881  -0.110   3.815  1.00  0.00     0.057 A 
ATOM     12  F   UNL     1      -0.365  -0.124   1.927  1.00  0.00    -0.205 F 
BRANCH   7  13
ATOM     13  N   UNL     1       1.127   2.349   0.922  1.00  0.00    -0.323 N 
ATOM     14  C   UNL     1       0.433   2.142  -0.238  1.00  0.00     0.230 C 
ATOM     15  O   UNL     1       0.484   3.004  -1.117  1.00  0.00    -0.274 OA
ATOM     16  H   UNL     1       1.646   3.186   0.905  1.00  0.00     0.170 HD
BRANCH  14  17
ATOM     17  C   UNL     1      -0.345   0.881  -0.435  1.00  0.00     0.110 C 
ATOM     18  C   UNL     1       1.721  -0.140  -1.605  1.00  0.00     0.039 C 
ATOM     19  C   UNL     1       0.527  -0.355  -0.675  1.00  0.00     0.127 C 
ATOM     20  O   UNL     1      -0.341  -1.332  -1.296  1.00  0.00    -0.378 OA
ATOM     21  C   UNL     1      -1.612  -0.702  -1.514  1.00  0.00     0.161 C 
ATOM     22  C   UNL     1      -1.326   0.786  -1.580  1.00  0.00     0.044 C 
ENDBRANCH  14  17
ENDBRANCH   7  13
ENDBRANCH   4   6
ENDBRANCH   3   4
ENDBRANCH   2   3
ENDBRANCH   1   2
BRANCH   1  23
ATOM     23  O   UNL     1       4.357  -0.771   7.993  1.00  0.00    -0.458 OA
BRANCH  23  24
ATOM     24  C   UNL     1       5.252  -0.228   7.133  1.00  0.00     0.338 C 
ATOM     25  O   UNL     1       5.777  -0.768   6.177  1.00  0.00    -0.246 OA
BRANCH  24  26
ATOM     26  C   UNL     1       5.454   1.199   7.437  1.00  0.00     0.060 A 
ATOM     27  C   UNL     1       4.420   2.078   7.155  1.00  0.00     0.016 A 
ATOM     28  C   UNL     1       6.709   1.698   7.768  1.00  0.00     0.016 A 
ATOM     29  C   UNL     1       4.669   3.437   7.019  1.00  0.00     0.010 A 
ATOM     30  C   UNL     1       6.909   3.088   7.807  1.00  0.00     0.010 A 
ATOM     31  C   UNL     1       5.905   3.979   7.381  1.00  0.00    -0.014 A 
BRANCH  31  32
ATOM     32  C   UNL     1       6.136   5.454   7.272  1.00  0.00     0.031 A 
ATOM     33  C   UNL     1       7.348   5.982   6.544  1.00  0.00     0.074 A 
ATOM     34  C   UNL     1       5.243   6.335   7.778  1.00  0.00     0.049 A 
ATOM     35  N   UNL     1       7.849   7.191   6.546  1.00  0.00    -0.248 NA
ATOM     36  C   UNL     1       8.107   5.026   5.720  1.00  0.00     0.031 C 
ATOM     37  C   UNL     1       3.980   5.989   8.438  1.00  0.00     0.029 A 
ATOM     38  N   UNL     1       5.243   7.711   7.795  1.00  0.00    -0.354 N 
ATOM     39  C   UNL     1       9.017   7.123   5.792  1.00  0.00     0.074 A 
ATOM     40  C   UNL     1       9.148   5.755   5.341  1.00  0.00     0.031 C 
ATOM     41  C   UNL     1       3.296   7.107   8.713  1.00  0.00     0.029 A 
ATOM     42  C   UNL     1       4.131   8.258   8.399  1.00  0.00     0.049 A 
ATOM     43  H   UNL     1       5.969   8.254   7.413  1.00  0.00     0.167 HD
ATOM     44  C   UNL     1       9.899   8.114   5.513  1.00  0.00     0.034 A 
ATOM     45  C   UNL     1       3.834   9.529   8.735  1.00  0.00     0.034 A 
ATOM     46  C   UNL     1       9.715   9.488   5.908  1.00  0.00     0.049 A 
ATOM     47  C   UNL     1       4.854  10.600   8.474  1.00  0.00     0.074 A 
ATOM     48  C   UNL     1      10.551  10.567   5.680  1.00  0.00     0.029 A 
ATOM     49  N   UNL     1       8.610   9.978   6.589  1.00  0.00    -0.354 N 
ATOM     50  N   UNL     1       6.024  10.493   7.892  1.00  0.00    -0.248 NA
ATOM     51  C   UNL     1       4.534  11.953   8.947  1.00  0.00     0.031 C 
ATOM     52  C   UNL     1       9.977  11.698   6.267  1.00  0.00     0.029 A 
ATOM     53  C   UNL     1       8.751  11.339   6.802  1.00  0.00     0.049 A 
ATOM     54  H   UNL     1       7.839   9.438   6.878  1.00  0.00     0.167 HD
ATOM     55  C   UNL     1       6.578  11.767   7.922  1.00  0.00     0.074 A 
ATOM     56  C   UNL     1       5.611  12.629   8.570  1.00  0.00     0.031 C 
ATOM     57  C   UNL     1       7.781  12.183   7.455  1.00  0.00     0.034 A 
BRANCH  44  58
ATOM     58  C   UNL     1      11.174   7.748   4.796  1.00  0.00     0.023 A 
ATOM     59  C   UNL     1      11.194   7.372   3.444  1.00  0.00     0.031 A 
ATOM     60  C   UNL     1      12.400   7.816   5.484  1.00  0.00     0.131 A 
ATOM     61  C   UNL     1      12.414   7.046   2.831  1.00  0.00     0.055 A 
ATOM     62  C   UNL     1      13.616   7.552   4.852  1.00  0.00     0.041 A 
ATOM     63  F   UNL     1      12.435   8.153   6.784  1.00  0.00    -0.206 F 
ATOM     64  C   UNL     1      13.627   7.159   3.518  1.00  0.00     0.022 A 
BRANCH  61  65
ATOM     65  S   UNL     1      12.395   6.405   1.135  1.00  0.00     0.124 S 
ATOM     66  O   UNL     1      11.692   5.136   1.310  1.00  0.00    -0.237 OA
ATOM     67  O   UNL     1      11.668   7.442   0.411  1.00  0.00    -0.237 OA
ATOM     68  O   UNL     1      13.812   6.286   0.797  1.00  0.00    -0.744 OA
ENDBRANCH  61  65
ENDBRANCH  44  58
BRANCH  45  69
ATOM     69  C   UNL     1       2.559   9.834   9.446  1.00  0.00     0.023 A 
ATOM     70  C   UNL     1       1.560  10.613   8.843  1.00  0.00     0.031 A 
ATOM     71  C   UNL     1       2.316   9.334  10.740  1.00  0.00     0.131 A 
ATOM     72  C   UNL     1       0.367  10.876   9.537  1.00  0.00     0.055 A 
ATOM     73  C   UNL     1       1.109   9.555  11.403  1.00  0.00     0.041 A 
ATOM     74  F   UNL     1       3.239   8.583  11.362  1.00  0.00    -0.206 F 
ATOM     75  C   UNL     1       0.128  10.336  10.803  1.00  0.00     0.022 A 
BRANCH  72  76
ATOM     76  S   UNL     1      -0.865  11.965   8.773  1.00  0.00     0.124 S 
ATOM     77  O   UNL     1      -0.140  13.228   8.702  1.00  0.00    -0.237 OA
ATOM     78  O   UNL     1      -1.117  11.296   7.500  1.00  0.00    -0.237 OA
ATOM     79  O   UNL     1      -1.978  11.936   9.719  1.00  0.00    -0.744 OA
ENDBRANCH  72  76
ENDBRANCH  45  69
BRANCH  57  80
ATOM     80  C   UNL     1       8.104  13.644   7.585  1.00  0.00     0.023 A 
ATOM     81  C   UNL     1       8.448  14.213   8.822  1.00  0.00     0.031 A 
ATOM     82  C   UNL     1       8.118  14.464   6.443  1.00  0.00     0.131 A 
ATOM     83  C   UNL     1       8.774  15.575   8.891  1.00  0.00     0.055 A 
ATOM     84  C   UNL     1       8.485  15.807   6.511  1.00  0.00     0.041 A 
ATOM     85  F   UNL     1       7.798  13.961   5.239  1.00  0.00    -0.206 F 
ATOM     86  C   UNL     1       8.812  16.370   7.742  1.00  0.00     0.022 A 
BRANCH  83  87
ATOM     87  S   UNL     1       9.131  16.306  10.511  1.00  0.00     0.124 S 
ATOM     88  O   UNL     1       7.836  16.210  11.177  1.00  0.00    -0.237 OA
ATOM     89  O   UNL     1      10.180  15.433  11.029  1.00  0.00    -0.237 OA
ATOM     90  O   UNL     1       9.563  17.664  10.187  1.00  0.00    -0.744 OA
ENDBRANCH  83  87
ENDBRANCH  57  80
ENDBRANCH  31  32
ENDBRANCH  24  26
ENDBRANCH  23  24
ENDBRANCH   1  23
TORSDOF 16
