REMARK SMILES CCC(CC)(C(=O)OCCOC(=O)c1ccc(-c2c3nc(c(-c4cc(S(=O)(=O)[O-])ccc4F)c4ccc([nH]4)c(-c4cc(S(=O)(=O)[O-])ccc4F)c4nc(c(-c5cc(S(=O)(=O)[O-])ccc5F)c5ccc2[nH]5)C=C4)C=C3)cc1)n1nnnc1CC[C@@H]1CCCO1
REMARK SMILES IDX 9 1 8 2 6 3 7 4 3 5 2 6 1 7 4 8 5 9 77 10 78 11 81 12 79 13
REMARK SMILES IDX 80 14 82 15 83 16 84 17 85 18 88 19 86 20 87 21 10 22 11 23
REMARK SMILES IDX 12 24 13 25 14 26 15 27 76 28 16 29 75 30 17 31 18 32 19 33
REMARK SMILES IDX 69 34 20 35 74 36 68 37 70 38 21 39 73 40 67 41 66 42 22 44
REMARK SMILES IDX 54 45 34 46 53 47 35 48 38 49 52 50 71 51 36 52 37 53 51 55
REMARK SMILES IDX 72 56 39 57 23 58 24 59 32 60 25 61 31 62 33 63 30 64 26 65
REMARK SMILES IDX 27 66 28 67 29 68 55 69 56 70 64 71 57 72 63 73 65 74 62 75
REMARK SMILES IDX 58 76 59 77 60 78 61 79 40 80 41 81 49 82 42 83 48 84 50 85
REMARK SMILES IDX 47 86 43 87 44 88 45 89 46 90
REMARK H PARENT 70 43 38 54
REMARK Flexibility Score: inf
ROOT
ATOM      1  C   UNL     1      -0.944  -1.859  -4.758  1.00  0.00     0.274 C 
ENDROOT
BRANCH   1   2
ATOM      2  O   UNL     1      -0.534  -1.487  -3.426  1.00  0.00    -0.460 OA
BRANCH   2   3
ATOM      3  C   UNL     1       0.457  -2.239  -2.868  1.00  0.00     0.334 C 
ATOM      4  O   UNL     1       0.952  -3.202  -3.438  1.00  0.00    -0.249 OA
BRANCH   3   5
ATOM      5  C   UNL     1       0.792  -1.839  -1.417  1.00  0.00     0.163 C 
BRANCH   5   6
ATOM      6  C   UNL     1       0.451  -0.315  -1.201  1.00  0.00     0.039 C 
ATOM      7  C   UNL     1       0.610   0.218   0.225  1.00  0.00     0.007 C 
ENDBRANCH   5   6
BRANCH   5   8
ATOM      8  C   UNL     1      -0.075  -2.724  -0.472  1.00  0.00     0.039 C 
ATOM      9  C   UNL     1      -1.574  -2.425  -0.445  1.00  0.00     0.007 C 
ENDBRANCH   5   8
BRANCH   5  10
ATOM     10  N   UNL     1       2.240  -2.098  -1.218  1.00  0.00    -0.212 N 
ATOM     11  N   UNL     1       3.070  -1.034  -1.107  1.00  0.00    -0.044 NA
ATOM     12  C   UNL     1       3.026  -3.245  -1.199  1.00  0.00     0.152 A 
ATOM     13  N   UNL     1       4.292  -1.513  -0.991  1.00  0.00    -0.024 NA
ATOM     14  N   UNL     1       4.283  -2.869  -1.056  1.00  0.00    -0.114 NA
BRANCH  12  15
ATOM     15  C   UNL     1       2.621  -4.676  -1.229  1.00  0.00     0.082 C 
BRANCH  15  16
ATOM     16  C   UNL     1       2.922  -5.424  -2.527  1.00  0.00     0.040 C 
BRANCH  16  17
ATOM     17  C   UNL     1       4.392  -5.762  -2.771  1.00  0.00     0.118 C 
ATOM     18  C   UNL     1       5.074  -4.861  -3.785  1.00  0.00     0.034 C 
ATOM     19  O   UNL     1       4.430  -7.088  -3.344  1.00  0.00    -0.378 OA
ATOM     20  C   UNL     1       6.094  -5.776  -4.412  1.00  0.00     0.031 C 
ATOM     21  C   UNL     1       5.476  -7.147  -4.315  1.00  0.00     0.160 C 
ENDBRANCH  16  17
ENDBRANCH  15  16
ENDBRANCH  12  15
ENDBRANCH   5  10
ENDBRANCH   3   5
ENDBRANCH   2   3
ENDBRANCH   1   2
BRANCH   1  22
ATOM     22  C   UNL     1      -0.365  -0.908  -5.802  1.00  0.00     0.275 C 
BRANCH  22  23
ATOM     23  O   UNL     1       1.071  -0.985  -5.817  1.00  0.00    -0.458 OA
BRANCH  23  24
ATOM     24  C   UNL     1       1.715   0.112  -5.355  1.00  0.00     0.338 C 
ATOM     25  O   UNL     1       1.204   1.139  -4.929  1.00  0.00    -0.246 OA
BRANCH  24  26
ATOM     26  C   UNL     1       3.167  -0.101  -5.421  1.00  0.00     0.060 A 
ATOM     27  C   UNL     1       3.776  -0.900  -4.458  1.00  0.00     0.016 A 
ATOM     28  C   UNL     1       3.939   0.591  -6.356  1.00  0.00     0.016 A 
ATOM     29  C   UNL     1       5.166  -0.956  -4.380  1.00  0.00     0.010 A 
ATOM     30  C   UNL     1       5.335   0.481  -6.317  1.00  0.00     0.010 A 
ATOM     31  C   UNL     1       5.963  -0.268  -5.307  1.00  0.00    -0.014 A 
BRANCH  31  32
ATOM     32  C   UNL     1       7.444  -0.307  -5.168  1.00  0.00     0.031 A 
ATOM     33  C   UNL     1       8.204   0.924  -4.768  1.00  0.00     0.074 A 
ATOM     34  C   UNL     1       8.106  -1.465  -5.356  1.00  0.00     0.049 A 
ATOM     35  N   UNL     1       9.496   1.097  -4.665  1.00  0.00    -0.248 NA
ATOM     36  C   UNL     1       7.409   2.126  -4.484  1.00  0.00     0.031 C 
ATOM     37  C   UNL     1       7.481  -2.719  -5.766  1.00  0.00     0.029 A 
ATOM     38  N   UNL     1       9.430  -1.792  -5.192  1.00  0.00    -0.354 N 
ATOM     39  C   UNL     1       9.679   2.447  -4.394  1.00  0.00     0.074 A 
ATOM     40  C   UNL     1       8.357   3.037  -4.313  1.00  0.00     0.031 C 
ATOM     41  C   UNL     1       8.402  -3.693  -5.725  1.00  0.00     0.029 A 
ATOM     42  C   UNL     1       9.684  -3.139  -5.321  1.00  0.00     0.049 A 
ATOM     43  H   UNL     1      10.130  -1.127  -5.000  1.00  0.00     0.167 HD
ATOM     44  C   UNL     1      10.846   3.128  -4.268  1.00  0.00     0.034 A 
ATOM     45  C   UNL     1      10.812  -3.851  -5.125  1.00  0.00     0.034 A 
ATOM     46  C   UNL     1      12.149   2.504  -4.317  1.00  0.00     0.049 A 
ATOM     47  C   UNL     1      12.079  -3.092  -4.838  1.00  0.00     0.074 A 
ATOM     48  C   UNL     1      13.399   3.097  -4.258  1.00  0.00     0.029 A 
ATOM     49  N   UNL     1      12.370   1.135  -4.417  1.00  0.00    -0.354 N 
ATOM     50  N   UNL     1      12.246  -1.798  -4.691  1.00  0.00    -0.248 NA
ATOM     51  C   UNL     1      13.316  -3.877  -4.745  1.00  0.00     0.031 C 
ATOM     52  C   UNL     1      14.371   2.094  -4.366  1.00  0.00     0.029 A 
ATOM     53  C   UNL     1      13.731   0.867  -4.432  1.00  0.00     0.049 A 
ATOM     54  H   UNL     1      11.662   0.453  -4.471  1.00  0.00     0.167 HD
ATOM     55  C   UNL     1      13.614  -1.611  -4.546  1.00  0.00     0.074 A 
ATOM     56  C   UNL     1      14.217  -2.929  -4.534  1.00  0.00     0.031 C 
ATOM     57  C   UNL     1      14.316  -0.452  -4.476  1.00  0.00     0.034 A 
BRANCH  44  58
ATOM     58  C   UNL     1      10.750   4.632  -4.193  1.00  0.00     0.023 A 
ATOM     59  C   UNL     1      10.161   5.301  -3.107  1.00  0.00     0.031 A 
ATOM     60  C   UNL     1      11.194   5.406  -5.282  1.00  0.00     0.131 A 
ATOM     61  C   UNL     1       9.960   6.690  -3.171  1.00  0.00     0.055 A 
ATOM     62  C   UNL     1      11.062   6.795  -5.304  1.00  0.00     0.041 A 
ATOM     63  F   UNL     1      11.740   4.820  -6.360  1.00  0.00    -0.206 F 
ATOM     64  C   UNL     1      10.426   7.444  -4.251  1.00  0.00     0.022 A 
BRANCH  61  65
ATOM     65  S   UNL     1       8.944   7.484  -1.893  1.00  0.00     0.124 S 
ATOM     66  O   UNL     1       7.665   6.800  -2.068  1.00  0.00    -0.237 OA
ATOM     67  O   UNL     1       9.674   7.174  -0.670  1.00  0.00    -0.237 OA
ATOM     68  O   UNL     1       8.945   8.893  -2.280  1.00  0.00    -0.744 OA
ENDBRANCH  61  65
ENDBRANCH  44  58
BRANCH  45  69
ATOM     69  C   UNL     1      10.816  -5.344  -5.205  1.00  0.00     0.023 A 
ATOM     70  C   UNL     1      11.174  -6.118  -4.086  1.00  0.00     0.031 A 
ATOM     71  C   UNL     1      10.497  -6.026  -6.392  1.00  0.00     0.131 A 
ATOM     72  C   UNL     1      11.234  -7.518  -4.186  1.00  0.00     0.055 A 
ATOM     73  C   UNL     1      10.493  -7.420  -6.468  1.00  0.00     0.041 A 
ATOM     74  F   UNL     1      10.162  -5.344  -7.499  1.00  0.00    -0.206 F 
ATOM     75  C   UNL     1      10.874  -8.175  -5.364  1.00  0.00     0.022 A 
BRANCH  72  76
ATOM     76  S   UNL     1      11.883  -8.469  -2.783  1.00  0.00     0.124 S 
ATOM     77  O   UNL     1      13.216  -7.898  -2.627  1.00  0.00    -0.237 OA
ATOM     78  O   UNL     1      10.922  -8.155  -1.731  1.00  0.00    -0.237 OA
ATOM     79  O   UNL     1      11.849  -9.849  -3.263  1.00  0.00    -0.744 OA
ENDBRANCH  72  76
ENDBRANCH  45  69
BRANCH  57  80
ATOM     80  C   UNL     1      15.815  -0.585  -4.439  1.00  0.00     0.023 A 
ATOM     81  C   UNL     1      16.526  -1.051  -5.562  1.00  0.00     0.031 A 
ATOM     82  C   UNL     1      16.535  -0.288  -3.272  1.00  0.00     0.131 A 
ATOM     83  C   UNL     1      17.909  -1.260  -5.475  1.00  0.00     0.055 A 
ATOM     84  C   UNL     1      17.920  -0.452  -3.207  1.00  0.00     0.041 A 
ATOM     85  F   UNL     1      15.904   0.156  -2.174  1.00  0.00    -0.206 F 
ATOM     86  C   UNL     1      18.613  -0.953  -4.308  1.00  0.00     0.022 A 
BRANCH  83  87
ATOM     87  S   UNL     1      18.767  -2.016  -6.884  1.00  0.00     0.124 S 
ATOM     88  O   UNL     1      18.088  -3.303  -7.000  1.00  0.00    -0.237 OA
ATOM     89  O   UNL     1      18.510  -1.061  -7.957  1.00  0.00    -0.237 OA
ATOM     90  O   UNL     1      20.158  -2.087  -6.441  1.00  0.00    -0.744 OA
ENDBRANCH  83  87
ENDBRANCH  57  80
ENDBRANCH  31  32
ENDBRANCH  24  26
ENDBRANCH  23  24
ENDBRANCH  22  23
ENDBRANCH   1  22
TORSDOF 20
