REMARK SMILES COCCCNC(=O)/C(C#N)=C/c1ccc(C(=O)OCCOC(=O)c2ccc(-c3c4nc(c(-c5cc(S(=O)(=O)[O-])ccc5F)c5ccc([nH]5)c(-c5cc(S(=O)(=O)[O-])ccc5F)c5nc(c(-c6cc(S(=O)(=O)[O-])ccc6F)c6ccc3[nH]6)C=C5)C=C4)cc2)cc1
REMARK SMILES IDX 19 1 17 2 18 3 16 4 13 5 14 6 89 7 15 8 88 9 12 10 9 11 7 12
REMARK SMILES IDX 6 13 8 15 5 16 4 17 3 18 2 19 1 20 10 21 11 22 20 23 21 24
REMARK SMILES IDX 22 25 23 26 24 27 25 28 26 29 87 30 27 31 86 32 28 33 29 34
REMARK SMILES IDX 30 35 80 36 31 37 85 38 79 39 81 40 32 41 84 42 78 43 77 44
REMARK SMILES IDX 33 46 65 47 45 48 64 49 46 50 49 51 63 52 82 53 47 54 48 55
REMARK SMILES IDX 62 57 83 58 50 59 34 60 35 61 43 62 36 63 42 64 44 65 41 66
REMARK SMILES IDX 37 67 38 68 39 69 40 70 66 71 67 72 75 73 68 74 74 75 76 76
REMARK SMILES IDX 73 77 69 78 70 79 71 80 72 81 51 82 52 83 60 84 53 85 59 86
REMARK SMILES IDX 61 87 58 88 54 89 55 90 56 91 57 92
REMARK H PARENT 6 14 81 45 49 56
REMARK Flexibility Score: inf
ROOT
ATOM      1  O   UNL     1      -0.674  -7.957   7.551  1.00  0.00    -0.458 OA
ENDROOT
BRANCH   1   2
ATOM      2  C   UNL     1      -0.171  -6.782   8.003  1.00  0.00     0.338 C 
ATOM      3  O   UNL     1      -0.389  -6.277   9.092  1.00  0.00    -0.246 OA
BRANCH   2   4
ATOM      4  C   UNL     1       0.776  -6.205   7.018  1.00  0.00     0.060 A 
ATOM      5  C   UNL     1       2.448  -4.860   5.229  1.00  0.00    -0.024 A 
ATOM      6  C   UNL     1       2.691  -4.763   6.596  1.00  0.00     0.009 A 
ATOM      7  C   UNL     1       1.442  -5.717   4.752  1.00  0.00     0.009 A 
ATOM      8  C   UNL     1       1.827  -5.399   7.481  1.00  0.00     0.016 A 
ATOM      9  C   UNL     1       0.603  -6.385   5.646  1.00  0.00     0.016 A 
BRANCH   5  10
ATOM     10  C   UNL     1       3.034  -3.828   4.365  1.00  0.00     0.033 C 
ATOM     11  C   UNL     1       2.263  -2.816   3.905  1.00  0.00     0.117 C 
BRANCH  11  12
ATOM     12  C   UNL     1       2.939  -1.727   3.136  1.00  0.00     0.261 C 
ATOM     13  N   UNL     1       2.261  -0.689   2.564  1.00  0.00    -0.351 N 
ATOM     14  H   UNL     1       2.843   0.000   2.169  1.00  0.00     0.163 HD
ATOM     15  O   UNL     1       4.162  -1.733   2.979  1.00  0.00    -0.268 OA
BRANCH  13  16
ATOM     16  C   UNL     1       0.840  -0.412   2.431  1.00  0.00     0.118 C 
BRANCH  16  17
ATOM     17  C   UNL     1       0.485   1.063   2.319  1.00  0.00     0.050 C 
BRANCH  17  18
ATOM     18  C   UNL     1       1.081   1.829   1.148  1.00  0.00     0.161 C 
BRANCH  18  19
ATOM     19  O   UNL     1       0.468   1.526  -0.101  1.00  0.00    -0.385 OA
ATOM     20  C   UNL     1       0.964   0.358  -0.735  1.00  0.00     0.194 C 
ENDBRANCH  18  19
ENDBRANCH  17  18
ENDBRANCH  16  17
ENDBRANCH  13  16
ENDBRANCH  11  12
BRANCH  11  21
ATOM     21  C   UNL     1       0.864  -2.805   4.180  1.00  0.00     0.105 C 
ATOM     22  N   UNL     1      -0.279  -2.847   4.384  1.00  0.00    -0.192 NA
ENDBRANCH  11  21
ENDBRANCH   5  10
ENDBRANCH   2   4
ENDBRANCH   1   2
BRANCH   1  23
ATOM     23  C   UNL     1      -1.429  -8.723   8.508  1.00  0.00     0.275 C 
BRANCH  23  24
ATOM     24  C   UNL     1      -0.579  -9.854   9.091  1.00  0.00     0.275 C 
BRANCH  24  25
ATOM     25  O   UNL     1       0.446  -9.342   9.965  1.00  0.00    -0.458 OA
BRANCH  25  26
ATOM     26  C   UNL     1       1.665  -9.224   9.391  1.00  0.00     0.338 C 
ATOM     27  O   UNL     1       1.971  -9.522   8.248  1.00  0.00    -0.246 OA
BRANCH  26  28
ATOM     28  C   UNL     1       2.612  -8.569  10.302  1.00  0.00     0.060 A 
ATOM     29  C   UNL     1       2.633  -7.183  10.311  1.00  0.00     0.016 A 
ATOM     30  C   UNL     1       3.622  -9.281  10.939  1.00  0.00     0.016 A 
ATOM     31  C   UNL     1       3.744  -6.500  10.784  1.00  0.00     0.010 A 
ATOM     32  C   UNL     1       4.655  -8.580  11.579  1.00  0.00     0.010 A 
ATOM     33  C   UNL     1       4.760  -7.179  11.466  1.00  0.00    -0.014 A 
BRANCH  33  34
ATOM     34  C   UNL     1       5.910  -6.422  12.050  1.00  0.00     0.031 A 
ATOM     35  C   UNL     1       7.332  -6.827  11.744  1.00  0.00     0.074 A 
ATOM     36  C   UNL     1       5.684  -5.359  12.854  1.00  0.00     0.049 A 
ATOM     37  N   UNL     1       8.447  -6.423  12.299  1.00  0.00    -0.248 NA
ATOM     38  C   UNL     1       7.523  -7.834  10.690  1.00  0.00     0.031 C 
ATOM     39  C   UNL     1       4.364  -4.817  13.195  1.00  0.00     0.029 A 
ATOM     40  N   UNL     1       6.552  -4.535  13.529  1.00  0.00    -0.354 N 
ATOM     41  C   UNL     1       9.464  -7.164  11.703  1.00  0.00     0.074 A 
ATOM     42  C   UNL     1       8.826  -8.061  10.762  1.00  0.00     0.031 C 
ATOM     43  C   UNL     1       4.512  -3.729  13.961  1.00  0.00     0.029 A 
ATOM     44  C   UNL     1       5.921  -3.573  14.287  1.00  0.00     0.049 A 
ATOM     45  H   UNL     1       7.531  -4.624  13.476  1.00  0.00     0.167 HD
ATOM     46  C   UNL     1      10.802  -7.099  11.923  1.00  0.00     0.034 A 
ATOM     47  C   UNL     1       6.400  -2.705  15.199  1.00  0.00     0.034 A 
ATOM     48  C   UNL     1      11.417  -6.175  12.849  1.00  0.00     0.049 A 
ATOM     49  C   UNL     1       7.874  -2.717  15.496  1.00  0.00     0.074 A 
ATOM     50  C   UNL     1      12.761  -6.011  13.136  1.00  0.00     0.029 A 
ATOM     51  N   UNL     1      10.731  -5.262  13.641  1.00  0.00    -0.354 N 
ATOM     52  N   UNL     1       8.818  -3.456  14.960  1.00  0.00    -0.248 NA
ATOM     53  C   UNL     1       8.347  -1.786  16.527  1.00  0.00     0.031 C 
ATOM     54  C   UNL     1      12.880  -5.070  14.163  1.00  0.00     0.029 A 
ATOM     55  C   UNL     1      11.621  -4.565  14.446  1.00  0.00     0.049 A 
ATOM     56  H   UNL     1       9.756  -5.128  13.632  1.00  0.00     0.167 HD
ATOM     57  C   UNL     1      10.002  -3.056  15.570  1.00  0.00     0.074 A 
ATOM     58  C   UNL     1       9.654  -1.999  16.498  1.00  0.00     0.031 C 
ATOM     59  C   UNL     1      11.263  -3.520  15.377  1.00  0.00     0.034 A 
BRANCH  46  60
ATOM     60  C   UNL     1      11.683  -8.095  11.202  1.00  0.00     0.023 A 
ATOM     61  C   UNL     1      11.780  -8.136   9.800  1.00  0.00     0.031 A 
ATOM     62  C   UNL     1      12.423  -9.043  11.935  1.00  0.00     0.131 A 
ATOM     63  C   UNL     1      12.527  -9.149   9.178  1.00  0.00     0.055 A 
ATOM     64  C   UNL     1      13.240  -9.988  11.312  1.00  0.00     0.041 A 
ATOM     65  F   UNL     1      12.357  -9.074  13.276  1.00  0.00    -0.206 F 
ATOM     66  C   UNL     1      13.282 -10.057   9.923  1.00  0.00     0.022 A 
BRANCH  63  67
ATOM     67  S   UNL     1      12.364  -9.367   7.384  1.00  0.00     0.124 S 
ATOM     68  O   UNL     1      10.923  -9.566   7.242  1.00  0.00    -0.237 OA
ATOM     69  O   UNL     1      12.889  -8.110   6.864  1.00  0.00    -0.237 OA
ATOM     70  O   UNL     1      13.178 -10.548   7.106  1.00  0.00    -0.744 OA
ENDBRANCH  63  67
ENDBRANCH  46  60
BRANCH  47  71
ATOM     71  C   UNL     1       5.471  -1.810  15.950  1.00  0.00     0.023 A 
ATOM     72  C   UNL     1       5.588  -0.414  15.868  1.00  0.00     0.031 A 
ATOM     73  C   UNL     1       4.473  -2.337  16.793  1.00  0.00     0.131 A 
ATOM     74  C   UNL     1       4.754   0.404  16.646  1.00  0.00     0.055 A 
ATOM     75  C   UNL     1       3.599  -1.518  17.508  1.00  0.00     0.041 A 
ATOM     76  F   UNL     1       4.320  -3.665  16.919  1.00  0.00    -0.206 F 
ATOM     77  C   UNL     1       3.746  -0.137  17.448  1.00  0.00     0.022 A 
BRANCH  74  78
ATOM     78  S   UNL     1       5.079   2.187  16.679  1.00  0.00     0.124 S 
ATOM     79  O   UNL     1       6.462   2.227  17.139  1.00  0.00    -0.237 OA
ATOM     80  O   UNL     1       4.854   2.562  15.287  1.00  0.00    -0.237 OA
ATOM     81  O   UNL     1       4.090   2.696  17.628  1.00  0.00    -0.744 OA
ENDBRANCH  74  78
ENDBRANCH  47  71
BRANCH  59  82
ATOM     82  C   UNL     1      12.367  -2.841  16.150  1.00  0.00     0.023 A 
ATOM     83  C   UNL     1      12.438  -2.901  17.553  1.00  0.00     0.031 A 
ATOM     84  C   UNL     1      13.354  -2.104  15.470  1.00  0.00     0.131 A 
ATOM     85  C   UNL     1      13.434  -2.184  18.233  1.00  0.00     0.055 A 
ATOM     86  C   UNL     1      14.388  -1.459  16.148  1.00  0.00     0.041 A 
ATOM     87  F   UNL     1      13.331  -2.003  14.131  1.00  0.00    -0.206 F 
ATOM     88  C   UNL     1      14.423  -1.483  17.538  1.00  0.00     0.022 A 
BRANCH  85  89
ATOM     89  S   UNL     1      13.348  -2.080  20.041  1.00  0.00     0.124 S 
ATOM     90  O   UNL     1      12.029  -1.489  20.247  1.00  0.00    -0.237 OA
ATOM     91  O   UNL     1      13.489  -3.476  20.442  1.00  0.00    -0.237 OA
ATOM     92  O   UNL     1      14.476  -1.218  20.389  1.00  0.00    -0.744 OA
ENDBRANCH  85  89
ENDBRANCH  59  82
ENDBRANCH  33  34
ENDBRANCH  26  28
ENDBRANCH  25  26
ENDBRANCH  24  25
ENDBRANCH  23  24
ENDBRANCH   1  23
TORSDOF 21
