REMARK SMILES CSCC[C@@H](CO)n1ccnc1-c1ccccc1C(=O)OCCOC(=O)c1ccc(-c2c3nc(c(-c4cc(S(=O)(=O)[O-])ccc4F)c4ccc([nH]4)c(-c4cc(S(=O)(=O)[O-])ccc4F)c4nc(c(-c5cc(S(=O)(=O)[O-])ccc5F)c5ccc2[nH]5)C=C4)C=C3)cc1
REMARK SMILES IDX 22 1 21 2 19 3 20 4 18 5 13 6 14 7 15 8 17 9 16 10 12 11
REMARK SMILES IDX 8 12 9 13 10 14 11 15 5 16 4 17 3 18 2 19 1 20 6 21 7 22
REMARK SMILES IDX 23 24 24 25 25 26 26 27 27 28 28 29 89 30 29 31 88 32 30 33
REMARK SMILES IDX 31 34 32 35 82 36 33 37 87 38 81 39 83 40 34 41 86 42 80 43
REMARK SMILES IDX 79 44 35 46 67 47 47 48 66 49 48 50 51 51 65 52 84 53 49 54
REMARK SMILES IDX 50 55 64 57 85 58 52 59 36 60 37 61 45 62 38 63 44 64 46 65
REMARK SMILES IDX 43 66 39 67 40 68 41 69 42 70 68 71 69 72 77 73 70 74 76 75
REMARK SMILES IDX 78 76 75 77 71 78 72 79 73 80 74 81 53 82 54 83 62 84 55 85
REMARK SMILES IDX 61 86 63 87 60 88 56 89 57 90 58 91 59 92
REMARK H PARENT 7 23 83 45 51 56
REMARK Flexibility Score: inf
ROOT
ATOM      1  C   UNL     1       1.346   2.731  -4.948  1.00  0.00     0.275 C 
ENDROOT
BRANCH   1   2
ATOM      2  O   UNL     1       1.877   3.598  -3.926  1.00  0.00    -0.458 OA
BRANCH   2   3
ATOM      3  C   UNL     1       3.112   3.363  -3.431  1.00  0.00     0.338 C 
ATOM      4  O   UNL     1       3.865   2.463  -3.786  1.00  0.00    -0.246 OA
BRANCH   3   5
ATOM      5  C   UNL     1       3.444   4.206  -2.256  1.00  0.00     0.071 A 
ATOM      6  C   UNL     1       2.470   4.635  -1.337  1.00  0.00     0.032 A 
ATOM      7  C   UNL     1       2.881   5.333  -0.189  1.00  0.00     0.013 A 
ATOM      8  C   UNL     1       4.236   5.521   0.093  1.00  0.00     0.001 A 
ATOM      9  C   UNL     1       4.809   4.393  -1.960  1.00  0.00     0.016 A 
ATOM     10  C   UNL     1       5.200   5.039  -0.786  1.00  0.00     0.001 A 
BRANCH   6  11
ATOM     11  C   UNL     1       1.036   4.418  -1.531  1.00  0.00     0.141 A 
ATOM     12  N   UNL     1       0.344   3.216  -1.690  1.00  0.00    -0.326 N 
ATOM     13  C   UNL     1      -0.929   3.582  -2.104  1.00  0.00     0.108 A 
ATOM     14  C   UNL     1      -0.967   4.950  -2.102  1.00  0.00     0.131 A 
ATOM     15  N   UNL     1       0.218   5.448  -1.671  1.00  0.00    -0.237 NA
BRANCH  12  16
ATOM     16  C   UNL     1       0.708   1.810  -1.363  1.00  0.00     0.115 C 
BRANCH  16  17
ATOM     17  C   UNL     1       0.039   0.781  -2.330  1.00  0.00     0.039 C 
BRANCH  17  18
ATOM     18  C   UNL     1       0.277  -0.720  -2.128  1.00  0.00     0.071 C 
BRANCH  18  19
ATOM     19  S   UNL     1      -0.604  -1.429  -0.698  1.00  0.00    -0.165 SA
ATOM     20  C   UNL     1       0.556  -1.027   0.625  1.00  0.00     0.085 C 
ENDBRANCH  18  19
ENDBRANCH  17  18
ENDBRANCH  16  17
BRANCH  16  21
ATOM     21  C   UNL     1       2.198   1.459  -1.088  1.00  0.00     0.181 C 
BRANCH  21  22
ATOM     22  O   UNL     1       2.814   0.684  -2.111  1.00  0.00    -0.394 OA
ATOM     23  H   UNL     1       2.362  -0.170  -2.186  1.00  0.00     0.210 HD
ENDBRANCH  21  22
ENDBRANCH  16  21
ENDBRANCH  12  16
ENDBRANCH   6  11
ENDBRANCH   3   5
ENDBRANCH   2   3
ENDBRANCH   1   2
BRANCH   1  24
ATOM     24  C   UNL     1       1.537   3.303  -6.336  1.00  0.00     0.275 C 
BRANCH  24  25
ATOM     25  O   UNL     1       2.922   3.270  -6.620  1.00  0.00    -0.458 OA
BRANCH  25  26
ATOM     26  C   UNL     1       3.607   4.306  -6.083  1.00  0.00     0.338 C 
ATOM     27  O   UNL     1       3.157   5.270  -5.495  1.00  0.00    -0.246 OA
BRANCH  26  28
ATOM     28  C   UNL     1       5.030   4.124  -6.376  1.00  0.00     0.060 A 
ATOM     29  C   UNL     1       5.820   5.186  -5.930  1.00  0.00     0.016 A 
ATOM     30  C   UNL     1       5.292   3.409  -7.546  1.00  0.00     0.016 A 
ATOM     31  C   UNL     1       6.586   5.815  -6.873  1.00  0.00     0.010 A 
ATOM     32  C   UNL     1       5.997   4.072  -8.502  1.00  0.00     0.010 A 
ATOM     33  C   UNL     1       6.542   5.313  -8.174  1.00  0.00    -0.014 A 
BRANCH  33  34
ATOM     34  C   UNL     1       7.252   6.005  -9.213  1.00  0.00     0.031 A 
ATOM     35  C   UNL     1       8.687   5.688  -9.120  1.00  0.00     0.074 A 
ATOM     36  C   UNL     1       6.612   6.659 -10.197  1.00  0.00     0.049 A 
ATOM     37  N   UNL     1       9.603   6.439  -8.605  1.00  0.00    -0.248 NA
ATOM     38  C   UNL     1       9.093   4.275  -9.270  1.00  0.00     0.031 C 
ATOM     39  C   UNL     1       5.174   6.801 -10.427  1.00  0.00     0.029 A 
ATOM     40  N   UNL     1       7.150   7.245 -11.292  1.00  0.00    -0.354 N 
ATOM     41  C   UNL     1      10.753   5.672  -8.688  1.00  0.00     0.074 A 
ATOM     42  C   UNL     1      10.311   4.311  -8.729  1.00  0.00     0.031 C 
ATOM     43  C   UNL     1       4.969   7.217 -11.700  1.00  0.00     0.029 A 
ATOM     44  C   UNL     1       6.255   7.452 -12.337  1.00  0.00     0.049 A 
ATOM     45  H   UNL     1       8.098   7.504 -11.345  1.00  0.00     0.167 HD
ATOM     46  C   UNL     1      11.913   6.221  -9.133  1.00  0.00     0.034 A 
ATOM     47  C   UNL     1       6.603   7.668 -13.639  1.00  0.00     0.034 A 
ATOM     48  C   UNL     1      11.834   7.669  -9.103  1.00  0.00     0.049 A 
ATOM     49  C   UNL     1       8.011   8.174 -13.608  1.00  0.00     0.074 A 
ATOM     50  C   UNL     1      11.546   8.589  -8.111  1.00  0.00     0.029 A 
ATOM     51  N   UNL     1      11.621   8.328 -10.298  1.00  0.00    -0.354 N 
ATOM     52  N   UNL     1       8.337   9.317 -13.060  1.00  0.00    -0.248 NA
ATOM     53  C   UNL     1       9.094   7.196 -13.654  1.00  0.00     0.031 C 
ATOM     54  C   UNL     1      10.712   9.560  -8.739  1.00  0.00     0.029 A 
ATOM     55  C   UNL     1      10.628   9.261 -10.102  1.00  0.00     0.049 A 
ATOM     56  H   UNL     1      12.096   8.160 -11.143  1.00  0.00     0.167 HD
ATOM     57  C   UNL     1       9.473   9.053 -12.305  1.00  0.00     0.074 A 
ATOM     58  C   UNL     1       9.944   7.750 -12.780  1.00  0.00     0.031 C 
ATOM     59  C   UNL     1       9.735   9.738 -11.148  1.00  0.00     0.034 A 
BRANCH  46  60
ATOM     60  C   UNL     1      12.926   5.479  -9.975  1.00  0.00     0.023 A 
ATOM     61  C   UNL     1      14.094   6.183 -10.300  1.00  0.00     0.031 A 
ATOM     62  C   UNL     1      12.723   4.268 -10.684  1.00  0.00     0.131 A 
ATOM     63  C   UNL     1      14.926   5.753 -11.344  1.00  0.00     0.055 A 
ATOM     64  C   UNL     1      13.591   3.808 -11.674  1.00  0.00     0.041 A 
ATOM     65  F   UNL     1      11.641   3.497 -10.541  1.00  0.00    -0.206 F 
ATOM     66  C   UNL     1      14.684   4.569 -12.035  1.00  0.00     0.022 A 
BRANCH  63  67
ATOM     67  S   UNL     1      16.234   6.869 -11.895  1.00  0.00     0.124 S 
ATOM     68  O   UNL     1      15.478   8.082 -12.186  1.00  0.00    -0.237 OA
ATOM     69  O   UNL     1      17.100   6.914 -10.721  1.00  0.00    -0.237 OA
ATOM     70  O   UNL     1      16.793   6.184 -13.058  1.00  0.00    -0.744 OA
ENDBRANCH  63  67
ENDBRANCH  46  60
BRANCH  47  71
ATOM     71  C   UNL     1       5.935   7.093 -14.852  1.00  0.00     0.023 A 
ATOM     72  C   UNL     1       6.208   7.526 -16.171  1.00  0.00     0.031 A 
ATOM     73  C   UNL     1       5.151   5.919 -14.738  1.00  0.00     0.131 A 
ATOM     74  C   UNL     1       5.704   6.804 -17.287  1.00  0.00     0.055 A 
ATOM     75  C   UNL     1       4.654   5.216 -15.838  1.00  0.00     0.041 A 
ATOM     76  F   UNL     1       4.904   5.350 -13.549  1.00  0.00    -0.206 F 
ATOM     77  C   UNL     1       4.938   5.649 -17.119  1.00  0.00     0.022 A 
BRANCH  74  78
ATOM     78  S   UNL     1       6.113   7.296 -18.997  1.00  0.00     0.124 S 
ATOM     79  O   UNL     1       5.312   8.502 -19.173  1.00  0.00    -0.237 OA
ATOM     80  O   UNL     1       7.558   7.478 -18.940  1.00  0.00    -0.237 OA
ATOM     81  O   UNL     1       5.676   6.149 -19.797  1.00  0.00    -0.744 OA
ENDBRANCH  74  78
ENDBRANCH  47  71
BRANCH  59  82
ATOM     82  C   UNL     1       8.894  10.966 -10.824  1.00  0.00     0.023 A 
ATOM     83  C   UNL     1       7.480  10.991 -10.736  1.00  0.00     0.031 A 
ATOM     84  C   UNL     1       9.580  12.140 -10.462  1.00  0.00     0.131 A 
ATOM     85  C   UNL     1       6.814  12.163 -10.320  1.00  0.00     0.055 A 
ATOM     86  C   UNL     1       8.919  13.287 -10.022  1.00  0.00     0.041 A 
ATOM     87  F   UNL     1      10.922  12.180 -10.493  1.00  0.00    -0.206 F 
ATOM     88  C   UNL     1       7.532  13.306  -9.958  1.00  0.00     0.022 A 
BRANCH  85  89
ATOM     89  S   UNL     1       4.992  12.238 -10.274  1.00  0.00     0.124 S 
ATOM     90  O   UNL     1       4.595  11.651 -11.548  1.00  0.00    -0.237 OA
ATOM     91  O   UNL     1       4.676  11.455  -9.082  1.00  0.00    -0.237 OA
ATOM     92  O   UNL     1       4.715  13.671 -10.150  1.00  0.00    -0.744 OA
ENDBRANCH  85  89
ENDBRANCH  59  82
ENDBRANCH  33  34
ENDBRANCH  26  28
ENDBRANCH  25  26
ENDBRANCH  24  25
ENDBRANCH   1  24
TORSDOF 21
