REMARK SMILES CCc1c(C(=O)OCCOC(=O)c2ccc(-c3c4nc(c(-c5cc(S(=O)(=O)[O-])ccc5F)c5ccc([nH]5)c(-c5cc(S(=O)(=O)[O-])ccc5F)c5nc(c(-c6cc(S(=O)(=O)[O-])ccc6F)c6ccc3[nH]6)C=C5)C=C4)cc2)nnn1-c1ccc(OC)cc1
REMARK SMILES IDX 9 1 8 2 7 3 5 4 6 5 4 6 3 7 78 8 76 9 77 10 2 11 1 12 79 13
REMARK SMILES IDX 80 14 86 15 81 16 85 17 82 18 83 19 84 20 10 21 11 22 12 23
REMARK SMILES IDX 13 24 14 25 75 26 15 27 74 28 16 29 17 30 18 31 68 32 19 33
REMARK SMILES IDX 73 34 67 35 69 36 20 37 72 38 66 39 65 40 21 42 53 43 33 44
REMARK SMILES IDX 52 45 34 46 37 47 51 48 70 49 35 50 36 51 50 53 71 54 38 55
REMARK SMILES IDX 22 56 23 57 31 58 24 59 30 60 32 61 29 62 25 63 26 64 27 65
REMARK SMILES IDX 28 66 54 67 55 68 63 69 56 70 62 71 64 72 61 73 57 74 58 75
REMARK SMILES IDX 59 76 60 77 39 78 40 79 48 80 41 81 47 82 49 83 46 84 42 85
REMARK SMILES IDX 43 86 44 87 45 88
REMARK H PARENT 69 41 37 52
REMARK Flexibility Score: inf
ROOT
ATOM      1  C   UNL     1       0.476   6.516   0.962  1.00  0.00     0.275 C 
ENDROOT
BRANCH   1   2
ATOM      2  C   UNL     1      -0.702   5.597   0.670  1.00  0.00     0.275 C 
BRANCH   2   3
ATOM      3  O   UNL     1      -0.281   4.404  -0.009  1.00  0.00    -0.457 OA
BRANCH   3   4
ATOM      4  C   UNL     1      -0.217   4.476  -1.373  1.00  0.00     0.360 C 
ATOM      5  O   UNL     1      -0.713   5.391  -2.028  1.00  0.00    -0.244 OA
BRANCH   4   6
ATOM      6  C   UNL     1       0.520   3.369  -1.971  1.00  0.00     0.194 A 
ATOM      7  C   UNL     1       0.772   2.093  -1.464  1.00  0.00     0.079 A 
ATOM      8  N   UNL     1       1.482   1.487  -2.489  1.00  0.00    -0.217 N 
ATOM      9  N   UNL     1       1.143   3.503  -3.187  1.00  0.00    -0.122 NA
ATOM     10  N   UNL     1       1.812   2.390  -3.436  1.00  0.00    -0.061 NA
BRANCH   7  11
ATOM     11  C   UNL     1       0.430   1.536  -0.113  1.00  0.00     0.055 C 
ATOM     12  C   UNL     1       1.109   0.260   0.353  1.00  0.00     0.011 C 
ENDBRANCH   7  11
BRANCH   8  13
ATOM     13  C   UNL     1       1.714   0.123  -2.744  1.00  0.00     0.067 A 
ATOM     14  C   UNL     1       2.982  -0.302  -3.145  1.00  0.00     0.032 A 
ATOM     15  C   UNL     1       0.660  -0.787  -2.629  1.00  0.00     0.032 A 
ATOM     16  C   UNL     1       3.213  -1.668  -3.324  1.00  0.00     0.048 A 
ATOM     17  C   UNL     1       0.895  -2.146  -2.836  1.00  0.00     0.048 A 
ATOM     18  C   UNL     1       2.180  -2.596  -3.150  1.00  0.00     0.119 A 
BRANCH  18  19
ATOM     19  O   UNL     1       2.539  -3.905  -3.318  1.00  0.00    -0.497 OA
ATOM     20  C   UNL     1       1.584  -4.876  -2.909  1.00  0.00     0.278 C 
ENDBRANCH  18  19
ENDBRANCH   8  13
ENDBRANCH   4   6
ENDBRANCH   3   4
ENDBRANCH   2   3
ENDBRANCH   1   2
BRANCH   1  21
ATOM     21  O   UNL     1       0.966   7.159  -0.215  1.00  0.00    -0.458 OA
BRANCH  21  22
ATOM     22  C   UNL     1       2.063   6.573  -0.754  1.00  0.00     0.338 C 
ATOM     23  O   UNL     1       2.371   5.396  -0.662  1.00  0.00    -0.246 OA
BRANCH  22  24
ATOM     24  C   UNL     1       2.970   7.614  -1.257  1.00  0.00     0.060 A 
ATOM     25  C   UNL     1       4.059   7.223  -2.038  1.00  0.00     0.016 A 
ATOM     26  C   UNL     1       2.864   8.919  -0.753  1.00  0.00     0.016 A 
ATOM     27  C   UNL     1       5.098   8.120  -2.227  1.00  0.00     0.010 A 
ATOM     28  C   UNL     1       3.909   9.803  -0.925  1.00  0.00     0.010 A 
ATOM     29  C   UNL     1       5.039   9.385  -1.621  1.00  0.00    -0.014 A 
BRANCH  29  30
ATOM     30  C   UNL     1       6.075  10.359  -1.938  1.00  0.00     0.031 A 
ATOM     31  C   UNL     1       5.978  10.796  -3.350  1.00  0.00     0.074 A 
ATOM     32  C   UNL     1       6.911  10.916  -1.036  1.00  0.00     0.049 A 
ATOM     33  N   UNL     1       6.763  10.480  -4.324  1.00  0.00    -0.248 NA
ATOM     34  C   UNL     1       4.744  11.478  -3.784  1.00  0.00     0.031 C 
ATOM     35  C   UNL     1       6.869  10.743   0.420  1.00  0.00     0.029 A 
ATOM     36  N   UNL     1       7.918  11.828  -1.204  1.00  0.00    -0.354 N 
ATOM     37  C   UNL     1       6.290  11.203  -5.414  1.00  0.00     0.074 A 
ATOM     38  C   UNL     1       4.934  11.549  -5.102  1.00  0.00     0.031 C 
ATOM     39  C   UNL     1       7.649  11.679   1.009  1.00  0.00     0.029 A 
ATOM     40  C   UNL     1       8.359  12.425  -0.020  1.00  0.00     0.049 A 
ATOM     41  H   UNL     1       8.300  12.045  -2.085  1.00  0.00     0.167 HD
ATOM     42  C   UNL     1       7.178  11.781  -6.269  1.00  0.00     0.034 A 
ATOM     43  C   UNL     1       9.229  13.464   0.116  1.00  0.00     0.034 A 
ATOM     44  C   UNL     1       8.484  11.183  -6.112  1.00  0.00     0.049 A 
ATOM     45  C   UNL     1      10.066  13.493  -1.103  1.00  0.00     0.074 A 
ATOM     46  C   UNL     1       9.082   9.979  -6.414  1.00  0.00     0.029 A 
ATOM     47  N   UNL     1       9.255  11.789  -5.152  1.00  0.00    -0.354 N 
ATOM     48  N   UNL     1      10.893  12.534  -1.414  1.00  0.00    -0.248 NA
ATOM     49  C   UNL     1       9.725  14.397  -2.196  1.00  0.00     0.031 C 
ATOM     50  C   UNL     1      10.149   9.817  -5.479  1.00  0.00     0.029 A 
ATOM     51  C   UNL     1      10.220  10.947  -4.667  1.00  0.00     0.049 A 
ATOM     52  H   UNL     1       9.130  12.717  -4.849  1.00  0.00     0.167 HD
ATOM     53  C   UNL     1      10.819  12.448  -2.789  1.00  0.00     0.074 A 
ATOM     54  C   UNL     1      10.244  13.716  -3.222  1.00  0.00     0.031 C 
ATOM     55  C   UNL     1      10.906  11.241  -3.420  1.00  0.00     0.034 A 
BRANCH  42  56
ATOM     56  C   UNL     1       7.035  13.194  -6.819  1.00  0.00     0.023 A 
ATOM     57  C   UNL     1       8.073  13.669  -7.647  1.00  0.00     0.031 A 
ATOM     58  C   UNL     1       6.135  14.182  -6.348  1.00  0.00     0.131 A 
ATOM     59  C   UNL     1       8.225  15.045  -7.905  1.00  0.00     0.055 A 
ATOM     60  C   UNL     1       6.264  15.540  -6.647  1.00  0.00     0.041 A 
ATOM     61  F   UNL     1       5.137  13.919  -5.499  1.00  0.00    -0.206 F 
ATOM     62  C   UNL     1       7.327  15.984  -7.408  1.00  0.00     0.022 A 
BRANCH  59  63
ATOM     63  S   UNL     1       9.704  15.612  -8.785  1.00  0.00     0.124 S 
ATOM     64  O   UNL     1      10.773  15.082  -7.948  1.00  0.00    -0.237 OA
ATOM     65  O   UNL     1       9.533  14.985 -10.092  1.00  0.00    -0.237 OA
ATOM     66  O   UNL     1       9.566  17.067  -8.774  1.00  0.00    -0.744 OA
ENDBRANCH  59  63
ENDBRANCH  42  56
BRANCH  43  67
ATOM     67  C   UNL     1       9.208  14.581   1.107  1.00  0.00     0.023 A 
ATOM     68  C   UNL     1      10.334  15.389   1.399  1.00  0.00     0.031 A 
ATOM     69  C   UNL     1       7.963  15.039   1.589  1.00  0.00     0.131 A 
ATOM     70  C   UNL     1      10.180  16.596   2.126  1.00  0.00     0.055 A 
ATOM     71  C   UNL     1       7.817  16.234   2.299  1.00  0.00     0.041 A 
ATOM     72  F   UNL     1       6.827  14.383   1.305  1.00  0.00    -0.206 F 
ATOM     73  C   UNL     1       8.924  17.024   2.560  1.00  0.00     0.022 A 
BRANCH  70  74
ATOM     74  S   UNL     1      11.608  17.688   2.453  1.00  0.00     0.124 S 
ATOM     75  O   UNL     1      12.419  16.880   3.356  1.00  0.00    -0.237 OA
ATOM     76  O   UNL     1      12.148  17.911   1.117  1.00  0.00    -0.237 OA
ATOM     77  O   UNL     1      11.002  18.869   3.070  1.00  0.00    -0.744 OA
ENDBRANCH  70  74
ENDBRANCH  43  67
BRANCH  55  78
ATOM     78  C   UNL     1      11.680  10.144  -2.732  1.00  0.00     0.023 A 
ATOM     79  C   UNL     1      11.373   9.577  -1.474  1.00  0.00     0.031 A 
ATOM     80  C   UNL     1      12.795   9.638  -3.423  1.00  0.00     0.131 A 
ATOM     81  C   UNL     1      12.183   8.546  -0.955  1.00  0.00     0.055 A 
ATOM     82  C   UNL     1      13.579   8.604  -2.917  1.00  0.00     0.041 A 
ATOM     83  F   UNL     1      13.137  10.137  -4.622  1.00  0.00    -0.206 F 
ATOM     84  C   UNL     1      13.279   8.059  -1.677  1.00  0.00     0.022 A 
BRANCH  81  85
ATOM     85  S   UNL     1      11.855   7.840   0.693  1.00  0.00     0.124 S 
ATOM     86  O   UNL     1      11.663   9.013   1.537  1.00  0.00    -0.237 OA
ATOM     87  O   UNL     1      10.669   7.023   0.454  1.00  0.00    -0.237 OA
ATOM     88  O   UNL     1      13.070   7.074   0.982  1.00  0.00    -0.744 OA
ENDBRANCH  81  85
ENDBRANCH  55  78
ENDBRANCH  29  30
ENDBRANCH  22  24
ENDBRANCH  21  22
ENDBRANCH   1  21
TORSDOF 17
