REMARK SMILES Cc1oc2cc3c(cc2c1C)[C@H](C)[C@@H](CC(=O)N[C@H](CC1=c2ccccc2=NC1)C(=O)OCCOC(=O)c1ccc(-c2c4nc(c(-c5cc(S(=O)(=O)[O-])ccc5F)c5ccc([nH]5)c(-c5cc(S(=O)(=O)[O-])ccc5F)c5nc(c(-c6cc(S(=O)(=O)[O-])ccc6F)c6ccc2[nH]6)C=C5)C=C4)cc1)C(=O)O3
REMARK SMILES IDX 33 1 32 2 30 3 31 4 19 5 18 6 16 7 17 8 15 10 14 11 1 12
REMARK SMILES IDX 2 13 3 14 10 15 4 16 9 17 11 18 5 19 8 20 6 21 7 22 103 23
REMARK SMILES IDX 12 24 101 25 13 26 102 27 20 28 21 29 22 30 29 31 23 32
REMARK SMILES IDX 27 33 28 34 24 35 26 36 25 37 34 38 35 39 36 40 37 41 38 42
REMARK SMILES IDX 39 43 100 44 40 45 99 46 41 47 42 48 43 49 93 50 44 51 98 52
REMARK SMILES IDX 92 53 94 54 45 55 97 56 91 57 90 58 46 60 78 61 58 62 77 63
REMARK SMILES IDX 59 64 62 65 76 66 95 67 60 68 61 69 75 71 96 72 63 73 47 74
REMARK SMILES IDX 48 75 56 76 49 77 55 78 57 79 54 80 50 81 51 82 52 83 53 84
REMARK SMILES IDX 79 85 80 86 88 87 81 88 87 89 89 90 86 91 82 92 83 93 84 94
REMARK SMILES IDX 85 95 64 96 65 97 73 98 66 99 72 100 74 101 71 102 67 103
REMARK SMILES IDX 68 104 69 105 70 106
REMARK H PARENT 18 9 94 59 62 70
REMARK Flexibility Score: inf
ROOT
ATOM      1  C   UNL     1      -6.889  -1.347  -9.980  1.00  0.00     0.274 C 
ENDROOT
BRANCH   1   2
ATOM      2  O   UNL     1      -5.470  -1.130 -10.130  1.00  0.00    -0.461 OA
BRANCH   2   3
ATOM      3  C   UNL     1      -4.762  -0.971  -8.989  1.00  0.00     0.329 C 
ATOM      4  O   UNL     1      -5.285  -0.877  -7.885  1.00  0.00    -0.250 OA
BRANCH   3   5
ATOM      5  C   UNL     1      -3.255  -0.799  -9.206  1.00  0.00     0.196 C 
BRANCH   5   6
ATOM      6  N   UNL     1      -2.616   0.494  -8.864  1.00  0.00    -0.342 N 
ATOM      7  C   UNL     1      -3.012   1.791  -8.907  1.00  0.00     0.221 C 
ATOM      8  O   UNL     1      -2.144   2.667  -8.860  1.00  0.00    -0.275 OA
ATOM      9  H   UNL     1      -1.696   0.387  -8.528  1.00  0.00     0.164 HD
BRANCH   7  10
ATOM     10  C   UNL     1      -4.473   2.168  -8.947  1.00  0.00     0.116 C 
BRANCH  10  11
ATOM     11  C   UNL     1      -5.092   2.466 -10.328  1.00  0.00     0.116 C 
ATOM     12  C   UNL     1     -11.637   0.035 -15.360  1.00  0.00     0.088 C 
ATOM     13  C   UNL     1     -10.650   0.548 -14.388  1.00  0.00     0.105 A 
ATOM     14  O   UNL     1      -9.351   0.275 -14.686  1.00  0.00    -0.461 OA
ATOM     15  C   UNL     1     -10.734   1.293 -13.222  1.00  0.00    -0.002 A 
ATOM     16  C   UNL     1      -8.595   0.820 -13.701  1.00  0.00     0.138 A 
ATOM     17  C   UNL     1      -9.393   1.414 -12.737  1.00  0.00     0.024 A 
ATOM     18  C   UNL     1     -11.950   1.878 -12.606  1.00  0.00     0.049 C 
ATOM     19  C   UNL     1      -7.215   0.794 -13.653  1.00  0.00     0.095 A 
ATOM     20  C   UNL     1      -8.762   1.969 -11.599  1.00  0.00     0.020 A 
ATOM     21  C   UNL     1      -6.631   1.370 -12.520  1.00  0.00     0.138 A 
ATOM     22  C   UNL     1      -7.352   1.942 -11.483  1.00  0.00    -0.001 A 
ATOM     23  O   UNL     1      -5.238   1.270 -12.485  1.00  0.00    -0.426 OA
ATOM     24  C   UNL     1      -6.643   2.382 -10.221  1.00  0.00     0.035 C 
ATOM     25  C   UNL     1      -4.435   1.693 -11.453  1.00  0.00     0.315 C 
ATOM     26  C   UNL     1      -7.185   3.722  -9.692  1.00  0.00     0.014 C 
ATOM     27  O   UNL     1      -3.225   1.522 -11.559  1.00  0.00    -0.251 OA
ENDBRANCH  10  11
ENDBRANCH   7  10
ENDBRANCH   5   6
BRANCH   5  28
ATOM     28  C   UNL     1      -2.472  -1.602 -10.292  1.00  0.00     0.070 C 
BRANCH  28  29
ATOM     29  C   UNL     1      -2.804  -1.932 -11.755  1.00  0.00    -0.037 C 
ATOM     30  C   UNL     1      -3.961  -2.487 -12.144  1.00  0.00     0.001 A 
ATOM     31  C   UNL     1      -1.692  -2.805 -12.338  1.00  0.00     0.174 C 
ATOM     32  C   UNL     1      -4.947  -1.967 -13.065  1.00  0.00     0.010 A 
ATOM     33  C   UNL     1      -3.557  -3.875 -12.481  1.00  0.00     0.065 A 
ATOM     34  N   UNL     1      -2.293  -4.139 -12.579  1.00  0.00    -0.280 NA
ATOM     35  C   UNL     1      -5.837  -2.818 -13.609  1.00  0.00     0.001 A 
ATOM     36  C   UNL     1      -4.685  -4.794 -12.748  1.00  0.00     0.028 A 
ATOM     37  C   UNL     1      -5.790  -4.238 -13.278  1.00  0.00     0.002 A 
ENDBRANCH  28  29
ENDBRANCH   5  28
ENDBRANCH   3   5
ENDBRANCH   2   3
ENDBRANCH   1   2
BRANCH   1  38
ATOM     38  C   UNL     1      -7.259  -2.813 -10.197  1.00  0.00     0.275 C 
BRANCH  38  39
ATOM     39  O   UNL     1      -7.116  -3.575  -9.000  1.00  0.00    -0.458 OA
BRANCH  39  40
ATOM     40  C   UNL     1      -5.862  -3.998  -8.697  1.00  0.00     0.338 C 
ATOM     41  O   UNL     1      -4.870  -3.975  -9.386  1.00  0.00    -0.246 OA
BRANCH  40  42
ATOM     42  C   UNL     1      -5.906  -4.250  -7.253  1.00  0.00     0.060 A 
ATOM     43  C   UNL     1      -6.923  -5.041  -6.713  1.00  0.00     0.016 A 
ATOM     44  C   UNL     1      -5.055  -3.498  -6.446  1.00  0.00     0.016 A 
ATOM     45  C   UNL     1      -7.129  -5.020  -5.344  1.00  0.00     0.010 A 
ATOM     46  C   UNL     1      -5.296  -3.440  -5.086  1.00  0.00     0.010 A 
ATOM     47  C   UNL     1      -6.333  -4.198  -4.532  1.00  0.00    -0.014 A 
BRANCH  47  48
ATOM     48  C   UNL     1      -6.575  -4.223  -3.086  1.00  0.00     0.031 A 
ATOM     49  C   UNL     1      -5.335  -4.208  -2.249  1.00  0.00     0.074 A 
ATOM     50  C   UNL     1      -7.712  -3.691  -2.594  1.00  0.00     0.049 A 
ATOM     51  N   UNL     1      -4.695  -3.121  -1.927  1.00  0.00    -0.248 NA
ATOM     52  C   UNL     1      -4.572  -5.436  -2.025  1.00  0.00     0.031 C 
ATOM     53  C   UNL     1      -8.331  -2.460  -3.103  1.00  0.00     0.029 A 
ATOM     54  N   UNL     1      -8.391  -3.970  -1.435  1.00  0.00    -0.354 N 
ATOM     55  C   UNL     1      -3.431  -3.504  -1.509  1.00  0.00     0.074 A 
ATOM     56  C   UNL     1      -3.407  -4.949  -1.575  1.00  0.00     0.031 C 
ATOM     57  C   UNL     1      -9.176  -1.988  -2.163  1.00  0.00     0.029 A 
ATOM     58  C   UNL     1      -9.257  -2.945  -1.062  1.00  0.00     0.049 A 
ATOM     59  H   UNL     1      -8.278  -4.803  -0.923  1.00  0.00     0.167 HD
ATOM     60  C   UNL     1      -2.457  -2.626  -1.150  1.00  0.00     0.034 A 
ATOM     61  C   UNL     1      -9.537  -2.643   0.235  1.00  0.00     0.034 A 
ATOM     62  C   UNL     1      -2.814  -1.239  -1.199  1.00  0.00     0.049 A 
ATOM     63  C   UNL     1      -8.264  -1.921   0.626  1.00  0.00     0.074 A 
ATOM     64  C   UNL     1      -2.609  -0.163  -2.034  1.00  0.00     0.029 A 
ATOM     65  N   UNL     1      -3.613  -0.746  -0.193  1.00  0.00    -0.354 N 
ATOM     66  N   UNL     1      -7.959  -0.680   0.344  1.00  0.00    -0.248 NA
ATOM     67  C   UNL     1      -7.125  -2.741   1.046  1.00  0.00     0.031 C 
ATOM     68  C   UNL     1      -3.646   0.773  -1.719  1.00  0.00     0.029 A 
ATOM     69  C   UNL     1      -4.457   0.184  -0.748  1.00  0.00     0.049 A 
ATOM     70  H   UNL     1      -3.585  -1.013   0.754  1.00  0.00     0.167 HD
ATOM     71  C   UNL     1      -6.559  -0.643   0.275  1.00  0.00     0.074 A 
ATOM     72  C   UNL     1      -6.115  -1.936   0.750  1.00  0.00     0.031 C 
ATOM     73  C   UNL     1      -5.840   0.349  -0.332  1.00  0.00     0.034 A 
BRANCH  60  74
ATOM     74  C   UNL     1      -1.179  -3.048  -0.534  1.00  0.00     0.023 A 
ATOM     75  C   UNL     1      -0.045  -3.428  -1.266  1.00  0.00     0.031 A 
ATOM     76  C   UNL     1      -1.081  -2.948   0.866  1.00  0.00     0.131 A 
ATOM     77  C   UNL     1       1.155  -3.678  -0.579  1.00  0.00     0.055 A 
ATOM     78  C   UNL     1       0.112  -3.187   1.540  1.00  0.00     0.041 A 
ATOM     79  F   UNL     1      -2.152  -2.588   1.593  1.00  0.00    -0.206 F 
ATOM     80  C   UNL     1       1.240  -3.549   0.815  1.00  0.00     0.022 A 
BRANCH  77  81
ATOM     81  S   UNL     1       2.671  -4.163  -1.452  1.00  0.00     0.124 S 
ATOM     82  O   UNL     1       3.596  -3.096  -1.081  1.00  0.00    -0.237 OA
ATOM     83  O   UNL     1       2.954  -5.469  -0.860  1.00  0.00    -0.237 OA
ATOM     84  O   UNL     1       2.272  -4.189  -2.856  1.00  0.00    -0.744 OA
ENDBRANCH  77  81
ENDBRANCH  60  74
BRANCH  61  85
ATOM     85  C   UNL     1     -10.132  -3.800   0.987  1.00  0.00     0.023 A 
ATOM     86  C   UNL     1      -9.553  -4.430   2.095  1.00  0.00     0.031 A 
ATOM     87  C   UNL     1     -11.324  -4.374   0.483  1.00  0.00     0.131 A 
ATOM     88  C   UNL     1     -10.039  -5.673   2.536  1.00  0.00     0.055 A 
ATOM     89  C   UNL     1     -11.847  -5.577   0.968  1.00  0.00     0.041 A 
ATOM     90  F   UNL     1     -11.989  -3.783  -0.525  1.00  0.00    -0.206 F 
ATOM     91  C   UNL     1     -11.180  -6.253   1.980  1.00  0.00     0.022 A 
BRANCH  88  92
ATOM     92  S   UNL     1      -9.124  -6.625   3.781  1.00  0.00     0.124 S 
ATOM     93  O   UNL     1     -10.178  -7.004   4.717  1.00  0.00    -0.237 OA
ATOM     94  O   UNL     1      -8.578  -7.708   2.968  1.00  0.00    -0.237 OA
ATOM     95  O   UNL     1      -8.148  -5.666   4.288  1.00  0.00    -0.744 OA
ENDBRANCH  88  92
ENDBRANCH  61  85
BRANCH  73  96
ATOM     96  C   UNL     1      -6.602   1.568  -0.763  1.00  0.00     0.023 A 
ATOM     97  C   UNL     1      -6.632   1.980  -2.112  1.00  0.00     0.031 A 
ATOM     98  C   UNL     1      -7.215   2.392   0.194  1.00  0.00     0.131 A 
ATOM     99  C   UNL     1      -7.197   3.214  -2.455  1.00  0.00     0.055 A 
ATOM    100  C   UNL     1      -7.833   3.592  -0.162  1.00  0.00     0.041 A 
ATOM    101  F   UNL     1      -7.180   2.072   1.498  1.00  0.00    -0.206 F 
ATOM    102  C   UNL     1      -7.812   4.016  -1.488  1.00  0.00     0.022 A 
BRANCH  99 103
ATOM    103  S   UNL     1      -7.090   3.865  -4.147  1.00  0.00     0.124 S 
ATOM    104  O   UNL     1      -8.469   4.262  -4.425  1.00  0.00    -0.237 OA
ATOM    105  O   UNL     1      -6.149   4.971  -3.986  1.00  0.00    -0.237 OA
ATOM    106  O   UNL     1      -6.604   2.742  -4.941  1.00  0.00    -0.744 OA
ENDBRANCH  99 103
ENDBRANCH  73  96
ENDBRANCH  47  48
ENDBRANCH  40  42
ENDBRANCH  39  40
ENDBRANCH  38  39
ENDBRANCH   1  38
TORSDOF 19
