REMARK SMILES O=C(N[C@@H]1C=C[C@@H](C(=O)OCCOC(=O)c2ccc(-c3c4nc(c(-c5cc(S(=O)(=O)[O-])ccc5F)c5ccc([nH]5)c(-c5cc(S(=O)(=O)[O-])ccc5F)c5nc(c(-c6cc(S(=O)(=O)[O-])ccc6F)c6ccc3[nH]6)C=C5)C=C4)cc2)C1)Oc1ccccc1
REMARK SMILES IDX 11 1 10 2 8 3 9 4 7 5 4 6 5 7 79 8 6 9 3 10 1 11 2 12 80 14
REMARK SMILES IDX 81 15 82 16 86 17 83 18 85 19 84 20 12 21 13 22 14 23 15 24
REMARK SMILES IDX 16 25 17 26 78 27 18 28 77 29 19 30 20 31 21 32 71 33 22 34
REMARK SMILES IDX 76 35 70 36 72 37 23 38 75 39 69 40 68 41 24 43 56 44 36 45
REMARK SMILES IDX 55 46 37 47 40 48 54 49 73 50 38 51 39 52 53 54 74 55 41 56
REMARK SMILES IDX 25 57 26 58 34 59 27 60 33 61 35 62 32 63 28 64 29 65 30 66
REMARK SMILES IDX 31 67 57 68 58 69 66 70 59 71 65 72 67 73 64 74 60 75 61 76
REMARK SMILES IDX 62 77 63 78 42 79 43 80 51 81 44 82 50 83 52 84 49 85 45 86
REMARK SMILES IDX 46 87 47 88 48 89
REMARK H PARENT 3 13 72 42 40 53
REMARK Flexibility Score: inf
ROOT
ATOM      1  C   UNL     1       4.892   4.066   1.303  1.00  0.00     0.274 C 
ENDROOT
BRANCH   1   2
ATOM      2  O   UNL     1       4.874   2.626   1.264  1.00  0.00    -0.462 OA
BRANCH   2   3
ATOM      3  C   UNL     1       5.790   2.034   0.449  1.00  0.00     0.312 C 
ATOM      4  O   UNL     1       6.495   2.642  -0.350  1.00  0.00    -0.252 OA
BRANCH   3   5
ATOM      5  C   UNL     1       5.962   0.551   0.781  1.00  0.00     0.124 C 
ATOM      6  C   UNL     1       4.413  -1.121  -0.110  1.00  0.00     0.109 C 
ATOM      7  C   UNL     1       5.693  -1.097  -0.872  1.00  0.00    -0.006 C 
ATOM      8  C   UNL     1       4.692  -0.235   1.109  1.00  0.00     0.049 C 
ATOM      9  C   UNL     1       6.540  -0.185  -0.390  1.00  0.00    -0.014 C 
BRANCH   6  10
ATOM     10  N   UNL     1       4.115  -2.487   0.249  1.00  0.00    -0.315 N 
ATOM     11  O   UNL     1       3.538  -4.639   0.041  1.00  0.00    -0.224 OA
ATOM     12  C   UNL     1       3.505  -3.505  -0.434  1.00  0.00     0.413 C 
ATOM     13  H   UNL     1       4.404  -2.733   1.158  1.00  0.00     0.167 HD
BRANCH  12  14
ATOM     14  O   UNL     1       2.894  -3.290  -1.681  1.00  0.00    -0.410 OA
BRANCH  14  15
ATOM     15  C   UNL     1       2.380  -2.067  -2.144  1.00  0.00     0.132 A 
ATOM     16  C   UNL     1       1.249  -1.514  -1.547  1.00  0.00     0.047 A 
ATOM     17  C   UNL     1       3.048  -1.432  -3.190  1.00  0.00     0.047 A 
ATOM     18  C   UNL     1       0.821  -0.255  -1.964  1.00  0.00     0.004 A 
ATOM     19  C   UNL     1       2.623  -0.168  -3.588  1.00  0.00     0.004 A 
ATOM     20  C   UNL     1       1.517   0.423  -2.971  1.00  0.00     0.000 A 
ENDBRANCH  14  15
ENDBRANCH  12  14
ENDBRANCH   6  10
ENDBRANCH   3   5
ENDBRANCH   2   3
ENDBRANCH   1   2
BRANCH   1  21
ATOM     21  C   UNL     1       5.397   4.539   2.666  1.00  0.00     0.275 C 
BRANCH  21  22
ATOM     22  O   UNL     1       6.737   4.067   2.905  1.00  0.00    -0.458 OA
BRANCH  22  23
ATOM     23  C   UNL     1       6.811   2.945   3.656  1.00  0.00     0.338 C 
ATOM     24  O   UNL     1       5.881   2.323   4.152  1.00  0.00    -0.246 OA
BRANCH  23  25
ATOM     25  C   UNL     1       8.202   2.493   3.768  1.00  0.00     0.060 A 
ATOM     26  C   UNL     1       8.764   1.763   2.722  1.00  0.00     0.016 A 
ATOM     27  C   UNL     1       8.878   2.626   4.980  1.00  0.00     0.016 A 
ATOM     28  C   UNL     1       9.941   1.052   2.930  1.00  0.00     0.010 A 
ATOM     29  C   UNL     1      10.124   2.012   5.140  1.00  0.00     0.010 A 
ATOM     30  C   UNL     1      10.649   1.180   4.134  1.00  0.00    -0.014 A 
BRANCH  30  31
ATOM     31  C   UNL     1      11.918   0.427   4.343  1.00  0.00     0.031 A 
ATOM     32  C   UNL     1      12.058  -0.522   5.506  1.00  0.00     0.074 A 
ATOM     33  C   UNL     1      12.947   0.593   3.489  1.00  0.00     0.049 A 
ATOM     34  N   UNL     1      13.127  -1.124   5.961  1.00  0.00    -0.248 NA
ATOM     35  C   UNL     1      10.837  -0.809   6.271  1.00  0.00     0.031 C 
ATOM     36  C   UNL     1      12.936   1.459   2.307  1.00  0.00     0.029 A 
ATOM     37  N   UNL     1      14.202   0.039   3.479  1.00  0.00    -0.354 N 
ATOM     38  C   UNL     1      12.722  -1.811   7.103  1.00  0.00     0.074 A 
ATOM     39  C   UNL     1      11.310  -1.538   7.271  1.00  0.00     0.031 C 
ATOM     40  C   UNL     1      14.109   1.350   1.669  1.00  0.00     0.029 A 
ATOM     41  C   UNL     1      14.990   0.484   2.443  1.00  0.00     0.049 A 
ATOM     42  H   UNL     1      14.510  -0.615   4.148  1.00  0.00     0.167 HD
ATOM     43  C   UNL     1      13.463  -2.592   7.931  1.00  0.00     0.034 A 
ATOM     44  C   UNL     1      16.290   0.268   2.169  1.00  0.00     0.034 A 
ATOM     45  C   UNL     1      14.860  -2.891   7.715  1.00  0.00     0.049 A 
ATOM     46  C   UNL     1      17.095  -0.590   3.101  1.00  0.00     0.074 A 
ATOM     47  C   UNL     1      15.698  -3.697   8.467  1.00  0.00     0.029 A 
ATOM     48  N   UNL     1      15.626  -2.399   6.664  1.00  0.00    -0.354 N 
ATOM     49  N   UNL     1      16.715  -1.186   4.208  1.00  0.00    -0.248 NA
ATOM     50  C   UNL     1      18.507  -0.792   2.756  1.00  0.00     0.031 C 
ATOM     51  C   UNL     1      16.980  -3.649   7.903  1.00  0.00     0.029 A 
ATOM     52  C   UNL     1      16.930  -2.863   6.763  1.00  0.00     0.049 A 
ATOM     53  H   UNL     1      15.291  -1.807   5.953  1.00  0.00     0.167 HD
ATOM     54  C   UNL     1      17.845  -1.830   4.696  1.00  0.00     0.074 A 
ATOM     55  C   UNL     1      18.912  -1.573   3.748  1.00  0.00     0.031 C 
ATOM     56  C   UNL     1      17.989  -2.566   5.828  1.00  0.00     0.034 A 
BRANCH  43  57
ATOM     57  C   UNL     1      12.786  -3.114   9.178  1.00  0.00     0.023 A 
ATOM     58  C   UNL     1      11.698  -4.003   9.126  1.00  0.00     0.031 A 
ATOM     59  C   UNL     1      13.204  -2.664  10.444  1.00  0.00     0.131 A 
ATOM     60  C   UNL     1      11.013  -4.341  10.304  1.00  0.00     0.055 A 
ATOM     61  C   UNL     1      12.570  -3.070  11.620  1.00  0.00     0.041 A 
ATOM     62  F   UNL     1      14.225  -1.799  10.559  1.00  0.00    -0.206 F 
ATOM     63  C   UNL     1      11.455  -3.899  11.553  1.00  0.00     0.022 A 
BRANCH  60  64
ATOM     64  S   UNL     1       9.435  -5.227  10.165  1.00  0.00     0.124 S 
ATOM     65  O   UNL     1       8.681  -4.351   9.272  1.00  0.00    -0.237 OA
ATOM     66  O   UNL     1       9.844  -6.511   9.609  1.00  0.00    -0.237 OA
ATOM     67  O   UNL     1       8.944  -5.270  11.541  1.00  0.00    -0.744 OA
ENDBRANCH  60  64
ENDBRANCH  43  57
BRANCH  44  68
ATOM     68  C   UNL     1      16.919   0.943   1.001  1.00  0.00     0.023 A 
ATOM     69  C   UNL     1      17.334   0.216  -0.124  1.00  0.00     0.031 A 
ATOM     70  C   UNL     1      17.092   2.340   0.993  1.00  0.00     0.131 A 
ATOM     71  C   UNL     1      17.917   0.890  -1.209  1.00  0.00     0.055 A 
ATOM     72  C   UNL     1      17.633   3.008  -0.105  1.00  0.00     0.041 A 
ATOM     73  F   UNL     1      16.700   3.078   2.043  1.00  0.00    -0.206 F 
ATOM     74  C   UNL     1      18.055   2.281  -1.213  1.00  0.00     0.022 A 
BRANCH  71  75
ATOM     75  S   UNL     1      18.520  -0.084  -2.615  1.00  0.00     0.124 S 
ATOM     76  O   UNL     1      19.562  -0.892  -1.992  1.00  0.00    -0.237 OA
ATOM     77  O   UNL     1      17.317  -0.796  -3.031  1.00  0.00    -0.237 OA
ATOM     78  O   UNL     1      18.994   0.932  -3.553  1.00  0.00    -0.744 OA
ENDBRANCH  71  75
ENDBRANCH  44  68
BRANCH  56  79
ATOM     79  C   UNL     1      19.356  -3.148   6.079  1.00  0.00     0.023 A 
ATOM     80  C   UNL     1      20.447  -2.332   6.425  1.00  0.00     0.031 A 
ATOM     81  C   UNL     1      19.575  -4.529   5.934  1.00  0.00     0.131 A 
ATOM     82  C   UNL     1      21.723  -2.898   6.566  1.00  0.00     0.055 A 
ATOM     83  C   UNL     1      20.837  -5.093   6.124  1.00  0.00     0.041 A 
ATOM     84  F   UNL     1      18.567  -5.349   5.600  1.00  0.00    -0.206 F 
ATOM     85  C   UNL     1      21.922  -4.274   6.429  1.00  0.00     0.022 A 
BRANCH  82  86
ATOM     86  S   UNL     1      23.137  -1.798   6.846  1.00  0.00     0.124 S 
ATOM     87  O   UNL     1      23.095  -0.942   5.665  1.00  0.00    -0.237 OA
ATOM     88  O   UNL     1      22.791  -1.159   8.111  1.00  0.00    -0.237 OA
ATOM     89  O   UNL     1      24.276  -2.713   6.907  1.00  0.00    -0.744 OA
ENDBRANCH  82  86
ENDBRANCH  56  79
ENDBRANCH  30  31
ENDBRANCH  23  25
ENDBRANCH  22  23
ENDBRANCH  21  22
ENDBRANCH   1  21
TORSDOF 17
