REMARK SMILES COc1ncccc1Cn1ccc(C(=O)OCCOC(=O)c2ccc(-c3c4nc(c(-c5cc(S(=O)(=O)[O-])ccc5F)c5ccc([nH]5)c(-c5cc(S(=O)(=O)[O-])ccc5F)c5nc(c(-c6cc(S(=O)(=O)[O-])ccc6F)c6ccc3[nH]6)C=C5)C=C4)cc2)n1
REMARK SMILES IDX 17 1 16 2 14 3 15 4 13 5 10 6 11 7 85 8 12 9 9 10 8 11 3 12
REMARK SMILES IDX 4 13 5 14 7 15 6 16 2 17 1 18 18 19 19 20 20 21 21 22 22 23
REMARK SMILES IDX 23 24 84 25 24 26 83 27 25 28 26 29 27 30 77 31 28 32 82 33
REMARK SMILES IDX 76 34 78 35 29 36 81 37 75 38 74 39 30 41 62 42 42 43 61 44
REMARK SMILES IDX 43 45 46 46 60 47 79 48 44 49 45 50 59 52 80 53 47 54 31 55
REMARK SMILES IDX 32 56 40 57 33 58 39 59 41 60 38 61 34 62 35 63 36 64 37 65
REMARK SMILES IDX 63 66 64 67 72 68 65 69 71 70 73 71 70 72 66 73 67 74 68 75
REMARK SMILES IDX 69 76 48 77 49 78 57 79 50 80 56 81 58 82 55 83 51 84 52 85
REMARK SMILES IDX 53 86 54 87
REMARK H PARENT 78 40 46 51
REMARK Flexibility Score: inf
ROOT
ATOM      1  C   UNL     1       5.702   1.564   5.353  1.00  0.00     0.275 C 
ENDROOT
BRANCH   1   2
ATOM      2  O   UNL     1       5.338   1.394   3.981  1.00  0.00    -0.457 OA
BRANCH   2   3
ATOM      3  C   UNL     1       4.364   0.439   3.749  1.00  0.00     0.358 C 
ATOM      4  O   UNL     1       4.048  -0.413   4.552  1.00  0.00    -0.244 OA
BRANCH   3   5
ATOM      5  C   UNL     1       3.635   0.692   2.503  1.00  0.00     0.170 A 
ATOM      6  N   UNL     1       3.143   1.326   0.531  1.00  0.00    -0.267 N 
ATOM      7  C   UNL     1       1.943   1.200   1.168  1.00  0.00     0.110 A 
ATOM      8  N   UNL     1       4.197   1.053   1.338  1.00  0.00    -0.165 NA
ATOM      9  C   UNL     1       2.218   0.657   2.396  1.00  0.00     0.057 A 
BRANCH   6  10
ATOM     10  C   UNL     1       3.399   1.592  -0.887  1.00  0.00     0.185 C 
BRANCH  10  11
ATOM     11  C   UNL     1       2.275   2.277  -1.605  1.00  0.00     0.036 A 
ATOM     12  C   UNL     1       1.208   1.563  -2.148  1.00  0.00     0.218 A 
ATOM     13  N   UNL     1       0.156   2.127  -2.778  1.00  0.00    -0.222 NA
ATOM     14  C   UNL     1       0.156   3.477  -2.862  1.00  0.00     0.115 A 
ATOM     15  C   UNL     1       2.241   3.671  -1.726  1.00  0.00     0.013 A 
ATOM     16  C   UNL     1       1.171   4.282  -2.371  1.00  0.00     0.021 A 
BRANCH  12  17
ATOM     17  O   UNL     1       1.275   0.191  -2.184  1.00  0.00    -0.481 OA
ATOM     18  C   UNL     1       0.370  -0.397  -1.253  1.00  0.00     0.280 C 
ENDBRANCH  12  17
ENDBRANCH  10  11
ENDBRANCH   6  10
ENDBRANCH   3   5
ENDBRANCH   2   3
ENDBRANCH   1   2
BRANCH   1  19
ATOM     19  C   UNL     1       4.797   2.578   6.049  1.00  0.00     0.275 C 
BRANCH  19  20
ATOM     20  O   UNL     1       3.478   2.065   6.256  1.00  0.00    -0.458 OA
BRANCH  20  21
ATOM     21  C   UNL     1       2.559   2.518   5.372  1.00  0.00     0.338 C 
ATOM     22  O   UNL     1       2.785   2.976   4.265  1.00  0.00    -0.246 OA
BRANCH  21  23
ATOM     23  C   UNL     1       1.235   2.567   6.004  1.00  0.00     0.060 A 
ATOM     24  C   UNL     1       0.126   2.825   5.190  1.00  0.00     0.016 A 
ATOM     25  C   UNL     1       1.148   2.624   7.401  1.00  0.00     0.016 A 
ATOM     26  C   UNL     1      -1.042   3.276   5.777  1.00  0.00     0.010 A 
ATOM     27  C   UNL     1      -0.010   3.092   7.982  1.00  0.00     0.010 A 
ATOM     28  C   UNL     1      -1.072   3.472   7.161  1.00  0.00    -0.014 A 
BRANCH  28  29
ATOM     29  C   UNL     1      -2.272   4.027   7.762  1.00  0.00     0.031 A 
ATOM     30  C   UNL     1      -3.404   3.077   7.864  1.00  0.00     0.074 A 
ATOM     31  C   UNL     1      -2.286   5.243   8.341  1.00  0.00     0.049 A 
ATOM     32  N   UNL     1      -4.592   3.187   7.373  1.00  0.00    -0.248 NA
ATOM     33  C   UNL     1      -3.137   1.776   8.500  1.00  0.00     0.031 C 
ATOM     34  C   UNL     1      -1.143   6.133   8.561  1.00  0.00     0.029 A 
ATOM     35  N   UNL     1      -3.308   5.883   8.975  1.00  0.00    -0.354 N 
ATOM     36  C   UNL     1      -5.290   2.069   7.820  1.00  0.00     0.074 A 
ATOM     37  C   UNL     1      -4.306   1.161   8.339  1.00  0.00     0.031 C 
ATOM     38  C   UNL     1      -1.485   7.080   9.463  1.00  0.00     0.029 A 
ATOM     39  C   UNL     1      -2.896   6.937   9.783  1.00  0.00     0.049 A 
ATOM     40  H   UNL     1      -4.252   5.624   8.871  1.00  0.00     0.167 HD
ATOM     41  C   UNL     1      -6.645   2.080   7.942  1.00  0.00     0.034 A 
ATOM     42  C   UNL     1      -3.638   7.598  10.709  1.00  0.00     0.034 A 
ATOM     43  C   UNL     1      -7.231   3.127   7.138  1.00  0.00     0.049 A 
ATOM     44  C   UNL     1      -5.064   7.373  10.376  1.00  0.00     0.074 A 
ATOM     45  C   UNL     1      -7.238   3.422   5.788  1.00  0.00     0.029 A 
ATOM     46  N   UNL     1      -7.648   4.276   7.771  1.00  0.00    -0.354 N 
ATOM     47  N   UNL     1      -5.630   7.820   9.289  1.00  0.00    -0.248 NA
ATOM     48  C   UNL     1      -5.774   6.287  11.035  1.00  0.00     0.031 C 
ATOM     49  C   UNL     1      -7.199   4.846   5.716  1.00  0.00     0.029 A 
ATOM     50  C   UNL     1      -7.222   5.344   7.021  1.00  0.00     0.049 A 
ATOM     51  H   UNL     1      -8.160   4.323   8.610  1.00  0.00     0.167 HD
ATOM     52  C   UNL     1      -6.499   6.815   8.896  1.00  0.00     0.074 A 
ATOM     53  C   UNL     1      -6.644   5.964  10.073  1.00  0.00     0.031 C 
ATOM     54  C   UNL     1      -6.792   6.614   7.577  1.00  0.00     0.034 A 
BRANCH  41  55
ATOM     55  C   UNL     1      -7.402   1.385   9.055  1.00  0.00     0.023 A 
ATOM     56  C   UNL     1      -8.803   1.522   9.062  1.00  0.00     0.031 A 
ATOM     57  C   UNL     1      -6.836   0.854  10.238  1.00  0.00     0.131 A 
ATOM     58  C   UNL     1      -9.553   1.248  10.220  1.00  0.00     0.055 A 
ATOM     59  C   UNL     1      -7.595   0.513  11.362  1.00  0.00     0.041 A 
ATOM     60  F   UNL     1      -5.518   0.719  10.421  1.00  0.00    -0.206 F 
ATOM     61  C   UNL     1      -8.958   0.742  11.371  1.00  0.00     0.022 A 
BRANCH  58  62
ATOM     62  S   UNL     1     -11.291   1.753  10.255  1.00  0.00     0.124 S 
ATOM     63  O   UNL     1     -11.200   3.148   9.836  1.00  0.00    -0.237 OA
ATOM     64  O   UNL     1     -11.890   0.829   9.299  1.00  0.00    -0.237 OA
ATOM     65  O   UNL     1     -11.674   1.545  11.649  1.00  0.00    -0.744 OA
ENDBRANCH  58  62
ENDBRANCH  41  55
BRANCH  42  66
ATOM     66  C   UNL     1      -3.166   8.129  12.014  1.00  0.00     0.023 A 
ATOM     67  C   UNL     1      -3.849   9.141  12.717  1.00  0.00     0.031 A 
ATOM     68  C   UNL     1      -2.126   7.465  12.704  1.00  0.00     0.131 A 
ATOM     69  C   UNL     1      -3.479   9.454  14.046  1.00  0.00     0.055 A 
ATOM     70  C   UNL     1      -1.757   7.787  14.010  1.00  0.00     0.041 A 
ATOM     71  F   UNL     1      -1.485   6.419  12.156  1.00  0.00    -0.206 F 
ATOM     72  C   UNL     1      -2.439   8.780  14.692  1.00  0.00     0.022 A 
BRANCH  69  73
ATOM     73  S   UNL     1      -4.422  10.691  14.994  1.00  0.00     0.124 S 
ATOM     74  O   UNL     1      -4.089  11.931  14.304  1.00  0.00    -0.237 OA
ATOM     75  O   UNL     1      -5.793  10.215  14.850  1.00  0.00    -0.237 OA
ATOM     76  O   UNL     1      -3.875  10.574  16.346  1.00  0.00    -0.744 OA
ENDBRANCH  69  73
ENDBRANCH  42  66
BRANCH  54  77
ATOM     77  C   UNL     1      -6.425   7.709   6.594  1.00  0.00     0.023 A 
ATOM     78  C   UNL     1      -5.112   8.187   6.376  1.00  0.00     0.031 A 
ATOM     79  C   UNL     1      -7.446   8.209   5.767  1.00  0.00     0.131 A 
ATOM     80  C   UNL     1      -4.867   9.142   5.369  1.00  0.00     0.055 A 
ATOM     81  C   UNL     1      -7.196   9.139   4.759  1.00  0.00     0.041 A 
ATOM     82  F   UNL     1      -8.709   7.770   5.904  1.00  0.00    -0.206 F 
ATOM     83  C   UNL     1      -5.905   9.614   4.560  1.00  0.00     0.022 A 
BRANCH  80  84
ATOM     84  S   UNL     1      -3.186   9.793   5.099  1.00  0.00     0.124 S 
ATOM     85  O   UNL     1      -2.747  10.173   6.436  1.00  0.00    -0.237 OA
ATOM     86  O   UNL     1      -2.498   8.653   4.498  1.00  0.00    -0.237 OA
ATOM     87  O   UNL     1      -3.400  10.918   4.186  1.00  0.00    -0.744 OA
ENDBRANCH  80  84
ENDBRANCH  54  77
ENDBRANCH  28  29
ENDBRANCH  21  23
ENDBRANCH  20  21
ENDBRANCH  19  20
ENDBRANCH   1  19
TORSDOF 17
