REMARK SMILES O=C(OCCOC(=O)c1cc(S(=O)(=O)NCc2ccncc2)c(Cl)cc1Cl)c1ccc(-c2c3nc(c(-c4cc(S(=O)(=O)[O-])ccc4F)c4ccc([nH]4)c(-c4cc(S(=O)(=O)[O-])ccc4F)c4nc(c(-c5cc(S(=O)(=O)[O-])ccc5F)c5ccc2[nH]5)C=C4)C=C3)cc1
REMARK SMILES IDX 5 1 4 2 3 3 2 4 1 5 28 6 29 7 90 8 30 9 89 10 31 11 32 12
REMARK SMILES IDX 33 13 83 14 34 15 88 16 82 17 84 18 35 19 87 20 81 21 80 22
REMARK SMILES IDX 36 24 68 25 48 26 67 27 49 28 52 29 66 30 85 31 50 32 51 33
REMARK SMILES IDX 65 35 86 36 53 37 37 38 38 39 46 40 39 41 45 42 47 43 44 44
REMARK SMILES IDX 40 45 41 46 42 47 43 48 69 49 70 50 78 51 71 52 77 53 79 54
REMARK SMILES IDX 76 55 72 56 73 57 74 58 75 59 54 60 55 61 63 62 56 63 62 64
REMARK SMILES IDX 64 65 61 66 57 67 58 68 59 69 60 70 6 71 7 72 8 73 9 74
REMARK SMILES IDX 10 75 26 76 11 77 25 78 27 79 23 80 24 81 12 82 13 83 14 84
REMARK SMILES IDX 15 85 16 87 17 88 18 89 22 90 19 91 21 92 20 93
REMARK H PARENT 84 23 52 34 15 86
REMARK Flexibility Score: inf
ROOT
ATOM      1  C   UNL     1       3.343  -1.579  -1.651  1.00  0.00     0.275 C 
ENDROOT
BRANCH   1   2
ATOM      2  C   UNL     1       3.902  -1.750  -0.227  1.00  0.00     0.275 C 
BRANCH   2   3
ATOM      3  O   UNL     1       3.156  -1.078   0.807  1.00  0.00    -0.458 OA
BRANCH   3   4
ATOM      4  C   UNL     1       3.427   0.171   1.271  1.00  0.00     0.338 C 
ATOM      5  O   UNL     1       2.969   0.569   2.336  1.00  0.00    -0.246 OA
BRANCH   4   6
ATOM      6  C   UNL     1       4.061   1.132   0.341  1.00  0.00     0.060 A 
ATOM      7  C   UNL     1       5.334   0.965  -0.227  1.00  0.00     0.016 A 
ATOM      8  C   UNL     1       3.288   2.232  -0.011  1.00  0.00     0.016 A 
ATOM      9  C   UNL     1       5.761   1.780  -1.284  1.00  0.00     0.010 A 
ATOM     10  C   UNL     1       3.729   3.062  -1.030  1.00  0.00     0.010 A 
ATOM     11  C   UNL     1       4.941   2.816  -1.715  1.00  0.00    -0.014 A 
BRANCH  11  12
ATOM     12  C   UNL     1       5.356   3.870  -2.678  1.00  0.00     0.031 A 
ATOM     13  C   UNL     1       5.530   5.314  -1.766  1.00  0.00     0.074 A 
ATOM     14  C   UNL     1       5.350   3.550  -4.042  1.00  0.00     0.049 A 
ATOM     15  N   UNL     1       5.336   6.591  -2.033  1.00  0.00    -0.248 NA
ATOM     16  C   UNL     1       5.829   5.193  -0.322  1.00  0.00     0.031 C 
ATOM     17  C   UNL     1       5.406   2.337  -4.903  1.00  0.00     0.029 A 
ATOM     18  N   UNL     1       5.174   4.414  -5.082  1.00  0.00    -0.354 N 
ATOM     19  C   UNL     1       5.628   7.418  -0.967  1.00  0.00     0.074 A 
ATOM     20  C   UNL     1       5.740   6.454   0.120  1.00  0.00     0.031 C 
ATOM     21  C   UNL     1       5.369   2.673  -6.253  1.00  0.00     0.029 A 
ATOM     22  C   UNL     1       5.296   4.131  -6.425  1.00  0.00     0.049 A 
ATOM     23  H   UNL     1       4.934   5.339  -4.848  1.00  0.00     0.167 HD
ATOM     24  C   UNL     1       5.915   8.780  -0.947  1.00  0.00     0.034 A 
ATOM     25  C   UNL     1       5.269   5.110  -7.428  1.00  0.00     0.034 A 
ATOM     26  C   UNL     1       6.018   9.747  -2.118  1.00  0.00     0.049 A 
ATOM     27  C   UNL     1       5.494   6.817  -7.332  1.00  0.00     0.074 A 
ATOM     28  C   UNL     1       6.941  10.778  -2.275  1.00  0.00     0.029 A 
ATOM     29  N   UNL     1       5.346   9.750  -3.389  1.00  0.00    -0.354 N 
ATOM     30  N   UNL     1       5.237   7.739  -6.405  1.00  0.00    -0.248 NA
ATOM     31  C   UNL     1       6.126   7.485  -8.492  1.00  0.00     0.031 C 
ATOM     32  C   UNL     1       7.016  11.128  -3.651  1.00  0.00     0.029 A 
ATOM     33  C   UNL     1       6.183  10.289  -4.406  1.00  0.00     0.049 A 
ATOM     34  H   UNL     1       4.429   9.423  -3.536  1.00  0.00     0.167 HD
ATOM     35  C   UNL     1       5.884   8.954  -6.693  1.00  0.00     0.074 A 
ATOM     36  C   UNL     1       6.301   8.749  -8.080  1.00  0.00     0.031 C 
ATOM     37  C   UNL     1       6.246  10.053  -5.910  1.00  0.00     0.034 A 
BRANCH  24  38
ATOM     38  C   UNL     1       6.490   9.278   0.381  1.00  0.00     0.023 A 
ATOM     39  C   UNL     1       7.516   8.586   1.063  1.00  0.00     0.031 A 
ATOM     40  C   UNL     1       6.018  10.458   0.975  1.00  0.00     0.131 A 
ATOM     41  C   UNL     1       7.879   8.949   2.367  1.00  0.00     0.055 A 
ATOM     42  C   UNL     1       6.479  10.891   2.225  1.00  0.00     0.041 A 
ATOM     43  F   UNL     1       5.085  11.204   0.363  1.00  0.00    -0.206 F 
ATOM     44  C   UNL     1       7.380  10.112   2.948  1.00  0.00     0.022 A 
BRANCH  41  45
ATOM     45  S   UNL     1       8.801   7.747   3.375  1.00  0.00     0.124 S 
ATOM     46  O   UNL     1       8.090   6.502   3.087  1.00  0.00    -0.237 OA
ATOM     47  O   UNL     1      10.150   7.852   2.834  1.00  0.00    -0.237 OA
ATOM     48  O   UNL     1       8.627   8.246   4.738  1.00  0.00    -0.744 OA
ENDBRANCH  41  45
ENDBRANCH  24  38
BRANCH  25  49
ATOM     49  C   UNL     1       4.973   4.683  -8.817  1.00  0.00     0.023 A 
ATOM     50  C   UNL     1       5.969   4.405  -9.755  1.00  0.00     0.031 A 
ATOM     51  C   UNL     1       3.636   4.731  -9.256  1.00  0.00     0.131 A 
ATOM     52  C   UNL     1       5.604   4.186 -11.094  1.00  0.00     0.055 A 
ATOM     53  C   UNL     1       3.274   4.432 -10.566  1.00  0.00     0.041 A 
ATOM     54  F   UNL     1       2.665   5.162  -8.438  1.00  0.00    -0.206 F 
ATOM     55  C   UNL     1       4.265   4.161 -11.499  1.00  0.00     0.022 A 
BRANCH  52  56
ATOM     56  S   UNL     1       6.914   4.030 -12.335  1.00  0.00     0.124 S 
ATOM     57  O   UNL     1       7.440   5.391 -12.373  1.00  0.00    -0.237 OA
ATOM     58  O   UNL     1       7.785   3.024 -11.737  1.00  0.00    -0.237 OA
ATOM     59  O   UNL     1       6.198   3.599 -13.534  1.00  0.00    -0.744 OA
ENDBRANCH  52  56
ENDBRANCH  25  49
BRANCH  37  60
ATOM     60  C   UNL     1       7.108  11.098  -6.654  1.00  0.00     0.023 A 
ATOM     61  C   UNL     1       6.541  12.152  -7.393  1.00  0.00     0.031 A 
ATOM     62  C   UNL     1       8.518  11.071  -6.547  1.00  0.00     0.131 A 
ATOM     63  C   UNL     1       7.372  13.132  -7.984  1.00  0.00     0.055 A 
ATOM     64  C   UNL     1       9.334  12.060  -7.110  1.00  0.00     0.041 A 
ATOM     65  F   UNL     1       9.126  10.105  -5.842  1.00  0.00    -0.206 F 
ATOM     66  C   UNL     1       8.761  13.101  -7.833  1.00  0.00     0.022 A 
BRANCH  63  67
ATOM     67  S   UNL     1       6.618  14.476  -8.952  1.00  0.00     0.124 S 
ATOM     68  O   UNL     1       6.040  13.752 -10.079  1.00  0.00    -0.237 OA
ATOM     69  O   UNL     1       5.666  15.048  -8.005  1.00  0.00    -0.237 OA
ATOM     70  O   UNL     1       7.748  15.342  -9.285  1.00  0.00    -0.744 OA
ENDBRANCH  63  67
ENDBRANCH  37  60
ENDBRANCH  11  12
ENDBRANCH   4   6
ENDBRANCH   3   4
ENDBRANCH   2   3
ENDBRANCH   1   2
BRANCH   1  71
ATOM     71  O   UNL     1       3.004  -0.211  -1.969  1.00  0.00    -0.458 OA
BRANCH  71  72
ATOM     72  C   UNL     1       2.108  -0.014  -2.969  1.00  0.00     0.339 C 
ATOM     73  O   UNL     1       1.641  -0.887  -3.702  1.00  0.00    -0.246 OA
BRANCH  72  74
ATOM     74  C   UNL     1       1.657   1.405  -2.983  1.00  0.00     0.080 A 
ATOM     75  C   UNL     1       2.155   2.364  -3.908  1.00  0.00     0.040 A 
ATOM     76  C   UNL     1       0.676   1.804  -2.079  1.00  0.00     0.057 A 
ATOM     77  C   UNL     1       1.790   3.760  -3.858  1.00  0.00     0.102 A 
ATOM     78  C   UNL     1       0.266   3.144  -2.053  1.00  0.00     0.043 A 
ATOM     79  Cl  UNL     1      -0.060   0.707  -0.960  1.00  0.00    -0.083 Cl
ATOM     80  C   UNL     1       0.821   4.118  -2.918  1.00  0.00     0.062 A 
ATOM     81  Cl  UNL     1       0.253   5.729  -2.693  1.00  0.00    -0.083 Cl
BRANCH  77  82
ATOM     82  S   UNL     1       2.090   4.801  -5.326  1.00  0.00     0.242 S 
ATOM     83  O   UNL     1       2.446   3.800  -6.310  1.00  0.00    -0.207 OA
ATOM     84  O   UNL     1       0.860   5.532  -5.570  1.00  0.00    -0.207 OA
BRANCH  82  85
ATOM     85  N   UNL     1       3.370   6.019  -5.363  1.00  0.00    -0.207 NA
ATOM     86  H   UNL     1       2.842   6.870  -5.558  1.00  0.00     0.141 HD
BRANCH  85  87
ATOM     87  C   UNL     1       4.596   6.596  -4.359  1.00  0.00     0.134 C 
BRANCH  87  88
ATOM     88  C   UNL     1       6.407   6.504  -4.522  1.00  0.00    -0.030 A 
ATOM     89  C   UNL     1       7.378   5.660  -5.128  1.00  0.00     0.025 A 
ATOM     90  C   UNL     1       7.143   7.440  -3.828  1.00  0.00     0.025 A 
ATOM     91  C   UNL     1       8.781   5.795  -4.996  1.00  0.00     0.111 A 
ATOM     92  C   UNL     1       8.533   7.591  -3.739  1.00  0.00     0.111 A 
ATOM     93  N   UNL     1       9.391   6.755  -4.308  1.00  0.00    -0.265 NA
ENDBRANCH  87  88
ENDBRANCH  85  87
ENDBRANCH  82  85
ENDBRANCH  77  82
ENDBRANCH  72  74
ENDBRANCH  71  72
ENDBRANCH   1  71
TORSDOF 18
