REMARK SMILES O=C(OCCOC(=O)[C@H](Cc1ccc(O)cc1)NC(=O)c1ccc(Cl)s1)c1ccc(-c2c3nc(c(-c4cc(S(=O)(=O)[O-])ccc4F)c4ccc([nH]4)c(-c4cc(S(=O)(=O)[O-])ccc4F)c4nc(c(-c5cc(S(=O)(=O)[O-])ccc5F)c5ccc2[nH]5)C=C4)C=C3)cc1
REMARK SMILES IDX 4 1 3 2 2 3 1 4 27 5 28 6 89 7 29 8 88 9 30 10 31 11 32 12
REMARK SMILES IDX 82 13 33 14 87 15 81 16 83 17 34 18 86 19 80 20 79 21 35 23
REMARK SMILES IDX 67 24 47 25 66 26 48 27 51 28 65 29 84 30 49 31 50 32 64 34
REMARK SMILES IDX 85 35 52 36 36 37 37 38 45 39 38 40 44 41 46 42 43 43 39 44
REMARK SMILES IDX 40 45 41 46 42 47 68 48 69 49 77 50 70 51 76 52 78 53 75 54
REMARK SMILES IDX 71 55 72 56 73 57 74 58 53 59 54 60 62 61 55 62 61 63 63 64
REMARK SMILES IDX 60 65 56 66 57 67 58 68 59 69 5 70 6 71 7 72 8 73 9 74 18 75
REMARK SMILES IDX 19 76 20 78 21 79 22 80 26 81 23 82 24 83 25 84 10 85 11 86
REMARK SMILES IDX 12 87 17 88 13 89 16 90 14 91 15 92
REMARK H PARENT 83 22 51 33 18 77 15 93
REMARK Flexibility Score: inf
ROOT
ATOM      1  C   UNL     1       6.162  -1.933   3.598  1.00  0.00     0.275 C 
ENDROOT
BRANCH   1   2
ATOM      2  O   UNL     1       5.705  -0.825   4.426  1.00  0.00    -0.458 OA
BRANCH   2   3
ATOM      3  C   UNL     1       5.511   0.460   4.014  1.00  0.00     0.338 C 
ATOM      4  O   UNL     1       5.869   1.431   4.663  1.00  0.00    -0.246 OA
BRANCH   3   5
ATOM      5  C   UNL     1       4.557   0.644   2.900  1.00  0.00     0.060 A 
ATOM      6  C   UNL     1       4.715  -0.346   1.402  1.00  0.00     0.016 A 
ATOM      7  C   UNL     1       3.151   1.773   3.027  1.00  0.00     0.016 A 
ATOM      8  C   UNL     1       3.454  -0.374   0.158  1.00  0.00     0.010 A 
ATOM      9  C   UNL     1       1.875   1.778   1.692  1.00  0.00     0.010 A 
ATOM     10  C   UNL     1       2.059   0.731   0.235  1.00  0.00    -0.014 A 
BRANCH  10  11
ATOM     11  C   UNL     1       1.187   0.756  -0.989  1.00  0.00     0.031 A 
ATOM     12  C   UNL     1       1.696   1.256  -2.332  1.00  0.00     0.074 A 
ATOM     13  C   UNL     1      -0.018   0.159  -1.004  1.00  0.00     0.049 A 
ATOM     14  N   UNL     1       1.011   1.637  -3.385  1.00  0.00    -0.248 NA
ATOM     15  C   UNL     1       3.147   1.367  -2.518  1.00  0.00     0.031 C 
ATOM     16  C   UNL     1      -0.585  -0.621   0.084  1.00  0.00     0.029 A 
ATOM     17  N   UNL     1      -0.961   0.067  -2.001  1.00  0.00    -0.354 N 
ATOM     18  C   UNL     1       1.939   2.145  -4.292  1.00  0.00     0.074 A 
ATOM     19  C   UNL     1       3.238   1.983  -3.686  1.00  0.00     0.031 C 
ATOM     20  C   UNL     1      -1.787  -1.095  -0.285  1.00  0.00     0.029 A 
ATOM     21  C   UNL     1      -2.083  -0.641  -1.638  1.00  0.00     0.049 A 
ATOM     22  H   UNL     1      -0.845   0.470  -2.892  1.00  0.00     0.167 HD
ATOM     23  C   UNL     1       1.731   2.718  -5.505  1.00  0.00     0.034 A 
ATOM     24  C   UNL     1      -3.221  -0.903  -2.308  1.00  0.00     0.034 A 
ATOM     25  C   UNL     1       0.453   2.747  -6.166  1.00  0.00     0.049 A 
ATOM     26  C   UNL     1      -3.391  -0.420  -3.720  1.00  0.00     0.074 A 
ATOM     27  C   UNL     1       0.043   3.459  -7.282  1.00  0.00     0.029 A 
ATOM     28  N   UNL     1      -0.606   1.928  -5.811  1.00  0.00    -0.354 N 
ATOM     29  N   UNL     1      -2.606   0.364  -4.417  1.00  0.00    -0.248 NA
ATOM     30  C   UNL     1      -4.587  -0.877  -4.445  1.00  0.00     0.031 C 
ATOM     31  C   UNL     1      -1.252   3.036  -7.625  1.00  0.00     0.029 A 
ATOM     32  C   UNL     1      -1.631   2.051  -6.731  1.00  0.00     0.049 A 
ATOM     33  H   UNL     1      -0.626   1.344  -5.019  1.00  0.00     0.167 HD
ATOM     34  C   UNL     1      -3.214   0.494  -5.660  1.00  0.00     0.074 A 
ATOM     35  C   UNL     1      -4.417  -0.308  -5.631  1.00  0.00     0.031 C 
ATOM     36  C   UNL     1      -2.810   1.230  -6.724  1.00  0.00     0.034 A 
BRANCH  23  37
ATOM     37  C   UNL     1       2.901   3.436  -6.125  1.00  0.00     0.023 A 
ATOM     38  C   UNL     1       4.030   2.756  -6.606  1.00  0.00     0.031 A 
ATOM     39  C   UNL     1       2.927   4.843  -6.122  1.00  0.00     0.131 A 
ATOM     40  C   UNL     1       5.174   3.481  -6.973  1.00  0.00     0.055 A 
ATOM     41  C   UNL     1       4.037   5.561  -6.570  1.00  0.00     0.041 A 
ATOM     42  F   UNL     1       1.886   5.544  -5.644  1.00  0.00    -0.206 F 
ATOM     43  C   UNL     1       5.178   4.879  -6.979  1.00  0.00     0.022 A 
BRANCH  40  44
ATOM     44  S   UNL     1       6.720   2.572  -7.251  1.00  0.00     0.124 S 
ATOM     45  O   UNL     1       6.861   1.842  -5.992  1.00  0.00    -0.237 OA
ATOM     46  O   UNL     1       6.404   1.767  -8.425  1.00  0.00    -0.237 OA
ATOM     47  O   UNL     1       7.706   3.628  -7.462  1.00  0.00    -0.744 OA
ENDBRANCH  40  44
ENDBRANCH  23  37
BRANCH  24  48
ATOM     48  C   UNL     1      -4.308  -1.669  -1.649  1.00  0.00     0.023 A 
ATOM     49  C   UNL     1      -4.529  -3.016  -1.966  1.00  0.00     0.031 A 
ATOM     50  C   UNL     1      -5.152  -1.051  -0.713  1.00  0.00     0.131 A 
ATOM     51  C   UNL     1      -5.599  -3.700  -1.375  1.00  0.00     0.055 A 
ATOM     52  C   UNL     1      -6.205  -1.741  -0.113  1.00  0.00     0.041 A 
ATOM     53  F   UNL     1      -4.956   0.230  -0.365  1.00  0.00    -0.206 F 
ATOM     54  C   UNL     1      -6.439  -3.072  -0.450  1.00  0.00     0.022 A 
BRANCH  51  55
ATOM     55  S   UNL     1      -5.905  -5.416  -1.871  1.00  0.00     0.124 S 
ATOM     56  O   UNL     1      -6.041  -5.291  -3.318  1.00  0.00    -0.237 OA
ATOM     57  O   UNL     1      -4.697  -6.083  -1.395  1.00  0.00    -0.237 OA
ATOM     58  O   UNL     1      -7.131  -5.763  -1.155  1.00  0.00    -0.744 OA
ENDBRANCH  51  55
ENDBRANCH  24  48
BRANCH  36  59
ATOM     59  C   UNL     1      -3.643   1.155  -7.966  1.00  0.00     0.023 A 
ATOM     60  C   UNL     1      -4.830   1.893  -8.095  1.00  0.00     0.031 A 
ATOM     61  C   UNL     1      -3.250   0.321  -9.025  1.00  0.00     0.131 A 
ATOM     62  C   UNL     1      -5.601   1.766  -9.259  1.00  0.00     0.055 A 
ATOM     63  C   UNL     1      -4.014   0.209 -10.187  1.00  0.00     0.041 A 
ATOM     64  F   UNL     1      -2.126  -0.408  -8.937  1.00  0.00    -0.206 F 
ATOM     65  C   UNL     1      -5.200   0.930 -10.306  1.00  0.00     0.022 A 
BRANCH  62  66
ATOM     66  S   UNL     1      -7.163   2.682  -9.374  1.00  0.00     0.124 S 
ATOM     67  O   UNL     1      -7.895   2.188  -8.212  1.00  0.00    -0.237 OA
ATOM     68  O   UNL     1      -6.714   4.069  -9.303  1.00  0.00    -0.237 OA
ATOM     69  O   UNL     1      -7.707   2.273 -10.668  1.00  0.00    -0.744 OA
ENDBRANCH  62  66
ENDBRANCH  36  59
ENDBRANCH  10  11
ENDBRANCH   3   5
ENDBRANCH   2   3
ENDBRANCH   1   2
BRANCH   1  70
ATOM     70  C   UNL     1       5.073  -2.966   3.191  1.00  0.00     0.274 C 
BRANCH  70  71
ATOM     71  O   UNL     1       4.049  -2.406   2.339  1.00  0.00    -0.461 OA
BRANCH  71  72
ATOM     72  C   UNL     1       3.263  -1.534   3.024  1.00  0.00     0.329 C 
ATOM     73  O   UNL     1       3.066  -1.708   4.232  1.00  0.00    -0.250 OA
BRANCH  72  74
ATOM     74  C   UNL     1       2.711  -0.069   2.168  1.00  0.00     0.197 C 
BRANCH  74  75
ATOM     75  N   UNL     1       1.758   0.124   3.619  1.00  0.00    -0.338 N 
ATOM     76  C   UNL     1       0.580   0.436   4.217  1.00  0.00     0.262 C 
ATOM     77  H   UNL     1       2.368  -0.102   4.358  1.00  0.00     0.164 HD
ATOM     78  O   UNL     1       0.601   0.391   5.452  1.00  0.00    -0.268 OA
BRANCH  76  79
ATOM     79  C   UNL     1      -0.625   0.788   3.524  1.00  0.00     0.093 A 
ATOM     80  C   UNL     1      -1.636  -0.054   3.103  1.00  0.00     0.027 A 
ATOM     81  S   UNL     1      -1.146   2.425   3.546  1.00  0.00    -0.118 S 
ATOM     82  C   UNL     1      -2.802   0.663   2.693  1.00  0.00     0.033 A 
ATOM     83  C   UNL     1      -2.647   2.009   2.891  1.00  0.00     0.094 A 
ATOM     84  Cl  UNL     1      -3.817   3.232   2.604  1.00  0.00    -0.072 Cl
ENDBRANCH  76  79
ENDBRANCH  74  75
BRANCH  74  85
ATOM     85  C   UNL     1       3.828   1.528   1.141  1.00  0.00     0.072 C 
BRANCH  85  86
ATOM     86  C   UNL     1       3.745   3.259   0.996  1.00  0.00    -0.045 A 
ATOM     87  C   UNL     1       3.114   3.855  -0.112  1.00  0.00     0.007 A 
ATOM     88  C   UNL     1       4.407   4.101   1.915  1.00  0.00     0.007 A 
ATOM     89  C   UNL     1       3.087   5.241  -0.272  1.00  0.00     0.046 A 
ATOM     90  C   UNL     1       4.346   5.492   1.771  1.00  0.00     0.046 A 
ATOM     91  C   UNL     1       3.689   6.050   0.681  1.00  0.00     0.115 A 
BRANCH  91  92
ATOM     92  O   UNL     1       3.661   7.409   0.569  1.00  0.00    -0.508 OA
ATOM     93  H   UNL     1       3.224   7.811  -0.156  1.00  0.00     0.293 HD
ENDBRANCH  91  92
ENDBRANCH  85  86
ENDBRANCH  74  85
ENDBRANCH  72  74
ENDBRANCH  71  72
ENDBRANCH  70  71
ENDBRANCH   1  70
TORSDOF 19
