REMARK SMILES CCCC[C@H](O)[C@H](F)C(=O)OCCOC(=O)c1ccc(-c2c3nc(c(-c4cc(S(=O)(=O)[O-])ccc4F)c4ccc([nH]4)c(-c4cc(S(=O)(=O)[O-])ccc4F)c4nc(c(-c5cc(S(=O)(=O)[O-])ccc5F)c5ccc2[nH]5)C=C4)C=C3)cc1
REMARK SMILES IDX 12 1 11 2 9 3 10 4 7 5 8 6 5 7 4 8 3 9 2 10 1 11 6 12 13 14
REMARK SMILES IDX 14 15 15 16 16 17 17 18 18 19 79 20 19 21 78 22 20 23 21 24
REMARK SMILES IDX 22 25 72 26 23 27 77 28 71 29 73 30 24 31 76 32 70 33 69 34
REMARK SMILES IDX 25 36 57 37 37 38 56 39 38 40 41 41 55 42 74 43 39 44 40 45
REMARK SMILES IDX 54 47 75 48 42 49 26 50 27 51 35 52 28 53 34 54 36 55 33 56
REMARK SMILES IDX 29 57 30 58 31 59 32 60 58 61 59 62 67 63 60 64 66 65 68 66
REMARK SMILES IDX 65 67 61 68 62 69 63 70 64 71 43 72 44 73 52 74 45 75 51 76
REMARK SMILES IDX 53 77 50 78 46 79 47 80 48 81 49 82
REMARK H PARENT 6 13 73 35 41 46
REMARK Flexibility Score: inf
ROOT
ATOM      1  C   UNL     1      -5.367  -1.930   1.975  1.00  0.00     0.274 C 
ENDROOT
BRANCH   1   2
ATOM      2  O   UNL     1      -3.974  -1.591   1.850  1.00  0.00    -0.460 OA
BRANCH   2   3
ATOM      3  C   UNL     1      -3.166  -1.964   2.884  1.00  0.00     0.343 C 
ATOM      4  O   UNL     1      -3.581  -2.451   3.928  1.00  0.00    -0.249 OA
BRANCH   3   5
ATOM      5  C   UNL     1      -1.697  -1.831   2.509  1.00  0.00     0.304 C 
ATOM      6  F   UNL     1      -1.516  -1.061   1.379  1.00  0.00    -0.232 F 
BRANCH   5   7
ATOM      7  C   UNL     1      -0.788  -1.219   3.579  1.00  0.00     0.160 C 
BRANCH   7   8
ATOM      8  C   UNL     1      -0.867  -1.746   5.017  1.00  0.00     0.035 C 
BRANCH   8   9
ATOM      9  C   UNL     1      -0.812  -3.260   5.236  1.00  0.00     0.002 C 
BRANCH   9  10
ATOM     10  C   UNL     1       0.364  -4.006   4.611  1.00  0.00    -0.003 C 
ATOM     11  C   UNL     1       1.716  -3.609   5.174  1.00  0.00     0.004 C 
ENDBRANCH   9  10
ENDBRANCH   8   9
ENDBRANCH   7   8
BRANCH   7  12
ATOM     12  O   UNL     1      -0.999   0.206   3.623  1.00  0.00    -0.389 OA
ATOM     13  H   UNL     1      -1.899   0.391   3.932  1.00  0.00     0.211 HD
ENDBRANCH   7  12
ENDBRANCH   5   7
ENDBRANCH   3   5
ENDBRANCH   2   3
ENDBRANCH   1   2
BRANCH   1  14
ATOM     14  C   UNL     1      -5.721  -3.151   1.116  1.00  0.00     0.275 C 
BRANCH  14  15
ATOM     15  O   UNL     1      -5.186  -4.381   1.647  1.00  0.00    -0.458 OA
BRANCH  15  16
ATOM     16  C   UNL     1      -3.940  -4.698   1.217  1.00  0.00     0.338 C 
ATOM     17  O   UNL     1      -3.249  -4.038   0.457  1.00  0.00    -0.246 OA
BRANCH  16  18
ATOM     18  C   UNL     1      -3.428  -5.904   1.902  1.00  0.00     0.060 A 
ATOM     19  C   UNL     1      -2.102  -5.869   2.342  1.00  0.00     0.016 A 
ATOM     20  C   UNL     1      -4.186  -7.067   2.064  1.00  0.00     0.016 A 
ATOM     21  C   UNL     1      -1.533  -6.978   2.958  1.00  0.00     0.010 A 
ATOM     22  C   UNL     1      -3.608  -8.191   2.675  1.00  0.00     0.010 A 
ATOM     23  C   UNL     1      -2.278  -8.150   3.127  1.00  0.00    -0.014 A 
BRANCH  23  24
ATOM     24  C   UNL     1      -1.614  -9.321   3.750  1.00  0.00     0.031 A 
ATOM     25  C   UNL     1      -1.045 -10.410   2.887  1.00  0.00     0.074 A 
ATOM     26  C   UNL     1      -1.429  -9.347   5.084  1.00  0.00     0.049 A 
ATOM     27  N   UNL     1      -0.397 -11.491   3.238  1.00  0.00    -0.248 NA
ATOM     28  C   UNL     1      -1.218 -10.253   1.435  1.00  0.00     0.031 C 
ATOM     29  C   UNL     1      -1.876  -8.309   6.015  1.00  0.00     0.029 A 
ATOM     30  N   UNL     1      -0.805 -10.268   5.886  1.00  0.00    -0.354 N 
ATOM     31  C   UNL     1      -0.071 -12.140   2.053  1.00  0.00     0.074 A 
ATOM     32  C   UNL     1      -0.624 -11.345   0.975  1.00  0.00     0.031 C 
ATOM     33  C   UNL     1      -1.510  -8.652   7.261  1.00  0.00     0.029 A 
ATOM     34  C   UNL     1      -0.839  -9.949   7.224  1.00  0.00     0.049 A 
ATOM     35  H   UNL     1      -0.374 -11.082   5.538  1.00  0.00     0.167 HD
ATOM     36  C   UNL     1       0.630 -13.289   1.882  1.00  0.00     0.034 A 
ATOM     37  C   UNL     1      -0.400 -10.636   8.298  1.00  0.00     0.034 A 
ATOM     38  C   UNL     1       1.154 -14.086   2.966  1.00  0.00     0.049 A 
ATOM     39  C   UNL     1       0.288 -11.962   8.084  1.00  0.00     0.074 A 
ATOM     40  C   UNL     1       1.845 -15.284   2.901  1.00  0.00     0.029 A 
ATOM     41  N   UNL     1       1.039 -13.770   4.314  1.00  0.00    -0.354 N 
ATOM     42  N   UNL     1       0.565 -12.578   6.957  1.00  0.00    -0.248 NA
ATOM     43  C   UNL     1       0.728 -12.681   9.286  1.00  0.00     0.031 C 
ATOM     44  C   UNL     1       2.095 -15.721   4.208  1.00  0.00     0.029 A 
ATOM     45  C   UNL     1       1.622 -14.762   5.089  1.00  0.00     0.049 A 
ATOM     46  H   UNL     1       0.607 -12.960   4.668  1.00  0.00     0.167 HD
ATOM     47  C   UNL     1       1.227 -13.748   7.318  1.00  0.00     0.074 A 
ATOM     48  C   UNL     1       1.335 -13.735   8.763  1.00  0.00     0.031 C 
ATOM     49  C   UNL     1       1.702 -14.746   6.530  1.00  0.00     0.034 A 
BRANCH  36  50
ATOM     50  C   UNL     1       0.819 -13.776   0.467  1.00  0.00     0.023 A 
ATOM     51  C   UNL     1       1.621 -13.079  -0.453  1.00  0.00     0.031 A 
ATOM     52  C   UNL     1       0.171 -14.944   0.028  1.00  0.00     0.131 A 
ATOM     53  C   UNL     1       1.714 -13.528  -1.779  1.00  0.00     0.055 A 
ATOM     54  C   UNL     1       0.319 -15.421  -1.275  1.00  0.00     0.041 A 
ATOM     55  F   UNL     1      -0.626 -15.635   0.859  1.00  0.00    -0.206 F 
ATOM     56  C   UNL     1       1.086 -14.707  -2.191  1.00  0.00     0.022 A 
BRANCH  53  57
ATOM     57  S   UNL     1       2.575 -12.490  -2.993  1.00  0.00     0.124 S 
ATOM     58  O   UNL     1       1.781 -11.264  -2.949  1.00  0.00    -0.237 OA
ATOM     59  O   UNL     1       3.919 -12.402  -2.436  1.00  0.00    -0.237 OA
ATOM     60  O   UNL     1       2.464 -13.252  -4.235  1.00  0.00    -0.744 OA
ENDBRANCH  53  57
ENDBRANCH  36  50
BRANCH  37  61
ATOM     61  C   UNL     1      -0.648 -10.127   9.679  1.00  0.00     0.023 A 
ATOM     62  C   UNL     1       0.411  -9.827  10.550  1.00  0.00     0.031 A 
ATOM     63  C   UNL     1      -1.960 -10.016  10.174  1.00  0.00     0.131 A 
ATOM     64  C   UNL     1       0.141  -9.486  11.885  1.00  0.00     0.055 A 
ATOM     65  C   UNL     1      -2.225  -9.620  11.485  1.00  0.00     0.041 A 
ATOM     66  F   UNL     1      -3.010 -10.297   9.385  1.00  0.00    -0.206 F 
ATOM     67  C   UNL     1      -1.169  -9.368  12.355  1.00  0.00     0.022 A 
BRANCH  64  68
ATOM     68  S   UNL     1       1.534  -9.306  13.034  1.00  0.00     0.124 S 
ATOM     69  O   UNL     1       2.210 -10.591  12.887  1.00  0.00    -0.237 OA
ATOM     70  O   UNL     1       2.231  -8.148  12.485  1.00  0.00    -0.237 OA
ATOM     71  O   UNL     1       0.884  -9.087  14.325  1.00  0.00    -0.744 OA
ENDBRANCH  64  68
ENDBRANCH  37  61
BRANCH  49  72
ATOM     72  C   UNL     1       2.402 -15.887   7.229  1.00  0.00     0.023 A 
ATOM     73  C   UNL     1       1.709 -16.763   8.083  1.00  0.00     0.031 A 
ATOM     74  C   UNL     1       3.787 -16.074   7.072  1.00  0.00     0.131 A 
ATOM     75  C   UNL     1       2.411 -17.744   8.799  1.00  0.00     0.055 A 
ATOM     76  C   UNL     1       4.471 -17.090   7.741  1.00  0.00     0.041 A 
ATOM     77  F   UNL     1       4.499 -15.267   6.270  1.00  0.00    -0.206 F 
ATOM     78  C   UNL     1       3.786 -17.922   8.623  1.00  0.00     0.022 A 
BRANCH  75  79
ATOM     79  S   UNL     1       1.522 -18.717  10.046  1.00  0.00     0.124 S 
ATOM     80  O   UNL     1       0.985 -17.678  10.918  1.00  0.00    -0.237 OA
ATOM     81  O   UNL     1       0.544 -19.439   9.238  1.00  0.00    -0.237 OA
ATOM     82  O   UNL     1       2.566 -19.549  10.642  1.00  0.00    -0.744 OA
ENDBRANCH  75  79
ENDBRANCH  49  72
ENDBRANCH  23  24
ENDBRANCH  16  18
ENDBRANCH  15  16
ENDBRANCH  14  15
ENDBRANCH   1  14
TORSDOF 19
