REMARK SMILES CCCCCCNC(=O)Oc1cccc(-c2ccc([C@@H](C)C(=O)OCCOC(=O)c3ccc(-c4c5nc(c(-c6cc(S(=O)(=O)[O-])ccc6F)c6ccc([nH]6)c(-c6cc(S(=O)(=O)[O-])ccc6F)c6nc(c(-c7cc(S(=O)(=O)[O-])ccc7F)c7ccc4[nH]7)C=C6)C=C5)cc3)cc2Cl)c1
REMARK SMILES IDX 20 1 21 2 19 3 16 4 17 5 94 6 18 7 93 8 95 9 15 10 11 11
REMARK SMILES IDX 12 12 96 13 13 14 14 15 10 16 8 17 7 18 9 20 6 21 5 22 4 23
REMARK SMILES IDX 3 24 2 25 1 26 22 27 23 28 24 29 25 30 26 31 27 32 28 33
REMARK SMILES IDX 29 34 30 35 31 36 92 37 32 38 91 39 33 40 34 41 35 42 85 43
REMARK SMILES IDX 36 44 90 45 84 46 86 47 37 48 89 49 83 50 82 51 38 53 70 54
REMARK SMILES IDX 50 55 69 56 51 57 54 58 68 59 87 60 52 61 53 62 67 64 88 65
REMARK SMILES IDX 55 66 39 67 40 68 48 69 41 70 47 71 49 72 46 73 42 74 43 75
REMARK SMILES IDX 44 76 45 77 71 78 72 79 80 80 73 81 79 82 81 83 78 84 74 85
REMARK SMILES IDX 75 86 76 87 77 88 56 89 57 90 65 91 58 92 64 93 66 94 63 95
REMARK SMILES IDX 59 96 60 97 61 98 62 99
REMARK H PARENT 7 19 86 52 54 63
REMARK Flexibility Score: inf
ROOT
ATOM      1  C   UNL     1      -5.286  11.154   8.327  1.00  0.00     0.126 C 
ATOM      2  C   UNL     1      -6.660  11.571   8.848  1.00  0.00     0.025 C 
ENDROOT
BRANCH   1   3
ATOM      3  C   UNL     1      -5.222   9.668   8.007  1.00  0.00    -0.033 A 
ATOM      4  C   UNL     1      -5.152   6.894   7.326  1.00  0.00     0.000 A 
ATOM      5  C   UNL     1      -5.364   7.327   8.650  1.00  0.00     0.010 A 
ATOM      6  C   UNL     1      -4.963   7.887   6.348  1.00  0.00     0.049 A 
ATOM      7  C   UNL     1      -5.414   8.685   8.983  1.00  0.00     0.005 A 
ATOM      8  C   UNL     1      -4.990   9.249   6.687  1.00  0.00     0.025 A 
ATOM      9  Cl  UNL     1      -4.770   7.511   4.668  1.00  0.00    -0.084 Cl
BRANCH   4  10
ATOM     10  C   UNL     1      -5.197   5.445   7.034  1.00  0.00    -0.013 A 
ATOM     11  C   UNL     1      -4.246   3.412   6.111  1.00  0.00     0.133 A 
ATOM     12  C   UNL     1      -5.389   2.689   6.448  1.00  0.00     0.047 A 
ATOM     13  C   UNL     1      -4.138   4.774   6.400  1.00  0.00     0.056 A 
ATOM     14  C   UNL     1      -6.436   3.333   7.097  1.00  0.00     0.004 A 
ATOM     15  C   UNL     1      -6.342   4.698   7.381  1.00  0.00     0.009 A 
BRANCH  11  16
ATOM     16  O   UNL     1      -3.290   2.733   5.335  1.00  0.00    -0.410 OA
BRANCH  16  17
ATOM     17  C   UNL     1      -1.949   2.800   5.681  1.00  0.00     0.412 C 
ATOM     18  N   UNL     1      -1.136   2.161   4.783  1.00  0.00    -0.321 N 
ATOM     19  H   UNL     1      -0.169   2.184   4.970  1.00  0.00     0.167 HD
ATOM     20  O   UNL     1      -1.491   3.326   6.687  1.00  0.00    -0.224 OA
BRANCH  18  21
ATOM     21  C   UNL     1      -1.549   1.453   3.586  1.00  0.00     0.119 C 
BRANCH  21  22
ATOM     22  C   UNL     1      -0.924   2.031   2.317  1.00  0.00     0.021 C 
BRANCH  22  23
ATOM     23  C   UNL     1       0.604   1.923   2.239  1.00  0.00     0.002 C 
BRANCH  23  24
ATOM     24  C   UNL     1       1.176   0.504   2.331  1.00  0.00    -0.000 C 
BRANCH  24  25
ATOM     25  C   UNL     1       0.686  -0.478   1.264  1.00  0.00    -0.003 C 
ATOM     26  C   UNL     1       1.067  -0.073  -0.151  1.00  0.00     0.004 C 
ENDBRANCH  24  25
ENDBRANCH  23  24
ENDBRANCH  22  23
ENDBRANCH  21  22
ENDBRANCH  18  21
ENDBRANCH  16  17
ENDBRANCH  11  16
ENDBRANCH   4  10
ENDBRANCH   1   3
BRANCH   1  27
ATOM     27  C   UNL     1      -4.198  11.702   9.244  1.00  0.00     0.313 C 
ATOM     28  O   UNL     1      -3.853  12.880   9.214  1.00  0.00    -0.252 OA
BRANCH  27  29
ATOM     29  O   UNL     1      -3.697  10.785  10.112  1.00  0.00    -0.462 OA
BRANCH  29  30
ATOM     30  C   UNL     1      -2.583  11.200  10.924  1.00  0.00     0.274 C 
BRANCH  30  31
ATOM     31  C   UNL     1      -1.264  10.674  10.353  1.00  0.00     0.275 C 
BRANCH  31  32
ATOM     32  O   UNL     1      -0.914  11.350   9.133  1.00  0.00    -0.458 OA
BRANCH  32  33
ATOM     33  C   UNL     1      -1.316  10.732   7.997  1.00  0.00     0.338 C 
ATOM     34  O   UNL     1      -1.905   9.671   7.902  1.00  0.00    -0.246 OA
BRANCH  33  35
ATOM     35  C   UNL     1      -1.020  11.595   6.848  1.00  0.00     0.060 A 
ATOM     36  C   UNL     1      -2.079  12.213   6.178  1.00  0.00     0.016 A 
ATOM     37  C   UNL     1       0.291  11.732   6.393  1.00  0.00     0.016 A 
ATOM     38  C   UNL     1      -1.832  12.973   5.036  1.00  0.00     0.010 A 
ATOM     39  C   UNL     1       0.537  12.502   5.255  1.00  0.00     0.010 A 
ATOM     40  C   UNL     1      -0.522  13.120   4.565  1.00  0.00    -0.014 A 
BRANCH  40  41
ATOM     41  C   UNL     1      -0.241  13.875   3.320  1.00  0.00     0.031 A 
ATOM     42  C   UNL     1       0.171  13.125   2.087  1.00  0.00     0.074 A 
ATOM     43  C   UNL     1      -0.318  15.218   3.312  1.00  0.00     0.049 A 
ATOM     44  N   UNL     1       0.684  13.578   0.974  1.00  0.00    -0.248 NA
ATOM     45  C   UNL     1      -0.016  11.667   2.120  1.00  0.00     0.031 C 
ATOM     46  C   UNL     1      -0.776  16.045   4.429  1.00  0.00     0.029 A 
ATOM     47  N   UNL     1       0.015  16.127   2.338  1.00  0.00    -0.354 N 
ATOM     48  C   UNL     1       0.901  12.460   0.176  1.00  0.00     0.074 A 
ATOM     49  C   UNL     1       0.482  11.307   0.946  1.00  0.00     0.031 C 
ATOM     50  C   UNL     1      -0.669  17.339   4.087  1.00  0.00     0.029 A 
ATOM     51  C   UNL     1      -0.072  17.434   2.758  1.00  0.00     0.049 A 
ATOM     52  H   UNL     1       0.288  15.868   1.428  1.00  0.00     0.167 HD
ATOM     53  C   UNL     1       1.406  12.408  -1.081  1.00  0.00     0.034 A 
ATOM     54  C   UNL     1       0.341  18.572   2.163  1.00  0.00     0.034 A 
ATOM     55  C   UNL     1       1.828  13.573  -1.819  1.00  0.00     0.049 A 
ATOM     56  C   UNL     1       0.996  18.484   0.806  1.00  0.00     0.074 A 
ATOM     57  C   UNL     1       2.389  13.641  -3.083  1.00  0.00     0.029 A 
ATOM     58  N   UNL     1       1.736  14.880  -1.356  1.00  0.00    -0.354 N 
ATOM     59  N   UNL     1       1.251  17.419   0.081  1.00  0.00    -0.248 NA
ATOM     60  C   UNL     1       1.421  19.747   0.187  1.00  0.00     0.031 C 
ATOM     61  C   UNL     1       2.682  14.981  -3.362  1.00  0.00     0.029 A 
ATOM     62  C   UNL     1       2.242  15.757  -2.302  1.00  0.00     0.049 A 
ATOM     63  H   UNL     1       1.365  15.144  -0.484  1.00  0.00     0.167 HD
ATOM     64  C   UNL     1       1.833  17.889  -1.093  1.00  0.00     0.074 A 
ATOM     65  C   UNL     1       1.890  19.331  -0.981  1.00  0.00     0.031 C 
ATOM     66  C   UNL     1       2.276  17.194  -2.171  1.00  0.00     0.034 A 
BRANCH  53  67
ATOM     67  C   UNL     1       1.579  11.045  -1.703  1.00  0.00     0.023 A 
ATOM     68  C   UNL     1       0.477  10.230  -2.017  1.00  0.00     0.031 A 
ATOM     69  C   UNL     1       2.866  10.543  -1.964  1.00  0.00     0.131 A 
ATOM     70  C   UNL     1       0.685   8.936  -2.518  1.00  0.00     0.055 A 
ATOM     71  C   UNL     1       3.064   9.282  -2.530  1.00  0.00     0.041 A 
ATOM     72  F   UNL     1       3.956  11.267  -1.663  1.00  0.00    -0.206 F 
ATOM     73  C   UNL     1       1.971   8.465  -2.799  1.00  0.00     0.022 A 
BRANCH  70  74
ATOM     74  S   UNL     1      -0.741   7.827  -2.685  1.00  0.00     0.124 S 
ATOM     75  O   UNL     1      -1.211   7.743  -1.304  1.00  0.00    -0.237 OA
ATOM     76  O   UNL     1      -1.601   8.555  -3.611  1.00  0.00    -0.237 OA
ATOM     77  O   UNL     1      -0.158   6.595  -3.213  1.00  0.00    -0.744 OA
ENDBRANCH  70  74
ENDBRANCH  53  67
BRANCH  54  78
ATOM     78  C   UNL     1       0.225  19.881   2.869  1.00  0.00     0.023 A 
ATOM     79  C   UNL     1      -0.559  20.921   2.349  1.00  0.00     0.031 A 
ATOM     80  C   UNL     1       0.950  20.130   4.050  1.00  0.00     0.131 A 
ATOM     81  C   UNL     1      -0.561  22.177   2.976  1.00  0.00     0.055 A 
ATOM     82  C   UNL     1       0.897  21.362   4.704  1.00  0.00     0.041 A 
ATOM     83  F   UNL     1       1.720  19.173   4.591  1.00  0.00    -0.206 F 
ATOM     84  C   UNL     1       0.150  22.401   4.157  1.00  0.00     0.022 A 
BRANCH  81  85
ATOM     85  S   UNL     1      -1.422  23.552   2.164  1.00  0.00     0.124 S 
ATOM     86  O   UNL     1      -0.795  23.558   0.847  1.00  0.00    -0.237 OA
ATOM     87  O   UNL     1      -2.811  23.108   2.211  1.00  0.00    -0.237 OA
ATOM     88  O   UNL     1      -1.106  24.700   3.011  1.00  0.00    -0.744 OA
ENDBRANCH  81  85
ENDBRANCH  54  78
BRANCH  66  89
ATOM     89  C   UNL     1       2.786  17.993  -3.342  1.00  0.00     0.023 A 
ATOM     90  C   UNL     1       4.012  18.677  -3.298  1.00  0.00     0.031 A 
ATOM     91  C   UNL     1       2.033  18.049  -4.528  1.00  0.00     0.131 A 
ATOM     92  C   UNL     1       4.434  19.420  -4.411  1.00  0.00     0.055 A 
ATOM     93  C   UNL     1       2.480  18.750  -5.648  1.00  0.00     0.041 A 
ATOM     94  F   UNL     1       0.855  17.410  -4.619  1.00  0.00    -0.206 F 
ATOM     95  C   UNL     1       3.683  19.447  -5.590  1.00  0.00     0.022 A 
BRANCH  92  96
ATOM     96  S   UNL     1       5.962  20.390  -4.289  1.00  0.00     0.124 S 
ATOM     97  O   UNL     1       5.630  21.346  -3.237  1.00  0.00    -0.237 OA
ATOM     98  O   UNL     1       6.951  19.376  -3.940  1.00  0.00    -0.237 OA
ATOM     99  O   UNL     1       6.112  20.965  -5.625  1.00  0.00    -0.744 OA
ENDBRANCH  92  96
ENDBRANCH  66  89
ENDBRANCH  40  41
ENDBRANCH  33  35
ENDBRANCH  32  33
ENDBRANCH  31  32
ENDBRANCH  30  31
ENDBRANCH  29  30
ENDBRANCH  27  29
ENDBRANCH   1  27
TORSDOF 23
