REMARK SMILES CCOC(=O)[C@@H](C)Oc1ccc(Br)cc1/C=C/C(=O)OCCOC(=O)c1ccc(-c2c3nc(c(-c4cc(S(=O)(=O)[O-])ccc4F)c4ccc([nH]4)c(-c4cc(S(=O)(=O)[O-])ccc4F)c4nc(c(-c5cc(S(=O)(=O)[O-])ccc5F)c5ccc2[nH]5)C=C4)C=C3)cc1
REMARK SMILES IDX 20 1 18 2 19 3 17 4 16 5 15 6 9 7 10 8 11 9 14 10 12 11
REMARK SMILES IDX 13 12 8 13 6 14 7 15 4 16 5 17 3 18 2 19 1 20 21 21 22 22
REMARK SMILES IDX 23 23 24 24 25 25 26 26 27 27 88 28 28 29 87 30 29 31 30 32
REMARK SMILES IDX 31 33 81 34 32 35 86 36 80 37 82 38 33 39 85 40 79 41 78 42
REMARK SMILES IDX 34 44 66 45 46 46 65 47 47 48 50 49 64 50 83 51 48 52 49 53
REMARK SMILES IDX 63 55 84 56 51 57 35 58 36 59 44 60 37 61 43 62 45 63 42 64
REMARK SMILES IDX 38 65 39 66 40 67 41 68 67 69 68 70 76 71 69 72 75 73 77 74
REMARK SMILES IDX 74 75 70 76 71 77 72 78 73 79 52 80 53 81 61 82 54 83 60 84
REMARK SMILES IDX 62 85 59 86 55 87 56 88 57 89 58 90
REMARK H PARENT 82 43 50 54
REMARK Flexibility Score: inf
ROOT
ATOM      1  O   UNL     1       3.093  -4.560   8.657  1.00  0.00    -0.459 OA
ENDROOT
BRANCH   1   2
ATOM      2  C   UNL     1       2.184  -5.500   8.306  1.00  0.00     0.330 C 
ATOM      3  O   UNL     1       1.984  -6.558   8.884  1.00  0.00    -0.247 OA
BRANCH   2   4
ATOM      4  C   UNL     1       1.376  -5.109   7.137  1.00  0.00     0.094 C 
ATOM      5  C   UNL     1       1.435  -3.943   6.474  1.00  0.00     0.019 C 
BRANCH   5   6
ATOM      6  C   UNL     1       0.506  -3.678   5.362  1.00  0.00     0.018 A 
ATOM      7  C   UNL     1       0.957  -3.312   4.083  1.00  0.00     0.127 A 
ATOM      8  C   UNL     1       0.053  -3.272   3.016  1.00  0.00     0.048 A 
ATOM      9  C   UNL     1      -1.315  -3.433   3.235  1.00  0.00     0.019 A 
ATOM     10  C   UNL     1      -0.878  -3.813   5.577  1.00  0.00     0.027 A 
ATOM     11  C   UNL     1      -1.777  -3.677   4.522  1.00  0.00     0.018 A 
ATOM     12  Br  UNL     1      -3.630  -3.870   4.832  1.00  0.00    -0.051 Br
BRANCH   7  13
ATOM     13  O   UNL     1       2.294  -3.082   3.882  1.00  0.00    -0.478 OA
BRANCH  13  14
ATOM     14  C   UNL     1       2.636  -1.754   3.447  1.00  0.00     0.279 C 
ATOM     15  C   UNL     1       2.146  -0.655   4.396  1.00  0.00     0.066 C 
BRANCH  14  16
ATOM     16  C   UNL     1       2.375  -1.458   1.960  1.00  0.00     0.347 C 
ATOM     17  O   UNL     1       3.043  -1.930   1.046  1.00  0.00    -0.248 OA
BRANCH  16  18
ATOM     18  O   UNL     1       1.253  -0.703   1.780  1.00  0.00    -0.463 OA
BRANCH  18  19
ATOM     19  C   UNL     1       0.705  -0.685   0.452  1.00  0.00     0.229 C 
ATOM     20  C   UNL     1       1.113   0.578  -0.273  1.00  0.00     0.049 C 
ENDBRANCH  18  19
ENDBRANCH  16  18
ENDBRANCH  14  16
ENDBRANCH  13  14
ENDBRANCH   7  13
ENDBRANCH   5   6
ENDBRANCH   2   4
ENDBRANCH   1   2
BRANCH   1  21
ATOM     21  C   UNL     1       3.782  -4.803   9.897  1.00  0.00     0.275 C 
BRANCH  21  22
ATOM     22  C   UNL     1       3.217  -3.938  11.027  1.00  0.00     0.275 C 
BRANCH  22  23
ATOM     23  O   UNL     1       1.869  -4.305  11.373  1.00  0.00    -0.458 OA
BRANCH  23  24
ATOM     24  C   UNL     1       0.902  -3.646  10.687  1.00  0.00     0.338 C 
ATOM     25  O   UNL     1       1.066  -2.784   9.841  1.00  0.00    -0.246 OA
BRANCH  24  26
ATOM     26  C   UNL     1      -0.424  -4.197  11.025  1.00  0.00     0.060 A 
ATOM     27  C   UNL     1      -1.264  -4.573   9.973  1.00  0.00     0.016 A 
ATOM     28  C   UNL     1      -0.871  -4.273  12.347  1.00  0.00     0.016 A 
ATOM     29  C   UNL     1      -2.559  -5.018  10.236  1.00  0.00     0.010 A 
ATOM     30  C   UNL     1      -2.171  -4.721  12.609  1.00  0.00     0.010 A 
ATOM     31  C   UNL     1      -3.028  -5.084  11.555  1.00  0.00    -0.014 A 
BRANCH  31  32
ATOM     32  C   UNL     1      -4.433  -5.485  11.820  1.00  0.00     0.031 A 
ATOM     33  C   UNL     1      -5.455  -4.442  12.181  1.00  0.00     0.074 A 
ATOM     34  C   UNL     1      -4.796  -6.777  11.713  1.00  0.00     0.049 A 
ATOM     35  N   UNL     1      -6.720  -4.588  12.479  1.00  0.00    -0.248 NA
ATOM     36  C   UNL     1      -4.984  -3.050  12.212  1.00  0.00     0.031 C 
ATOM     37  C   UNL     1      -3.902  -7.872  11.334  1.00  0.00     0.029 A 
ATOM     38  N   UNL     1      -6.009  -7.387  11.910  1.00  0.00    -0.354 N 
ATOM     39  C   UNL     1      -7.201  -3.309  12.737  1.00  0.00     0.074 A 
ATOM     40  C   UNL     1      -6.076  -2.406  12.595  1.00  0.00     0.031 C 
ATOM     41  C   UNL     1      -4.599  -9.020  11.322  1.00  0.00     0.029 A 
ATOM     42  C   UNL     1      -5.975  -8.751  11.732  1.00  0.00     0.049 A 
ATOM     43  H   UNL     1      -6.826  -6.896  12.155  1.00  0.00     0.167 HD
ATOM     44  C   UNL     1      -8.464  -2.924  13.052  1.00  0.00     0.034 A 
ATOM     45  C   UNL     1      -6.938  -9.679  11.904  1.00  0.00     0.034 A 
ATOM     46  C   UNL     1      -9.572  -3.838  13.201  1.00  0.00     0.049 A 
ATOM     47  C   UNL     1      -8.313  -9.236  12.338  1.00  0.00     0.074 A 
ATOM     48  C   UNL     1     -10.892  -3.553  13.509  1.00  0.00     0.029 A 
ATOM     49  N   UNL     1      -9.489  -5.219  13.067  1.00  0.00    -0.354 N 
ATOM     50  N   UNL     1      -8.754  -8.023  12.578  1.00  0.00    -0.248 NA
ATOM     51  C   UNL     1      -9.320 -10.290  12.522  1.00  0.00     0.031 C 
ATOM     52  C   UNL     1     -11.589  -4.762  13.625  1.00  0.00     0.029 A 
ATOM     53  C   UNL     1     -10.724  -5.799  13.318  1.00  0.00     0.049 A 
ATOM     54  H   UNL     1      -8.672  -5.713  12.828  1.00  0.00     0.167 HD
ATOM     55  C   UNL     1     -10.098  -8.167  12.913  1.00  0.00     0.074 A 
ATOM     56  C   UNL     1     -10.396  -9.582  12.832  1.00  0.00     0.031 C 
ATOM     57  C   UNL     1     -11.005  -7.215  13.250  1.00  0.00     0.034 A 
BRANCH  44  58
ATOM     58  C   UNL     1      -8.693  -1.453  13.308  1.00  0.00     0.023 A 
ATOM     59  C   UNL     1      -8.528  -0.490  12.297  1.00  0.00     0.031 A 
ATOM     60  C   UNL     1      -9.046  -1.003  14.593  1.00  0.00     0.131 A 
ATOM     61  C   UNL     1      -8.645   0.875  12.603  1.00  0.00     0.055 A 
ATOM     62  C   UNL     1      -9.238   0.351  14.873  1.00  0.00     0.041 A 
ATOM     63  F   UNL     1      -9.197  -1.873  15.604  1.00  0.00    -0.206 F 
ATOM     64  C   UNL     1      -9.021   1.301  13.879  1.00  0.00     0.022 A 
BRANCH  61  65
ATOM     65  S   UNL     1      -8.156   2.092  11.349  1.00  0.00     0.124 S 
ATOM     66  O   UNL     1      -6.770   1.711  11.091  1.00  0.00    -0.237 OA
ATOM     67  O   UNL     1      -9.102   1.832  10.271  1.00  0.00    -0.237 OA
ATOM     68  O   UNL     1      -8.324   3.374  12.031  1.00  0.00    -0.744 OA
ENDBRANCH  61  65
ENDBRANCH  44  58
BRANCH  45  69
ATOM     69  C   UNL     1      -6.634 -11.125  11.706  1.00  0.00     0.023 A 
ATOM     70  C   UNL     1      -7.260 -11.867  10.693  1.00  0.00     0.031 A 
ATOM     71  C   UNL     1      -5.746 -11.797  12.565  1.00  0.00     0.131 A 
ATOM     72  C   UNL     1      -7.022 -13.246  10.588  1.00  0.00     0.055 A 
ATOM     73  C   UNL     1      -5.473 -13.159  12.425  1.00  0.00     0.041 A 
ATOM     74  F   UNL     1      -5.123 -11.134  13.552  1.00  0.00    -0.206 F 
ATOM     75  C   UNL     1      -6.122 -13.894  11.439  1.00  0.00     0.022 A 
BRANCH  72  76
ATOM     76  S   UNL     1      -7.968 -14.203   9.372  1.00  0.00     0.124 S 
ATOM     77  O   UNL     1      -9.341 -13.943   9.791  1.00  0.00    -0.237 OA
ATOM     78  O   UNL     1      -7.554 -13.589   8.114  1.00  0.00    -0.237 OA
ATOM     79  O   UNL     1      -7.501 -15.572   9.577  1.00  0.00    -0.744 OA
ENDBRANCH  72  76
ENDBRANCH  45  69
BRANCH  57  80
ATOM     80  C   UNL     1     -12.417  -7.680  13.513  1.00  0.00     0.023 A 
ATOM     81  C   UNL     1     -12.742  -8.470  14.630  1.00  0.00     0.031 A 
ATOM     82  C   UNL     1     -13.449  -7.341  12.619  1.00  0.00     0.131 A 
ATOM     83  C   UNL     1     -14.054  -8.941  14.795  1.00  0.00     0.055 A 
ATOM     84  C   UNL     1     -14.763  -7.766  12.819  1.00  0.00     0.041 A 
ATOM     85  F   UNL     1     -13.195  -6.591  11.536  1.00  0.00    -0.206 F 
ATOM     86  C   UNL     1     -15.069  -8.582  13.905  1.00  0.00     0.022 A 
BRANCH  83  87
ATOM     87  S   UNL     1     -14.401 -10.102  16.145  1.00  0.00     0.124 S 
ATOM     88  O   UNL     1     -13.499 -11.207  15.836  1.00  0.00    -0.237 OA
ATOM     89  O   UNL     1     -14.066  -9.317  17.328  1.00  0.00    -0.237 OA
ATOM     90  O   UNL     1     -15.823 -10.400  15.984  1.00  0.00    -0.744 OA
ENDBRANCH  83  87
ENDBRANCH  57  80
ENDBRANCH  31  32
ENDBRANCH  24  26
ENDBRANCH  23  24
ENDBRANCH  22  23
ENDBRANCH  21  22
ENDBRANCH   1  21
TORSDOF 20
