REMARK SMILES CC(C)C[C@H](NC(=O)CNC(=O)[C@@H](NC(=O)OCc1ccccc1)C(C)C)C(=O)OCCOC(=O)c1ccc(-c2c3nc(c(-c4cc(S(=O)(=O)[O-])ccc4F)c4ccc([nH]4)c(-c4cc(S(=O)(=O)[O-])ccc4F)c4nc(c(-c5cc(S(=O)(=O)[O-])ccc5F)c5ccc2[nH]5)C=C4)C=C3)cc1
REMARK SMILES IDX 28 1 29 2 5 3 4 4 2 5 1 6 3 7 6 8 7 9 8 11 9 12 10 13 11 14
REMARK SMILES IDX 12 16 13 17 14 18 15 19 16 21 17 22 18 23 19 24 20 25 24 26
REMARK SMILES IDX 21 27 23 28 22 29 25 30 26 31 27 32 30 33 31 34 32 35 33 36
REMARK SMILES IDX 34 37 35 38 36 39 37 40 98 41 38 42 97 43 39 44 40 45 41 46
REMARK SMILES IDX 91 47 42 48 96 49 90 50 92 51 43 52 95 53 89 54 88 55 44 57
REMARK SMILES IDX 76 58 56 59 75 60 57 61 60 62 74 63 93 64 58 65 59 66 73 68
REMARK SMILES IDX 94 69 61 70 45 71 46 72 54 73 47 74 53 75 55 76 52 77 48 78
REMARK SMILES IDX 49 79 50 80 51 81 77 82 78 83 86 84 79 85 85 86 87 87 84 88
REMARK SMILES IDX 80 89 81 90 82 91 83 92 62 93 63 94 71 95 64 96 70 97 72 98
REMARK SMILES IDX 69 99 65 100 66 101 67 102 68 103
REMARK H PARENT 6 10 10 15 14 20 92 56 60 67
REMARK Flexibility Score: inf
ROOT
ATOM      1  C   UNL     1      -3.530   1.118   1.113  1.00  0.00     0.328 C 
ATOM      2  O   UNL     1      -3.954   0.176   1.771  1.00  0.00    -0.250 OA
ENDROOT
BRANCH   1   3
ATOM      3  C   UNL     1      -2.105   1.644   1.220  1.00  0.00     0.192 C 
BRANCH   3   4
ATOM      4  C   UNL     1      -1.922   2.222   2.628  1.00  0.00     0.040 C 
BRANCH   4   5
ATOM      5  C   UNL     1      -3.034   2.991   3.375  1.00  0.00    -0.015 C 
ATOM      6  C   UNL     1      -4.058   2.078   4.062  1.00  0.00     0.007 C 
ATOM      7  C   UNL     1      -2.365   3.822   4.485  1.00  0.00     0.007 C 
ENDBRANCH   4   5
ENDBRANCH   3   4
BRANCH   3   8
ATOM      8  N   UNL     1      -1.788   2.530   0.082  1.00  0.00    -0.341 N 
ATOM      9  C   UNL     1      -0.596   2.786  -0.535  1.00  0.00     0.240 C 
ATOM     10  H   UNL     1      -2.559   3.014  -0.293  1.00  0.00     0.164 HD
ATOM     11  O   UNL     1      -0.608   2.963  -1.757  1.00  0.00    -0.273 OA
BRANCH   9  12
ATOM     12  C   UNL     1       0.721   2.872   0.234  1.00  0.00     0.216 C 
BRANCH  12  13
ATOM     13  N   UNL     1       0.703   3.953   1.203  1.00  0.00    -0.345 N 
ATOM     14  C   UNL     1       0.948   4.060   2.528  1.00  0.00     0.243 C 
ATOM     15  H   UNL     1       0.452   4.815   0.797  1.00  0.00     0.164 HD
ATOM     16  O   UNL     1       0.780   5.204   2.976  1.00  0.00    -0.273 OA
BRANCH  14  17
ATOM     17  C   UNL     1       1.363   2.894   3.494  1.00  0.00     0.177 C 
BRANCH  17  18
ATOM     18  N   UNL     1       1.178   1.521   3.018  1.00  0.00    -0.309 N 
ATOM     19  C   UNL     1       1.966   0.674   2.313  1.00  0.00     0.408 C 
ATOM     20  H   UNL     1       0.304   1.136   3.258  1.00  0.00     0.167 HD
ATOM     21  O   UNL     1       1.468  -0.339   1.835  1.00  0.00    -0.225 OA
BRANCH  19  22
ATOM     22  O   UNL     1       3.243   1.082   2.182  1.00  0.00    -0.445 OA
BRANCH  22  23
ATOM     23  C   UNL     1       4.106   0.170   1.480  1.00  0.00     0.270 C 
BRANCH  23  24
ATOM     24  C   UNL     1       4.258  -1.185   2.136  1.00  0.00    -0.011 A 
ATOM     25  C   UNL     1       4.344  -1.324   3.529  1.00  0.00     0.007 A 
ATOM     26  C   UNL     1       4.303  -2.338   1.341  1.00  0.00     0.007 A 
ATOM     27  C   UNL     1       4.412  -2.590   4.114  1.00  0.00     0.000 A 
ATOM     28  C   UNL     1       4.391  -3.602   1.926  1.00  0.00     0.000 A 
ATOM     29  C   UNL     1       4.434  -3.728   3.312  1.00  0.00     0.000 A 
ENDBRANCH  23  24
ENDBRANCH  22  23
ENDBRANCH  19  22
ENDBRANCH  17  18
BRANCH  17  30
ATOM     30  C   UNL     1       2.704   3.166   4.221  1.00  0.00     0.015 C 
ATOM     31  C   UNL     1       2.692   4.488   5.006  1.00  0.00     0.010 C 
ATOM     32  C   UNL     1       3.039   2.061   5.233  1.00  0.00     0.010 C 
ENDBRANCH  17  30
ENDBRANCH  14  17
ENDBRANCH  12  13
ENDBRANCH   9  12
ENDBRANCH   3   8
ENDBRANCH   1   3
BRANCH   1  33
ATOM     33  O   UNL     1      -4.286   1.901   0.288  1.00  0.00    -0.461 OA
BRANCH  33  34
ATOM     34  C   UNL     1      -5.670   1.541   0.192  1.00  0.00     0.274 C 
BRANCH  34  35
ATOM     35  C   UNL     1      -5.920   0.520  -0.923  1.00  0.00     0.275 C 
BRANCH  35  36
ATOM     36  O   UNL     1      -5.370  -0.779  -0.627  1.00  0.00    -0.458 OA
BRANCH  36  37
ATOM     37  C   UNL     1      -4.068  -0.952  -0.976  1.00  0.00     0.338 C 
ATOM     38  O   UNL     1      -3.363  -0.133  -1.545  1.00  0.00    -0.246 OA
BRANCH  37  39
ATOM     39  C   UNL     1      -3.536  -2.202  -0.394  1.00  0.00     0.060 A 
ATOM     40  C   UNL     1      -2.308  -2.145   0.279  1.00  0.00     0.016 A 
ATOM     41  C   UNL     1      -4.198  -3.421  -0.537  1.00  0.00     0.016 A 
ATOM     42  C   UNL     1      -1.739  -3.296   0.815  1.00  0.00     0.010 A 
ATOM     43  C   UNL     1      -3.616  -4.582  -0.014  1.00  0.00     0.010 A 
ATOM     44  C   UNL     1      -2.380  -4.529   0.657  1.00  0.00    -0.014 A 
BRANCH  44  45
ATOM     45  C   UNL     1      -1.702  -5.772   1.101  1.00  0.00     0.031 A 
ATOM     46  C   UNL     1      -1.097  -6.683   0.070  1.00  0.00     0.074 A 
ATOM     47  C   UNL     1      -1.599  -6.064   2.412  1.00  0.00     0.049 A 
ATOM     48  N   UNL     1      -0.561  -7.866   0.218  1.00  0.00    -0.248 NA
ATOM     49  C   UNL     1      -1.104  -6.193  -1.317  1.00  0.00     0.031 C 
ATOM     50  C   UNL     1      -2.078  -5.217   3.504  1.00  0.00     0.029 A 
ATOM     51  N   UNL     1      -1.060  -7.155   3.047  1.00  0.00    -0.354 N 
ATOM     52  C   UNL     1      -0.181  -8.272  -1.056  1.00  0.00     0.074 A 
ATOM     53  C   UNL     1      -0.576  -7.219  -1.968  1.00  0.00     0.031 C 
ATOM     54  C   UNL     1      -1.817  -5.824   4.674  1.00  0.00     0.029 A 
ATOM     55  C   UNL     1      -1.209  -7.126   4.414  1.00  0.00     0.049 A 
ATOM     56  H   UNL     1      -0.611  -7.889   2.569  1.00  0.00     0.167 HD
ATOM     57  C   UNL     1       0.444  -9.417  -1.426  1.00  0.00     0.034 A 
ATOM     58  C   UNL     1      -0.924  -8.061   5.344  1.00  0.00     0.034 A 
ATOM     59  C   UNL     1       0.831 -10.453  -0.499  1.00  0.00     0.049 A 
ATOM     60  C   UNL     1      -0.320  -9.370   4.893  1.00  0.00     0.074 A 
ATOM     61  C   UNL     1       1.464 -11.655  -0.764  1.00  0.00     0.029 A 
ATOM     62  N   UNL     1       0.616 -10.415   0.874  1.00  0.00    -0.354 N 
ATOM     63  N   UNL     1       0.011  -9.757   3.682  1.00  0.00    -0.248 NA
ATOM     64  C   UNL     1      -0.048 -10.367   5.936  1.00  0.00     0.031 C 
ATOM     65  C   UNL     1       1.565 -12.372   0.432  1.00  0.00     0.029 A 
ATOM     66  C   UNL     1       1.076 -11.584   1.461  1.00  0.00     0.049 A 
ATOM     67  H   UNL     1       0.199  -9.666   1.358  1.00  0.00     0.167 HD
ATOM     68  C   UNL     1       0.559 -11.030   3.826  1.00  0.00     0.074 A 
ATOM     69  C   UNL     1       0.536 -11.332   5.242  1.00  0.00     0.031 C 
ATOM     70  C   UNL     1       1.038 -11.875   2.876  1.00  0.00     0.034 A 
BRANCH  57  71
ATOM     71  C   UNL     1       0.692  -9.631  -2.900  1.00  0.00     0.023 A 
ATOM     72  C   UNL     1       1.557  -8.805  -3.638  1.00  0.00     0.031 A 
ATOM     73  C   UNL     1       0.039 -10.675  -3.581  1.00  0.00     0.131 A 
ATOM     74  C   UNL     1       1.700  -8.999  -5.021  1.00  0.00     0.055 A 
ATOM     75  C   UNL     1       0.246 -10.911  -4.941  1.00  0.00     0.041 A 
ATOM     76  F   UNL     1      -0.818 -11.481  -2.935  1.00  0.00    -0.206 F 
ATOM     77  C   UNL     1       1.071 -10.063  -5.672  1.00  0.00     0.022 A 
BRANCH  74  78
ATOM     78  S   UNL     1       2.619  -7.765  -5.982  1.00  0.00     0.124 S 
ATOM     79  O   UNL     1       1.850  -6.552  -5.718  1.00  0.00    -0.237 OA
ATOM     80  O   UNL     1       3.947  -7.823  -5.382  1.00  0.00    -0.237 OA
ATOM     81  O   UNL     1       2.532  -8.264  -7.353  1.00  0.00    -0.744 OA
ENDBRANCH  74  78
ENDBRANCH  57  71
BRANCH  58  82
ATOM     82  C   UNL     1      -1.257  -7.836   6.782  1.00  0.00     0.023 A 
ATOM     83  C   UNL     1      -0.261  -7.854   7.772  1.00  0.00     0.031 A 
ATOM     84  C   UNL     1      -2.592  -7.681   7.199  1.00  0.00     0.131 A 
ATOM     85  C   UNL     1      -0.618  -7.782   9.128  1.00  0.00     0.055 A 
ATOM     86  C   UNL     1      -2.936  -7.541   8.545  1.00  0.00     0.041 A 
ATOM     87  F   UNL     1      -3.589  -7.665   6.300  1.00  0.00    -0.206 F 
ATOM     88  C   UNL     1      -1.947  -7.609   9.520  1.00  0.00     0.022 A 
BRANCH  85  89
ATOM     89  S   UNL     1       0.670  -8.037  10.380  1.00  0.00     0.124 S 
ATOM     90  O   UNL     1       1.191  -9.347  10.006  1.00  0.00    -0.237 OA
ATOM     91  O   UNL     1       1.555  -6.902  10.139  1.00  0.00    -0.237 OA
ATOM     92  O   UNL     1      -0.067  -7.993  11.640  1.00  0.00    -0.744 OA
ENDBRANCH  85  89
ENDBRANCH  58  82
BRANCH  70  93
ATOM     93  C   UNL     1       1.620 -13.184   3.355  1.00  0.00     0.023 A 
ATOM     94  C   UNL     1       0.828 -14.161   3.985  1.00  0.00     0.031 A 
ATOM     95  C   UNL     1       2.993 -13.446   3.203  1.00  0.00     0.131 A 
ATOM     96  C   UNL     1       1.427 -15.319   4.503  1.00  0.00     0.055 A 
ATOM     97  C   UNL     1       3.571 -14.633   3.656  1.00  0.00     0.041 A 
ATOM     98  F   UNL     1       3.800 -12.549   2.612  1.00  0.00    -0.206 F 
ATOM     99  C   UNL     1       2.790 -15.570   4.325  1.00  0.00     0.022 A 
BRANCH  96 100
ATOM    100  S   UNL     1       0.423 -16.439   5.516  1.00  0.00     0.124 S 
ATOM    101  O   UNL     1      -0.047 -15.551   6.575  1.00  0.00    -0.237 OA
ATOM    102  O   UNL     1      -0.590 -16.893   4.569  1.00  0.00    -0.237 OA
ATOM    103  O   UNL     1       1.375 -17.463   5.943  1.00  0.00    -0.744 OA
ENDBRANCH  96 100
ENDBRANCH  70  93
ENDBRANCH  44  45
ENDBRANCH  37  39
ENDBRANCH  36  37
ENDBRANCH  35  36
ENDBRANCH  34  35
ENDBRANCH  33  34
ENDBRANCH   1  33
TORSDOF 25
