REMARK SMILES Cc1cc(-c2cncc(C(=O)OCCOC(=O)c3ccc(-c4c5nc(c(-c6cc(S(=O)(=O)[O-])ccc6F)c6ccc([nH]6)c(-c6cc(S(=O)(=O)[O-])ccc6F)c6nc(c(-c7cc(S(=O)(=O)[O-])ccc7F)c7ccc4[nH]7)C=C6)C=C5)cc3)c2)ccc1F
REMARK SMILES IDX 14 1 13 2 12 3 10 4 11 5 9 6 5 7 6 8 81 9 7 10 8 11 4 12
REMARK SMILES IDX 1 13 2 14 3 15 84 16 83 17 85 18 82 19 15 20 16 21 17 22
REMARK SMILES IDX 18 23 19 24 80 25 20 26 79 27 21 28 22 29 23 30 73 31 24 32
REMARK SMILES IDX 78 33 72 34 74 35 25 36 77 37 71 38 70 39 26 41 58 42 38 43
REMARK SMILES IDX 57 44 39 45 42 46 56 47 75 48 40 49 41 50 55 52 76 53 43 54
REMARK SMILES IDX 27 55 28 56 36 57 29 58 35 59 37 60 34 61 30 62 31 63 32 64
REMARK SMILES IDX 33 65 59 66 60 67 68 68 61 69 67 70 69 71 66 72 62 73 63 74
REMARK SMILES IDX 64 75 65 76 44 77 45 78 53 79 46 80 52 81 54 82 51 83 47 84
REMARK SMILES IDX 48 85 49 86 50 87
REMARK H PARENT 74 40 42 51
REMARK Flexibility Score: inf
ROOT
ATOM      1  C   UNL     1      -5.919   4.226  -5.008  1.00  0.00     0.275 C 
ENDROOT
BRANCH   1   2
ATOM      2  C   UNL     1      -4.767   4.721  -4.130  1.00  0.00     0.275 C 
BRANCH   2   3
ATOM      3  O   UNL     1      -4.414   3.812  -3.064  1.00  0.00    -0.458 OA
BRANCH   3   4
ATOM      4  C   UNL     1      -5.023   4.011  -1.862  1.00  0.00     0.339 C 
ATOM      5  O   UNL     1      -5.790   4.933  -1.604  1.00  0.00    -0.246 OA
BRANCH   4   6
ATOM      6  C   UNL     1      -4.623   2.996  -0.862  1.00  0.00     0.079 A 
ATOM      7  C   UNL     1      -3.146   1.280  -0.002  1.00  0.00     0.001 A 
ATOM      8  C   UNL     1      -3.895   1.312   1.174  1.00  0.00     0.119 A 
ATOM      9  C   UNL     1      -3.545   2.131  -1.045  1.00  0.00     0.027 A 
ATOM     10  N   UNL     1      -4.901   2.185   1.408  1.00  0.00    -0.263 NA
ATOM     11  C   UNL     1      -5.269   2.973   0.369  1.00  0.00     0.126 A 
BRANCH   7  12
ATOM     12  C   UNL     1      -1.868   0.571  -0.063  1.00  0.00    -0.016 A 
ATOM     13  C   UNL     1       1.804   1.611  -0.018  1.00  0.00     0.047 C 
ATOM     14  C   UNL     1       0.576   0.759  -0.053  1.00  0.00    -0.015 A 
ATOM     15  C   UNL     1      -0.690   1.346  -0.073  1.00  0.00     0.015 A 
ATOM     16  C   UNL     1       0.656  -0.632  -0.040  1.00  0.00     0.126 A 
ATOM     17  C   UNL     1      -0.492  -1.423  -0.038  1.00  0.00     0.040 A 
ATOM     18  F   UNL     1       1.859  -1.226  -0.014  1.00  0.00    -0.207 F 
ATOM     19  C   UNL     1      -1.757  -0.824  -0.042  1.00  0.00     0.012 A 
ENDBRANCH   7  12
ENDBRANCH   4   6
ENDBRANCH   3   4
ENDBRANCH   2   3
ENDBRANCH   1   2
BRANCH   1  20
ATOM     20  O   UNL     1      -7.153   4.272  -4.294  1.00  0.00    -0.458 OA
BRANCH  20  21
ATOM     21  C   UNL     1      -7.326   3.155  -3.554  1.00  0.00     0.338 C 
ATOM     22  O   UNL     1      -6.572   2.195  -3.495  1.00  0.00    -0.246 OA
BRANCH  21  23
ATOM     23  C   UNL     1      -8.649   3.146  -2.940  1.00  0.00     0.060 A 
ATOM     24  C   UNL     1      -8.693   2.514  -1.691  1.00  0.00     0.016 A 
ATOM     25  C   UNL     1      -9.651   2.997  -3.897  1.00  0.00     0.016 A 
ATOM     26  C   UNL     1      -9.545   1.442  -1.531  1.00  0.00     0.010 A 
ATOM     27  C   UNL     1     -10.483   1.923  -3.742  1.00  0.00     0.010 A 
ATOM     28  C   UNL     1     -10.343   1.100  -2.611  1.00  0.00    -0.014 A 
BRANCH  28  29
ATOM     29  C   UNL     1     -11.166  -0.080  -2.634  1.00  0.00     0.031 A 
ATOM     30  C   UNL     1     -12.478   0.023  -1.979  1.00  0.00     0.074 A 
ATOM     31  C   UNL     1     -10.819  -1.043  -3.518  1.00  0.00     0.049 A 
ATOM     32  N   UNL     1     -13.299  -0.955  -1.876  1.00  0.00    -0.248 NA
ATOM     33  C   UNL     1     -12.966   1.254  -1.352  1.00  0.00     0.031 C 
ATOM     34  C   UNL     1     -11.711  -1.953  -4.217  1.00  0.00     0.029 A 
ATOM     35  N   UNL     1      -9.537  -1.488  -3.870  1.00  0.00    -0.354 N 
ATOM     36  C   UNL     1     -14.507  -0.429  -1.476  1.00  0.00     0.074 A 
ATOM     37  C   UNL     1     -14.229   0.923  -1.062  1.00  0.00     0.031 C 
ATOM     38  C   UNL     1     -10.997  -2.981  -4.702  1.00  0.00     0.029 A 
ATOM     39  C   UNL     1      -9.660  -2.864  -4.143  1.00  0.00     0.049 A 
ATOM     40  H   UNL     1      -8.716  -0.947  -3.917  1.00  0.00     0.167 HD
ATOM     41  C   UNL     1     -15.629  -1.162  -1.704  1.00  0.00     0.034 A 
ATOM     42  C   UNL     1      -9.040  -3.851  -3.426  1.00  0.00     0.034 A 
ATOM     43  C   UNL     1     -15.263  -2.466  -2.251  1.00  0.00     0.049 A 
ATOM     44  C   UNL     1     -10.036  -4.790  -2.769  1.00  0.00     0.074 A 
ATOM     45  C   UNL     1     -15.123  -2.925  -3.551  1.00  0.00     0.029 A 
ATOM     46  N   UNL     1     -14.591  -3.365  -1.438  1.00  0.00    -0.354 N 
ATOM     47  N   UNL     1     -11.287  -4.487  -2.561  1.00  0.00    -0.248 NA
ATOM     48  C   UNL     1      -9.708  -6.128  -2.288  1.00  0.00     0.031 C 
ATOM     49  C   UNL     1     -14.319  -4.092  -3.518  1.00  0.00     0.029 A 
ATOM     50  C   UNL     1     -13.984  -4.349  -2.200  1.00  0.00     0.049 A 
ATOM     51  H   UNL     1     -14.550  -3.312  -0.456  1.00  0.00     0.167 HD
ATOM     52  C   UNL     1     -11.925  -5.520  -1.924  1.00  0.00     0.074 A 
ATOM     53  C   UNL     1     -10.894  -6.533  -1.797  1.00  0.00     0.031 C 
ATOM     54  C   UNL     1     -13.240  -5.428  -1.556  1.00  0.00     0.034 A 
BRANCH  41  55
ATOM     55  C   UNL     1     -17.035  -0.616  -1.689  1.00  0.00     0.023 A 
ATOM     56  C   UNL     1     -17.472   0.470  -0.899  1.00  0.00     0.031 A 
ATOM     57  C   UNL     1     -18.010  -1.188  -2.539  1.00  0.00     0.131 A 
ATOM     58  C   UNL     1     -18.792   0.961  -1.007  1.00  0.00     0.055 A 
ATOM     59  C   UNL     1     -19.326  -0.727  -2.612  1.00  0.00     0.041 A 
ATOM     60  F   UNL     1     -17.715  -2.189  -3.380  1.00  0.00    -0.206 F 
ATOM     61  C   UNL     1     -19.722   0.358  -1.851  1.00  0.00     0.022 A 
BRANCH  58  62
ATOM     62  S   UNL     1     -19.341   2.446  -0.115  1.00  0.00     0.124 S 
ATOM     63  O   UNL     1     -19.840   3.292  -1.200  1.00  0.00    -0.237 OA
ATOM     64  O   UNL     1     -20.368   1.919   0.779  1.00  0.00    -0.237 OA
ATOM     65  O   UNL     1     -18.129   2.937   0.533  1.00  0.00    -0.744 OA
ENDBRANCH  58  62
ENDBRANCH  41  55
BRANCH  42  66
ATOM     66  C   UNL     1      -7.758  -3.421  -2.805  1.00  0.00     0.023 A 
ATOM     67  C   UNL     1      -7.769  -2.881  -1.512  1.00  0.00     0.031 A 
ATOM     68  C   UNL     1      -6.682  -3.103  -3.662  1.00  0.00     0.131 A 
ATOM     69  C   UNL     1      -6.818  -1.908  -1.178  1.00  0.00     0.055 A 
ATOM     70  C   UNL     1      -5.741  -2.131  -3.322  1.00  0.00     0.041 A 
ATOM     71  F   UNL     1      -6.621  -3.632  -4.896  1.00  0.00    -0.206 F 
ATOM     72  C   UNL     1      -5.839  -1.494  -2.092  1.00  0.00     0.022 A 
BRANCH  69  73
ATOM     73  S   UNL     1      -6.951  -0.990   0.376  1.00  0.00     0.124 S 
ATOM     74  O   UNL     1      -5.768  -1.466   1.089  1.00  0.00    -0.237 OA
ATOM     75  O   UNL     1      -6.905   0.386  -0.101  1.00  0.00    -0.237 OA
ATOM     76  O   UNL     1      -8.237  -1.413   0.915  1.00  0.00    -0.744 OA
ENDBRANCH  69  73
ENDBRANCH  42  66
BRANCH  54  77
ATOM     77  C   UNL     1     -14.014  -6.338  -0.619  1.00  0.00     0.023 A 
ATOM     78  C   UNL     1     -15.419  -6.145  -0.510  1.00  0.00     0.031 A 
ATOM     79  C   UNL     1     -13.463  -7.256   0.286  1.00  0.00     0.131 A 
ATOM     80  C   UNL     1     -16.184  -6.778   0.475  1.00  0.00     0.055 A 
ATOM     81  C   UNL     1     -14.247  -7.968   1.205  1.00  0.00     0.041 A 
ATOM     82  F   UNL     1     -12.144  -7.464   0.374  1.00  0.00    -0.206 F 
ATOM     83  C   UNL     1     -15.607  -7.715   1.320  1.00  0.00     0.022 A 
BRANCH  80  84
ATOM     84  S   UNL     1     -17.893  -6.254   0.793  1.00  0.00     0.124 S 
ATOM     85  O   UNL     1     -18.654  -7.349   0.199  1.00  0.00    -0.237 OA
ATOM     86  O   UNL     1     -17.927  -6.188   2.253  1.00  0.00    -0.237 OA
ATOM     87  O   UNL     1     -17.992  -4.969   0.113  1.00  0.00    -0.744 OA
ENDBRANCH  80  84
ENDBRANCH  54  77
ENDBRANCH  28  29
ENDBRANCH  21  23
ENDBRANCH  20  21
ENDBRANCH   1  20
TORSDOF 15
