REMARK SMILES O=C(OCCOC(=O)[C@@]1(c2ccccc2)CCCC[NH2+]1)c1ccc(-c2c3nc(c(-c4cc(S(=O)(=O)[O-])ccc4F)c4ccc([nH]4)c(-c4cc(S(=O)(=O)[O-])ccc4F)c4nc(c(-c5cc(S(=O)(=O)[O-])ccc5F)c5ccc2[nH]5)C=C4)C=C3)cc1
REMARK SMILES IDX 4 1 3 2 2 3 1 4 21 5 22 6 83 7 23 8 82 9 24 10 25 11 26 12
REMARK SMILES IDX 76 13 27 14 81 15 75 16 77 17 28 18 80 19 74 20 73 21 29 23
REMARK SMILES IDX 61 24 41 25 60 26 42 27 45 28 59 29 78 30 43 31 44 32 58 34
REMARK SMILES IDX 79 35 46 36 30 37 31 38 39 39 32 40 38 41 40 42 37 43 33 44
REMARK SMILES IDX 34 45 35 46 36 47 62 48 63 49 71 50 64 51 70 52 72 53 69 54
REMARK SMILES IDX 65 55 66 56 67 57 68 58 47 59 48 60 56 61 49 62 55 63 57 64
REMARK SMILES IDX 54 65 50 66 51 67 52 68 53 69 5 70 6 71 7 72 8 73 9 74 16 75
REMARK SMILES IDX 20 76 17 77 19 78 18 81 10 82 11 83 15 84 12 85 14 86 13 87
REMARK H PARENT 77 22 45 33 20 79 20 80
REMARK Flexibility Score: inf
ROOT
ATOM      1  C   UNL     1      -2.252  -1.689   1.514  1.00  0.00     0.275 C 
ENDROOT
BRANCH   1   2
ATOM      2  O   UNL     1      -1.716  -2.661   0.610  1.00  0.00    -0.458 OA
BRANCH   2   3
ATOM      3  C   UNL     1      -0.504  -2.616   0.016  1.00  0.00     0.338 C 
ATOM      4  O   UNL     1      -0.160  -3.529  -0.731  1.00  0.00    -0.246 OA
BRANCH   3   5
ATOM      5  C   UNL     1       0.508  -1.557   0.310  1.00  0.00     0.060 A 
ATOM      6  C   UNL     1       0.286  -0.158   1.415  1.00  0.00     0.016 A 
ATOM      7  C   UNL     1       2.038  -1.850  -0.527  1.00  0.00     0.016 A 
ATOM      8  C   UNL     1       1.497   1.023   1.787  1.00  0.00     0.010 A 
ATOM      9  C   UNL     1       3.387  -0.704  -0.228  1.00  0.00     0.010 A 
ATOM     10  C   UNL     1       3.089   0.882   0.993  1.00  0.00    -0.014 A 
BRANCH  10  11
ATOM     11  C   UNL     1       3.777   2.247   1.491  1.00  0.00     0.031 A 
ATOM     12  C   UNL     1       3.851   3.489   0.614  1.00  0.00     0.074 A 
ATOM     13  C   UNL     1       4.167   2.392   2.774  1.00  0.00     0.049 A 
ATOM     14  N   UNL     1       4.813   4.370   0.507  1.00  0.00    -0.248 NA
ATOM     15  C   UNL     1       2.769   3.702  -0.356  1.00  0.00     0.031 C 
ATOM     16  C   UNL     1       3.942   1.429   3.850  1.00  0.00     0.029 A 
ATOM     17  N   UNL     1       4.858   3.406   3.388  1.00  0.00    -0.354 N 
ATOM     18  C   UNL     1       4.552   5.058  -0.681  1.00  0.00     0.074 A 
ATOM     19  C   UNL     1       3.398   4.428  -1.273  1.00  0.00     0.031 C 
ATOM     20  C   UNL     1       4.550   1.850   4.967  1.00  0.00     0.029 A 
ATOM     21  C   UNL     1       5.245   3.092   4.671  1.00  0.00     0.049 A 
ATOM     22  H   UNL     1       5.056   4.268   2.955  1.00  0.00     0.167 HD
ATOM     23  C   UNL     1       5.186   6.146  -1.188  1.00  0.00     0.034 A 
ATOM     24  C   UNL     1       6.114   3.714   5.487  1.00  0.00     0.034 A 
ATOM     25  C   UNL     1       6.101   6.911  -0.380  1.00  0.00     0.049 A 
ATOM     26  C   UNL     1       6.768   4.966   4.962  1.00  0.00     0.074 A 
ATOM     27  C   UNL     1       6.752   8.095  -0.668  1.00  0.00     0.029 A 
ATOM     28  N   UNL     1       6.401   6.595   0.941  1.00  0.00    -0.354 N 
ATOM     29  N   UNL     1       6.665   5.512   3.768  1.00  0.00    -0.248 NA
ATOM     30  C   UNL     1       7.629   5.698   5.892  1.00  0.00     0.031 C 
ATOM     31  C   UNL     1       7.486   8.465   0.464  1.00  0.00     0.029 A 
ATOM     32  C   UNL     1       7.223   7.559   1.483  1.00  0.00     0.049 A 
ATOM     33  H   UNL     1       6.074   5.799   1.419  1.00  0.00     0.167 HD
ATOM     34  C   UNL     1       7.420   6.677   3.819  1.00  0.00     0.074 A 
ATOM     35  C   UNL     1       7.940   6.764   5.171  1.00  0.00     0.031 C 
ATOM     36  C   UNL     1       7.680   7.592   2.849  1.00  0.00     0.034 A 
BRANCH  23  37
ATOM     37  C   UNL     1       4.905   6.577  -2.615  1.00  0.00     0.023 A 
ATOM     38  C   UNL     1       3.614   6.877  -3.081  1.00  0.00     0.031 A 
ATOM     39  C   UNL     1       5.955   6.638  -3.555  1.00  0.00     0.131 A 
ATOM     40  C   UNL     1       3.386   7.088  -4.451  1.00  0.00     0.055 A 
ATOM     41  C   UNL     1       5.737   6.964  -4.898  1.00  0.00     0.041 A 
ATOM     42  F   UNL     1       7.217   6.359  -3.191  1.00  0.00    -0.206 F 
ATOM     43  C   UNL     1       4.441   7.167  -5.360  1.00  0.00     0.022 A 
BRANCH  40  44
ATOM     44  S   UNL     1       1.672   7.073  -5.049  1.00  0.00     0.124 S 
ATOM     45  O   UNL     1       1.268   5.704  -4.735  1.00  0.00    -0.237 OA
ATOM     46  O   UNL     1       1.046   8.118  -4.248  1.00  0.00    -0.237 OA
ATOM     47  O   UNL     1       1.802   7.369  -6.474  1.00  0.00    -0.744 OA
ENDBRANCH  40  44
ENDBRANCH  23  37
BRANCH  24  48
ATOM     48  C   UNL     1       6.415   3.174   6.843  1.00  0.00     0.023 A 
ATOM     49  C   UNL     1       6.134   3.935   7.986  1.00  0.00     0.031 A 
ATOM     50  C   UNL     1       7.014   1.913   7.030  1.00  0.00     0.131 A 
ATOM     51  C   UNL     1       6.515   3.471   9.253  1.00  0.00     0.055 A 
ATOM     52  C   UNL     1       7.318   1.419   8.302  1.00  0.00     0.041 A 
ATOM     53  F   UNL     1       7.302   1.132   5.976  1.00  0.00    -0.206 F 
ATOM     54  C   UNL     1       7.087   2.210   9.423  1.00  0.00     0.022 A 
BRANCH  51  55
ATOM     55  S   UNL     1       6.382   4.613  10.654  1.00  0.00     0.124 S 
ATOM     56  O   UNL     1       7.116   5.772  10.159  1.00  0.00    -0.237 OA
ATOM     57  O   UNL     1       4.936   4.774  10.775  1.00  0.00    -0.237 OA
ATOM     58  O   UNL     1       7.023   3.886  11.747  1.00  0.00    -0.744 OA
ENDBRANCH  51  55
ENDBRANCH  24  48
BRANCH  36  59
ATOM     59  C   UNL     1       8.506   8.773   3.258  1.00  0.00     0.023 A 
ATOM     60  C   UNL     1       9.841   8.613   3.647  1.00  0.00     0.031 A 
ATOM     61  C   UNL     1       7.945  10.061   3.275  1.00  0.00     0.131 A 
ATOM     62  C   UNL     1      10.547   9.712   4.139  1.00  0.00     0.055 A 
ATOM     63  C   UNL     1       8.690  11.171   3.663  1.00  0.00     0.041 A 
ATOM     64  F   UNL     1       6.668  10.258   2.911  1.00  0.00    -0.206 F 
ATOM     65  C   UNL     1       9.994  10.995   4.122  1.00  0.00     0.022 A 
BRANCH  62  66
ATOM     66  S   UNL     1      12.127   9.397   4.963  1.00  0.00     0.124 S 
ATOM     67  O   UNL     1      11.733   8.462   6.012  1.00  0.00    -0.237 OA
ATOM     68  O   UNL     1      12.935   8.838   3.884  1.00  0.00    -0.237 OA
ATOM     69  O   UNL     1      12.537  10.720   5.428  1.00  0.00    -0.744 OA
ENDBRANCH  62  66
ENDBRANCH  36  59
ENDBRANCH  10  11
ENDBRANCH   3   5
ENDBRANCH   2   3
ENDBRANCH   1   2
BRANCH   1  70
ATOM     70  C   UNL     1      -1.776  -1.870   2.983  1.00  0.00     0.274 C 
BRANCH  70  71
ATOM     71  O   UNL     1      -0.339  -1.722   3.204  1.00  0.00    -0.457 OA
BRANCH  71  72
ATOM     72  C   UNL     1       0.456  -2.729   2.744  1.00  0.00     0.373 C 
ATOM     73  O   UNL     1      -0.015  -3.856   2.603  1.00  0.00    -0.244 OA
BRANCH  72  74
ATOM     74  C   UNL     1       1.997  -2.330   2.425  1.00  0.00     0.219 C 
ATOM     75  C   UNL     1       2.646  -2.307   3.860  1.00  0.00     0.087 C 
ATOM     76  N   UNL     1       2.680  -3.495   1.719  1.00  0.00    -0.328 N 
ATOM     77  C   UNL     1       2.599  -3.669   4.594  1.00  0.00     0.013 C 
ATOM     78  C   UNL     1       2.660  -4.809   2.343  1.00  0.00     0.261 C 
ATOM     79  H   UNL     1       3.659  -3.238   1.597  1.00  0.00     0.347 HD
ATOM     80  H   UNL     1       2.132  -3.621   0.868  1.00  0.00     0.347 HD
ATOM     81  C   UNL     1       3.180  -4.807   3.763  1.00  0.00     0.062 C 
BRANCH  74  82
ATOM     82  C   UNL     1       2.456  -0.917   1.420  1.00  0.00     0.024 A 
ATOM     83  C   UNL     1       4.264  -0.807   1.673  1.00  0.00     0.011 A 
ATOM     84  C   UNL     1       1.743   0.169  -0.138  1.00  0.00     0.011 A 
ATOM     85  C   UNL     1       5.244   0.191   0.593  1.00  0.00     0.001 A 
ATOM     86  C   UNL     1       2.874   1.083  -1.194  1.00  0.00     0.001 A 
ATOM     87  C   UNL     1       4.579   1.079  -0.787  1.00  0.00     0.000 A 
ENDBRANCH  74  82
ENDBRANCH  72  74
ENDBRANCH  71  72
ENDBRANCH  70  71
ENDBRANCH   1  70
TORSDOF 15
