REMARK SMILES O=C(N[C@@H](Cc1c[nH]c2ccccc12)C(=O)N[C@@H](CO)C(=O)OCCOC(=O)c1ccc(-c2c3nc(c(-c4cc(S(=O)(=O)[O-])ccc4F)c4ccc([nH]4)c(-c4cc(S(=O)(=O)[O-])ccc4F)c4nc(c(-c5cc(S(=O)(=O)[O-])ccc5F)c5ccc2[nH]5)C=C4)C=C3)cc1)c1ccc(F)cc1
REMARK SMILES IDX 24 1 23 2 21 3 22 4 18 5 17 6 15 7 16 8 4 10 3 11 1 12 2 13
REMARK SMILES IDX 92 15 93 16 98 17 94 18 97 19 95 20 96 21 5 22 6 23 7 24
REMARK SMILES IDX 14 25 8 26 9 27 13 28 10 30 12 31 11 32 19 33 20 34 25 36
REMARK SMILES IDX 26 37 27 38 28 39 29 40 30 41 91 42 31 43 90 44 32 45 33 46
REMARK SMILES IDX 34 47 84 48 35 49 89 50 83 51 85 52 36 53 88 54 82 55 81 56
REMARK SMILES IDX 37 58 69 59 49 60 68 61 50 62 53 63 67 64 86 65 51 66 52 67
REMARK SMILES IDX 66 69 87 70 54 71 38 72 39 73 47 74 40 75 46 76 48 77 45 78
REMARK SMILES IDX 41 79 42 80 43 81 44 82 70 83 71 84 79 85 72 86 78 87 80 88
REMARK SMILES IDX 77 89 73 90 74 91 75 92 76 93 55 94 56 95 64 96 57 97 63 98
REMARK SMILES IDX 65 99 62 100 58 101 59 102 60 103 61 104
REMARK H PARENT 17 9 3 14 8 29 20 35 85 57 53 68
REMARK Flexibility Score: inf
ROOT
ATOM      1  C   UNL     1       6.126  -6.891  -0.392  1.00  0.00     0.274 C 
ENDROOT
BRANCH   1   2
ATOM      2  O   UNL     1       5.573  -5.708  -1.032  1.00  0.00    -0.460 OA
BRANCH   2   3
ATOM      3  C   UNL     1       4.248  -5.788  -1.402  1.00  0.00     0.331 C 
ATOM      4  O   UNL     1       3.578  -6.807  -1.255  1.00  0.00    -0.250 OA
BRANCH   3   5
ATOM      5  C   UNL     1       3.656  -4.421  -1.870  1.00  0.00     0.218 C 
BRANCH   5   6
ATOM      6  N   UNL     1       4.677  -3.416  -2.179  1.00  0.00    -0.339 N 
ATOM      7  C   UNL     1       5.014  -2.211  -1.655  1.00  0.00     0.243 C 
ATOM      8  O   UNL     1       6.074  -1.748  -2.105  1.00  0.00    -0.273 OA
ATOM      9  H   UNL     1       5.248  -3.673  -2.939  1.00  0.00     0.164 HD
BRANCH   7  10
ATOM     10  C   UNL     1       4.208  -1.366  -0.621  1.00  0.00     0.176 C 
BRANCH  10  11
ATOM     11  N   UNL     1       2.876  -0.968  -1.078  1.00  0.00    -0.340 N 
ATOM     12  O   UNL     1       1.038   0.333  -0.990  1.00  0.00    -0.269 OA
ATOM     13  C   UNL     1       2.254   0.242  -0.849  1.00  0.00     0.251 C 
ATOM     14  H   UNL     1       2.372  -1.632  -1.601  1.00  0.00     0.164 HD
BRANCH  13  15
ATOM     15  C   UNL     1       3.034   1.433  -0.422  1.00  0.00     0.040 A 
ATOM     16  C   UNL     1       4.124   1.884  -1.181  1.00  0.00     0.017 A 
ATOM     17  C   UNL     1       2.627   2.150   0.712  1.00  0.00     0.017 A 
ATOM     18  C   UNL     1       4.828   3.023  -0.782  1.00  0.00     0.040 A 
ATOM     19  C   UNL     1       3.329   3.296   1.101  1.00  0.00     0.040 A 
ATOM     20  C   UNL     1       4.421   3.721   0.351  1.00  0.00     0.123 A 
ATOM     21  F   UNL     1       5.077   4.831   0.709  1.00  0.00    -0.207 F 
ENDBRANCH  13  15
ENDBRANCH  10  11
BRANCH  10  22
ATOM     22  C   UNL     1       4.208  -1.796   0.854  1.00  0.00     0.072 C 
BRANCH  22  23
ATOM     23  C   UNL     1       3.526  -3.086   1.151  1.00  0.00    -0.020 A 
ATOM     24  C   UNL     1       4.203  -4.274   1.240  1.00  0.00     0.087 A 
ATOM     25  C   UNL     1       2.140  -3.405   1.315  1.00  0.00     0.003 A 
ATOM     26  N   UNL     1       3.327  -5.285   1.488  1.00  0.00    -0.361 N 
ATOM     27  C   UNL     1       2.049  -4.795   1.449  1.00  0.00     0.046 A 
ATOM     28  C   UNL     1       0.945  -2.666   1.288  1.00  0.00     0.010 A 
ATOM     29  H   UNL     1       3.573  -6.221   1.667  1.00  0.00     0.166 HD
ATOM     30  C   UNL     1       0.839  -5.489   1.500  1.00  0.00     0.026 A 
ATOM     31  C   UNL     1      -0.280  -3.345   1.338  1.00  0.00     0.001 A 
ATOM     32  C   UNL     1      -0.330  -4.734   1.427  1.00  0.00     0.002 A 
ENDBRANCH  22  23
ENDBRANCH  10  22
ENDBRANCH   7  10
ENDBRANCH   5   6
BRANCH   5  33
ATOM     33  C   UNL     1       2.677  -4.639  -3.026  1.00  0.00     0.193 C 
BRANCH  33  34
ATOM     34  O   UNL     1       3.353  -4.990  -4.231  1.00  0.00    -0.394 OA
ATOM     35  H   UNL     1       3.951  -4.271  -4.488  1.00  0.00     0.210 HD
ENDBRANCH  33  34
ENDBRANCH   5  33
ENDBRANCH   3   5
ENDBRANCH   2   3
ENDBRANCH   1   2
BRANCH   1  36
ATOM     36  C   UNL     1       7.314  -6.553   0.540  1.00  0.00     0.275 C 
BRANCH  36  37
ATOM     37  O   UNL     1       6.845  -5.967   1.778  1.00  0.00    -0.458 OA
BRANCH  37  38
ATOM     38  C   UNL     1       7.790  -5.426   2.605  1.00  0.00     0.338 C 
ATOM     39  O   UNL     1       8.998  -5.564   2.471  1.00  0.00    -0.246 OA
BRANCH  38  40
ATOM     40  C   UNL     1       7.152  -4.510   3.609  1.00  0.00     0.060 A 
ATOM     41  C   UNL     1       5.778  -4.507   3.790  1.00  0.00     0.016 A 
ATOM     42  C   UNL     1       7.885  -3.534   4.284  1.00  0.00     0.016 A 
ATOM     43  C   UNL     1       5.132  -3.400   4.358  1.00  0.00     0.010 A 
ATOM     44  C   UNL     1       7.225  -2.530   5.037  1.00  0.00     0.010 A 
ATOM     45  C   UNL     1       5.822  -2.380   5.022  1.00  0.00    -0.014 A 
BRANCH  45  46
ATOM     46  C   UNL     1       5.112  -1.172   5.624  1.00  0.00     0.031 A 
ATOM     47  C   UNL     1       5.769   0.202   5.587  1.00  0.00     0.074 A 
ATOM     48  C   UNL     1       3.873  -1.212   6.179  1.00  0.00     0.049 A 
ATOM     49  N   UNL     1       5.571   1.247   6.357  1.00  0.00    -0.248 NA
ATOM     50  C   UNL     1       6.803   0.414   4.566  1.00  0.00     0.031 C 
ATOM     51  C   UNL     1       2.985  -2.373   6.255  1.00  0.00     0.029 A 
ATOM     52  N   UNL     1       3.127  -0.216   6.787  1.00  0.00    -0.354 N 
ATOM     53  C   UNL     1       6.548   2.179   6.007  1.00  0.00     0.074 A 
ATOM     54  C   UNL     1       7.316   1.580   4.934  1.00  0.00     0.031 C 
ATOM     55  C   UNL     1       1.802  -2.008   6.767  1.00  0.00     0.029 A 
ATOM     56  C   UNL     1       1.895  -0.639   7.247  1.00  0.00     0.049 A 
ATOM     57  H   UNL     1       3.445   0.711   6.883  1.00  0.00     0.167 HD
ATOM     58  C   UNL     1       6.793   3.406   6.542  1.00  0.00     0.034 A 
ATOM     59  C   UNL     1       0.971  -0.059   8.044  1.00  0.00     0.034 A 
ATOM     60  C   UNL     1       5.935   4.060   7.507  1.00  0.00     0.049 A 
ATOM     61  C   UNL     1       1.249   1.297   8.636  1.00  0.00     0.074 A 
ATOM     62  C   UNL     1       6.094   5.301   8.106  1.00  0.00     0.029 A 
ATOM     63  N   UNL     1       4.730   3.555   7.977  1.00  0.00    -0.354 N 
ATOM     64  N   UNL     1       2.292   2.074   8.470  1.00  0.00    -0.248 NA
ATOM     65  C   UNL     1       0.236   1.835   9.555  1.00  0.00     0.031 C 
ATOM     66  C   UNL     1       5.012   5.525   8.967  1.00  0.00     0.029 A 
ATOM     67  C   UNL     1       4.140   4.457   8.854  1.00  0.00     0.049 A 
ATOM     68  H   UNL     1       4.348   2.684   7.724  1.00  0.00     0.167 HD
ATOM     69  C   UNL     1       2.057   3.193   9.266  1.00  0.00     0.074 A 
ATOM     70  C   UNL     1       0.758   3.008   9.876  1.00  0.00     0.031 C 
ATOM     71  C   UNL     1       2.854   4.270   9.481  1.00  0.00     0.034 A 
BRANCH  58  72
ATOM     72  C   UNL     1       8.089   4.093   6.163  1.00  0.00     0.023 A 
ATOM     73  C   UNL     1       8.380   4.523   4.858  1.00  0.00     0.031 A 
ATOM     74  C   UNL     1       9.072   4.300   7.153  1.00  0.00     0.131 A 
ATOM     75  C   UNL     1       9.645   5.059   4.564  1.00  0.00     0.055 A 
ATOM     76  C   UNL     1      10.292   4.918   6.872  1.00  0.00     0.041 A 
ATOM     77  F   UNL     1       8.865   3.897   8.417  1.00  0.00    -0.206 F 
ATOM     78  C   UNL     1      10.592   5.285   5.566  1.00  0.00     0.022 A 
BRANCH  75  79
ATOM     79  S   UNL     1      10.102   5.303   2.824  1.00  0.00     0.124 S 
ATOM     80  O   UNL     1       9.886   3.968   2.272  1.00  0.00    -0.237 OA
ATOM     81  O   UNL     1       9.165   6.334   2.395  1.00  0.00    -0.237 OA
ATOM     82  O   UNL     1      11.502   5.720   2.893  1.00  0.00    -0.744 OA
ENDBRANCH  75  79
ENDBRANCH  58  72
BRANCH  59  83
ATOM     83  C   UNL     1      -0.258  -0.811   8.453  1.00  0.00     0.023 A 
ATOM     84  C   UNL     1      -1.543  -0.341   8.136  1.00  0.00     0.031 A 
ATOM     85  C   UNL     1      -0.162  -1.986   9.224  1.00  0.00     0.131 A 
ATOM     86  C   UNL     1      -2.675  -1.023   8.613  1.00  0.00     0.055 A 
ATOM     87  C   UNL     1      -1.289  -2.699   9.633  1.00  0.00     0.041 A 
ATOM     88  F   UNL     1       1.039  -2.472   9.576  1.00  0.00    -0.206 F 
ATOM     89  C   UNL     1      -2.556  -2.211   9.338  1.00  0.00     0.022 A 
BRANCH  86  90
ATOM     90  S   UNL     1      -4.314  -0.287   8.352  1.00  0.00     0.124 S 
ATOM     91  O   UNL     1      -4.176   0.991   9.040  1.00  0.00    -0.237 OA
ATOM     92  O   UNL     1      -4.393  -0.229   6.897  1.00  0.00    -0.237 OA
ATOM     93  O   UNL     1      -5.220  -1.243   8.985  1.00  0.00    -0.744 OA
ENDBRANCH  86  90
ENDBRANCH  59  83
BRANCH  71  94
ATOM     94  C   UNL     1       2.307   5.350  10.384  1.00  0.00     0.023 A 
ATOM     95  C   UNL     1       2.067   5.119  11.752  1.00  0.00     0.031 A 
ATOM     96  C   UNL     1       1.951   6.604   9.856  1.00  0.00     0.131 A 
ATOM     97  C   UNL     1       1.417   6.095  12.524  1.00  0.00     0.055 A 
ATOM     98  C   UNL     1       1.363   7.595  10.644  1.00  0.00     0.041 A 
ATOM     99  F   UNL     1       2.151   6.879   8.557  1.00  0.00    -0.206 F 
ATOM    100  C   UNL     1       1.075   7.336  11.982  1.00  0.00     0.022 A 
BRANCH  97 101
ATOM    101  S   UNL     1       0.903   5.671  14.212  1.00  0.00     0.124 S 
ATOM    102  O   UNL     1       0.110   4.465  13.995  1.00  0.00    -0.237 OA
ATOM    103  O   UNL     1       2.182   5.480  14.888  1.00  0.00    -0.237 OA
ATOM    104  O   UNL     1       0.143   6.843  14.644  1.00  0.00    -0.744 OA
ENDBRANCH  97 101
ENDBRANCH  71  94
ENDBRANCH  45  46
ENDBRANCH  38  40
ENDBRANCH  37  38
ENDBRANCH  36  37
ENDBRANCH   1  36
TORSDOF 22
