REMARK SMILES CC1(C)S[C@@H](c2cccc3c2sc2ccccc23)[NH2+][C@@H]1C(=O)OCCOC(=O)c1ccc(-c2c3nc(c(-c4cc(S(=O)(=O)[O-])ccc4F)c4ccc([nH]4)c(-c4cc(S(=O)(=O)[O-])ccc4F)c4nc(c(-c5cc(S(=O)(=O)[O-])ccc5F)c5ccc2[nH]5)C=C4)C=C3)cc1
REMARK SMILES IDX 25 1 24 2 23 3 21 4 22 5 20 6 1 7 2 8 3 9 4 10 5 11 19 12
REMARK SMILES IDX 6 15 7 16 11 17 8 18 10 19 12 20 9 21 18 22 13 23 17 24
REMARK SMILES IDX 14 25 16 26 15 27 26 28 27 29 28 30 29 31 30 32 91 33 31 34
REMARK SMILES IDX 90 35 32 36 33 37 34 38 84 39 35 40 89 41 83 42 85 43 36 44
REMARK SMILES IDX 88 45 82 46 81 47 37 49 69 50 49 51 68 52 50 53 53 54 67 55
REMARK SMILES IDX 86 56 51 57 52 58 66 60 87 61 54 62 38 63 39 64 47 65 40 66
REMARK SMILES IDX 46 67 48 68 45 69 41 70 42 71 43 72 44 73 70 74 71 75 79 76
REMARK SMILES IDX 72 77 78 78 80 79 77 80 73 81 74 82 75 83 76 84 55 85 56 86
REMARK SMILES IDX 64 87 57 88 63 89 65 90 62 91 58 92 59 93 60 94 61 95
REMARK H PARENT 19 13 19 14 85 48 53 59
REMARK Flexibility Score: inf
ROOT
ATOM      1  C   UNL     1      -0.210   2.530  -4.740  1.00  0.00     0.275 C 
ENDROOT
BRANCH   1   2
ATOM      2  C   UNL     1      -1.141   1.500  -4.091  1.00  0.00     0.274 C 
BRANCH   2   3
ATOM      3  O   UNL     1      -1.034   1.524  -2.656  1.00  0.00    -0.458 OA
BRANCH   3   4
ATOM      4  C   UNL     1      -0.287   0.523  -2.095  1.00  0.00     0.366 C 
ATOM      5  O   UNL     1       0.211  -0.385  -2.744  1.00  0.00    -0.245 OA
BRANCH   4   6
ATOM      6  C   UNL     1      -0.124   0.750  -0.570  1.00  0.00     0.310 C 
ATOM      7  C   UNL     1       1.140   0.287   1.586  1.00  0.00     0.030 C 
ATOM      8  C   UNL     1       0.689  -0.307   0.232  1.00  0.00     0.079 C 
ATOM      9  C   UNL     1       1.915  -0.968  -0.401  1.00  0.00     0.030 C 
ATOM     10  S   UNL     1      -0.546  -1.607   0.540  1.00  0.00    -0.081 SA
ATOM     11  C   UNL     1      -1.963  -0.509   0.249  1.00  0.00     0.276 C 
ATOM     12  N   UNL     1      -1.474   0.863   0.081  1.00  0.00    -0.319 N 
ATOM     13  H   UNL     1      -1.391   1.322   0.988  1.00  0.00     0.348 HD
ATOM     14  H   UNL     1      -2.114   1.419  -0.486  1.00  0.00     0.348 HD
BRANCH  11  15
ATOM     15  C   UNL     1      -2.989  -0.661   1.354  1.00  0.00     0.038 A 
ATOM     16  C   UNL     1      -2.623  -0.486   2.711  1.00  0.00     0.012 A 
ATOM     17  C   UNL     1      -4.323  -1.083   1.104  1.00  0.00     0.046 A 
ATOM     18  C   UNL     1      -3.483  -0.793   3.752  1.00  0.00     0.001 A 
ATOM     19  C   UNL     1      -5.206  -1.417   2.135  1.00  0.00     0.001 A 
ATOM     20  S   UNL     1      -5.082  -1.279  -0.431  1.00  0.00    -0.135 S 
ATOM     21  C   UNL     1      -4.756  -1.279   3.474  1.00  0.00     0.010 A 
ATOM     22  C   UNL     1      -6.478  -1.904   1.631  1.00  0.00     0.000 A 
ATOM     23  C   UNL     1      -6.543  -1.850   0.242  1.00  0.00     0.036 A 
ATOM     24  C   UNL     1      -7.611  -2.401   2.325  1.00  0.00     0.010 A 
ATOM     25  C   UNL     1      -7.695  -2.242  -0.467  1.00  0.00     0.019 A 
ATOM     26  C   UNL     1      -8.753  -2.807   1.628  1.00  0.00     0.001 A 
ATOM     27  C   UNL     1      -8.795  -2.720   0.245  1.00  0.00     0.002 A 
ENDBRANCH  11  15
ENDBRANCH   4   6
ENDBRANCH   3   4
ENDBRANCH   2   3
ENDBRANCH   1   2
BRANCH   1  28
ATOM     28  O   UNL     1       1.175   2.291  -4.421  1.00  0.00    -0.458 OA
BRANCH  28  29
ATOM     29  C   UNL     1       1.631   2.960  -3.330  1.00  0.00     0.338 C 
ATOM     30  O   UNL     1       1.004   3.755  -2.652  1.00  0.00    -0.246 OA
BRANCH  29  31
ATOM     31  C   UNL     1       2.959   2.446  -2.931  1.00  0.00     0.060 A 
ATOM     32  C   UNL     1       3.146   2.168  -1.575  1.00  0.00     0.016 A 
ATOM     33  C   UNL     1       4.009   2.256  -3.832  1.00  0.00     0.016 A 
ATOM     34  C   UNL     1       4.346   1.629  -1.123  1.00  0.00     0.010 A 
ATOM     35  C   UNL     1       5.233   1.747  -3.369  1.00  0.00     0.010 A 
ATOM     36  C   UNL     1       5.396   1.406  -2.016  1.00  0.00    -0.014 A 
BRANCH  36  37
ATOM     37  C   UNL     1       6.688   0.928  -1.471  1.00  0.00     0.031 A 
ATOM     38  C   UNL     1       7.678   1.941  -0.978  1.00  0.00     0.074 A 
ATOM     39  C   UNL     1       6.929  -0.387  -1.316  1.00  0.00     0.049 A 
ATOM     40  N   UNL     1       8.878   1.761  -0.494  1.00  0.00    -0.248 NA
ATOM     41  C   UNL     1       7.242   3.344  -1.019  1.00  0.00     0.031 C 
ATOM     42  C   UNL     1       5.985  -1.460  -1.629  1.00  0.00     0.029 A 
ATOM     43  N   UNL     1       8.039  -1.044  -0.844  1.00  0.00    -0.354 N 
ATOM     44  C   UNL     1       9.347   3.030  -0.173  1.00  0.00     0.074 A 
ATOM     45  C   UNL     1       8.302   3.967  -0.529  1.00  0.00     0.031 C 
ATOM     46  C   UNL     1       6.565  -2.643  -1.355  1.00  0.00     0.029 A 
ATOM     47  C   UNL     1       7.936  -2.416  -0.901  1.00  0.00     0.049 A 
ATOM     48  H   UNL     1       8.834  -0.578  -0.497  1.00  0.00     0.167 HD
ATOM     49  C   UNL     1      10.542   3.376   0.363  1.00  0.00     0.034 A 
ATOM     50  C   UNL     1       8.859  -3.371  -0.658  1.00  0.00     0.034 A 
ATOM     51  C   UNL     1      11.583   2.429   0.676  1.00  0.00     0.049 A 
ATOM     52  C   UNL     1      10.244  -2.949  -0.218  1.00  0.00     0.074 A 
ATOM     53  C   UNL     1      12.849   2.676   1.177  1.00  0.00     0.029 A 
ATOM     54  N   UNL     1      11.488   1.054   0.501  1.00  0.00    -0.354 N 
ATOM     55  N   UNL     1      10.701  -1.743   0.033  1.00  0.00    -0.248 NA
ATOM     56  C   UNL     1      11.239  -4.015  -0.035  1.00  0.00     0.031 C 
ATOM     57  C   UNL     1      13.546   1.464   1.224  1.00  0.00     0.029 A 
ATOM     58  C   UNL     1      12.685   0.445   0.845  1.00  0.00     0.049 A 
ATOM     59  H   UNL     1      10.687   0.581   0.180  1.00  0.00     0.167 HD
ATOM     60  C   UNL     1      12.025  -1.912   0.437  1.00  0.00     0.074 A 
ATOM     61  C   UNL     1      12.287  -3.336   0.406  1.00  0.00     0.031 C 
ATOM     62  C   UNL     1      12.938  -0.977   0.806  1.00  0.00     0.034 A 
BRANCH  49  63
ATOM     63  C   UNL     1      10.809   4.849   0.544  1.00  0.00     0.023 A 
ATOM     64  C   UNL     1      10.062   5.636   1.437  1.00  0.00     0.031 A 
ATOM     65  C   UNL     1      11.790   5.486  -0.235  1.00  0.00     0.131 A 
ATOM     66  C   UNL     1      10.258   7.025   1.474  1.00  0.00     0.055 A 
ATOM     67  C   UNL     1      12.039   6.855  -0.133  1.00  0.00     0.041 A 
ATOM     68  F   UNL     1      12.512   4.789  -1.128  1.00  0.00    -0.206 F 
ATOM     69  C   UNL     1      11.259   7.636   0.715  1.00  0.00     0.022 A 
BRANCH  66  70
ATOM     70  S   UNL     1       9.079   8.043   2.405  1.00  0.00     0.124 S 
ATOM     71  O   UNL     1       7.814   7.690   1.763  1.00  0.00    -0.237 OA
ATOM     72  O   UNL     1       9.258   7.564   3.770  1.00  0.00    -0.237 OA
ATOM     73  O   UNL     1       9.534   9.409   2.156  1.00  0.00    -0.744 OA
ENDBRANCH  66  70
ENDBRANCH  49  63
BRANCH  50  74
ATOM     74  C   UNL     1       8.553  -4.814  -0.903  1.00  0.00     0.023 A 
ATOM     75  C   UNL     1       8.649  -5.771   0.121  1.00  0.00     0.031 A 
ATOM     76  C   UNL     1       8.249  -5.271  -2.200  1.00  0.00     0.131 A 
ATOM     77  C   UNL     1       8.497  -7.136  -0.178  1.00  0.00     0.055 A 
ATOM     78  C   UNL     1       8.036  -6.622  -2.479  1.00  0.00     0.041 A 
ATOM     79  F   UNL     1       8.162  -4.406  -3.223  1.00  0.00    -0.206 F 
ATOM     80  C   UNL     1       8.175  -7.566  -1.468  1.00  0.00     0.022 A 
BRANCH  77  81
ATOM     81  S   UNL     1       8.839  -8.357   1.121  1.00  0.00     0.124 S 
ATOM     82  O   UNL     1      10.223  -8.046   1.461  1.00  0.00    -0.237 OA
ATOM     83  O   UNL     1       7.838  -8.018   2.127  1.00  0.00    -0.237 OA
ATOM     84  O   UNL     1       8.634  -9.637   0.447  1.00  0.00    -0.744 OA
ENDBRANCH  77  81
ENDBRANCH  50  74
BRANCH  62  85
ATOM     85  C   UNL     1      14.292  -1.469   1.265  1.00  0.00     0.023 A 
ATOM     86  C   UNL     1      15.190  -2.110   0.393  1.00  0.00     0.031 A 
ATOM     87  C   UNL     1      14.691  -1.281   2.601  1.00  0.00     0.131 A 
ATOM     88  C   UNL     1      16.419  -2.582   0.879  1.00  0.00     0.055 A 
ATOM     89  C   UNL     1      15.942  -1.694   3.062  1.00  0.00     0.041 A 
ATOM     90  F   UNL     1      13.874  -0.679   3.481  1.00  0.00    -0.206 F 
ATOM     91  C   UNL     1      16.809  -2.359   2.202  1.00  0.00     0.022 A 
BRANCH  88  92
ATOM     92  S   UNL     1      17.471  -3.571  -0.219  1.00  0.00     0.124 S 
ATOM     93  O   UNL     1      16.589  -4.680  -0.568  1.00  0.00    -0.237 OA
ATOM     94  O   UNL     1      17.771  -2.632  -1.296  1.00  0.00    -0.237 OA
ATOM     95  O   UNL     1      18.611  -3.927   0.625  1.00  0.00    -0.744 OA
ENDBRANCH  88  92
ENDBRANCH  62  85
ENDBRANCH  36  37
ENDBRANCH  29  31
ENDBRANCH  28  29
ENDBRANCH   1  28
TORSDOF 15
