REMARK SMILES O=CN1CCC[C@@H](C(=O)OCCOC(=O)c2ccc(-c3c4nc(c(-c5cc(S(=O)(=O)[O-])ccc5F)c5ccc([nH]5)c(-c5cc(S(=O)(=O)[O-])ccc5F)c5nc(c(-c6cc(S(=O)(=O)[O-])ccc6F)c6ccc3[nH]6)C=C5)C=C4)cc2)C1
REMARK SMILES IDX 12 1 11 2 10 3 8 4 9 5 7 6 3 7 4 8 79 9 5 10 6 11 2 12 1 13
REMARK SMILES IDX 13 14 14 15 15 16 16 17 17 18 78 19 18 20 77 21 19 22 20 23
REMARK SMILES IDX 21 24 71 25 22 26 76 27 70 28 72 29 23 30 75 31 69 32 68 33
REMARK SMILES IDX 24 35 56 36 36 37 55 38 37 39 40 40 54 41 73 42 38 43 39 44
REMARK SMILES IDX 53 46 74 47 41 48 25 49 26 50 34 51 27 52 33 53 35 54 32 55
REMARK SMILES IDX 28 56 29 57 30 58 31 59 57 60 58 61 66 62 59 63 65 64 67 65
REMARK SMILES IDX 64 66 60 67 61 68 62 69 63 70 42 71 43 72 51 73 44 74 50 75
REMARK SMILES IDX 52 76 49 77 45 78 46 79 47 80 48 81
REMARK H PARENT 72 34 40 45
REMARK Flexibility Score: inf
ROOT
ATOM      1  C   UNL     1       2.580   7.345  -0.834  1.00  0.00     0.275 C 
ENDROOT
BRANCH   1   2
ATOM      2  C   UNL     1       1.751   6.116  -0.448  1.00  0.00     0.274 C 
BRANCH   2   3
ATOM      3  O   UNL     1       2.542   4.958  -0.111  1.00  0.00    -0.462 OA
BRANCH   3   4
ATOM      4  C   UNL     1       2.679   4.025  -1.093  1.00  0.00     0.310 C 
ATOM      5  O   UNL     1       2.340   4.188  -2.258  1.00  0.00    -0.252 OA
BRANCH   4   6
ATOM      6  C   UNL     1       3.245   2.724  -0.556  1.00  0.00     0.119 C 
ATOM      7  N   UNL     1       2.830   0.290  -0.641  1.00  0.00    -0.344 N 
ATOM      8  C   UNL     1       4.124  -0.010  -1.234  1.00  0.00     0.119 C 
ATOM      9  C   UNL     1       2.267   1.605  -0.931  1.00  0.00     0.134 C 
ATOM     10  C   UNL     1       5.140   1.039  -0.798  1.00  0.00     0.022 C 
ATOM     11  C   UNL     1       4.637   2.443  -1.135  1.00  0.00     0.019 C 
BRANCH   7  12
ATOM     12  C   UNL     1       2.162  -0.617   0.148  1.00  0.00     0.339 C 
ATOM     13  O   UNL     1       1.094  -0.426   0.715  1.00  0.00    -0.279 OA
ENDBRANCH   7  12
ENDBRANCH   4   6
ENDBRANCH   3   4
ENDBRANCH   2   3
ENDBRANCH   1   2
BRANCH   1  14
ATOM     14  O   UNL     1       3.216   7.193  -2.115  1.00  0.00    -0.458 OA
BRANCH  14  15
ATOM     15  C   UNL     1       4.496   6.755  -2.060  1.00  0.00     0.338 C 
ATOM     16  O   UNL     1       5.148   6.542  -1.051  1.00  0.00    -0.246 OA
BRANCH  15  17
ATOM     17  C   UNL     1       4.964   6.379  -3.407  1.00  0.00     0.060 A 
ATOM     18  C   UNL     1       5.439   5.076  -3.552  1.00  0.00     0.016 A 
ATOM     19  C   UNL     1       4.999   7.259  -4.488  1.00  0.00     0.016 A 
ATOM     20  C   UNL     1       5.924   4.624  -4.773  1.00  0.00     0.010 A 
ATOM     21  C   UNL     1       5.508   6.813  -5.718  1.00  0.00     0.010 A 
ATOM     22  C   UNL     1       5.971   5.491  -5.867  1.00  0.00    -0.014 A 
BRANCH  22  23
ATOM     23  C   UNL     1       6.574   5.011  -7.135  1.00  0.00     0.031 A 
ATOM     24  C   UNL     1       7.961   5.446  -7.510  1.00  0.00     0.074 A 
ATOM     25  C   UNL     1       5.908   4.131  -7.908  1.00  0.00     0.049 A 
ATOM     26  N   UNL     1       8.643   5.199  -8.598  1.00  0.00    -0.248 NA
ATOM     27  C   UNL     1       8.676   6.266  -6.521  1.00  0.00     0.031 C 
ATOM     28  C   UNL     1       4.591   3.571  -7.604  1.00  0.00     0.029 A 
ATOM     29  N   UNL     1       6.250   3.550  -9.103  1.00  0.00    -0.354 N 
ATOM     30  C   UNL     1       9.861   5.849  -8.439  1.00  0.00     0.074 A 
ATOM     31  C   UNL     1       9.815   6.514  -7.152  1.00  0.00     0.031 C 
ATOM     32  C   UNL     1       4.237   2.728  -8.588  1.00  0.00     0.029 A 
ATOM     33  C   UNL     1       5.271   2.732  -9.618  1.00  0.00     0.049 A 
ATOM     34  H   UNL     1       7.114   3.703  -9.550  1.00  0.00     0.167 HD
ATOM     35  C   UNL     1      10.917   5.887  -9.290  1.00  0.00     0.034 A 
ATOM     36  C   UNL     1       5.199   2.094 -10.804  1.00  0.00     0.034 A 
ATOM     37  C   UNL     1      10.944   5.216 -10.567  1.00  0.00     0.049 A 
ATOM     38  C   UNL     1       6.345   2.230 -11.775  1.00  0.00     0.074 A 
ATOM     39  C   UNL     1      11.960   5.191 -11.508  1.00  0.00     0.029 A 
ATOM     40  N   UNL     1       9.905   4.455 -11.089  1.00  0.00    -0.354 N 
ATOM     41  N   UNL     1       7.475   2.884 -11.633  1.00  0.00    -0.248 NA
ATOM     42  C   UNL     1       6.202   1.548 -13.068  1.00  0.00     0.031 C 
ATOM     43  C   UNL     1      11.511   4.472 -12.622  1.00  0.00     0.029 A 
ATOM     44  C   UNL     1      10.243   3.985 -12.350  1.00  0.00     0.049 A 
ATOM     45  H   UNL     1       9.053   4.275 -10.631  1.00  0.00     0.167 HD
ATOM     46  C   UNL     1       8.184   2.677 -12.813  1.00  0.00     0.074 A 
ATOM     47  C   UNL     1       7.363   1.821 -13.645  1.00  0.00     0.031 C 
ATOM     48  C   UNL     1       9.404   3.150 -13.177  1.00  0.00     0.034 A 
BRANCH  35  49
ATOM     49  C   UNL     1      12.095   6.742  -8.890  1.00  0.00     0.023 A 
ATOM     50  C   UNL     1      12.896   6.435  -7.777  1.00  0.00     0.031 A 
ATOM     51  C   UNL     1      12.398   7.905  -9.620  1.00  0.00     0.131 A 
ATOM     52  C   UNL     1      13.918   7.315  -7.388  1.00  0.00     0.055 A 
ATOM     53  C   UNL     1      13.462   8.738  -9.271  1.00  0.00     0.041 A 
ATOM     54  F   UNL     1      11.652   8.261 -10.679  1.00  0.00    -0.206 F 
ATOM     55  C   UNL     1      14.221   8.453  -8.141  1.00  0.00     0.022 A 
BRANCH  52  56
ATOM     56  S   UNL     1      14.758   7.027  -5.806  1.00  0.00     0.124 S 
ATOM     57  O   UNL     1      13.641   7.066  -4.866  1.00  0.00    -0.237 OA
ATOM     58  O   UNL     1      15.377   5.723  -6.010  1.00  0.00    -0.237 OA
ATOM     59  O   UNL     1      15.689   8.149  -5.702  1.00  0.00    -0.744 OA
ENDBRANCH  52  56
ENDBRANCH  35  49
BRANCH  36  60
ATOM     60  C   UNL     1       3.973   1.331 -11.177  1.00  0.00     0.023 A 
ATOM     61  C   UNL     1       4.016  -0.053 -11.411  1.00  0.00     0.031 A 
ATOM     62  C   UNL     1       2.744   1.992 -11.359  1.00  0.00     0.131 A 
ATOM     63  C   UNL     1       2.862  -0.723 -11.849  1.00  0.00     0.055 A 
ATOM     64  C   UNL     1       1.588   1.312 -11.744  1.00  0.00     0.041 A 
ATOM     65  F   UNL     1       2.649   3.316 -11.156  1.00  0.00    -0.206 F 
ATOM     66  C   UNL     1       1.646  -0.053 -12.003  1.00  0.00     0.022 A 
BRANCH  63  67
ATOM     67  S   UNL     1       2.992  -2.477 -12.296  1.00  0.00     0.124 S 
ATOM     68  O   UNL     1       4.008  -2.443 -13.342  1.00  0.00    -0.237 OA
ATOM     69  O   UNL     1       3.394  -3.083 -11.031  1.00  0.00    -0.237 OA
ATOM     70  O   UNL     1       1.643  -2.814 -12.745  1.00  0.00    -0.744 OA
ENDBRANCH  63  67
ENDBRANCH  36  60
BRANCH  48  71
ATOM     71  C   UNL     1       9.928   2.716 -14.524  1.00  0.00     0.023 A 
ATOM     72  C   UNL     1       9.333   3.151 -15.722  1.00  0.00     0.031 A 
ATOM     73  C   UNL     1      11.024   1.840 -14.609  1.00  0.00     0.131 A 
ATOM     74  C   UNL     1       9.804   2.665 -16.952  1.00  0.00     0.055 A 
ATOM     75  C   UNL     1      11.524   1.405 -15.837  1.00  0.00     0.041 A 
ATOM     76  F   UNL     1      11.628   1.392 -13.496  1.00  0.00    -0.206 F 
ATOM     77  C   UNL     1      10.905   1.807 -17.017  1.00  0.00     0.022 A 
BRANCH  74  78
ATOM     78  S   UNL     1       8.903   3.100 -18.465  1.00  0.00     0.124 S 
ATOM     79  O   UNL     1       7.571   2.572 -18.187  1.00  0.00    -0.237 OA
ATOM     80  O   UNL     1       9.019   4.555 -18.491  1.00  0.00    -0.237 OA
ATOM     81  O   UNL     1       9.640   2.402 -19.517  1.00  0.00    -0.744 OA
ENDBRANCH  74  78
ENDBRANCH  48  71
ENDBRANCH  22  23
ENDBRANCH  15  17
ENDBRANCH  14  15
ENDBRANCH   1  14
TORSDOF 15
