REMARK SMILES O=C(Cc1ccc(NC(=O)C2CCCC2)cc1)OCCOC(=O)c1ccc(-c2c3nc(c(-c4cc(S(=O)(=O)[O-])ccc4F)c4ccc([nH]4)c(-c4cc(S(=O)(=O)[O-])ccc4F)c4nc(c(-c5cc(S(=O)(=O)[O-])ccc5F)c5ccc2[nH]5)C=C4)C=C3)cc1
REMARK SMILES IDX 19 1 18 2 2 3 1 4 3 5 4 6 5 7 17 8 6 9 16 10 7 11 8 12 9 13
REMARK SMILES IDX 10 15 11 16 12 17 15 18 13 19 14 20 20 21 21 22 22 23 23 24
REMARK SMILES IDX 24 25 25 26 86 27 26 28 85 29 27 30 28 31 29 32 79 33 30 34
REMARK SMILES IDX 84 35 78 36 80 37 31 38 83 39 77 40 76 41 32 43 64 44 44 45
REMARK SMILES IDX 63 46 45 47 48 48 62 49 81 50 46 51 47 52 61 54 82 55 49 56
REMARK SMILES IDX 33 57 34 58 42 59 35 60 41 61 43 62 40 63 36 64 37 65 38 66
REMARK SMILES IDX 39 67 65 68 66 69 74 70 67 71 73 72 75 73 72 74 68 75 69 76
REMARK SMILES IDX 70 77 71 78 50 79 51 80 59 81 52 82 58 83 60 84 57 85 53 86
REMARK SMILES IDX 54 87 55 88 56 89
REMARK H PARENT 8 14 80 42 48 53
REMARK Flexibility Score: inf
ROOT
ATOM      1  C   UNL     1       4.446   0.062  -0.872  1.00  0.00     0.274 C 
ENDROOT
BRANCH   1   2
ATOM      2  O   UNL     1       3.081  -0.399  -0.779  1.00  0.00    -0.462 OA
BRANCH   2   3
ATOM      3  C   UNL     1       2.285  -0.333   0.314  1.00  0.00     0.310 C 
ATOM      4  O   UNL     1       1.168  -0.849   0.282  1.00  0.00    -0.252 OA
BRANCH   3   5
ATOM      5  C   UNL     1       2.791   0.346   1.572  1.00  0.00     0.158 C 
BRANCH   5   6
ATOM      6  C   UNL     1       3.510  -0.572   2.519  1.00  0.00    -0.037 A 
ATOM      7  C   UNL     1       2.896  -1.746   2.960  1.00  0.00     0.006 A 
ATOM      8  C   UNL     1       4.796  -0.259   2.979  1.00  0.00     0.006 A 
ATOM      9  C   UNL     1       3.620  -2.667   3.708  1.00  0.00     0.026 A 
ATOM     10  C   UNL     1       5.520  -1.188   3.725  1.00  0.00     0.026 A 
ATOM     11  C   UNL     1       4.966  -2.440   3.990  1.00  0.00     0.041 A 
BRANCH  11  12
ATOM     12  N   UNL     1       5.824  -3.444   4.458  1.00  0.00    -0.326 N 
ATOM     13  C   UNL     1       5.896  -4.762   4.076  1.00  0.00     0.227 C 
ATOM     14  H   UNL     1       6.463  -3.167   5.155  1.00  0.00     0.169 HD
ATOM     15  O   UNL     1       6.734  -5.482   4.626  1.00  0.00    -0.274 OA
BRANCH  13  16
ATOM     16  C   UNL     1       5.011  -5.286   2.946  1.00  0.00     0.079 C 
ATOM     17  C   UNL     1       5.273  -4.627   1.589  1.00  0.00     0.013 C 
ATOM     18  C   UNL     1       5.241  -6.758   2.599  1.00  0.00     0.013 C 
ATOM     19  C   UNL     1       4.517  -5.522   0.619  1.00  0.00     0.001 C 
ATOM     20  C   UNL     1       4.604  -6.925   1.218  1.00  0.00     0.001 C 
ENDBRANCH  13  16
ENDBRANCH  11  12
ENDBRANCH   5   6
ENDBRANCH   3   5
ENDBRANCH   2   3
ENDBRANCH   1   2
BRANCH   1  21
ATOM     21  C   UNL     1       4.527   1.423  -1.566  1.00  0.00     0.275 C 
BRANCH  21  22
ATOM     22  O   UNL     1       4.024   2.444  -0.688  1.00  0.00    -0.458 OA
BRANCH  22  23
ATOM     23  C   UNL     1       2.733   2.814  -0.894  1.00  0.00     0.338 C 
ATOM     24  O   UNL     1       2.040   2.509  -1.848  1.00  0.00    -0.246 OA
BRANCH  23  25
ATOM     25  C   UNL     1       2.216   3.444   0.346  1.00  0.00     0.060 A 
ATOM     26  C   UNL     1       0.884   3.191   0.698  1.00  0.00     0.016 A 
ATOM     27  C   UNL     1       3.038   4.186   1.206  1.00  0.00     0.016 A 
ATOM     28  C   UNL     1       0.368   3.694   1.892  1.00  0.00     0.010 A 
ATOM     29  C   UNL     1       2.518   4.689   2.404  1.00  0.00     0.010 A 
ATOM     30  C   UNL     1       1.173   4.466   2.741  1.00  0.00    -0.014 A 
BRANCH  30  31
ATOM     31  C   UNL     1       0.546   5.177   3.883  1.00  0.00     0.031 A 
ATOM     32  C   UNL     1       0.102   6.600   3.680  1.00  0.00     0.074 A 
ATOM     33  C   UNL     1       0.327   4.562   5.060  1.00  0.00     0.049 A 
ATOM     34  N   UNL     1      -0.559   7.388   4.487  1.00  0.00    -0.248 NA
ATOM     35  C   UNL     1       0.454   7.213   2.389  1.00  0.00     0.031 C 
ATOM     36  C   UNL     1       0.716   3.191   5.386  1.00  0.00     0.029 A 
ATOM     37  N   UNL     1      -0.283   5.019   6.202  1.00  0.00    -0.354 N 
ATOM     38  C   UNL     1      -0.739   8.576   3.788  1.00  0.00     0.074 A 
ATOM     39  C   UNL     1      -0.050   8.429   2.523  1.00  0.00     0.031 C 
ATOM     40  C   UNL     1       0.338   2.920   6.649  1.00  0.00     0.029 A 
ATOM     41  C   UNL     1      -0.315   4.097   7.221  1.00  0.00     0.049 A 
ATOM     42  H   UNL     1      -0.664   5.923   6.283  1.00  0.00     0.167 HD
ATOM     43  C   UNL     1      -1.439   9.679   4.150  1.00  0.00     0.034 A 
ATOM     44  C   UNL     1      -0.815   4.194   8.471  1.00  0.00     0.034 A 
ATOM     45  C   UNL     1      -2.083   9.839   5.429  1.00  0.00     0.049 A 
ATOM     46  C   UNL     1      -1.526   5.463   8.884  1.00  0.00     0.074 A 
ATOM     47  C   UNL     1      -2.805  10.921   5.903  1.00  0.00     0.029 A 
ATOM     48  N   UNL     1      -2.069   8.896   6.448  1.00  0.00    -0.354 N 
ATOM     49  N   UNL     1      -1.735   6.560   8.192  1.00  0.00    -0.248 NA
ATOM     50  C   UNL     1      -2.090   5.493  10.240  1.00  0.00     0.031 C 
ATOM     51  C   UNL     1      -3.172  10.657   7.228  1.00  0.00     0.029 A 
ATOM     52  C   UNL     1      -2.744   9.381   7.558  1.00  0.00     0.049 A 
ATOM     53  H   UNL     1      -1.641   8.011   6.391  1.00  0.00     0.167 HD
ATOM     54  C   UNL     1      -2.482   7.395   9.021  1.00  0.00     0.074 A 
ATOM     55  C   UNL     1      -2.705   6.666  10.251  1.00  0.00     0.031 C 
ATOM     56  C   UNL     1      -2.946   8.651   8.787  1.00  0.00     0.034 A 
BRANCH  43  57
ATOM     57  C   UNL     1      -1.508  10.800   3.144  1.00  0.00     0.023 A 
ATOM     58  C   UNL     1      -2.157  10.630   1.907  1.00  0.00     0.031 A 
ATOM     59  C   UNL     1      -0.885  12.033   3.399  1.00  0.00     0.131 A 
ATOM     60  C   UNL     1      -2.105  11.648   0.944  1.00  0.00     0.055 A 
ATOM     61  C   UNL     1      -0.904  13.071   2.465  1.00  0.00     0.041 A 
ATOM     62  F   UNL     1      -0.229  12.242   4.551  1.00  0.00    -0.206 F 
ATOM     63  C   UNL     1      -1.504  12.877   1.224  1.00  0.00     0.022 A 
BRANCH  60  64
ATOM     64  S   UNL     1      -2.712  11.292  -0.728  1.00  0.00     0.124 S 
ATOM     65  O   UNL     1      -1.847  10.183  -1.124  1.00  0.00    -0.237 OA
ATOM     66  O   UNL     1      -4.112  10.958  -0.491  1.00  0.00    -0.237 OA
ATOM     67  O   UNL     1      -2.481  12.541  -1.449  1.00  0.00    -0.744 OA
ENDBRANCH  60  64
ENDBRANCH  43  57
BRANCH  44  68
ATOM     68  C   UNL     1      -0.651   3.075   9.445  1.00  0.00     0.023 A 
ATOM     69  C   UNL     1      -1.760   2.389   9.967  1.00  0.00     0.031 A 
ATOM     70  C   UNL     1       0.623   2.736   9.934  1.00  0.00     0.131 A 
ATOM     71  C   UNL     1      -1.580   1.445  10.990  1.00  0.00     0.055 A 
ATOM     72  C   UNL     1       0.801   1.759  10.915  1.00  0.00     0.041 A 
ATOM     73  F   UNL     1       1.717   3.361   9.469  1.00  0.00    -0.206 F 
ATOM     74  C   UNL     1      -0.306   1.118  11.460  1.00  0.00     0.022 A 
BRANCH  71  75
ATOM     75  S   UNL     1      -3.048   0.721  11.775  1.00  0.00     0.124 S 
ATOM     76  O   UNL     1      -3.751   1.910  12.244  1.00  0.00    -0.237 OA
ATOM     77  O   UNL     1      -3.665   0.009  10.660  1.00  0.00    -0.237 OA
ATOM     78  O   UNL     1      -2.490  -0.130  12.823  1.00  0.00    -0.744 OA
ENDBRANCH  71  75
ENDBRANCH  44  68
BRANCH  56  79
ATOM     79  C   UNL     1      -3.770   9.293   9.879  1.00  0.00     0.023 A 
ATOM     80  C   UNL     1      -3.217   9.617  11.131  1.00  0.00     0.031 A 
ATOM     81  C   UNL     1      -5.135   9.562   9.673  1.00  0.00     0.131 A 
ATOM     82  C   UNL     1      -4.037  10.126  12.149  1.00  0.00     0.055 A 
ATOM     83  C   UNL     1      -5.933  10.127  10.669  1.00  0.00     0.041 A 
ATOM     84  F   UNL     1      -5.719   9.275   8.498  1.00  0.00    -0.206 F 
ATOM     85  C   UNL     1      -5.389  10.396  11.922  1.00  0.00     0.022 A 
BRANCH  82  86
ATOM     86  S   UNL     1      -3.339  10.326  13.812  1.00  0.00     0.124 S 
ATOM     87  O   UNL     1      -2.840   8.984  14.097  1.00  0.00    -0.237 OA
ATOM     88  O   UNL     1      -2.324  11.352  13.601  1.00  0.00    -0.237 OA
ATOM     89  O   UNL     1      -4.485  10.745  14.617  1.00  0.00    -0.744 OA
ENDBRANCH  82  86
ENDBRANCH  56  79
ENDBRANCH  30  31
ENDBRANCH  23  25
ENDBRANCH  22  23
ENDBRANCH  21  22
ENDBRANCH   1  21
TORSDOF 17
