REMARK SMILES C[C@H](C(=O)OCCOC(=O)c1ccc(-c2c3nc(c(-c4cc(S(=O)(=O)[O-])ccc4F)c4ccc([nH]4)c(-c4cc(S(=O)(=O)[O-])ccc4F)c4nc(c(-c5cc(S(=O)(=O)[O-])ccc5F)c5ccc2[nH]5)C=C4)C=C3)cc1)[N@@H+]1CCc2ccccc2C1
REMARK SMILES IDX 7 1 6 2 5 3 3 4 4 5 2 6 1 7 74 8 75 9 83 10 76 12 82 13
REMARK SMILES IDX 77 14 81 15 78 16 80 17 79 18 8 19 9 20 10 21 11 22 12 23
REMARK SMILES IDX 73 24 13 25 72 26 14 27 15 28 16 29 66 30 17 31 71 32 65 33
REMARK SMILES IDX 67 34 18 35 70 36 64 37 63 38 19 40 51 41 31 42 50 43 32 44
REMARK SMILES IDX 35 45 49 46 68 47 33 48 34 49 48 51 69 52 36 53 20 54 21 55
REMARK SMILES IDX 29 56 22 57 28 58 30 59 27 60 23 61 24 62 25 63 26 64 52 65
REMARK SMILES IDX 53 66 61 67 54 68 60 69 62 70 59 71 55 72 56 73 57 74 58 75
REMARK SMILES IDX 37 76 38 77 46 78 39 79 45 80 47 81 44 82 40 83 41 84 42 85
REMARK SMILES IDX 43 86
REMARK H PARENT 74 11 67 39 35 50
REMARK Flexibility Score: inf
ROOT
ATOM      1  C   UNL     1       1.166   1.878   1.990  1.00  0.00     0.275 C 
ENDROOT
BRANCH   1   2
ATOM      2  C   UNL     1       0.559   2.296   0.650  1.00  0.00     0.274 C 
BRANCH   2   3
ATOM      3  O   UNL     1      -0.080   1.190  -0.018  1.00  0.00    -0.458 OA
BRANCH   3   4
ATOM      4  C   UNL     1       0.753   0.431  -0.790  1.00  0.00     0.364 C 
ATOM      5  O   UNL     1       1.941   0.701  -0.954  1.00  0.00    -0.245 OA
BRANCH   4   6
ATOM      6  C   UNL     1       0.021  -0.673  -1.578  1.00  0.00     0.292 C 
ATOM      7  C   UNL     1       1.087  -1.319  -2.492  1.00  0.00     0.088 C 
BRANCH   6   8
ATOM      8  N   UNL     1      -0.802  -1.641  -0.815  1.00  0.00    -0.319 N 
ATOM      9  C   UNL     1      -1.412  -1.271   0.476  1.00  0.00     0.268 C 
ATOM     10  C   UNL     1      -0.514  -3.067  -0.935  1.00  0.00     0.300 C 
ATOM     11  H   UNL     1      -1.579  -1.476  -1.453  1.00  0.00     0.349 HD
ATOM     12  C   UNL     1      -1.983  -2.477   1.291  1.00  0.00     0.097 C 
ATOM     13  C   UNL     1      -0.015  -3.635   0.362  1.00  0.00     0.010 A 
ATOM     14  C   UNL     1      -0.853  -3.462   1.478  1.00  0.00    -0.034 A 
ATOM     15  C   UNL     1       1.208  -4.281   0.492  1.00  0.00     0.010 A 
ATOM     16  C   UNL     1      -0.554  -4.103   2.676  1.00  0.00     0.004 A 
ATOM     17  C   UNL     1       1.545  -4.849   1.716  1.00  0.00     0.001 A 
ATOM     18  C   UNL     1       0.650  -4.801   2.789  1.00  0.00     0.000 A 
ENDBRANCH   6   8
ENDBRANCH   4   6
ENDBRANCH   3   4
ENDBRANCH   2   3
ENDBRANCH   1   2
BRANCH   1  19
ATOM     19  O   UNL     1       2.173   0.874   1.792  1.00  0.00    -0.458 OA
BRANCH  19  20
ATOM     20  C   UNL     1       2.535   0.195   2.903  1.00  0.00     0.338 C 
ATOM     21  O   UNL     1       2.145   0.441   4.042  1.00  0.00    -0.246 OA
BRANCH  20  22
ATOM     22  C   UNL     1       3.495  -0.892   2.580  1.00  0.00     0.060 A 
ATOM     23  C   UNL     1       3.589  -1.456   1.303  1.00  0.00     0.016 A 
ATOM     24  C   UNL     1       4.293  -1.403   3.608  1.00  0.00     0.016 A 
ATOM     25  C   UNL     1       4.429  -2.555   1.075  1.00  0.00     0.010 A 
ATOM     26  C   UNL     1       5.178  -2.460   3.361  1.00  0.00     0.010 A 
ATOM     27  C   UNL     1       5.237  -3.075   2.099  1.00  0.00    -0.014 A 
BRANCH  27  28
ATOM     28  C   UNL     1       6.115  -4.268   1.885  1.00  0.00     0.031 A 
ATOM     29  C   UNL     1       5.947  -5.503   2.743  1.00  0.00     0.074 A 
ATOM     30  C   UNL     1       7.081  -4.256   0.943  1.00  0.00     0.049 A 
ATOM     31  N   UNL     1       6.705  -6.568   2.829  1.00  0.00    -0.248 NA
ATOM     32  C   UNL     1       4.765  -5.544   3.618  1.00  0.00     0.031 C 
ATOM     33  C   UNL     1       7.335  -3.163   0.002  1.00  0.00     0.029 A 
ATOM     34  N   UNL     1       8.043  -5.189   0.630  1.00  0.00    -0.354 N 
ATOM     35  C   UNL     1       6.106  -7.393   3.779  1.00  0.00     0.074 A 
ATOM     36  C   UNL     1       4.924  -6.701   4.244  1.00  0.00     0.031 C 
ATOM     37  C   UNL     1       8.370  -3.492  -0.786  1.00  0.00     0.029 A 
ATOM     38  C   UNL     1       8.919  -4.770  -0.346  1.00  0.00     0.049 A 
ATOM     39  H   UNL     1       8.099  -6.071   1.062  1.00  0.00     0.167 HD
ATOM     40  C   UNL     1       6.511  -8.607   4.232  1.00  0.00     0.034 A 
ATOM     41  C   UNL     1      10.072  -5.309  -0.796  1.00  0.00     0.034 A 
ATOM     42  C   UNL     1       7.702  -9.285   3.779  1.00  0.00     0.049 A 
ATOM     43  C   UNL     1      10.570  -6.594  -0.191  1.00  0.00     0.074 A 
ATOM     44  C   UNL     1       8.194 -10.519   4.172  1.00  0.00     0.029 A 
ATOM     45  N   UNL     1       8.602  -8.782   2.849  1.00  0.00    -0.354 N 
ATOM     46  N   UNL     1      10.018  -7.337   0.740  1.00  0.00    -0.248 NA
ATOM     47  C   UNL     1      11.856  -7.103  -0.684  1.00  0.00     0.031 C 
ATOM     48  C   UNL     1       9.426 -10.725   3.541  1.00  0.00     0.029 A 
ATOM     49  C   UNL     1       9.666  -9.659   2.689  1.00  0.00     0.049 A 
ATOM     50  H   UNL     1       8.500  -7.927   2.372  1.00  0.00     0.167 HD
ATOM     51  C   UNL     1      10.886  -8.409   0.932  1.00  0.00     0.074 A 
ATOM     52  C   UNL     1      11.986  -8.224   0.009  1.00  0.00     0.031 C 
ATOM     53  C   UNL     1      10.778  -9.453   1.793  1.00  0.00     0.034 A 
BRANCH  40  54
ATOM     54  C   UNL     1       5.701  -9.247   5.336  1.00  0.00     0.023 A 
ATOM     55  C   UNL     1       4.388  -9.709   5.137  1.00  0.00     0.031 A 
ATOM     56  C   UNL     1       6.265  -9.400   6.617  1.00  0.00     0.131 A 
ATOM     57  C   UNL     1       3.669 -10.259   6.211  1.00  0.00     0.055 A 
ATOM     58  C   UNL     1       5.569 -10.007   7.663  1.00  0.00     0.041 A 
ATOM     59  F   UNL     1       7.506  -8.956   6.873  1.00  0.00    -0.206 F 
ATOM     60  C   UNL     1       4.259 -10.432   7.466  1.00  0.00     0.022 A 
BRANCH  57  61
ATOM     61  S   UNL     1       1.910 -10.639   5.983  1.00  0.00     0.124 S 
ATOM     62  O   UNL     1       1.377  -9.345   5.566  1.00  0.00    -0.237 OA
ATOM     63  O   UNL     1       1.943 -11.678   4.960  1.00  0.00    -0.237 OA
ATOM     64  O   UNL     1       1.480 -11.083   7.308  1.00  0.00    -0.744 OA
ENDBRANCH  57  61
ENDBRANCH  40  54
BRANCH  41  65
ATOM     65  C   UNL     1      10.889  -4.582  -1.812  1.00  0.00     0.023 A 
ATOM     66  C   UNL     1      11.119  -5.121  -3.087  1.00  0.00     0.031 A 
ATOM     67  C   UNL     1      11.473  -3.338  -1.505  1.00  0.00     0.131 A 
ATOM     68  C   UNL     1      11.928  -4.427  -4.001  1.00  0.00     0.055 A 
ATOM     69  C   UNL     1      12.230  -2.627  -2.436  1.00  0.00     0.041 A 
ATOM     70  F   UNL     1      11.293  -2.783  -0.296  1.00  0.00    -0.206 F 
ATOM     71  C   UNL     1      12.468  -3.176  -3.691  1.00  0.00     0.022 A 
BRANCH  68  72
ATOM     72  S   UNL     1      12.321  -5.212  -5.589  1.00  0.00     0.124 S 
ATOM     73  O   UNL     1      12.989  -6.435  -5.159  1.00  0.00    -0.237 OA
ATOM     74  O   UNL     1      10.998  -5.376  -6.182  1.00  0.00    -0.237 OA
ATOM     75  O   UNL     1      13.179  -4.231  -6.250  1.00  0.00    -0.744 OA
ENDBRANCH  68  72
ENDBRANCH  41  65
BRANCH  53  76
ATOM     76  C   UNL     1      11.872 -10.492   1.742  1.00  0.00     0.023 A 
ATOM     77  C   UNL     1      13.186 -10.200   2.147  1.00  0.00     0.031 A 
ATOM     78  C   UNL     1      11.603 -11.779   1.245  1.00  0.00     0.131 A 
ATOM     79  C   UNL     1      14.196 -11.162   1.988  1.00  0.00     0.055 A 
ATOM     80  C   UNL     1      12.599 -12.751   1.145  1.00  0.00     0.041 A 
ATOM     81  F   UNL     1      10.366 -12.111   0.841  1.00  0.00    -0.206 F 
ATOM     82  C   UNL     1      13.908 -12.440   1.503  1.00  0.00     0.022 A 
BRANCH  79  83
ATOM     83  S   UNL     1      15.914 -10.687   2.326  1.00  0.00     0.124 S 
ATOM     84  O   UNL     1      16.105  -9.568   1.408  1.00  0.00    -0.237 OA
ATOM     85  O   UNL     1      15.871 -10.347   3.745  1.00  0.00    -0.237 OA
ATOM     86  O   UNL     1      16.674 -11.892   2.001  1.00  0.00    -0.744 OA
ENDBRANCH  79  83
ENDBRANCH  53  76
ENDBRANCH  27  28
ENDBRANCH  20  22
ENDBRANCH  19  20
ENDBRANCH   1  19
TORSDOF 15
