REMARK SMILES COC(=O)c1cncc(N2CC[C@H](C(=O)OCCOC(=O)c3ccc(-c4c5nc(c(-c6cc(S(=O)(=O)[O-])ccc6F)c6ccc([nH]6)c(-c6cc(S(=O)(=O)[O-])ccc6F)c6nc(c(-c7cc(S(=O)(=O)[O-])ccc7F)c7ccc4[nH]7)C=C6)C=C5)cc3)C2)n1
REMARK SMILES IDX 17 1 16 2 14 3 15 4 13 5 10 6 11 7 85 8 12 9 9 10 5 11 6 12
REMARK SMILES IDX 86 13 7 14 8 15 3 16 4 17 2 18 1 19 18 20 19 21 20 22 21 23
REMARK SMILES IDX 22 24 23 25 84 26 24 27 83 28 25 29 26 30 27 31 77 32 28 33
REMARK SMILES IDX 82 34 76 35 78 36 29 37 81 38 75 39 74 40 30 42 62 43 42 44
REMARK SMILES IDX 61 45 43 46 46 47 60 48 79 49 44 50 45 51 59 53 80 54 47 55
REMARK SMILES IDX 31 56 32 57 40 58 33 59 39 60 41 61 38 62 34 63 35 64 36 65
REMARK SMILES IDX 37 66 63 67 64 68 72 69 65 70 71 71 73 72 70 73 66 74 67 75
REMARK SMILES IDX 68 76 69 77 48 78 49 79 57 80 50 81 56 82 58 83 55 84 51 85
REMARK SMILES IDX 52 86 53 87 54 88
REMARK H PARENT 78 41 46 52
REMARK Flexibility Score: inf
ROOT
ATOM      1  C   UNL     1       3.656   1.771  -9.893  1.00  0.00     0.274 C 
ENDROOT
BRANCH   1   2
ATOM      2  O   UNL     1       3.351   0.641  -9.055  1.00  0.00    -0.462 OA
BRANCH   2   3
ATOM      3  C   UNL     1       2.395  -0.213  -9.496  1.00  0.00     0.310 C 
ATOM      4  O   UNL     1       1.689  -0.024 -10.480  1.00  0.00    -0.252 OA
BRANCH   3   5
ATOM      5  C   UNL     1       2.269  -1.448  -8.643  1.00  0.00     0.120 C 
ATOM      6  N   UNL     1       1.191  -2.326  -6.748  1.00  0.00    -0.354 N 
ATOM      7  C   UNL     1       2.615  -2.635  -6.613  1.00  0.00     0.119 C 
ATOM      8  C   UNL     1       0.954  -1.425  -7.880  1.00  0.00     0.133 C 
ATOM      9  C   UNL     1       3.305  -1.647  -7.544  1.00  0.00     0.038 C 
BRANCH   6  10
ATOM     10  C   UNL     1       0.446  -2.055  -5.617  1.00  0.00     0.148 A 
ATOM     11  C   UNL     1       0.257  -1.161  -3.502  1.00  0.00     0.169 A 
ATOM     12  C   UNL     1      -1.098  -1.457  -3.479  1.00  0.00     0.147 A 
ATOM     13  N   UNL     1       1.044  -1.457  -4.567  1.00  0.00    -0.221 NA
ATOM     14  N   UNL     1      -1.728  -2.052  -4.518  1.00  0.00    -0.258 NA
ATOM     15  C   UNL     1      -0.925  -2.335  -5.577  1.00  0.00     0.157 A 
BRANCH  11  16
ATOM     16  C   UNL     1       0.912  -0.435  -2.384  1.00  0.00     0.358 C 
ATOM     17  O   UNL     1       1.908   0.262  -2.491  1.00  0.00    -0.244 OA
BRANCH  16  18
ATOM     18  O   UNL     1       0.242  -0.675  -1.224  1.00  0.00    -0.464 OA
ATOM     19  C   UNL     1       0.840  -0.064  -0.080  1.00  0.00     0.282 C 
ENDBRANCH  16  18
ENDBRANCH  11  16
ENDBRANCH   6  10
ENDBRANCH   3   5
ENDBRANCH   2   3
ENDBRANCH   1   2
BRANCH   1  20
ATOM     20  C   UNL     1       5.012   1.580 -10.577  1.00  0.00     0.275 C 
BRANCH  20  21
ATOM     21  O   UNL     1       4.970   0.522 -11.552  1.00  0.00    -0.458 OA
BRANCH  21  22
ATOM     22  C   UNL     1       5.284  -0.707 -11.076  1.00  0.00     0.338 C 
ATOM     23  O   UNL     1       5.615  -0.995  -9.939  1.00  0.00    -0.246 OA
BRANCH  22  24
ATOM     24  C   UNL     1       5.040  -1.716 -12.117  1.00  0.00     0.060 A 
ATOM     25  C   UNL     1       4.045  -2.669 -11.888  1.00  0.00     0.016 A 
ATOM     26  C   UNL     1       5.833  -1.779 -13.262  1.00  0.00     0.016 A 
ATOM     27  C   UNL     1       3.841  -3.702 -12.797  1.00  0.00     0.010 A 
ATOM     28  C   UNL     1       5.623  -2.813 -14.179  1.00  0.00     0.010 A 
ATOM     29  C   UNL     1       4.634  -3.786 -13.946  1.00  0.00    -0.014 A 
BRANCH  29  30
ATOM     30  C   UNL     1       4.464  -4.927 -14.876  1.00  0.00     0.031 A 
ATOM     31  C   UNL     1       5.502  -6.011 -14.915  1.00  0.00     0.074 A 
ATOM     32  C   UNL     1       3.377  -4.992 -15.666  1.00  0.00     0.049 A 
ATOM     33  N   UNL     1       5.616  -7.020 -15.737  1.00  0.00    -0.248 NA
ATOM     34  C   UNL     1       6.554  -5.941 -13.891  1.00  0.00     0.031 C 
ATOM     35  C   UNL     1       2.274  -4.030 -15.663  1.00  0.00     0.029 A 
ATOM     36  N   UNL     1       3.025  -5.902 -16.630  1.00  0.00    -0.354 N 
ATOM     37  C   UNL     1       6.765  -7.699 -15.346  1.00  0.00     0.074 A 
ATOM     38  C   UNL     1       7.322  -6.968 -14.226  1.00  0.00     0.031 C 
ATOM     39  C   UNL     1       1.370  -4.399 -16.585  1.00  0.00     0.029 A 
ATOM     40  C   UNL     1       1.858  -5.585 -17.284  1.00  0.00     0.049 A 
ATOM     41  H   UNL     1       3.557  -6.705 -16.833  1.00  0.00     0.167 HD
ATOM     42  C   UNL     1       7.302  -8.826 -15.876  1.00  0.00     0.034 A 
ATOM     43  C   UNL     1       1.273  -6.160 -18.352  1.00  0.00     0.034 A 
ATOM     44  C   UNL     1       6.729  -9.534 -16.996  1.00  0.00     0.049 A 
ATOM     45  C   UNL     1       1.933  -7.361 -18.980  1.00  0.00     0.074 A 
ATOM     46  C   UNL     1       7.189 -10.680 -17.623  1.00  0.00     0.029 A 
ATOM     47  N   UNL     1       5.567  -9.160 -17.662  1.00  0.00    -0.354 N 
ATOM     48  N   UNL     1       3.043  -7.970 -18.632  1.00  0.00    -0.248 NA
ATOM     49  C   UNL     1       1.263  -7.948 -20.147  1.00  0.00     0.031 C 
ATOM     50  C   UNL     1       6.341 -10.962 -18.701  1.00  0.00     0.029 A 
ATOM     51  C   UNL     1       5.311 -10.035 -18.707  1.00  0.00     0.049 A 
ATOM     52  H   UNL     1       5.007  -8.385 -17.426  1.00  0.00     0.167 HD
ATOM     53  C   UNL     1       3.190  -9.029 -19.523  1.00  0.00     0.074 A 
ATOM     54  C   UNL     1       2.050  -8.980 -20.416  1.00  0.00     0.031 C 
ATOM     55  C   UNL     1       4.174  -9.961 -19.595  1.00  0.00     0.034 A 
BRANCH  42  56
ATOM     56  C   UNL     1       8.604  -9.312 -15.287  1.00  0.00     0.023 A 
ATOM     57  C   UNL     1       8.696  -9.765 -13.959  1.00  0.00     0.031 A 
ATOM     58  C   UNL     1       9.782  -9.278 -16.054  1.00  0.00     0.131 A 
ATOM     59  C   UNL     1       9.949 -10.093 -13.417  1.00  0.00     0.055 A 
ATOM     60  C   UNL     1      11.013  -9.681 -15.533  1.00  0.00     0.041 A 
ATOM     61  F   UNL     1       9.761  -8.834 -17.321  1.00  0.00    -0.206 F 
ATOM     62  C   UNL     1      11.105 -10.076 -14.202  1.00  0.00     0.022 A 
BRANCH  59  63
ATOM     63  S   UNL     1      10.069 -10.401 -11.633  1.00  0.00     0.124 S 
ATOM     64  O   UNL     1       9.560  -9.147 -11.082  1.00  0.00    -0.237 OA
ATOM     65  O   UNL     1       9.217 -11.570 -11.457  1.00  0.00    -0.237 OA
ATOM     66  O   UNL     1      11.497 -10.631 -11.421  1.00  0.00    -0.744 OA
ENDBRANCH  59  63
ENDBRANCH  42  56
BRANCH  43  67
ATOM     67  C   UNL     1       0.031  -5.579 -18.933  1.00  0.00     0.023 A 
ATOM     68  C   UNL     1      -1.178  -6.291 -18.924  1.00  0.00     0.031 A 
ATOM     69  C   UNL     1       0.045  -4.309 -19.540  1.00  0.00     0.131 A 
ATOM     70  C   UNL     1      -2.314  -5.746 -19.542  1.00  0.00     0.055 A 
ATOM     71  C   UNL     1      -1.099  -3.750 -20.109  1.00  0.00     0.041 A 
ATOM     72  F   UNL     1       1.176  -3.586 -19.575  1.00  0.00    -0.206 F 
ATOM     73  C   UNL     1      -2.287  -4.475 -20.122  1.00  0.00     0.022 A 
BRANCH  70  74
ATOM     74  S   UNL     1      -3.818  -6.755 -19.640  1.00  0.00     0.124 S 
ATOM     75  O   UNL     1      -3.345  -7.924 -20.372  1.00  0.00    -0.237 OA
ATOM     76  O   UNL     1      -4.136  -6.963 -18.232  1.00  0.00    -0.237 OA
ATOM     77  O   UNL     1      -4.754  -5.900 -20.368  1.00  0.00    -0.744 OA
ENDBRANCH  70  74
ENDBRANCH  43  67
BRANCH  55  78
ATOM     78  C   UNL     1       4.023 -11.028 -20.649  1.00  0.00     0.023 A 
ATOM     79  C   UNL     1       4.141 -10.738 -22.019  1.00  0.00     0.031 A 
ATOM     80  C   UNL     1       3.739 -12.353 -20.273  1.00  0.00     0.131 A 
ATOM     81  C   UNL     1       3.924 -11.749 -22.968  1.00  0.00     0.055 A 
ATOM     82  C   UNL     1       3.577 -13.366 -21.219  1.00  0.00     0.041 A 
ATOM     83  F   UNL     1       3.614 -12.684 -18.978  1.00  0.00    -0.206 F 
ATOM     84  C   UNL     1       3.657 -13.064 -22.576  1.00  0.00     0.022 A 
BRANCH  81  85
ATOM     85  S   UNL     1       3.914 -11.307 -24.727  1.00  0.00     0.124 S 
ATOM     86  O   UNL     1       2.838 -10.323 -24.787  1.00  0.00    -0.237 OA
ATOM     87  O   UNL     1       5.263 -10.789 -24.927  1.00  0.00    -0.237 OA
ATOM     88  O   UNL     1       3.632 -12.575 -25.398  1.00  0.00    -0.744 OA
ENDBRANCH  81  85
ENDBRANCH  55  78
ENDBRANCH  29  30
ENDBRANCH  22  24
ENDBRANCH  21  22
ENDBRANCH  20  21
ENDBRANCH   1  20
TORSDOF 17
