REMARK SMILES COc1ccc(N2C(=O)/C(=C\c3ccc(-c4ccc(Cl)c(C(=O)OCCOC(=O)c5ccc(-c6c7nc(c(-c8cc(S(=O)(=O)[O-])ccc8F)c8ccc([nH]8)c(-c8cc(S(=O)(=O)[O-])ccc8F)c8nc(c(-c9cc(S(=O)(=O)[O-])ccc9F)c9ccc6[nH]9)C=C8)C=C7)cc5)c4)o3)SC2=S)cc1
REMARK SMILES IDX 25 1 24 2 22 3 23 4 21 5 16 6 17 7 93 8 18 9 19 10 20 11
REMARK SMILES IDX 15 12 12 13 13 14 94 15 14 16 11 17 7 18 8 19 96 20 9 21
REMARK SMILES IDX 10 22 95 23 97 24 6 25 3 26 4 27 99 28 5 29 98 30 2 31 1 32
REMARK SMILES IDX 26 33 27 34 28 35 29 36 30 37 31 38 92 39 32 40 91 41 33 42
REMARK SMILES IDX 34 43 35 44 85 45 36 46 90 47 84 48 86 49 37 50 89 51 83 52
REMARK SMILES IDX 82 53 38 55 70 56 50 57 69 58 51 59 54 60 68 61 87 62 52 63
REMARK SMILES IDX 53 64 67 66 88 67 55 68 39 69 40 70 48 71 41 72 47 73 49 74
REMARK SMILES IDX 46 75 42 76 43 77 44 78 45 79 71 80 72 81 80 82 73 83 79 84
REMARK SMILES IDX 81 85 78 86 74 87 75 88 76 89 77 90 56 91 57 92 65 93 58 94
REMARK SMILES IDX 64 95 66 96 63 97 59 98 60 99 61 100 62 101
REMARK H PARENT 86 54 54 65
REMARK Flexibility Score: inf
ROOT
ATOM      1  C   UNL     1      -4.149  11.997   7.503  1.00  0.00     0.275 C 
ENDROOT
BRANCH   1   2
ATOM      2  O   UNL     1      -3.936  11.355   6.231  1.00  0.00    -0.458 OA
BRANCH   2   3
ATOM      3  C   UNL     1      -4.859  10.442   5.824  1.00  0.00     0.339 C 
ATOM      4  O   UNL     1      -5.818  10.072   6.476  1.00  0.00    -0.246 OA
BRANCH   3   5
ATOM      5  C   UNL     1      -4.525  10.003   4.438  1.00  0.00     0.079 A 
ATOM      6  C   UNL     1      -2.803   9.674   2.731  1.00  0.00     0.018 A 
ATOM      7  C   UNL     1      -3.791   9.399   1.786  1.00  0.00     0.013 A 
ATOM      8  C   UNL     1      -3.182  10.031   4.032  1.00  0.00     0.029 A 
ATOM      9  C   UNL     1      -5.129   9.330   2.185  1.00  0.00     0.022 A 
ATOM     10  C   UNL     1      -5.490   9.563   3.521  1.00  0.00     0.055 A 
ATOM     11  Cl  UNL     1      -7.142   9.270   3.933  1.00  0.00    -0.083 Cl
BRANCH   6  12
ATOM     12  C   UNL     1      -1.403   9.406   2.465  1.00  0.00     0.134 A 
ATOM     13  C   UNL     1       0.421   9.335   1.220  1.00  0.00     0.128 A 
ATOM     14  C   UNL     1       0.696   8.679   2.415  1.00  0.00     0.051 A 
ATOM     15  O   UNL     1      -0.872   9.809   1.278  1.00  0.00    -0.457 OA
ATOM     16  C   UNL     1      -0.468   8.715   3.200  1.00  0.00     0.051 A 
BRANCH  13  17
ATOM     17  C   UNL     1       1.282   9.492   0.104  1.00  0.00     0.068 C 
ATOM     18  N   UNL     1       1.954   6.192  -1.324  1.00  0.00    -0.261 N 
ATOM     19  C   UNL     1       1.176   7.039  -0.539  1.00  0.00     0.270 C 
ATOM     20  C   UNL     1       2.964   6.788  -2.062  1.00  0.00     0.152 C 
ATOM     21  O   UNL     1       0.236   6.702   0.169  1.00  0.00    -0.268 OA
ATOM     22  C   UNL     1       1.675   8.443  -0.635  1.00  0.00     0.084 C 
ATOM     23  S   UNL     1       2.932   8.537  -1.806  1.00  0.00    -0.054 SA
ATOM     24  S   UNL     1       4.054   6.112  -3.136  1.00  0.00    -0.051 S 
BRANCH  18  25
ATOM     25  C   UNL     1       1.655   4.796  -1.318  1.00  0.00     0.051 A 
ATOM     26  C   UNL     1       0.986   2.067  -1.167  1.00  0.00     0.119 A 
ATOM     27  C   UNL     1       0.005   3.012  -1.452  1.00  0.00     0.048 A 
ATOM     28  C   UNL     1       2.306   2.477  -0.981  1.00  0.00     0.048 A 
ATOM     29  C   UNL     1       0.332   4.367  -1.506  1.00  0.00     0.030 A 
ATOM     30  C   UNL     1       2.640   3.835  -1.059  1.00  0.00     0.030 A 
BRANCH  26  31
ATOM     31  O   UNL     1       0.577   0.763  -1.147  1.00  0.00    -0.497 OA
ATOM     32  C   UNL     1       1.110   0.003  -0.067  1.00  0.00     0.278 C 
ENDBRANCH  26  31
ENDBRANCH  18  25
ENDBRANCH  13  17
ENDBRANCH   6  12
ENDBRANCH   3   5
ENDBRANCH   2   3
ENDBRANCH   1   2
BRANCH   1  33
ATOM     33  C   UNL     1      -4.346  13.504   7.314  1.00  0.00     0.275 C 
BRANCH  33  34
ATOM     34  O   UNL     1      -5.581  13.782   6.627  1.00  0.00    -0.458 OA
BRANCH  34  35
ATOM     35  C   UNL     1      -5.460  13.955   5.288  1.00  0.00     0.338 C 
ATOM     36  O   UNL     1      -4.425  13.979   4.642  1.00  0.00    -0.246 OA
BRANCH  35  37
ATOM     37  C   UNL     1      -6.793  13.909   4.667  1.00  0.00     0.060 A 
ATOM     38  C   UNL     1      -7.056  12.817   3.842  1.00  0.00     0.016 A 
ATOM     39  C   UNL     1      -7.742  14.918   4.816  1.00  0.00     0.016 A 
ATOM     40  C   UNL     1      -8.271  12.701   3.179  1.00  0.00     0.010 A 
ATOM     41  C   UNL     1      -8.966  14.810   4.137  1.00  0.00     0.010 A 
ATOM     42  C   UNL     1      -9.238  13.700   3.313  1.00  0.00    -0.014 A 
BRANCH  42  43
ATOM     43  C   UNL     1     -10.483  13.607   2.506  1.00  0.00     0.031 A 
ATOM     44  C   UNL     1     -10.673  14.524   1.332  1.00  0.00     0.074 A 
ATOM     45  C   UNL     1     -11.407  12.667   2.780  1.00  0.00     0.049 A 
ATOM     46  N   UNL     1     -11.710  14.667   0.546  1.00  0.00    -0.248 NA
ATOM     47  C   UNL     1      -9.540  15.398   1.004  1.00  0.00     0.031 C 
ATOM     48  C   UNL     1     -11.299  11.665   3.841  1.00  0.00     0.029 A 
ATOM     49  N   UNL     1     -12.618  12.400   2.190  1.00  0.00    -0.354 N 
ATOM     50  C   UNL     1     -11.367  15.671  -0.353  1.00  0.00     0.074 A 
ATOM     51  C   UNL     1     -10.034  16.114   0.006  1.00  0.00     0.031 C 
ATOM     52  C   UNL     1     -12.400  10.897   3.830  1.00  0.00     0.029 A 
ATOM     53  C   UNL     1     -13.319  11.391   2.807  1.00  0.00     0.049 A 
ATOM     54  H   UNL     1     -12.952  12.885   1.401  1.00  0.00     0.167 HD
ATOM     55  C   UNL     1     -12.099  16.175  -1.379  1.00  0.00     0.034 A 
ATOM     56  C   UNL     1     -14.576  10.944   2.605  1.00  0.00     0.034 A 
ATOM     57  C   UNL     1     -13.425  15.713  -1.719  1.00  0.00     0.049 A 
ATOM     58  C   UNL     1     -15.410  11.578   1.521  1.00  0.00     0.074 A 
ATOM     59  C   UNL     1     -14.249  16.140  -2.746  1.00  0.00     0.029 A 
ATOM     60  N   UNL     1     -14.131  14.732  -1.031  1.00  0.00    -0.354 N 
ATOM     61  N   UNL     1     -15.091  12.545   0.691  1.00  0.00    -0.248 NA
ATOM     62  C   UNL     1     -16.773  11.061   1.346  1.00  0.00     0.031 C 
ATOM     63  C   UNL     1     -15.479  15.481  -2.626  1.00  0.00     0.029 A 
ATOM     64  C   UNL     1     -15.395  14.573  -1.582  1.00  0.00     0.049 A 
ATOM     65  H   UNL     1     -13.784  14.223  -0.263  1.00  0.00     0.167 HD
ATOM     66  C   UNL     1     -16.209  12.739  -0.117  1.00  0.00     0.074 A 
ATOM     67  C   UNL     1     -17.202  11.777   0.317  1.00  0.00     0.031 C 
ATOM     68  C   UNL     1     -16.392  13.628  -1.128  1.00  0.00     0.034 A 
BRANCH  55  69
ATOM     69  C   UNL     1     -11.505  17.339  -2.140  1.00  0.00     0.023 A 
ATOM     70  C   UNL     1     -10.296  17.233  -2.851  1.00  0.00     0.031 A 
ATOM     71  C   UNL     1     -12.127  18.601  -2.090  1.00  0.00     0.131 A 
ATOM     72  C   UNL     1      -9.698  18.383  -3.390  1.00  0.00     0.055 A 
ATOM     73  C   UNL     1     -11.574  19.722  -2.712  1.00  0.00     0.041 A 
ATOM     74  F   UNL     1     -13.271  18.773  -1.409  1.00  0.00    -0.206 F 
ATOM     75  C   UNL     1     -10.341  19.622  -3.348  1.00  0.00     0.022 A 
BRANCH  72  76
ATOM     76  S   UNL     1      -7.982  18.275  -3.972  1.00  0.00     0.124 S 
ATOM     77  O   UNL     1      -7.302  17.746  -2.792  1.00  0.00    -0.237 OA
ATOM     78  O   UNL     1      -8.091  17.367  -5.108  1.00  0.00    -0.237 OA
ATOM     79  O   UNL     1      -7.645  19.658  -4.307  1.00  0.00    -0.744 OA
ENDBRANCH  72  76
ENDBRANCH  55  69
BRANCH  56  80
ATOM     80  C   UNL     1     -15.145   9.898   3.504  1.00  0.00     0.023 A 
ATOM     81  C   UNL     1     -15.508   8.630   3.025  1.00  0.00     0.031 A 
ATOM     82  C   UNL     1     -15.347  10.171   4.870  1.00  0.00     0.131 A 
ATOM     83  C   UNL     1     -16.073   7.689   3.903  1.00  0.00     0.055 A 
ATOM     84  C   UNL     1     -15.860   9.215   5.748  1.00  0.00     0.041 A 
ATOM     85  F   UNL     1     -15.025  11.371   5.378  1.00  0.00    -0.206 F 
ATOM     86  C   UNL     1     -16.234   7.967   5.263  1.00  0.00     0.022 A 
BRANCH  83  87
ATOM     87  S   UNL     1     -16.653   6.106   3.232  1.00  0.00     0.124 S 
ATOM     88  O   UNL     1     -17.677   6.540   2.288  1.00  0.00    -0.237 OA
ATOM     89  O   UNL     1     -15.434   5.556   2.648  1.00  0.00    -0.237 OA
ATOM     90  O   UNL     1     -17.150   5.398   4.410  1.00  0.00    -0.744 OA
ENDBRANCH  83  87
ENDBRANCH  56  80
BRANCH  68  91
ATOM     91  C   UNL     1     -17.712  13.571  -1.863  1.00  0.00     0.023 A 
ATOM     92  C   UNL     1     -18.928  13.900  -1.238  1.00  0.00     0.031 A 
ATOM     93  C   UNL     1     -17.752  13.174  -3.213  1.00  0.00     0.131 A 
ATOM     94  C   UNL     1     -20.135  13.775  -1.944  1.00  0.00     0.055 A 
ATOM     95  C   UNL     1     -18.948  13.114  -3.929  1.00  0.00     0.041 A 
ATOM     96  F   UNL     1     -16.624  12.842  -3.861  1.00  0.00    -0.206 F 
ATOM     97  C   UNL     1     -20.151  13.403  -3.291  1.00  0.00     0.022 A 
BRANCH  94  98
ATOM     98  S   UNL     1     -21.698  14.009  -1.054  1.00  0.00     0.124 S 
ATOM     99  O   UNL     1     -21.599  13.006   0.002  1.00  0.00    -0.237 OA
ATOM    100  O   UNL     1     -21.608  15.400  -0.622  1.00  0.00    -0.237 OA
ATOM    101  O   UNL     1     -22.716  13.741  -2.069  1.00  0.00    -0.744 OA
ENDBRANCH  94  98
ENDBRANCH  68  91
ENDBRANCH  42  43
ENDBRANCH  35  37
ENDBRANCH  34  35
ENDBRANCH  33  34
ENDBRANCH   1  33
TORSDOF 18
