REMARK SMILES Cc1c(NC(=O)c2cccc(-c3cc4ccccc4oc3=O)c2)cccc1C(=O)OCCOC(=O)c1ccc(-c2c3nc(c(-c4cc(S(=O)(=O)[O-])ccc4F)c4ccc([nH]4)c(-c4cc(S(=O)(=O)[O-])ccc4F)c4nc(c(-c5cc(S(=O)(=O)[O-])ccc5F)c5ccc2[nH]5)C=C4)C=C3)cc1
REMARK SMILES IDX 31 1 30 2 28 3 29 4 27 5 1 6 2 7 3 8 24 9 26 10 25 11 4 12
REMARK SMILES IDX 5 13 6 15 7 16 8 17 23 18 9 19 11 20 10 21 12 22 13 23 21 24
REMARK SMILES IDX 14 25 20 26 22 27 15 28 19 29 16 30 18 31 17 32 32 33 33 34
REMARK SMILES IDX 34 35 35 36 36 37 37 38 98 39 38 40 97 41 39 42 40 43 41 44
REMARK SMILES IDX 91 45 42 46 96 47 90 48 92 49 43 50 95 51 89 52 88 53 44 55
REMARK SMILES IDX 76 56 56 57 75 58 57 59 60 60 74 61 93 62 58 63 59 64 73 66
REMARK SMILES IDX 94 67 61 68 45 69 46 70 54 71 47 72 53 73 55 74 52 75 48 76
REMARK SMILES IDX 49 77 50 78 51 79 77 80 78 81 86 82 79 83 85 84 87 85 84 86
REMARK SMILES IDX 80 87 81 88 82 89 83 90 62 91 63 92 71 93 64 94 70 95 72 96
REMARK SMILES IDX 69 97 65 98 66 99 67 100 68 101
REMARK H PARENT 4 14 92 54 60 65
REMARK Flexibility Score: inf
ROOT
ATOM      1  C   UNL     1       3.704   2.956  -1.259  1.00  0.00     0.275 C 
ENDROOT
BRANCH   1   2
ATOM      2  O   UNL     1       2.981   1.938  -0.498  1.00  0.00    -0.458 OA
BRANCH   2   3
ATOM      3  C   UNL     1       1.946   1.345  -1.090  1.00  0.00     0.338 C 
ATOM      4  O   UNL     1       1.599   1.642  -2.241  1.00  0.00    -0.246 OA
BRANCH   3   5
ATOM      5  C   UNL     1       1.125   0.377  -0.336  1.00  0.00     0.065 A 
ATOM      6  C   UNL     1       3.064  -1.164   0.184  1.00  0.00     0.047 C 
ATOM      7  C   UNL     1       1.597  -0.842   0.179  1.00  0.00    -0.013 A 
ATOM      8  C   UNL     1       0.619  -1.812   0.518  1.00  0.00     0.045 A 
ATOM      9  C   UNL     1      -0.722  -1.451   0.693  1.00  0.00     0.026 A 
ATOM     10  C   UNL     1      -0.263   0.610  -0.391  1.00  0.00     0.016 A 
ATOM     11  C   UNL     1      -1.173  -0.234   0.221  1.00  0.00     0.003 A 
BRANCH   8  12
ATOM     12  N   UNL     1       0.971  -3.172   0.553  1.00  0.00    -0.322 N 
ATOM     13  C   UNL     1       0.257  -4.301   0.189  1.00  0.00     0.255 C 
ATOM     14  H   UNL     1       1.878  -3.352   0.893  1.00  0.00     0.170 HD
ATOM     15  O   UNL     1       0.752  -5.401   0.457  1.00  0.00    -0.269 OA
BRANCH  13  16
ATOM     16  C   UNL     1      -1.016  -4.293  -0.612  1.00  0.00     0.040 A 
ATOM     17  C   UNL     1      -1.846  -5.419  -0.507  1.00  0.00     0.014 A 
ATOM     18  C   UNL     1      -1.343  -3.321  -1.572  1.00  0.00     0.022 A 
ATOM     19  C   UNL     1      -2.994  -5.545  -1.294  1.00  0.00     0.001 A 
ATOM     20  C   UNL     1      -2.504  -3.431  -2.371  1.00  0.00    -0.010 A 
ATOM     21  C   UNL     1      -3.328  -4.550  -2.211  1.00  0.00     0.009 A 
BRANCH  20  22
ATOM     22  C   UNL     1      -2.770  -2.573  -3.570  1.00  0.00     0.068 A 
ATOM     23  C   UNL     1      -2.520  -1.246  -3.557  1.00  0.00     0.028 A 
ATOM     24  C   UNL     1      -2.138  -3.188  -4.788  1.00  0.00     0.344 A 
ATOM     25  C   UNL     1      -1.192  -0.831  -4.044  1.00  0.00     0.018 A 
ATOM     26  O   UNL     1      -0.753  -3.119  -4.752  1.00  0.00    -0.422 OA
ATOM     27  O   UNL     1      -2.779  -3.802  -5.630  1.00  0.00    -0.246 OA
ATOM     28  C   UNL     1      -0.773   0.489  -4.069  1.00  0.00     0.012 A 
ATOM     29  C   UNL     1      -0.291  -1.835  -4.425  1.00  0.00     0.138 A 
ATOM     30  C   UNL     1       0.556   0.760  -4.392  1.00  0.00     0.001 A 
ATOM     31  C   UNL     1       1.067  -1.590  -4.554  1.00  0.00     0.048 A 
ATOM     32  C   UNL     1       1.495  -0.273  -4.516  1.00  0.00     0.004 A 
ENDBRANCH  20  22
ENDBRANCH  13  16
ENDBRANCH   8  12
ENDBRANCH   3   5
ENDBRANCH   2   3
ENDBRANCH   1   2
BRANCH   1  33
ATOM     33  C   UNL     1       3.084   3.773  -2.461  1.00  0.00     0.275 C 
BRANCH  33  34
ATOM     34  O   UNL     1       1.955   4.697  -2.384  1.00  0.00    -0.458 OA
BRANCH  34  35
ATOM     35  C   UNL     1       0.733   4.358  -1.892  1.00  0.00     0.338 C 
ATOM     36  O   UNL     1      -0.229   4.013  -2.568  1.00  0.00    -0.246 OA
BRANCH  35  37
ATOM     37  C   UNL     1       0.760   4.372  -0.420  1.00  0.00     0.060 A 
ATOM     38  C   UNL     1      -0.179   3.649   0.328  1.00  0.00     0.016 A 
ATOM     39  C   UNL     1       1.927   4.844   0.158  1.00  0.00     0.016 A 
ATOM     40  C   UNL     1       0.154   3.219   1.606  1.00  0.00     0.010 A 
ATOM     41  C   UNL     1       2.357   4.240   1.297  1.00  0.00     0.010 A 
ATOM     42  C   UNL     1       1.447   3.486   2.046  1.00  0.00    -0.014 A 
BRANCH  42  43
ATOM     43  C   UNL     1       1.848   3.487   3.433  1.00  0.00     0.031 A 
ATOM     44  C   UNL     1       2.486   2.312   4.026  1.00  0.00     0.074 A 
ATOM     45  C   UNL     1       1.787   4.758   3.893  1.00  0.00     0.049 A 
ATOM     46  N   UNL     1       2.422   1.999   5.268  1.00  0.00    -0.248 NA
ATOM     47  C   UNL     1       3.223   1.322   3.239  1.00  0.00     0.031 C 
ATOM     48  C   UNL     1       2.364   5.442   5.027  1.00  0.00     0.029 A 
ATOM     49  N   UNL     1       0.993   5.748   3.308  1.00  0.00    -0.354 N 
ATOM     50  C   UNL     1       3.441   1.092   5.493  1.00  0.00     0.074 A 
ATOM     51  C   UNL     1       3.739   0.540   4.196  1.00  0.00     0.031 C 
ATOM     52  C   UNL     1       1.660   6.581   5.230  1.00  0.00     0.029 A 
ATOM     53  C   UNL     1       0.544   6.612   4.280  1.00  0.00     0.049 A 
ATOM     54  H   UNL     1       0.787   5.817   2.348  1.00  0.00     0.167 HD
ATOM     55  C   UNL     1       4.089   1.132   6.695  1.00  0.00     0.034 A 
ATOM     56  C   UNL     1      -0.788   6.486   4.565  1.00  0.00     0.034 A 
ATOM     57  C   UNL     1       3.550   2.246   7.486  1.00  0.00     0.049 A 
ATOM     58  C   UNL     1      -0.931   5.753   5.880  1.00  0.00     0.074 A 
ATOM     59  C   UNL     1       4.013   3.537   7.679  1.00  0.00     0.029 A 
ATOM     60  N   UNL     1       2.209   2.249   7.849  1.00  0.00    -0.354 N 
ATOM     61  N   UNL     1      -0.088   4.859   6.330  1.00  0.00    -0.248 NA
ATOM     62  C   UNL     1      -1.969   6.096   6.838  1.00  0.00     0.031 C 
ATOM     63  C   UNL     1       2.899   4.342   8.048  1.00  0.00     0.029 A 
ATOM     64  C   UNL     1       1.768   3.541   8.077  1.00  0.00     0.049 A 
ATOM     65  H   UNL     1       1.649   1.444   7.932  1.00  0.00     0.167 HD
ATOM     66  C   UNL     1      -0.376   4.591   7.640  1.00  0.00     0.074 A 
ATOM     67  C   UNL     1      -1.574   5.381   7.903  1.00  0.00     0.031 C 
ATOM     68  C   UNL     1       0.382   3.781   8.443  1.00  0.00     0.034 A 
BRANCH  55  69
ATOM     69  C   UNL     1       5.405   0.464   7.054  1.00  0.00     0.023 A 
ATOM     70  C   UNL     1       6.121   0.954   8.170  1.00  0.00     0.031 A 
ATOM     71  C   UNL     1       6.011  -0.620   6.389  1.00  0.00     0.131 A 
ATOM     72  C   UNL     1       7.378   0.440   8.539  1.00  0.00     0.055 A 
ATOM     73  C   UNL     1       7.277  -1.121   6.741  1.00  0.00     0.041 A 
ATOM     74  F   UNL     1       5.400  -1.279   5.398  1.00  0.00    -0.206 F 
ATOM     75  C   UNL     1       7.971  -0.588   7.817  1.00  0.00     0.022 A 
BRANCH  72  76
ATOM     76  S   UNL     1       8.220   1.137   9.987  1.00  0.00     0.124 S 
ATOM     77  O   UNL     1       8.437   2.521   9.579  1.00  0.00    -0.237 OA
ATOM     78  O   UNL     1       7.243   0.919  11.048  1.00  0.00    -0.237 OA
ATOM     79  O   UNL     1       9.434   0.328  10.094  1.00  0.00    -0.744 OA
ENDBRANCH  72  76
ENDBRANCH  55  69
BRANCH  56  80
ATOM     80  C   UNL     1      -1.681   6.324   3.347  1.00  0.00     0.023 A 
ATOM     81  C   UNL     1      -1.476   7.204   2.251  1.00  0.00     0.031 A 
ATOM     82  C   UNL     1      -2.529   5.232   3.113  1.00  0.00     0.131 A 
ATOM     83  C   UNL     1      -1.993   6.926   0.972  1.00  0.00     0.055 A 
ATOM     84  C   UNL     1      -3.096   4.987   1.844  1.00  0.00     0.041 A 
ATOM     85  F   UNL     1      -2.770   4.331   4.075  1.00  0.00    -0.206 F 
ATOM     86  C   UNL     1      -2.807   5.818   0.759  1.00  0.00     0.022 A 
BRANCH  83  87
ATOM     87  S   UNL     1      -1.390   7.907  -0.439  1.00  0.00     0.124 S 
ATOM     88  O   UNL     1      -2.182   9.127  -0.323  1.00  0.00    -0.237 OA
ATOM     89  O   UNL     1       0.035   8.038  -0.140  1.00  0.00    -0.237 OA
ATOM     90  O   UNL     1      -1.696   7.068  -1.594  1.00  0.00    -0.744 OA
ENDBRANCH  83  87
ENDBRANCH  56  80
BRANCH  68  91
ATOM     91  C   UNL     1      -0.123   3.197   9.735  1.00  0.00     0.023 A 
ATOM     92  C   UNL     1      -1.487   3.138  10.024  1.00  0.00     0.031 A 
ATOM     93  C   UNL     1       0.737   2.587  10.678  1.00  0.00     0.131 A 
ATOM     94  C   UNL     1      -1.942   2.661  11.254  1.00  0.00     0.055 A 
ATOM     95  C   UNL     1       0.266   1.974  11.839  1.00  0.00     0.041 A 
ATOM     96  F   UNL     1       2.068   2.550  10.511  1.00  0.00    -0.206 F 
ATOM     97  C   UNL     1      -1.082   2.041  12.153  1.00  0.00     0.022 A 
BRANCH  94  98
ATOM     98  S   UNL     1      -3.655   3.032  11.690  1.00  0.00     0.124 S 
ATOM     99  O   UNL     1      -3.657   4.494  11.654  1.00  0.00    -0.237 OA
ATOM    100  O   UNL     1      -4.402   2.375  10.622  1.00  0.00    -0.237 OA
ATOM    101  O   UNL     1      -3.805   2.443  13.017  1.00  0.00    -0.744 OA
ENDBRANCH  94  98
ENDBRANCH  68  91
ENDBRANCH  42  43
ENDBRANCH  35  37
ENDBRANCH  34  35
ENDBRANCH  33  34
ENDBRANCH   1  33
TORSDOF 17
