REMARK SMILES O=C(CC[NH+]1CCC([N@H+]2CCC[C@H](C(=O)NCc3cccnc3)C2)CC1)OCCOC(=O)c1ccc(-c2c3nc(c(-c4cc(S(=O)(=O)[O-])ccc4F)c4ccc([nH]4)c(-c4cc(S(=O)(=O)[O-])ccc4F)c4nc(c(-c5cc(S(=O)(=O)[O-])ccc5F)c5ccc2[nH]5)C=C4)C=C3)cc1
REMARK SMILES IDX 27 1 2 2 1 3 3 4 4 5 5 6 6 7 26 8 7 10 25 11 8 12 9 13 10 14
REMARK SMILES IDX 24 15 11 17 13 18 12 19 14 20 15 21 16 22 17 24 18 25 19 26
REMARK SMILES IDX 23 27 20 28 22 29 21 30 28 31 29 32 30 33 31 34 32 35 33 36
REMARK SMILES IDX 34 37 95 38 35 39 94 40 36 41 37 42 38 43 88 44 39 45 93 46
REMARK SMILES IDX 87 47 89 48 40 49 92 50 86 51 85 52 41 54 73 55 53 56 72 57
REMARK SMILES IDX 54 58 57 59 71 60 90 61 55 62 56 63 70 65 91 66 58 67 42 68
REMARK SMILES IDX 43 69 51 70 44 71 50 72 52 73 49 74 45 75 46 76 47 77 48 78
REMARK SMILES IDX 74 79 75 80 83 81 76 82 82 83 84 84 81 85 77 86 78 87 79 88
REMARK SMILES IDX 80 89 59 90 60 91 68 92 61 93 67 94 69 95 66 96 62 97 63 98
REMARK SMILES IDX 64 99 65 100
REMARK H PARENT 5 9 9 16 16 23 89 53 57 64
REMARK Flexibility Score: inf
ROOT
ATOM      1  O   UNL     1       2.441  -0.679  -0.733  1.00  0.00    -0.462 OA
ENDROOT
BRANCH   1   2
ATOM      2  C   UNL     1       2.237   0.329   0.157  1.00  0.00     0.311 C 
ATOM      3  O   UNL     1       1.228   0.332   0.858  1.00  0.00    -0.252 OA
BRANCH   2   4
ATOM      4  C   UNL     1       3.241   1.458   0.233  1.00  0.00     0.184 C 
BRANCH   4   5
ATOM      5  C   UNL     1       3.921   1.616   1.600  1.00  0.00     0.274 C 
BRANCH   5   6
ATOM      6  N   UNL     1       4.985   0.657   1.958  1.00  0.00    -0.334 N 
ATOM      7  C   UNL     1       4.444  -0.668   2.242  1.00  0.00     0.268 C 
ATOM      8  C   UNL     1       6.160   0.742   1.093  1.00  0.00     0.268 C 
ATOM      9  H   UNL     1       5.387   0.939   2.852  1.00  0.00     0.348 HD
ATOM     10  C   UNL     1       5.487  -1.745   2.473  1.00  0.00     0.126 C 
ATOM     11  C   UNL     1       7.213  -0.336   1.362  1.00  0.00     0.126 C 
ATOM     12  C   UNL     1       6.574  -1.729   1.390  1.00  0.00     0.195 C 
BRANCH  12  13
ATOM     13  N   UNL     1       7.630  -2.758   1.534  1.00  0.00    -0.331 N 
ATOM     14  C   UNL     1       7.832  -3.214   2.912  1.00  0.00     0.262 C 
ATOM     15  C   UNL     1       7.442  -3.868   0.588  1.00  0.00     0.275 C 
ATOM     16  H   UNL     1       8.505  -2.297   1.285  1.00  0.00     0.348 HD
ATOM     17  C   UNL     1       8.978  -4.204   3.046  1.00  0.00     0.062 C 
ATOM     18  C   UNL     1       8.491  -4.977   0.676  1.00  0.00     0.133 C 
ATOM     19  C   UNL     1       8.826  -5.387   2.110  1.00  0.00     0.025 C 
BRANCH  18  20
ATOM     20  C   UNL     1       9.722  -4.891  -0.230  1.00  0.00     0.229 C 
ATOM     21  O   UNL     1      10.028  -5.885  -0.905  1.00  0.00    -0.275 OA
ATOM     22  N   UNL     1      10.580  -3.851  -0.327  1.00  0.00    -0.352 N 
ATOM     23  H   UNL     1      11.388  -4.067  -0.846  1.00  0.00     0.163 HD
BRANCH  22  24
ATOM     24  C   UNL     1      10.571  -2.489   0.165  1.00  0.00     0.153 C 
BRANCH  24  25
ATOM     25  C   UNL     1      11.461  -2.218   1.346  1.00  0.00    -0.010 A 
ATOM     26  C   UNL     1      11.444  -0.951   1.946  1.00  0.00     0.009 A 
ATOM     27  C   UNL     1      12.315  -3.163   1.907  1.00  0.00     0.116 A 
ATOM     28  C   UNL     1      12.234  -0.694   3.063  1.00  0.00     0.020 A 
ATOM     29  N   UNL     1      13.094  -2.943   2.995  1.00  0.00    -0.264 NA
ATOM     30  C   UNL     1      13.029  -1.715   3.550  1.00  0.00     0.111 A 
ENDBRANCH  24  25
ENDBRANCH  22  24
ENDBRANCH  18  20
ENDBRANCH  12  13
ENDBRANCH   5   6
ENDBRANCH   4   5
ENDBRANCH   2   4
ENDBRANCH   1   2
BRANCH   1  31
ATOM     31  C   UNL     1       3.736  -1.103  -1.209  1.00  0.00     0.274 C 
BRANCH  31  32
ATOM     32  C   UNL     1       3.975  -0.819  -2.688  1.00  0.00     0.275 C 
BRANCH  32  33
ATOM     33  O   UNL     1       3.734   0.564  -2.958  1.00  0.00    -0.458 OA
BRANCH  33  34
ATOM     34  C   UNL     1       2.436   0.828  -3.267  1.00  0.00     0.338 C 
ATOM     35  O   UNL     1       1.578   0.017  -3.551  1.00  0.00    -0.246 OA
BRANCH  34  36
ATOM     36  C   UNL     1       2.168   2.247  -2.966  1.00  0.00     0.060 A 
ATOM     37  C   UNL     1       0.959   2.554  -2.330  1.00  0.00     0.016 A 
ATOM     38  C   UNL     1       3.091   3.251  -3.274  1.00  0.00     0.016 A 
ATOM     39  C   UNL     1       0.639   3.880  -2.057  1.00  0.00     0.010 A 
ATOM     40  C   UNL     1       2.766   4.580  -3.007  1.00  0.00     0.010 A 
ATOM     41  C   UNL     1       1.519   4.899  -2.442  1.00  0.00    -0.014 A 
BRANCH  41  42
ATOM     42  C   UNL     1       1.032   6.295  -2.493  1.00  0.00     0.031 A 
ATOM     43  C   UNL     1       0.492   6.793  -3.806  1.00  0.00     0.074 A 
ATOM     44  C   UNL     1       1.056   7.083  -1.405  1.00  0.00     0.049 A 
ATOM     45  N   UNL     1       0.039   7.976  -4.123  1.00  0.00    -0.248 NA
ATOM     46  C   UNL     1       0.471   5.822  -4.913  1.00  0.00     0.031 C 
ATOM     47  C   UNL     1       1.524   6.682  -0.079  1.00  0.00     0.029 A 
ATOM     48  N   UNL     1       0.682   8.393  -1.249  1.00  0.00    -0.354 N 
ATOM     49  C   UNL     1      -0.326   7.890  -5.463  1.00  0.00     0.074 A 
ATOM     50  C   UNL     1       0.004   6.555  -5.910  1.00  0.00     0.031 C 
ATOM     51  C   UNL     1       1.421   7.733   0.754  1.00  0.00     0.029 A 
ATOM     52  C   UNL     1       0.909   8.885   0.014  1.00  0.00     0.049 A 
ATOM     53  H   UNL     1       0.287   8.930  -1.974  1.00  0.00     0.167 HD
ATOM     54  C   UNL     1      -0.895   8.838  -6.244  1.00  0.00     0.034 A 
ATOM     55  C   UNL     1       0.739  10.132   0.501  1.00  0.00     0.034 A 
ATOM     56  C   UNL     1      -1.197  10.168  -5.783  1.00  0.00     0.049 A 
ATOM     57  C   UNL     1       0.181  11.197  -0.416  1.00  0.00     0.074 A 
ATOM     58  C   UNL     1      -1.781  11.210  -6.478  1.00  0.00     0.029 A 
ATOM     59  N   UNL     1      -0.922  10.644  -4.506  1.00  0.00    -0.354 N 
ATOM     60  N   UNL     1      -0.185  11.099  -1.675  1.00  0.00    -0.248 NA
ATOM     61  C   UNL     1       0.003  12.538   0.157  1.00  0.00     0.031 C 
ATOM     62  C   UNL     1      -1.791  12.336  -5.649  1.00  0.00     0.029 A 
ATOM     63  C   UNL     1      -1.292  11.975  -4.407  1.00  0.00     0.049 A 
ATOM     64  H   UNL     1      -0.523  10.113  -3.780  1.00  0.00     0.167 HD
ATOM     65  C   UNL     1      -0.673  12.355  -2.029  1.00  0.00     0.074 A 
ATOM     66  C   UNL     1      -0.565  13.187  -0.849  1.00  0.00     0.031 C 
ATOM     67  C   UNL     1      -1.170  12.785  -3.217  1.00  0.00     0.034 A 
BRANCH  54  68
ATOM     68  C   UNL     1      -1.174   8.476  -7.682  1.00  0.00     0.023 A 
ATOM     69  C   UNL     1      -2.099   7.476  -8.029  1.00  0.00     0.031 A 
ATOM     70  C   UNL     1      -0.480   9.121  -8.720  1.00  0.00     0.131 A 
ATOM     71  C   UNL     1      -2.260   7.107  -9.373  1.00  0.00     0.055 A 
ATOM     72  C   UNL     1      -0.701   8.804 -10.061  1.00  0.00     0.041 A 
ATOM     73  F   UNL     1       0.437  10.063  -8.448  1.00  0.00    -0.206 F 
ATOM     74  C   UNL     1      -1.586   7.783 -10.394  1.00  0.00     0.022 A 
BRANCH  71  75
ATOM     75  S   UNL     1      -3.262   5.646  -9.761  1.00  0.00     0.124 S 
ATOM     76  O   UNL     1      -2.545   4.598  -9.039  1.00  0.00    -0.237 OA
ATOM     77  O   UNL     1      -4.569   6.009  -9.227  1.00  0.00    -0.237 OA
ATOM     78  O   UNL     1      -3.185   5.554 -11.217  1.00  0.00    -0.744 OA
ENDBRANCH  71  75
ENDBRANCH  54  68
BRANCH  55  79
ATOM     79  C   UNL     1       1.128  10.463   1.903  1.00  0.00     0.023 A 
ATOM     80  C   UNL     1       0.179  10.918   2.833  1.00  0.00     0.031 A 
ATOM     81  C   UNL     1       2.472  10.402   2.313  1.00  0.00     0.131 A 
ATOM     82  C   UNL     1       0.594  11.351   4.103  1.00  0.00     0.055 A 
ATOM     83  C   UNL     1       2.871  10.777   3.598  1.00  0.00     0.041 A 
ATOM     84  F   UNL     1       3.423   9.976   1.466  1.00  0.00    -0.206 F 
ATOM     85  C   UNL     1       1.931  11.271   4.496  1.00  0.00     0.022 A 
BRANCH  82  86
ATOM     86  S   UNL     1      -0.628  12.126   5.198  1.00  0.00     0.124 S 
ATOM     87  O   UNL     1      -1.119  13.219   4.367  1.00  0.00    -0.237 OA
ATOM     88  O   UNL     1      -1.560  11.029   5.434  1.00  0.00    -0.237 OA
ATOM     89  O   UNL     1       0.164  12.530   6.358  1.00  0.00    -0.744 OA
ENDBRANCH  82  86
ENDBRANCH  55  79
BRANCH  67  90
ATOM     90  C   UNL     1      -1.681  14.204  -3.277  1.00  0.00     0.023 A 
ATOM     91  C   UNL     1      -0.821  15.308  -3.150  1.00  0.00     0.031 A 
ATOM     92  C   UNL     1      -3.053  14.452  -3.465  1.00  0.00     0.131 A 
ATOM     93  C   UNL     1      -1.348  16.608  -3.156  1.00  0.00     0.055 A 
ATOM     94  C   UNL     1      -3.563  15.748  -3.535  1.00  0.00     0.041 A 
ATOM     95  F   UNL     1      -3.920  13.435  -3.593  1.00  0.00    -0.206 F 
ATOM     96  C   UNL     1      -2.711  16.836  -3.366  1.00  0.00     0.022 A 
BRANCH  93  97
ATOM     97  S   UNL     1      -0.241  17.998  -2.792  1.00  0.00     0.124 S 
ATOM     98  O   UNL     1       0.265  17.644  -1.470  1.00  0.00    -0.237 OA
ATOM     99  O   UNL     1       0.724  17.923  -3.885  1.00  0.00    -0.237 OA
ATOM    100  O   UNL     1      -1.127  19.160  -2.827  1.00  0.00    -0.744 OA
ENDBRANCH  93  97
ENDBRANCH  67  90
ENDBRANCH  41  42
ENDBRANCH  34  36
ENDBRANCH  33  34
ENDBRANCH  32  33
ENDBRANCH  31  32
ENDBRANCH   1  31
TORSDOF 20
