REMARK SMILES C[C@@H]1CCC[C@H](C)[N@H+]1Cc1cc2c(cc1Cl)C=C(C(=O)OCCOC(=O)c1ccc(-c3c4nc(c(-c5cc(S(=O)(=O)[O-])ccc5F)c5ccc([nH]5)c(-c5cc(S(=O)(=O)[O-])ccc5F)c5nc(c(-c6cc(S(=O)(=O)[O-])ccc6F)c6ccc3[nH]6)C=C5)C=C4)cc1)[C@@H](C(F)(F)F)O2
REMARK SMILES IDX 23 1 22 2 21 3 19 4 20 5 18 6 10 7 11 8 15 9 12 10 14 11
REMARK SMILES IDX 16 12 13 13 95 14 17 15 90 16 9 17 8 18 7 19 6 20 5 21 4 22
REMARK SMILES IDX 2 23 3 25 1 26 91 27 92 28 93 29 94 30 24 31 25 32 26 33
REMARK SMILES IDX 27 34 28 35 89 36 29 37 88 38 30 39 31 40 32 41 82 42 33 43
REMARK SMILES IDX 87 44 81 45 83 46 34 47 86 48 80 49 79 50 35 52 67 53 47 54
REMARK SMILES IDX 66 55 48 56 51 57 65 58 84 59 49 60 50 61 64 63 85 64 52 65
REMARK SMILES IDX 36 66 37 67 45 68 38 69 44 70 46 71 43 72 39 73 40 74 41 75
REMARK SMILES IDX 42 76 68 77 69 78 77 79 70 80 76 81 78 82 75 83 71 84 72 85
REMARK SMILES IDX 73 86 74 87 53 88 54 89 62 90 55 91 61 92 63 93 60 94 56 95
REMARK SMILES IDX 57 96 58 97 59 98
REMARK H PARENT 8 24 83 51 51 62
REMARK Flexibility Score: inf
ROOT
ATOM      1  C   UNL     1      -1.316 -11.166  -3.877  1.00  0.00     0.275 C 
ENDROOT
BRANCH   1   2
ATOM      2  C   UNL     1      -2.700 -10.519  -3.799  1.00  0.00     0.275 C 
BRANCH   2   3
ATOM      3  O   UNL     1      -2.641  -9.137  -3.380  1.00  0.00    -0.459 OA
BRANCH   3   4
ATOM      4  C   UNL     1      -2.958  -8.927  -2.077  1.00  0.00     0.338 C 
ATOM      5  O   UNL     1      -3.259  -9.785  -1.270  1.00  0.00    -0.246 OA
BRANCH   4   6
ATOM      6  C   UNL     1      -2.849  -7.497  -1.716  1.00  0.00     0.087 C 
ATOM      7  C   UNL     1      -1.996  -3.183   0.751  1.00  0.00     0.029 A 
ATOM      8  C   UNL     1      -2.336  -3.503  -0.586  1.00  0.00     0.058 A 
ATOM      9  C   UNL     1      -2.012  -4.218   1.700  1.00  0.00     0.050 A 
ATOM     10  C   UNL     1      -2.558  -4.826  -0.977  1.00  0.00     0.128 A 
ATOM     11  C   UNL     1      -2.176  -5.542   1.297  1.00  0.00     0.033 A 
ATOM     12  Cl  UNL     1      -1.852  -3.951   3.398  1.00  0.00    -0.084 Cl
ATOM     13  C   UNL     1      -2.421  -5.845  -0.040  1.00  0.00     0.019 A 
ATOM     14  O   UNL     1      -2.840  -5.068  -2.297  1.00  0.00    -0.475 OA
ATOM     15  C   UNL     1      -2.495  -7.229  -0.455  1.00  0.00     0.027 C 
ATOM     16  C   UNL     1      -3.290  -6.412  -2.658  1.00  0.00     0.316 C 
BRANCH   7  17
ATOM     17  C   UNL     1      -1.580  -1.767   1.104  1.00  0.00     0.301 C 
BRANCH  17  18
ATOM     18  N   UNL     1      -0.150  -1.423   0.947  1.00  0.00    -0.327 N 
ATOM     19  C   UNL     1       1.226  -0.101  -0.618  1.00  0.00     0.075 C 
ATOM     20  C   UNL     1       0.325  -1.332  -0.439  1.00  0.00     0.181 C 
ATOM     21  C   UNL     1       1.020  -2.600  -0.964  1.00  0.00     0.065 C 
ATOM     22  C   UNL     1       2.038  -3.180   0.009  1.00  0.00     0.012 C 
ATOM     23  C   UNL     1       0.762  -2.064   1.912  1.00  0.00     0.181 C 
ATOM     24  H   UNL     1      -0.112  -0.447   1.244  1.00  0.00     0.348 HD
ATOM     25  C   UNL     1       1.424  -3.350   1.392  1.00  0.00     0.065 C 
ATOM     26  C   UNL     1       1.823  -1.079   2.427  1.00  0.00     0.075 C 
ENDBRANCH  17  18
ENDBRANCH   7  17
BRANCH  16  27
ATOM     27  C   UNL     1      -4.824  -6.443  -2.782  1.00  0.00     0.430 C 
ATOM     28  F   UNL     1      -5.281  -5.473  -3.609  1.00  0.00    -0.167 F 
ATOM     29  F   UNL     1      -5.250  -7.623  -3.298  1.00  0.00    -0.167 F 
ATOM     30  F   UNL     1      -5.443  -6.282  -1.590  1.00  0.00    -0.167 F 
ENDBRANCH  16  27
ENDBRANCH   4   6
ENDBRANCH   3   4
ENDBRANCH   2   3
ENDBRANCH   1   2
BRANCH   1  31
ATOM     31  O   UNL     1      -0.700 -11.237  -2.579  1.00  0.00    -0.458 OA
BRANCH  31  32
ATOM     32  C   UNL     1       0.355 -10.411  -2.390  1.00  0.00     0.338 C 
ATOM     33  O   UNL     1       0.840  -9.636  -3.201  1.00  0.00    -0.246 OA
BRANCH  32  34
ATOM     34  C   UNL     1       0.811 -10.501  -0.996  1.00  0.00     0.060 A 
ATOM     35  C   UNL     1       1.988 -11.155  -0.650  1.00  0.00     0.016 A 
ATOM     36  C   UNL     1       0.105  -9.784  -0.036  1.00  0.00     0.016 A 
ATOM     37  C   UNL     1       2.432 -11.100   0.680  1.00  0.00     0.010 A 
ATOM     38  C   UNL     1       0.600  -9.645   1.258  1.00  0.00     0.010 A 
ATOM     39  C   UNL     1       1.761 -10.321   1.647  1.00  0.00    -0.014 A 
BRANCH  39  40
ATOM     40  C   UNL     1       2.291 -10.180   3.038  1.00  0.00     0.031 A 
ATOM     41  C   UNL     1       1.451 -10.533   4.244  1.00  0.00     0.074 A 
ATOM     42  C   UNL     1       3.530  -9.679   3.226  1.00  0.00     0.049 A 
ATOM     43  N   UNL     1       1.782 -10.516   5.512  1.00  0.00    -0.248 NA
ATOM     44  C   UNL     1       0.048 -10.909   4.008  1.00  0.00     0.031 C 
ATOM     45  C   UNL     1       4.398  -9.174   2.161  1.00  0.00     0.029 A 
ATOM     46  N   UNL     1       4.283  -9.523   4.366  1.00  0.00    -0.354 N 
ATOM     47  C   UNL     1       0.631 -10.860   6.216  1.00  0.00     0.074 A 
ATOM     48  C   UNL     1      -0.427 -10.998   5.242  1.00  0.00     0.031 C 
ATOM     49  C   UNL     1       5.588  -8.842   2.682  1.00  0.00     0.029 A 
ATOM     50  C   UNL     1       5.561  -9.069   4.125  1.00  0.00     0.049 A 
ATOM     51  H   UNL     1       3.942  -9.718   5.268  1.00  0.00     0.167 HD
ATOM     52  C   UNL     1       0.478 -11.088   7.544  1.00  0.00     0.034 A 
ATOM     53  C   UNL     1       6.606  -8.880   4.960  1.00  0.00     0.034 A 
ATOM     54  C   UNL     1       1.556 -11.005   8.496  1.00  0.00     0.049 A 
ATOM     55  C   UNL     1       6.446  -9.228   6.419  1.00  0.00     0.074 A 
ATOM     56  C   UNL     1       1.530 -11.314   9.845  1.00  0.00     0.029 A 
ATOM     57  N   UNL     1       2.850 -10.599   8.204  1.00  0.00    -0.354 N 
ATOM     58  N   UNL     1       5.386  -9.684   7.045  1.00  0.00    -0.248 NA
ATOM     59  C   UNL     1       7.621  -9.056   7.285  1.00  0.00     0.031 C 
ATOM     60  C   UNL     1       2.792 -11.049  10.377  1.00  0.00     0.029 A 
ATOM     61  C   UNL     1       3.627 -10.637   9.350  1.00  0.00     0.049 A 
ATOM     62  H   UNL     1       3.169 -10.325   7.314  1.00  0.00     0.167 HD
ATOM     63  C   UNL     1       5.771  -9.872   8.369  1.00  0.00     0.074 A 
ATOM     64  C   UNL     1       7.170  -9.509   8.449  1.00  0.00     0.031 C 
ATOM     65  C   UNL     1       5.028 -10.296   9.422  1.00  0.00     0.034 A 
BRANCH  52  66
ATOM     66  C   UNL     1      -0.879 -11.516   8.058  1.00  0.00     0.023 A 
ATOM     67  C   UNL     1      -1.549 -10.748   9.030  1.00  0.00     0.031 A 
ATOM     68  C   UNL     1      -1.446 -12.749   7.685  1.00  0.00     0.131 A 
ATOM     69  C   UNL     1      -2.730 -11.233   9.610  1.00  0.00     0.055 A 
ATOM     70  C   UNL     1      -2.647 -13.204   8.228  1.00  0.00     0.041 A 
ATOM     71  F   UNL     1      -0.842 -13.529   6.773  1.00  0.00    -0.206 F 
ATOM     72  C   UNL     1      -3.288 -12.450   9.205  1.00  0.00     0.022 A 
BRANCH  69  73
ATOM     73  S   UNL     1      -3.555 -10.344  10.959  1.00  0.00     0.124 S 
ATOM     74  O   UNL     1      -4.880 -10.101  10.392  1.00  0.00    -0.237 OA
ATOM     75  O   UNL     1      -3.510 -11.323  12.041  1.00  0.00    -0.237 OA
ATOM     76  O   UNL     1      -2.733  -9.154  11.150  1.00  0.00    -0.744 OA
ENDBRANCH  69  73
ENDBRANCH  52  66
BRANCH  53  77
ATOM     77  C   UNL     1       7.918  -8.450   4.391  1.00  0.00     0.023 A 
ATOM     78  C   UNL     1       8.060  -7.209   3.744  1.00  0.00     0.031 A 
ATOM     79  C   UNL     1       9.011  -9.334   4.370  1.00  0.00     0.131 A 
ATOM     80  C   UNL     1       9.240  -6.920   3.042  1.00  0.00     0.055 A 
ATOM     81  C   UNL     1      10.211  -9.011   3.733  1.00  0.00     0.041 A 
ATOM     82  F   UNL     1       8.919 -10.537   4.958  1.00  0.00    -0.206 F 
ATOM     83  C   UNL     1      10.322  -7.806   3.048  1.00  0.00     0.022 A 
BRANCH  80  84
ATOM     84  S   UNL     1       9.354  -5.455   1.977  1.00  0.00     0.124 S 
ATOM     85  O   UNL     1      10.462  -4.724   2.581  1.00  0.00    -0.237 OA
ATOM     86  O   UNL     1       9.630  -6.056   0.673  1.00  0.00    -0.237 OA
ATOM     87  O   UNL     1       8.040  -4.833   2.105  1.00  0.00    -0.744 OA
ENDBRANCH  80  84
ENDBRANCH  53  77
BRANCH  65  88
ATOM     88  C   UNL     1       5.682 -10.408  10.778  1.00  0.00     0.023 A 
ATOM     89  C   UNL     1       5.758 -11.659  11.421  1.00  0.00     0.031 A 
ATOM     90  C   UNL     1       6.063  -9.264  11.500  1.00  0.00     0.131 A 
ATOM     91  C   UNL     1       6.159 -11.730  12.761  1.00  0.00     0.055 A 
ATOM     92  C   UNL     1       6.508  -9.346  12.820  1.00  0.00     0.041 A 
ATOM     93  F   UNL     1       5.995  -8.047  10.936  1.00  0.00    -0.206 F 
ATOM     94  C   UNL     1       6.541 -10.582  13.462  1.00  0.00     0.022 A 
BRANCH  91  95
ATOM     95  S   UNL     1       6.104 -13.298  13.673  1.00  0.00     0.124 S 
ATOM     96  O   UNL     1       7.505 -13.480  14.045  1.00  0.00    -0.237 OA
ATOM     97  O   UNL     1       5.202 -12.980  14.777  1.00  0.00    -0.237 OA
ATOM     98  O   UNL     1       5.591 -14.255  12.699  1.00  0.00    -0.744 OA
ENDBRANCH  91  95
ENDBRANCH  65  88
ENDBRANCH  39  40
ENDBRANCH  32  34
ENDBRANCH  31  32
ENDBRANCH   1  31
TORSDOF 17
