REMARK SMILES Cc1cccc([C@@H](CC(=O)OCCOC(=O)c2ccc(-c3c4nc(c(-c5cc(S(=O)(=O)[O-])ccc5F)c5ccc([nH]5)c(-c5cc(S(=O)(=O)[O-])ccc5F)c5nc(c(-c6cc(S(=O)(=O)[O-])ccc6F)c6ccc3[nH]6)C=C5)C=C4)cc2)NC(=O)OC(C)(C)C)c1
REMARK SMILES IDX 12 1 11 2 9 3 10 4 8 5 7 6 6 7 1 8 2 9 3 10 88 11 4 12 5 13
REMARK SMILES IDX 80 14 81 15 82 17 83 18 84 19 85 20 86 21 87 22 13 23 14 24
REMARK SMILES IDX 15 25 16 26 17 27 18 28 79 29 19 30 78 31 20 32 21 33 22 34
REMARK SMILES IDX 72 35 23 36 77 37 71 38 73 39 24 40 76 41 70 42 69 43 25 45
REMARK SMILES IDX 57 46 37 47 56 48 38 49 41 50 55 51 74 52 39 53 40 54 54 56
REMARK SMILES IDX 75 57 42 58 26 59 27 60 35 61 28 62 34 63 36 64 33 65 29 66
REMARK SMILES IDX 30 67 31 68 32 69 58 70 59 71 67 72 60 73 66 74 68 75 65 76
REMARK SMILES IDX 61 77 62 78 63 79 64 80 43 81 44 82 52 83 45 84 51 85 53 86
REMARK SMILES IDX 50 87 46 88 47 89 48 90 49 91
REMARK H PARENT 80 16 73 44 41 55
REMARK Flexibility Score: inf
ROOT
ATOM      1  C   UNL     1      -4.069  -1.501  -0.067  1.00  0.00     0.274 C 
ENDROOT
BRANCH   1   2
ATOM      2  O   UNL     1      -2.960  -0.751  -0.608  1.00  0.00    -0.462 OA
BRANCH   2   3
ATOM      3  C   UNL     1      -2.458   0.137   0.258  1.00  0.00     0.308 C 
ATOM      4  O   UNL     1      -2.759   0.089   1.444  1.00  0.00    -0.252 OA
BRANCH   3   5
ATOM      5  C   UNL     1      -1.565   1.205  -0.348  1.00  0.00     0.152 C 
BRANCH   5   6
ATOM      6  C   UNL     1      -0.868   1.987   0.806  1.00  0.00     0.127 C 
BRANCH   6   7
ATOM      7  C   UNL     1       0.211   1.010   1.321  1.00  0.00    -0.025 A 
ATOM      8  C   UNL     1       3.336  -0.281  -0.401  1.00  0.00     0.044 C 
ATOM      9  C   UNL     1       2.053  -0.232   0.363  1.00  0.00    -0.051 A 
ATOM     10  C   UNL     1       1.436  -1.423   0.763  1.00  0.00     0.003 A 
ATOM     11  C   UNL     1       1.423   0.989   0.622  1.00  0.00     0.009 A 
ATOM     12  C   UNL     1       0.344  -1.381   1.616  1.00  0.00     0.001 A 
ATOM     13  C   UNL     1      -0.170  -0.151   2.013  1.00  0.00     0.006 A 
ENDBRANCH   6   7
BRANCH   6  14
ATOM     14  N   UNL     1      -1.847   2.395   1.803  1.00  0.00    -0.314 N 
ATOM     15  C   UNL     1      -2.048   3.539   2.472  1.00  0.00     0.408 C 
ATOM     16  H   UNL     1      -2.493   1.687   2.032  1.00  0.00     0.167 HD
ATOM     17  O   UNL     1      -2.903   3.598   3.358  1.00  0.00    -0.225 OA
BRANCH  15  18
ATOM     18  O   UNL     1      -1.200   4.534   2.142  1.00  0.00    -0.444 OA
BRANCH  18  19
ATOM     19  C   UNL     1      -1.167   5.693   3.009  1.00  0.00     0.106 C 
ATOM     20  C   UNL     1      -2.483   6.488   2.994  1.00  0.00     0.056 C 
ATOM     21  C   UNL     1      -0.766   5.274   4.433  1.00  0.00     0.056 C 
ATOM     22  C   UNL     1      -0.060   6.584   2.433  1.00  0.00     0.056 C 
ENDBRANCH  18  19
ENDBRANCH  15  18
ENDBRANCH   6  14
ENDBRANCH   5   6
ENDBRANCH   3   5
ENDBRANCH   2   3
ENDBRANCH   1   2
BRANCH   1  23
ATOM     23  C   UNL     1      -5.116  -0.825   0.918  1.00  0.00     0.275 C 
BRANCH  23  24
ATOM     24  O   UNL     1      -5.175   0.637   1.281  1.00  0.00    -0.458 OA
BRANCH  24  25
ATOM     25  C   UNL     1      -5.208   1.865   0.674  1.00  0.00     0.338 C 
ATOM     26  O   UNL     1      -5.224   2.921   1.296  1.00  0.00    -0.246 OA
BRANCH  25  27
ATOM     27  C   UNL     1      -5.011   1.913  -0.777  1.00  0.00     0.060 A 
ATOM     28  C   UNL     1      -4.390   2.931  -1.530  1.00  0.00     0.016 A 
ATOM     29  C   UNL     1      -5.337   0.756  -1.393  1.00  0.00     0.016 A 
ATOM     30  C   UNL     1      -4.037   2.662  -2.868  1.00  0.00     0.010 A 
ATOM     31  C   UNL     1      -4.504   0.369  -2.380  1.00  0.00     0.010 A 
ATOM     32  C   UNL     1      -4.093   1.331  -3.272  1.00  0.00    -0.014 A 
BRANCH  32  33
ATOM     33  C   UNL     1      -4.077   0.693  -4.586  1.00  0.00     0.031 A 
ATOM     34  C   UNL     1      -2.795   0.491  -5.258  1.00  0.00     0.074 A 
ATOM     35  C   UNL     1      -5.250   0.045  -4.862  1.00  0.00     0.049 A 
ATOM     36  N   UNL     1      -2.494   0.897  -6.441  1.00  0.00    -0.248 NA
ATOM     37  C   UNL     1      -1.680  -0.191  -4.584  1.00  0.00     0.031 C 
ATOM     38  C   UNL     1      -5.696  -0.909  -5.852  1.00  0.00     0.029 A 
ATOM     39  N   UNL     1      -6.431   0.228  -4.111  1.00  0.00    -0.354 N 
ATOM     40  C   UNL     1      -1.436   0.090  -6.817  1.00  0.00     0.074 A 
ATOM     41  C   UNL     1      -0.801  -0.329  -5.587  1.00  0.00     0.031 C 
ATOM     42  C   UNL     1      -7.052  -0.849  -5.912  1.00  0.00     0.029 A 
ATOM     43  C   UNL     1      -7.528   0.137  -4.940  1.00  0.00     0.049 A 
ATOM     44  H   UNL     1      -6.466   0.395  -3.141  1.00  0.00     0.167 HD
ATOM     45  C   UNL     1      -1.486  -0.582  -8.005  1.00  0.00     0.034 A 
ATOM     46  C   UNL     1      -8.162   1.333  -5.107  1.00  0.00     0.034 A 
ATOM     47  C   UNL     1      -2.842  -0.527  -8.559  1.00  0.00     0.049 A 
ATOM     48  C   UNL     1      -7.712   1.902  -6.428  1.00  0.00     0.074 A 
ATOM     49  C   UNL     1      -3.841  -1.478  -8.696  1.00  0.00     0.029 A 
ATOM     50  N   UNL     1      -3.451   0.701  -8.763  1.00  0.00    -0.354 N 
ATOM     51  N   UNL     1      -6.628   1.525  -7.052  1.00  0.00    -0.248 NA
ATOM     52  C   UNL     1      -8.507   2.838  -7.200  1.00  0.00     0.031 C 
ATOM     53  C   UNL     1      -5.064  -0.795  -8.951  1.00  0.00     0.029 A 
ATOM     54  C   UNL     1      -4.811   0.566  -8.941  1.00  0.00     0.049 A 
ATOM     55  H   UNL     1      -2.973   1.561  -8.779  1.00  0.00     0.167 HD
ATOM     56  C   UNL     1      -6.605   2.051  -8.308  1.00  0.00     0.074 A 
ATOM     57  C   UNL     1      -7.809   2.871  -8.348  1.00  0.00     0.031 C 
ATOM     58  C   UNL     1      -5.616   1.748  -9.207  1.00  0.00     0.034 A 
BRANCH  45  59
ATOM     59  C   UNL     1      -0.445  -1.551  -8.517  1.00  0.00     0.023 A 
ATOM     60  C   UNL     1      -0.805  -2.500  -9.496  1.00  0.00     0.031 A 
ATOM     61  C   UNL     1       0.924  -1.508  -8.187  1.00  0.00     0.131 A 
ATOM     62  C   UNL     1       0.135  -3.370 -10.071  1.00  0.00     0.055 A 
ATOM     63  C   UNL     1       1.865  -2.387  -8.750  1.00  0.00     0.041 A 
ATOM     64  F   UNL     1       1.410  -0.585  -7.342  1.00  0.00    -0.206 F 
ATOM     65  C   UNL     1       1.473  -3.325  -9.699  1.00  0.00     0.022 A 
BRANCH  62  66
ATOM     66  S   UNL     1      -0.430  -4.531 -11.347  1.00  0.00     0.124 S 
ATOM     67  O   UNL     1      -1.365  -5.369 -10.602  1.00  0.00    -0.237 OA
ATOM     68  O   UNL     1      -1.015  -3.641 -12.343  1.00  0.00    -0.237 OA
ATOM     69  O   UNL     1       0.801  -5.200 -11.765  1.00  0.00    -0.744 OA
ENDBRANCH  62  66
ENDBRANCH  45  59
BRANCH  46  70
ATOM     70  C   UNL     1      -8.362   2.076  -3.792  1.00  0.00     0.023 A 
ATOM     71  C   UNL     1      -8.950   1.343  -2.725  1.00  0.00     0.031 A 
ATOM     72  C   UNL     1      -7.747   3.288  -3.439  1.00  0.00     0.131 A 
ATOM     73  C   UNL     1      -8.802   1.736  -1.381  1.00  0.00     0.055 A 
ATOM     74  C   UNL     1      -7.677   3.725  -2.096  1.00  0.00     0.041 A 
ATOM     75  F   UNL     1      -7.118   4.030  -4.361  1.00  0.00    -0.206 F 
ATOM     76  C   UNL     1      -8.178   2.936  -1.055  1.00  0.00     0.022 A 
BRANCH  73  77
ATOM     77  S   UNL     1      -9.148   0.494  -0.090  1.00  0.00     0.124 S 
ATOM     78  O   UNL     1     -10.604   0.505  -0.029  1.00  0.00    -0.237 OA
ATOM     79  O   UNL     1      -8.537  -0.710  -0.657  1.00  0.00    -0.237 OA
ATOM     80  O   UNL     1      -8.460   1.012   1.087  1.00  0.00    -0.744 OA
ENDBRANCH  73  77
ENDBRANCH  46  70
BRANCH  58  81
ATOM     81  C   UNL     1      -5.348   2.502 -10.484  1.00  0.00     0.023 A 
ATOM     82  C   UNL     1      -5.986   3.704 -10.775  1.00  0.00     0.031 A 
ATOM     83  C   UNL     1      -4.383   2.078 -11.434  1.00  0.00     0.131 A 
ATOM     84  C   UNL     1      -5.796   4.349 -12.000  1.00  0.00     0.055 A 
ATOM     85  C   UNL     1      -4.092   2.796 -12.593  1.00  0.00     0.041 A 
ATOM     86  F   UNL     1      -3.667   0.954 -11.284  1.00  0.00    -0.206 F 
ATOM     87  C   UNL     1      -4.829   3.925 -12.903  1.00  0.00     0.022 A 
BRANCH  84  88
ATOM     88  S   UNL     1      -6.950   5.675 -12.405  1.00  0.00     0.124 S 
ATOM     89  O   UNL     1      -8.228   4.965 -12.403  1.00  0.00    -0.237 OA
ATOM     90  O   UNL     1      -6.751   6.611 -11.304  1.00  0.00    -0.237 OA
ATOM     91  O   UNL     1      -6.495   6.136 -13.713  1.00  0.00    -0.744 OA
ENDBRANCH  84  88
ENDBRANCH  58  81
ENDBRANCH  32  33
ENDBRANCH  25  27
ENDBRANCH  24  25
ENDBRANCH  23  24
ENDBRANCH   1  23
TORSDOF 19
