REMARK SMILES CC(C)C[C@H](NC(=O)CNC(=O)[C@@H]([NH3+])C(C)C)C(=O)OCCOC(=O)c1ccc(-c2c3nc(c(-c4cc(S(=O)(=O)[O-])ccc4F)c4ccc([nH]4)c(-c4cc(S(=O)(=O)[O-])ccc4F)c4nc(c(-c5cc(S(=O)(=O)[O-])ccc5F)c5ccc2[nH]5)C=C4)C=C3)cc1
REMARK SMILES IDX 21 1 20 2 18 3 19 4 5 5 4 6 2 7 1 8 3 9 6 10 7 11 8 13 9 14
REMARK SMILES IDX 10 15 11 16 12 18 13 19 14 20 15 24 16 25 17 26 22 27 23 28
REMARK SMILES IDX 24 29 25 30 26 31 27 32 88 33 28 34 87 35 29 36 30 37 31 38
REMARK SMILES IDX 81 39 32 40 86 41 80 42 82 43 33 44 85 45 79 46 78 47 34 49
REMARK SMILES IDX 66 50 46 51 65 52 47 53 50 54 64 55 83 56 48 57 49 58 63 60
REMARK SMILES IDX 84 61 51 62 35 63 36 64 44 65 37 66 43 67 45 68 42 69 38 70
REMARK SMILES IDX 39 71 40 72 41 73 67 74 68 75 76 76 69 77 75 78 77 79 74 80
REMARK SMILES IDX 70 81 71 82 72 83 73 84 52 85 53 86 61 87 54 88 60 89 62 90
REMARK SMILES IDX 59 91 55 92 56 93 57 94 58 95
REMARK H PARENT 6 12 10 17 14 21 14 22 14 23 82 48 50 59
REMARK Flexibility Score: inf
ROOT
ATOM      1  C   UNL     1      -5.404   0.038  -2.017  1.00  0.00     0.274 C 
ENDROOT
BRANCH   1   2
ATOM      2  O   UNL     1      -3.977   0.073  -2.218  1.00  0.00    -0.461 OA
BRANCH   2   3
ATOM      3  C   UNL     1      -3.356   1.063  -1.522  1.00  0.00     0.328 C 
ATOM      4  O   UNL     1      -3.937   1.825  -0.753  1.00  0.00    -0.250 OA
BRANCH   3   5
ATOM      5  C   UNL     1      -1.894   1.270  -1.919  1.00  0.00     0.192 C 
BRANCH   5   6
ATOM      6  C   UNL     1      -1.779   2.154  -3.170  1.00  0.00     0.040 C 
BRANCH   6   7
ATOM      7  C   UNL     1      -2.606   3.462  -3.214  1.00  0.00    -0.015 C 
ATOM      8  C   UNL     1      -2.563   4.359  -1.976  1.00  0.00     0.007 C 
ATOM      9  C   UNL     1      -2.137   4.299  -4.409  1.00  0.00     0.007 C 
ENDBRANCH   6   7
ENDBRANCH   5   6
BRANCH   5  10
ATOM     10  N   UNL     1      -1.108   0.047  -2.075  1.00  0.00    -0.341 N 
ATOM     11  C   UNL     1       0.145  -0.217  -1.584  1.00  0.00     0.240 C 
ATOM     12  H   UNL     1      -1.530  -0.674  -2.596  1.00  0.00     0.164 HD
ATOM     13  O   UNL     1       0.612  -1.343  -1.783  1.00  0.00    -0.273 OA
BRANCH  11  14
ATOM     14  C   UNL     1       0.916   0.815  -0.721  1.00  0.00     0.216 C 
BRANCH  14  15
ATOM     15  N   UNL     1       1.062   2.108  -1.371  1.00  0.00    -0.342 N 
ATOM     16  C   UNL     1       0.695   3.366  -1.012  1.00  0.00     0.278 C 
ATOM     17  H   UNL     1       1.515   2.063  -2.244  1.00  0.00     0.164 HD
ATOM     18  O   UNL     1       0.865   4.236  -1.878  1.00  0.00    -0.268 OA
BRANCH  16  19
ATOM     19  C   UNL     1       0.144   3.764   0.389  1.00  0.00     0.273 C 
BRANCH  19  20
ATOM     20  N   UNL     1      -0.853   2.806   0.898  1.00  0.00    -0.347 N 
ATOM     21  H   UNL     1      -0.413   1.895   1.032  1.00  0.00     0.345 HD
ATOM     22  H   UNL     1      -1.616   2.719   0.227  1.00  0.00     0.345 HD
ATOM     23  H   UNL     1      -1.221   3.139   1.789  1.00  0.00     0.345 HD
ENDBRANCH  19  20
BRANCH  19  24
ATOM     24  C   UNL     1       1.293   4.032   1.383  1.00  0.00     0.051 C 
ATOM     25  C   UNL     1       2.100   5.254   0.922  1.00  0.00     0.014 C 
ATOM     26  C   UNL     1       0.782   4.305   2.804  1.00  0.00     0.014 C 
ENDBRANCH  19  24
ENDBRANCH  16  19
ENDBRANCH  14  15
ENDBRANCH  11  14
ENDBRANCH   5  10
ENDBRANCH   3   5
ENDBRANCH   2   3
ENDBRANCH   1   2
BRANCH   1  27
ATOM     27  C   UNL     1      -5.843  -0.882  -0.871  1.00  0.00     0.275 C 
BRANCH  27  28
ATOM     28  O   UNL     1      -5.374  -0.453   0.421  1.00  0.00    -0.458 OA
BRANCH  28  29
ATOM     29  C   UNL     1      -4.147  -0.921   0.761  1.00  0.00     0.338 C 
ATOM     30  O   UNL     1      -3.459  -1.675   0.084  1.00  0.00    -0.246 OA
BRANCH  29  31
ATOM     31  C   UNL     1      -3.650  -0.281   1.999  1.00  0.00     0.060 A 
ATOM     32  C   UNL     1      -2.295   0.063   2.042  1.00  0.00     0.016 A 
ATOM     33  C   UNL     1      -4.458  -0.060   3.118  1.00  0.00     0.016 A 
ATOM     34  C   UNL     1      -1.744   0.628   3.192  1.00  0.00     0.010 A 
ATOM     35  C   UNL     1      -3.900   0.499   4.280  1.00  0.00     0.010 A 
ATOM     36  C   UNL     1      -2.538   0.843   4.324  1.00  0.00    -0.014 A 
BRANCH  36  37
ATOM     37  C   UNL     1      -1.889   1.293   5.583  1.00  0.00     0.031 A 
ATOM     38  C   UNL     1      -1.369   0.256   6.537  1.00  0.00     0.074 A 
ATOM     39  C   UNL     1      -1.704   2.601   5.844  1.00  0.00     0.049 A 
ATOM     40  N   UNL     1      -0.751   0.411   7.680  1.00  0.00    -0.248 NA
ATOM     41  C   UNL     1      -1.575  -1.145   6.143  1.00  0.00     0.031 C 
ATOM     42  C   UNL     1      -2.107   3.699   4.969  1.00  0.00     0.029 A 
ATOM     43  N   UNL     1      -1.115   3.226   6.917  1.00  0.00    -0.354 N 
ATOM     44  C   UNL     1      -0.490  -0.874   8.144  1.00  0.00     0.074 A 
ATOM     45  C   UNL     1      -1.046  -1.791   7.171  1.00  0.00     0.031 C 
ATOM     46  C   UNL     1      -1.737   4.863   5.532  1.00  0.00     0.029 A 
ATOM     47  C   UNL     1      -1.117   4.599   6.831  1.00  0.00     0.049 A 
ATOM     48  H   UNL     1      -0.727   2.736   7.677  1.00  0.00     0.167 HD
ATOM     49  C   UNL     1       0.152  -1.253   9.277  1.00  0.00     0.034 A 
ATOM     50  C   UNL     1      -0.689   5.532   7.708  1.00  0.00     0.034 A 
ATOM     51  C   UNL     1       0.665  -0.329  10.260  1.00  0.00     0.049 A 
ATOM     52  C   UNL     1      -0.088   5.083   9.023  1.00  0.00     0.074 A 
ATOM     53  C   UNL     1       1.316  -0.609  11.450  1.00  0.00     0.029 A 
ATOM     54  N   UNL     1       0.566   1.055  10.183  1.00  0.00    -0.354 N 
ATOM     55  N   UNL     1       0.153   3.865   9.453  1.00  0.00    -0.248 NA
ATOM     56  C   UNL     1       0.298   6.138   9.970  1.00  0.00     0.031 C 
ATOM     57  C   UNL     1       1.528   0.595  12.130  1.00  0.00     0.029 A 
ATOM     58  C   UNL     1       1.104   1.638  11.322  1.00  0.00     0.049 A 
ATOM     59  H   UNL     1       0.172   1.550   9.429  1.00  0.00     0.167 HD
ATOM     60  C   UNL     1       0.754   4.014  10.703  1.00  0.00     0.074 A 
ATOM     61  C   UNL     1       0.851   5.437  10.948  1.00  0.00     0.031 C 
ATOM     62  C   UNL     1       1.192   3.060  11.566  1.00  0.00     0.034 A 
BRANCH  49  63
ATOM     63  C   UNL     1       0.255  -2.736   9.542  1.00  0.00     0.023 A 
ATOM     64  C   UNL     1       0.962  -3.596   8.683  1.00  0.00     0.031 A 
ATOM     65  C   UNL     1      -0.414  -3.308  10.639  1.00  0.00     0.131 A 
ATOM     66  C   UNL     1       0.909  -4.984   8.884  1.00  0.00     0.055 A 
ATOM     67  C   UNL     1      -0.387  -4.681  10.885  1.00  0.00     0.041 A 
ATOM     68  F   UNL     1      -1.129  -2.542  11.479  1.00  0.00    -0.206 F 
ATOM     69  C   UNL     1       0.262  -5.531   9.994  1.00  0.00     0.022 A 
BRANCH  66  70
ATOM     70  S   UNL     1       1.542  -6.072   7.578  1.00  0.00     0.124 S 
ATOM     71  O   UNL     1       0.754  -5.639   6.426  1.00  0.00    -0.237 OA
ATOM     72  O   UNL     1       2.960  -5.734   7.546  1.00  0.00    -0.237 OA
ATOM     73  O   UNL     1       1.230  -7.413   8.068  1.00  0.00    -0.744 OA
ENDBRANCH  66  70
ENDBRANCH  49  63
BRANCH  50  74
ATOM     74  C   UNL     1      -0.848   6.991   7.418  1.00  0.00     0.023 A 
ATOM     75  C   UNL     1       0.265   7.847   7.363  1.00  0.00     0.031 A 
ATOM     76  C   UNL     1      -2.124   7.566   7.283  1.00  0.00     0.131 A 
ATOM     77  C   UNL     1       0.078   9.234   7.233  1.00  0.00     0.055 A 
ATOM     78  C   UNL     1      -2.301   8.938   7.090  1.00  0.00     0.041 A 
ATOM     79  F   UNL     1      -3.225   6.800   7.340  1.00  0.00    -0.206 F 
ATOM     80  C   UNL     1      -1.197   9.783   7.080  1.00  0.00     0.022 A 
BRANCH  77  81
ATOM     81  S   UNL     1       1.521  10.326   7.378  1.00  0.00     0.124 S 
ATOM     82  O   UNL     1       2.008   9.995   8.712  1.00  0.00    -0.237 OA
ATOM     83  O   UNL     1       2.349   9.881   6.262  1.00  0.00    -0.237 OA
ATOM     84  O   UNL     1       0.950  11.663   7.234  1.00  0.00    -0.744 OA
ENDBRANCH  77  81
ENDBRANCH  50  74
BRANCH  62  85
ATOM     85  C   UNL     1       1.874   3.529  12.834  1.00  0.00     0.023 A 
ATOM     86  C   UNL     1       1.196   4.267  13.821  1.00  0.00     0.031 A 
ATOM     87  C   UNL     1       3.235   3.241  13.049  1.00  0.00     0.131 A 
ATOM     88  C   UNL     1       1.894   4.745  14.942  1.00  0.00     0.055 A 
ATOM     89  C   UNL     1       3.905   3.657  14.200  1.00  0.00     0.041 A 
ATOM     90  F   UNL     1       3.938   2.546  12.141  1.00  0.00    -0.206 F 
ATOM     91  C   UNL     1       3.239   4.427  15.148  1.00  0.00     0.022 A 
BRANCH  88  92
ATOM     92  S   UNL     1       1.051   5.886  16.075  1.00  0.00     0.124 S 
ATOM     93  O   UNL     1       0.644   6.960  15.175  1.00  0.00    -0.237 OA
ATOM     94  O   UNL     1      -0.025   5.058  16.608  1.00  0.00    -0.237 OA
ATOM     95  O   UNL     1       2.091   6.244  17.038  1.00  0.00    -0.744 OA
ENDBRANCH  88  92
ENDBRANCH  62  85
ENDBRANCH  36  37
ENDBRANCH  29  31
ENDBRANCH  28  29
ENDBRANCH  27  28
ENDBRANCH   1  27
TORSDOF 22
