REMARK SMILES O=C(OCCOC(=O)c1ccc([C@@H]2CC(O)=Nc3c2ncn3-c2cccc(Cl)c2)cc1)c1ccc(-c2c3nc(c(-c4cc(S(=O)(=O)[O-])ccc4F)c4ccc([nH]4)c(-c4cc(S(=O)(=O)[O-])ccc4F)c4nc(c(-c5cc(S(=O)(=O)[O-])ccc5F)c5ccc2[nH]5)C=C4)C=C3)cc1
REMARK SMILES IDX 4 1 3 2 2 3 1 4 32 5 33 6 94 7 34 8 93 9 35 10 36 11 37 12
REMARK SMILES IDX 87 13 38 14 92 15 86 16 88 17 39 18 91 19 85 20 84 21 40 23
REMARK SMILES IDX 72 24 52 25 71 26 53 27 56 28 70 29 89 30 54 31 55 32 69 34
REMARK SMILES IDX 90 35 57 36 41 37 42 38 50 39 43 40 49 41 51 42 48 43 44 44
REMARK SMILES IDX 45 45 46 46 47 47 73 48 74 49 82 50 75 51 81 52 83 53 80 54
REMARK SMILES IDX 76 55 77 56 78 57 79 58 58 59 59 60 67 61 60 62 66 63 68 64
REMARK SMILES IDX 65 65 61 66 62 67 63 68 64 69 5 70 6 71 7 72 8 73 9 74 10 75
REMARK SMILES IDX 31 76 11 77 30 78 12 79 13 80 14 81 19 82 15 83 18 84 20 85
REMARK SMILES IDX 17 86 22 87 21 88 16 89 23 91 24 92 29 93 25 94 27 95 26 96
REMARK SMILES IDX 28 97
REMARK H PARENT 88 22 56 33 16 90
REMARK Flexibility Score: inf
ROOT
ATOM      1  C   UNL     1       4.579  -0.359   0.869  1.00  0.00     0.275 C 
ENDROOT
BRANCH   1   2
ATOM      2  O   UNL     1       3.342   0.133   1.423  1.00  0.00    -0.458 OA
BRANCH   2   3
ATOM      3  C   UNL     1       2.310   0.436   0.605  1.00  0.00     0.338 C 
ATOM      4  O   UNL     1       1.367  -0.317   0.405  1.00  0.00    -0.246 OA
BRANCH   3   5
ATOM      5  C   UNL     1       2.257   1.872   0.237  1.00  0.00     0.060 A 
ATOM      6  C   UNL     1       3.390   2.636  -0.052  1.00  0.00     0.016 A 
ATOM      7  C   UNL     1       0.986   2.461   0.170  1.00  0.00     0.016 A 
ATOM      8  C   UNL     1       3.257   3.998  -0.307  1.00  0.00     0.010 A 
ATOM      9  C   UNL     1       0.852   3.817  -0.097  1.00  0.00     0.010 A 
ATOM     10  C   UNL     1       1.990   4.598  -0.292  1.00  0.00    -0.014 A 
BRANCH  10  11
ATOM     11  C   UNL     1       1.867   6.011  -0.658  1.00  0.00     0.031 A 
ATOM     12  C   UNL     1       2.340   6.324  -2.039  1.00  0.00     0.074 A 
ATOM     13  C   UNL     1       1.234   6.955   0.073  1.00  0.00     0.049 A 
ATOM     14  N   UNL     1       3.364   7.032  -2.382  1.00  0.00    -0.248 NA
ATOM     15  C   UNL     1       1.670   5.668  -3.170  1.00  0.00     0.031 C 
ATOM     16  C   UNL     1       0.464   6.802   1.308  1.00  0.00     0.029 A 
ATOM     17  N   UNL     1       1.083   8.283  -0.203  1.00  0.00    -0.354 N 
ATOM     18  C   UNL     1       3.361   7.087  -3.776  1.00  0.00     0.074 A 
ATOM     19  C   UNL     1       2.387   6.118  -4.201  1.00  0.00     0.031 C 
ATOM     20  C   UNL     1      -0.254   7.930   1.537  1.00  0.00     0.029 A 
ATOM     21  C   UNL     1       0.113   8.940   0.555  1.00  0.00     0.049 A 
ATOM     22  H   UNL     1       1.619   8.743  -0.888  1.00  0.00     0.167 HD
ATOM     23  C   UNL     1       4.036   8.061  -4.451  1.00  0.00     0.034 A 
ATOM     24  C   UNL     1      -0.364  10.207   0.368  1.00  0.00     0.034 A 
ATOM     25  C   UNL     1       4.981   8.726  -3.583  1.00  0.00     0.049 A 
ATOM     26  C   UNL     1       0.671  10.937  -0.407  1.00  0.00     0.074 A 
ATOM     27  C   UNL     1       6.069   8.311  -2.838  1.00  0.00     0.029 A 
ATOM     28  N   UNL     1       4.628   9.950  -3.056  1.00  0.00    -0.354 N 
ATOM     29  N   UNL     1       1.852  11.212   0.076  1.00  0.00    -0.248 NA
ATOM     30  C   UNL     1       0.589  10.890  -1.861  1.00  0.00     0.031 C 
ATOM     31  C   UNL     1       5.931   8.998  -1.595  1.00  0.00     0.029 A 
ATOM     32  C   UNL     1       4.841   9.864  -1.701  1.00  0.00     0.049 A 
ATOM     33  H   UNL     1       4.289  10.730  -3.552  1.00  0.00     0.167 HD
ATOM     34  C   UNL     1       2.733  10.933  -0.957  1.00  0.00     0.074 A 
ATOM     35  C   UNL     1       1.892  10.809  -2.150  1.00  0.00     0.031 C 
ATOM     36  C   UNL     1       4.019  10.539  -0.717  1.00  0.00     0.034 A 
BRANCH  23  37
ATOM     37  C   UNL     1       3.633   8.665  -5.779  1.00  0.00     0.023 A 
ATOM     38  C   UNL     1       4.448   9.699  -6.286  1.00  0.00     0.031 A 
ATOM     39  C   UNL     1       2.375   8.518  -6.401  1.00  0.00     0.131 A 
ATOM     40  C   UNL     1       3.965  10.599  -7.251  1.00  0.00     0.055 A 
ATOM     41  C   UNL     1       1.927   9.371  -7.416  1.00  0.00     0.041 A 
ATOM     42  F   UNL     1       1.472   7.615  -6.003  1.00  0.00    -0.206 F 
ATOM     43  C   UNL     1       2.707  10.442  -7.821  1.00  0.00     0.022 A 
BRANCH  40  44
ATOM     44  S   UNL     1       4.935  12.092  -7.591  1.00  0.00     0.124 S 
ATOM     45  O   UNL     1       5.064  12.667  -6.257  1.00  0.00    -0.237 OA
ATOM     46  O   UNL     1       6.152  11.534  -8.172  1.00  0.00    -0.237 OA
ATOM     47  O   UNL     1       4.090  12.842  -8.517  1.00  0.00    -0.744 OA
ENDBRANCH  40  44
ENDBRANCH  23  37
BRANCH  24  48
ATOM     48  C   UNL     1      -1.772  10.702   0.508  1.00  0.00     0.023 A 
ATOM     49  C   UNL     1      -2.123  12.072   0.616  1.00  0.00     0.031 A 
ATOM     50  C   UNL     1      -2.835   9.804   0.268  1.00  0.00     0.131 A 
ATOM     51  C   UNL     1      -3.477  12.482   0.486  1.00  0.00     0.055 A 
ATOM     52  C   UNL     1      -4.164  10.214   0.131  1.00  0.00     0.041 A 
ATOM     53  F   UNL     1      -2.605   8.497   0.066  1.00  0.00    -0.206 F 
ATOM     54  C   UNL     1      -4.491  11.556   0.231  1.00  0.00     0.022 A 
BRANCH  51  55
ATOM     55  S   UNL     1      -3.953  14.247   0.570  1.00  0.00     0.124 S 
ATOM     56  O   UNL     1      -3.675  14.580   1.962  1.00  0.00    -0.237 OA
ATOM     57  O   UNL     1      -3.085  14.857  -0.430  1.00  0.00    -0.237 OA
ATOM     58  O   UNL     1      -5.374  14.237   0.217  1.00  0.00    -0.744 OA
ENDBRANCH  51  55
ENDBRANCH  24  48
BRANCH  36  59
ATOM     59  C   UNL     1       4.567  10.624   0.693  1.00  0.00     0.023 A 
ATOM     60  C   UNL     1       3.993  10.012   1.833  1.00  0.00     0.031 A 
ATOM     61  C   UNL     1       5.814  11.255   0.853  1.00  0.00     0.131 A 
ATOM     62  C   UNL     1       4.667  10.060   3.072  1.00  0.00     0.055 A 
ATOM     63  C   UNL     1       6.487  11.277   2.072  1.00  0.00     0.041 A 
ATOM     64  F   UNL     1       6.423  11.835  -0.195  1.00  0.00    -0.206 F 
ATOM     65  C   UNL     1       5.913  10.684   3.188  1.00  0.00     0.022 A 
BRANCH  62  66
ATOM     66  S   UNL     1       3.927   9.334   4.573  1.00  0.00     0.124 S 
ATOM     67  O   UNL     1       2.549   9.810   4.542  1.00  0.00    -0.237 OA
ATOM     68  O   UNL     1       4.114   7.902   4.358  1.00  0.00    -0.237 OA
ATOM     69  O   UNL     1       4.739   9.895   5.656  1.00  0.00    -0.744 OA
ENDBRANCH  62  66
ENDBRANCH  36  59
ENDBRANCH  10  11
ENDBRANCH   3   5
ENDBRANCH   2   3
ENDBRANCH   1   2
BRANCH   1  70
ATOM     70  C   UNL     1       4.471  -1.350  -0.288  1.00  0.00     0.275 C 
BRANCH  70  71
ATOM     71  O   UNL     1       3.948  -0.697  -1.454  1.00  0.00    -0.458 OA
BRANCH  71  72
ATOM     72  C   UNL     1       2.879  -1.288  -2.039  1.00  0.00     0.338 C 
ATOM     73  O   UNL     1       2.350  -2.351  -1.754  1.00  0.00    -0.246 OA
BRANCH  72  74
ATOM     74  C   UNL     1       2.441  -0.416  -3.133  1.00  0.00     0.060 A 
ATOM     75  C   UNL     1       1.302   0.375  -2.985  1.00  0.00     0.016 A 
ATOM     76  C   UNL     1       3.178  -0.397  -4.316  1.00  0.00     0.016 A 
ATOM     77  C   UNL     1       0.923   1.230  -4.021  1.00  0.00     0.005 A 
ATOM     78  C   UNL     1       2.774   0.429  -5.363  1.00  0.00     0.005 A 
ATOM     79  C   UNL     1       1.655   1.272  -5.223  1.00  0.00    -0.038 A 
BRANCH  79  80
ATOM     80  C   UNL     1       1.153   2.166  -6.347  1.00  0.00     0.081 C 
ATOM     81  C   UNL     1       0.377   1.351  -7.400  1.00  0.00     0.111 C 
ATOM     82  C   UNL     1       2.317   2.859  -6.948  1.00  0.00     0.093 A 
ATOM     83  C   UNL     1       1.028   1.277  -8.773  1.00  0.00     0.188 C 
ATOM     84  C   UNL     1       2.620   2.750  -8.287  1.00  0.00     0.164 A 
ATOM     85  N   UNL     1       3.236   3.614  -6.280  1.00  0.00    -0.238 NA
ATOM     86  N   UNL     1       2.034   1.958  -9.220  1.00  0.00    -0.198 NA
ATOM     87  N   UNL     1       3.764   3.510  -8.460  1.00  0.00    -0.283 N 
ATOM     88  C   UNL     1       4.102   3.974  -7.204  1.00  0.00     0.206 A 
BRANCH  83  89
ATOM     89  O   UNL     1       0.425   0.403  -9.607  1.00  0.00    -0.496 OA
ATOM     90  H   UNL     1      -0.305  -0.102  -9.309  1.00  0.00     0.294 HD
ENDBRANCH  83  89
BRANCH  87  91
ATOM     91  C   UNL     1       4.465   3.768  -9.661  1.00  0.00     0.050 A 
ATOM     92  C   UNL     1       5.865   3.831  -9.650  1.00  0.00     0.027 A 
ATOM     93  C   UNL     1       3.755   3.988 -10.847  1.00  0.00     0.047 A 
ATOM     94  C   UNL     1       6.554   4.088 -10.837  1.00  0.00     0.004 A 
ATOM     95  C   UNL     1       4.454   4.294 -12.013  1.00  0.00     0.043 A 
ATOM     96  C   UNL     1       5.849   4.332 -12.016  1.00  0.00     0.020 A 
ATOM     97  Cl  UNL     1       3.592   4.649 -13.461  1.00  0.00    -0.084 Cl
ENDBRANCH  87  91
ENDBRANCH  79  80
ENDBRANCH  72  74
ENDBRANCH  71  72
ENDBRANCH  70  71
ENDBRANCH   1  70
TORSDOF 17
