REMARK SMILES O=C(OCCOC(=O)[C@H]1CCCCN1C(=O)c1cn2ccccc2n1)c1ccc(-c2c3nc(c(-c4cc(S(=O)(=O)[O-])ccc4F)c4ccc([nH]4)c(-c4cc(S(=O)(=O)[O-])ccc4F)c4nc(c(-c5cc(S(=O)(=O)[O-])ccc5F)c5ccc2[nH]5)C=C4)C=C3)cc1
REMARK SMILES IDX 4 1 3 2 2 3 1 4 26 5 27 6 88 7 28 8 87 9 29 10 30 11 31 12
REMARK SMILES IDX 81 13 32 14 86 15 80 16 82 17 33 18 85 19 79 20 78 21 34 23
REMARK SMILES IDX 66 24 46 25 65 26 47 27 50 28 64 29 83 30 48 31 49 32 63 34
REMARK SMILES IDX 84 35 51 36 35 37 36 38 44 39 37 40 43 41 45 42 42 43 38 44
REMARK SMILES IDX 39 45 40 46 41 47 67 48 68 49 76 50 69 51 75 52 77 53 74 54
REMARK SMILES IDX 70 55 71 56 72 57 73 58 52 59 53 60 61 61 54 62 60 63 62 64
REMARK SMILES IDX 59 65 55 66 56 67 57 68 58 69 5 70 6 71 7 72 8 73 9 74 10 75
REMARK SMILES IDX 14 76 11 77 13 78 12 79 15 80 16 81 17 82 18 83 25 84 19 85
REMARK SMILES IDX 24 86 20 87 23 88 21 89 22 90
REMARK H PARENT 82 22 50 33
REMARK Flexibility Score: inf
ROOT
ATOM      1  C   UNL     1      -1.662   2.133   3.315  1.00  0.00     0.275 C 
ENDROOT
BRANCH   1   2
ATOM      2  O   UNL     1      -0.794   3.098   2.693  1.00  0.00    -0.458 OA
BRANCH   2   3
ATOM      3  C   UNL     1       0.048   3.966   3.317  1.00  0.00     0.338 C 
ATOM      4  O   UNL     1       0.169   5.106   2.871  1.00  0.00    -0.246 OA
BRANCH   3   5
ATOM      5  C   UNL     1       1.078   3.473   4.293  1.00  0.00     0.060 A 
ATOM      6  C   UNL     1       0.855   2.572   5.336  1.00  0.00     0.016 A 
ATOM      7  C   UNL     1       2.398   3.937   4.106  1.00  0.00     0.016 A 
ATOM      8  C   UNL     1       1.931   2.057   6.083  1.00  0.00     0.010 A 
ATOM      9  C   UNL     1       3.477   3.428   4.859  1.00  0.00     0.010 A 
ATOM     10  C   UNL     1       3.260   2.445   5.829  1.00  0.00    -0.014 A 
BRANCH  10  11
ATOM     11  C   UNL     1       4.332   1.978   6.762  1.00  0.00     0.031 A 
ATOM     12  C   UNL     1       4.564   2.802   7.983  1.00  0.00     0.074 A 
ATOM     13  C   UNL     1       5.072   0.863   6.589  1.00  0.00     0.049 A 
ATOM     14  N   UNL     1       5.372   2.584   8.982  1.00  0.00    -0.248 NA
ATOM     15  C   UNL     1       3.858   4.089   8.022  1.00  0.00     0.031 C 
ATOM     16  C   UNL     1       5.201   0.129   5.348  1.00  0.00     0.029 A 
ATOM     17  N   UNL     1       5.853   0.131   7.454  1.00  0.00    -0.354 N 
ATOM     18  C   UNL     1       5.302   3.728   9.759  1.00  0.00     0.074 A 
ATOM     19  C   UNL     1       4.404   4.644   9.088  1.00  0.00     0.031 C 
ATOM     20  C   UNL     1       5.822  -1.046   5.555  1.00  0.00     0.029 A 
ATOM     21  C   UNL     1       6.275  -1.083   6.937  1.00  0.00     0.049 A 
ATOM     22  H   UNL     1       6.090   0.442   8.357  1.00  0.00     0.167 HD
ATOM     23  C   UNL     1       5.942   3.997  10.921  1.00  0.00     0.034 A 
ATOM     24  C   UNL     1       6.993  -2.075   7.503  1.00  0.00     0.034 A 
ATOM     25  C   UNL     1       6.905   3.116  11.522  1.00  0.00     0.049 A 
ATOM     26  C   UNL     1       7.626  -1.784   8.842  1.00  0.00     0.074 A 
ATOM     27  C   UNL     1       7.676   3.313  12.652  1.00  0.00     0.029 A 
ATOM     28  N   UNL     1       7.251   1.868  11.015  1.00  0.00    -0.354 N 
ATOM     29  N   UNL     1       7.534  -0.702   9.578  1.00  0.00    -0.248 NA
ATOM     30  C   UNL     1       8.527  -2.811   9.384  1.00  0.00     0.031 C 
ATOM     31  C   UNL     1       8.514   2.202  12.808  1.00  0.00     0.029 A 
ATOM     32  C   UNL     1       8.218   1.282  11.815  1.00  0.00     0.049 A 
ATOM     33  H   UNL     1       6.865   1.461  10.206  1.00  0.00     0.167 HD
ATOM     34  C   UNL     1       8.410  -0.897  10.636  1.00  0.00     0.074 A 
ATOM     35  C   UNL     1       8.961  -2.228  10.489  1.00  0.00     0.031 C 
ATOM     36  C   UNL     1       8.764  -0.038  11.624  1.00  0.00     0.034 A 
BRANCH  23  37
ATOM     37  C   UNL     1       5.637   5.344  11.515  1.00  0.00     0.023 A 
ATOM     38  C   UNL     1       4.322   5.667  11.898  1.00  0.00     0.031 A 
ATOM     39  C   UNL     1       6.595   6.369  11.489  1.00  0.00     0.131 A 
ATOM     40  C   UNL     1       3.967   7.008  12.083  1.00  0.00     0.055 A 
ATOM     41  C   UNL     1       6.256   7.689  11.788  1.00  0.00     0.041 A 
ATOM     42  F   UNL     1       7.855   6.120  11.098  1.00  0.00    -0.206 F 
ATOM     43  C   UNL     1       4.929   8.020  12.057  1.00  0.00     0.022 A 
BRANCH  40  44
ATOM     44  S   UNL     1       2.201   7.426  12.107  1.00  0.00     0.124 S 
ATOM     45  O   UNL     1       1.802   7.081  10.745  1.00  0.00    -0.237 OA
ATOM     46  O   UNL     1       1.681   6.565  13.161  1.00  0.00    -0.237 OA
ATOM     47  O   UNL     1       2.195   8.858  12.409  1.00  0.00    -0.744 OA
ENDBRANCH  40  44
ENDBRANCH  23  37
BRANCH  24  48
ATOM     48  C   UNL     1       7.366  -3.351   6.814  1.00  0.00     0.023 A 
ATOM     49  C   UNL     1       6.973  -4.599   7.341  1.00  0.00     0.031 A 
ATOM     50  C   UNL     1       8.328  -3.340   5.790  1.00  0.00     0.131 A 
ATOM     51  C   UNL     1       7.633  -5.769   6.928  1.00  0.00     0.055 A 
ATOM     52  C   UNL     1       8.948  -4.511   5.352  1.00  0.00     0.041 A 
ATOM     53  F   UNL     1       8.722  -2.181   5.242  1.00  0.00    -0.206 F 
ATOM     54  C   UNL     1       8.629  -5.728   5.948  1.00  0.00     0.022 A 
BRANCH  51  55
ATOM     55  S   UNL     1       7.207  -7.370   7.678  1.00  0.00     0.124 S 
ATOM     56  O   UNL     1       8.033  -7.369   8.878  1.00  0.00    -0.237 OA
ATOM     57  O   UNL     1       5.767  -7.256   7.890  1.00  0.00    -0.237 OA
ATOM     58  O   UNL     1       7.592  -8.330   6.644  1.00  0.00    -0.744 OA
ENDBRANCH  51  55
ENDBRANCH  24  48
BRANCH  36  59
ATOM     59  C   UNL     1       9.767  -0.552  12.619  1.00  0.00     0.023 A 
ATOM     60  C   UNL     1      11.107  -0.789  12.264  1.00  0.00     0.031 A 
ATOM     61  C   UNL     1       9.355  -0.853  13.927  1.00  0.00     0.131 A 
ATOM     62  C   UNL     1      11.977  -1.367  13.197  1.00  0.00     0.055 A 
ATOM     63  C   UNL     1      10.242  -1.371  14.868  1.00  0.00     0.041 A 
ATOM     64  F   UNL     1       8.081  -0.658  14.303  1.00  0.00    -0.206 F 
ATOM     65  C   UNL     1      11.558  -1.642  14.502  1.00  0.00     0.022 A 
BRANCH  62  66
ATOM     66  S   UNL     1      13.641  -1.847  12.659  1.00  0.00     0.124 S 
ATOM     67  O   UNL     1      13.351  -2.832  11.622  1.00  0.00    -0.237 OA
ATOM     68  O   UNL     1      14.200  -0.581  12.197  1.00  0.00    -0.237 OA
ATOM     69  O   UNL     1      14.251  -2.386  13.874  1.00  0.00    -0.744 OA
ENDBRANCH  62  66
ENDBRANCH  36  59
ENDBRANCH  10  11
ENDBRANCH   3   5
ENDBRANCH   2   3
ENDBRANCH   1   2
BRANCH   1  70
ATOM     70  C   UNL     1      -1.556   0.761   2.645  1.00  0.00     0.274 C 
BRANCH  70  71
ATOM     71  O   UNL     1      -0.202   0.378   2.369  1.00  0.00    -0.461 OA
BRANCH  71  72
ATOM     72  C   UNL     1       0.151   0.147   1.070  1.00  0.00     0.328 C 
ATOM     73  O   UNL     1      -0.567   0.413   0.111  1.00  0.00    -0.250 OA
BRANCH  72  74
ATOM     74  C   UNL     1       1.599  -0.403   0.919  1.00  0.00     0.195 C 
ATOM     75  C   UNL     1       2.599   0.712   1.258  1.00  0.00     0.037 C 
ATOM     76  N   UNL     1       1.996  -1.601   1.707  1.00  0.00    -0.323 N 
ATOM     77  C   UNL     1       2.690   0.905   2.765  1.00  0.00     0.005 C 
ATOM     78  C   UNL     1       1.800  -1.464   3.139  1.00  0.00     0.121 C 
ATOM     79  C   UNL     1       2.731  -0.375   3.600  1.00  0.00     0.022 C 
BRANCH  76  80
ATOM     80  C   UNL     1       3.083  -2.352   1.178  1.00  0.00     0.274 C 
ATOM     81  O   UNL     1       3.520  -2.095   0.054  1.00  0.00    -0.267 OA
BRANCH  80  82
ATOM     82  C   UNL     1       3.721  -3.404   1.996  1.00  0.00     0.147 A 
ATOM     83  C   UNL     1       3.132  -4.261   2.906  1.00  0.00     0.127 A 
ATOM     84  N   UNL     1       5.069  -3.732   1.867  1.00  0.00    -0.223 NA
ATOM     85  N   UNL     1       4.127  -5.072   3.381  1.00  0.00    -0.306 N 
ATOM     86  C   UNL     1       5.278  -4.752   2.675  1.00  0.00     0.137 A 
ATOM     87  C   UNL     1       4.050  -6.078   4.335  1.00  0.00     0.093 A 
ATOM     88  C   UNL     1       6.417  -5.576   2.902  1.00  0.00     0.048 A 
ATOM     89  C   UNL     1       5.124  -6.854   4.544  1.00  0.00     0.018 A 
ATOM     90  C   UNL     1       6.328  -6.608   3.765  1.00  0.00     0.005 A 
ENDBRANCH  80  82
ENDBRANCH  76  80
ENDBRANCH  72  74
ENDBRANCH  71  72
ENDBRANCH  70  71
ENDBRANCH   1  70
TORSDOF 16
