REMARK SMILES O=C(OCCOC(=O)c1ccccc1C[NH2+]C1CCCC1)c1ccc(-c2c3nc(c(-c4cc(S(=O)(=O)[O-])ccc4F)c4ccc([nH]4)c(-c4cc(S(=O)(=O)[O-])ccc4F)c4nc(c(-c5cc(S(=O)(=O)[O-])ccc5F)c5ccc2[nH]5)C=C4)C=C3)cc1
REMARK SMILES IDX 4 1 3 2 2 3 1 4 22 5 23 6 84 7 24 8 83 9 25 10 26 11 27 12
REMARK SMILES IDX 77 13 28 14 82 15 76 16 78 17 29 18 81 19 75 20 74 21 30 23
REMARK SMILES IDX 62 24 42 25 61 26 43 27 46 28 60 29 79 30 44 31 45 32 59 34
REMARK SMILES IDX 80 35 47 36 31 37 32 38 40 39 33 40 39 41 41 42 38 43 34 44
REMARK SMILES IDX 35 45 36 46 37 47 63 48 64 49 72 50 65 51 71 52 73 53 70 54
REMARK SMILES IDX 66 55 67 56 68 57 69 58 48 59 49 60 57 61 50 62 56 63 58 64
REMARK SMILES IDX 55 65 51 66 52 67 53 68 54 69 5 70 6 71 7 72 8 73 9 74 10 75
REMARK SMILES IDX 14 76 11 77 13 78 12 79 15 80 16 81 17 84 18 85 21 86 19 87
REMARK SMILES IDX 20 88
REMARK H PARENT 78 22 46 33 16 82 16 83
REMARK Flexibility Score: inf
ROOT
ATOM      1  C   UNL     1       4.160   0.540  -1.444  1.00  0.00     0.275 C 
ENDROOT
BRANCH   1   2
ATOM      2  O   UNL     1       3.094  -0.407  -1.256  1.00  0.00    -0.458 OA
BRANCH   2   3
ATOM      3  C   UNL     1       2.741  -1.151  -0.179  1.00  0.00     0.338 C 
ATOM      4  O   UNL     1       1.702  -1.809  -0.263  1.00  0.00    -0.246 OA
BRANCH   3   5
ATOM      5  C   UNL     1       3.482  -1.196   1.131  1.00  0.00     0.060 A 
ATOM      6  C   UNL     1       4.765  -0.703   1.379  1.00  0.00     0.016 A 
ATOM      7  C   UNL     1       2.799  -1.787   2.216  1.00  0.00     0.016 A 
ATOM      8  C   UNL     1       5.330  -0.754   2.656  1.00  0.00     0.010 A 
ATOM      9  C   UNL     1       3.360  -1.846   3.499  1.00  0.00     0.010 A 
ATOM     10  C   UNL     1       4.639  -1.333   3.721  1.00  0.00    -0.014 A 
BRANCH  10  11
ATOM     11  C   UNL     1       5.355  -1.528   5.004  1.00  0.00     0.031 A 
ATOM     12  C   UNL     1       6.002  -2.850   5.249  1.00  0.00     0.074 A 
ATOM     13  C   UNL     1       5.527  -0.504   5.860  1.00  0.00     0.049 A 
ATOM     14  N   UNL     1       6.750  -3.223   6.249  1.00  0.00    -0.248 NA
ATOM     15  C   UNL     1       5.788  -3.882   4.223  1.00  0.00     0.031 C 
ATOM     16  C   UNL     1       4.973   0.821   5.649  1.00  0.00     0.029 A 
ATOM     17  N   UNL     1       6.211  -0.381   7.040  1.00  0.00    -0.354 N 
ATOM     18  C   UNL     1       7.122  -4.528   5.963  1.00  0.00     0.074 A 
ATOM     19  C   UNL     1       6.468  -4.899   4.727  1.00  0.00     0.031 C 
ATOM     20  C   UNL     1       5.340   1.640   6.644  1.00  0.00     0.029 A 
ATOM     21  C   UNL     1       6.136   0.880   7.596  1.00  0.00     0.049 A 
ATOM     22  H   UNL     1       6.710  -1.123   7.453  1.00  0.00     0.167 HD
ATOM     23  C   UNL     1       7.951  -5.331   6.670  1.00  0.00     0.034 A 
ATOM     24  C   UNL     1       6.643   1.356   8.752  1.00  0.00     0.034 A 
ATOM     25  C   UNL     1       8.532  -4.941   7.929  1.00  0.00     0.049 A 
ATOM     26  C   UNL     1       7.461   0.398   9.581  1.00  0.00     0.074 A 
ATOM     27  C   UNL     1       9.309  -5.689   8.793  1.00  0.00     0.029 A 
ATOM     28  N   UNL     1       8.381  -3.686   8.514  1.00  0.00    -0.354 N 
ATOM     29  N   UNL     1       7.783  -0.849   9.313  1.00  0.00    -0.248 NA
ATOM     30  C   UNL     1       7.986   0.898  10.854  1.00  0.00     0.031 C 
ATOM     31  C   UNL     1       9.575  -4.908   9.924  1.00  0.00     0.029 A 
ATOM     32  C   UNL     1       9.034  -3.645   9.734  1.00  0.00     0.049 A 
ATOM     33  H   UNL     1       7.882  -2.936   8.116  1.00  0.00     0.167 HD
ATOM     34  C   UNL     1       8.567  -1.276  10.377  1.00  0.00     0.074 A 
ATOM     35  C   UNL     1       8.694  -0.141  11.272  1.00  0.00     0.031 C 
ATOM     36  C   UNL     1       9.128  -2.493  10.603  1.00  0.00     0.034 A 
BRANCH  23  37
ATOM     37  C   UNL     1       8.186  -6.707   6.106  1.00  0.00     0.023 A 
ATOM     38  C   UNL     1       8.815  -6.886   4.859  1.00  0.00     0.031 A 
ATOM     39  C   UNL     1       7.672  -7.841   6.755  1.00  0.00     0.131 A 
ATOM     40  C   UNL     1       8.826  -8.153   4.258  1.00  0.00     0.055 A 
ATOM     41  C   UNL     1       7.766  -9.115   6.190  1.00  0.00     0.041 A 
ATOM     42  F   UNL     1       7.030  -7.725   7.928  1.00  0.00    -0.206 F 
ATOM     43  C   UNL     1       8.328  -9.274   4.926  1.00  0.00     0.022 A 
BRANCH  40  44
ATOM     44  S   UNL     1       9.336  -8.282   2.521  1.00  0.00     0.124 S 
ATOM     45  O   UNL     1       8.333  -7.451   1.858  1.00  0.00    -0.237 OA
ATOM     46  O   UNL     1      10.692  -7.745   2.547  1.00  0.00    -0.237 OA
ATOM     47  O   UNL     1       9.236  -9.712   2.240  1.00  0.00    -0.744 OA
ENDBRANCH  40  44
ENDBRANCH  23  37
BRANCH  24  48
ATOM     48  C   UNL     1       6.362   2.752   9.218  1.00  0.00     0.023 A 
ATOM     49  C   UNL     1       7.396   3.660   9.505  1.00  0.00     0.031 A 
ATOM     50  C   UNL     1       5.041   3.178   9.460  1.00  0.00     0.131 A 
ATOM     51  C   UNL     1       7.098   4.915  10.068  1.00  0.00     0.055 A 
ATOM     52  C   UNL     1       4.746   4.450   9.957  1.00  0.00     0.041 A 
ATOM     53  F   UNL     1       4.006   2.357   9.218  1.00  0.00    -0.206 F 
ATOM     54  C   UNL     1       5.780   5.320  10.282  1.00  0.00     0.022 A 
BRANCH  51  55
ATOM     55  S   UNL     1       8.465   5.966  10.637  1.00  0.00     0.124 S 
ATOM     56  O   UNL     1       9.190   5.061  11.521  1.00  0.00    -0.237 OA
ATOM     57  O   UNL     1       9.128   6.305   9.382  1.00  0.00    -0.237 OA
ATOM     58  O   UNL     1       7.787   7.077  11.302  1.00  0.00    -0.744 OA
ENDBRANCH  51  55
ENDBRANCH  24  48
BRANCH  36  59
ATOM     59  C   UNL     1       9.960  -2.621  11.852  1.00  0.00     0.023 A 
ATOM     60  C   UNL     1       9.386  -2.528  13.131  1.00  0.00     0.031 A 
ATOM     61  C   UNL     1      11.349  -2.811  11.756  1.00  0.00     0.131 A 
ATOM     62  C   UNL     1      10.209  -2.555  14.265  1.00  0.00     0.055 A 
ATOM     63  C   UNL     1      12.153  -2.913  12.890  1.00  0.00     0.041 A 
ATOM     64  F   UNL     1      11.945  -2.900  10.557  1.00  0.00    -0.206 F 
ATOM     65  C   UNL     1      11.586  -2.768  14.153  1.00  0.00     0.022 A 
BRANCH  62  66
ATOM     66  S   UNL     1       9.471  -2.192  15.880  1.00  0.00     0.124 S 
ATOM     67  O   UNL     1       8.925  -0.855  15.668  1.00  0.00    -0.237 OA
ATOM     68  O   UNL     1       8.492  -3.264  16.024  1.00  0.00    -0.237 OA
ATOM     69  O   UNL     1      10.606  -2.261  16.798  1.00  0.00    -0.744 OA
ENDBRANCH  62  66
ENDBRANCH  36  59
ENDBRANCH  10  11
ENDBRANCH   3   5
ENDBRANCH   2   3
ENDBRANCH   1   2
BRANCH   1  70
ATOM     70  C   UNL     1       3.907   1.893  -0.783  1.00  0.00     0.275 C 
BRANCH  70  71
ATOM     71  O   UNL     1       3.404   1.747   0.550  1.00  0.00    -0.458 OA
BRANCH  71  72
ATOM     72  C   UNL     1       2.090   2.022   0.740  1.00  0.00     0.338 C 
ATOM     73  O   UNL     1       1.288   2.374  -0.109  1.00  0.00    -0.246 OA
BRANCH  72  74
ATOM     74  C   UNL     1       1.729   1.772   2.155  1.00  0.00     0.068 A 
ATOM     75  C   UNL     1       0.642   0.915   2.380  1.00  0.00     0.016 A 
ATOM     76  C   UNL     1       2.429   2.353   3.235  1.00  0.00     0.021 A 
ATOM     77  C   UNL     1       0.260   0.595   3.682  1.00  0.00     0.001 A 
ATOM     78  C   UNL     1       1.980   2.067   4.537  1.00  0.00     0.010 A 
ATOM     79  C   UNL     1       0.923   1.178   4.758  1.00  0.00     0.001 A 
BRANCH  76  80
ATOM     80  C   UNL     1       3.728   3.092   2.994  1.00  0.00     0.298 C 
BRANCH  80  81
ATOM     81  N   UNL     1       4.001   4.229   3.861  1.00  0.00    -0.340 N 
ATOM     82  H   UNL     1       3.940   3.921   4.832  1.00  0.00     0.346 HD
ATOM     83  H   UNL     1       3.312   4.950   3.650  1.00  0.00     0.346 HD
BRANCH  81  84
ATOM     84  C   UNL     1       5.337   4.810   3.634  1.00  0.00     0.182 C 
ATOM     85  C   UNL     1       6.187   4.316   2.449  1.00  0.00     0.065 C 
ATOM     86  C   UNL     1       5.274   6.316   3.361  1.00  0.00     0.065 C 
ATOM     87  C   UNL     1       7.281   5.362   2.324  1.00  0.00     0.006 C 
ATOM     88  C   UNL     1       6.624   6.677   2.734  1.00  0.00     0.006 C 
ENDBRANCH  81  84
ENDBRANCH  80  81
ENDBRANCH  76  80
ENDBRANCH  72  74
ENDBRANCH  71  72
ENDBRANCH  70  71
ENDBRANCH   1  70
TORSDOF 17
