REMARK SMILES COCC(=O)N[C@H]1CCCCC[C@@H]1C(=O)OCCOC(=O)c1ccc(-c2c3nc(c(-c4cc(S(=O)(=O)[O-])ccc4F)c4ccc([nH]4)c(-c4cc(S(=O)(=O)[O-])ccc4F)c4nc(c(-c5cc(S(=O)(=O)[O-])ccc5F)c5ccc2[nH]5)C=C4)C=C3)cc1
REMARK SMILES IDX 17 1 16 2 14 3 15 4 13 5 7 6 6 7 4 8 5 9 3 11 2 12 1 13 8 14
REMARK SMILES IDX 12 16 11 17 10 18 9 19 18 21 19 22 20 23 21 24 22 25 23 26
REMARK SMILES IDX 84 27 24 28 83 29 25 30 26 31 27 32 77 33 28 34 82 35 76 36
REMARK SMILES IDX 78 37 29 38 81 39 75 40 74 41 30 43 62 44 42 45 61 46 43 47
REMARK SMILES IDX 46 48 60 49 79 50 44 51 45 52 59 54 80 55 47 56 31 57 32 58
REMARK SMILES IDX 40 59 33 60 39 61 41 62 38 63 34 64 35 65 36 66 37 67 63 68
REMARK SMILES IDX 64 69 72 70 65 71 71 72 73 73 70 74 66 75 67 76 68 77 69 78
REMARK SMILES IDX 48 79 49 80 57 81 50 82 56 83 58 84 55 85 51 86 52 87 53 88
REMARK SMILES IDX 54 89
REMARK H PARENT 6 10 78 42 46 53
REMARK Flexibility Score: 100.00
ROOT
ATOM      1  C   UNL     1      -1.211  -6.402   1.635  1.00  0.00     0.274 C 
ENDROOT
BRANCH   1   2
ATOM      2  O   UNL     1      -1.286  -5.076   2.197  1.00  0.00    -0.462 OA
BRANCH   2   3
ATOM      3  C   UNL     1      -0.552  -4.109   1.559  1.00  0.00     0.311 C 
ATOM      4  O   UNL     1       0.296  -4.329   0.704  1.00  0.00    -0.252 OA
BRANCH   3   5
ATOM      5  C   UNL     1      -0.913  -2.732   2.119  1.00  0.00     0.121 C 
BRANCH   5   6
ATOM      6  C   UNL     1      -0.699  -1.584   1.093  1.00  0.00     0.096 C 
BRANCH   6   7
ATOM      7  N   UNL     1      -1.681  -1.368   0.008  1.00  0.00    -0.350 N 
ATOM      8  C   UNL     1      -3.041  -1.418  -0.033  1.00  0.00     0.246 C 
ATOM      9  O   UNL     1      -3.642  -0.609  -0.740  1.00  0.00    -0.272 OA
ATOM     10  H   UNL     1      -1.268  -1.143  -0.858  1.00  0.00     0.163 HD
BRANCH   8  11
ATOM     11  C   UNL     1      -3.767  -2.537   0.671  1.00  0.00     0.259 C 
BRANCH  11  12
ATOM     12  O   UNL     1      -3.137  -3.795   0.454  1.00  0.00    -0.375 OA
ATOM     13  C   UNL     1      -3.047  -4.169  -0.918  1.00  0.00     0.195 C 
ENDBRANCH  11  12
ENDBRANCH   8  11
ENDBRANCH   6   7
BRANCH   6  14
ATOM     14  C   UNL     1      -0.486  -0.197   1.738  1.00  0.00     0.026 CG0
ATOM     15  G   UNL     1      -1.512   0.161   2.812  1.00  0.00     0.000 G0
ENDBRANCH   6  14
ENDBRANCH   5   6
BRANCH   5  16
ATOM     16  C   UNL     1      -0.136  -2.537   3.438  1.00  0.00     0.017 C 
BRANCH  16  17
ATOM     17  C   UNL     1      -0.947  -1.739   4.466  1.00  0.00     0.001 C 
BRANCH  17  18
ATOM     18  C   UNL     1      -1.049  -0.238   4.209  1.00  0.00     0.000 C 
BRANCH  18  19
ATOM     19  C   UNL     1      -1.512   0.161   2.812  1.00  0.00     0.002 CG0
ATOM     20  G   UNL     1      -0.486  -0.197   1.738  1.00  0.00     0.000 G0
ENDBRANCH  18  19
ENDBRANCH  17  18
ENDBRANCH  16  17
ENDBRANCH   5  16
ENDBRANCH   3   5
ENDBRANCH   2   3
ENDBRANCH   1   2
BRANCH   1  21
ATOM     21  C   UNL     1      -2.310  -7.286   2.249  1.00  0.00     0.275 C 
BRANCH  21  22
ATOM     22  O   UNL     1      -3.594  -6.854   1.761  1.00  0.00    -0.458 OA
BRANCH  22  23
ATOM     23  C   UNL     1      -4.703  -7.329   2.389  1.00  0.00     0.338 C 
ATOM     24  O   UNL     1      -4.719  -8.190   3.259  1.00  0.00    -0.246 OA
BRANCH  23  25
ATOM     25  C   UNL     1      -5.915  -6.628   1.865  1.00  0.00     0.060 A 
ATOM     26  C   UNL     1      -5.757  -5.433   1.172  1.00  0.00     0.016 A 
ATOM     27  C   UNL     1      -7.215  -7.082   2.089  1.00  0.00     0.016 A 
ATOM     28  C   UNL     1      -6.838  -4.679   0.731  1.00  0.00     0.010 A 
ATOM     29  C   UNL     1      -8.318  -6.354   1.585  1.00  0.00     0.010 A 
ATOM     30  C   UNL     1      -8.142  -5.132   0.902  1.00  0.00    -0.014 A 
BRANCH  30  31
ATOM     31  C   UNL     1      -9.275  -4.250   0.477  1.00  0.00     0.031 A 
ATOM     32  C   UNL     1     -10.280  -3.805   1.505  1.00  0.00     0.074 A 
ATOM     33  C   UNL     1      -9.354  -3.723  -0.767  1.00  0.00     0.049 A 
ATOM     34  N   UNL     1     -11.460  -3.269   1.341  1.00  0.00    -0.248 NA
ATOM     35  C   UNL     1      -9.895  -3.996   2.911  1.00  0.00     0.031 C 
ATOM     36  C   UNL     1      -8.368  -3.909  -1.834  1.00  0.00     0.029 A 
ATOM     37  N   UNL     1     -10.285  -2.882  -1.335  1.00  0.00    -0.354 N 
ATOM     38  C   UNL     1     -12.001  -3.147   2.617  1.00  0.00     0.074 A 
ATOM     39  C   UNL     1     -11.001  -3.635   3.544  1.00  0.00     0.031 C 
ATOM     40  C   UNL     1      -8.701  -3.145  -2.886  1.00  0.00     0.029 A 
ATOM     41  C   UNL     1     -10.003  -2.535  -2.641  1.00  0.00     0.049 A 
ATOM     42  H   UNL     1     -11.080  -2.557  -0.854  1.00  0.00     0.167 HD
ATOM     43  C   UNL     1     -13.232  -2.697   2.968  1.00  0.00     0.034 A 
ATOM     44  C   UNL     1     -10.736  -1.870  -3.561  1.00  0.00     0.034 A 
ATOM     45  C   UNL     1     -14.181  -2.165   2.020  1.00  0.00     0.049 A 
ATOM     46  C   UNL     1     -12.133  -1.444  -3.177  1.00  0.00     0.074 A 
ATOM     47  C   UNL     1     -15.495  -1.782   2.221  1.00  0.00     0.029 A 
ATOM     48  N   UNL     1     -13.898  -1.914   0.681  1.00  0.00    -0.354 N 
ATOM     49  N   UNL     1     -12.736  -1.542  -2.014  1.00  0.00    -0.248 NA
ATOM     50  C   UNL     1     -12.967  -0.867  -4.240  1.00  0.00     0.031 C 
ATOM     51  C   UNL     1     -16.018  -1.342   0.998  1.00  0.00     0.029 A 
ATOM     52  C   UNL     1     -15.013  -1.392   0.045  1.00  0.00     0.049 A 
ATOM     53  H   UNL     1     -13.030  -2.082   0.248  1.00  0.00     0.167 HD
ATOM     54  C   UNL     1     -14.023  -1.052  -2.211  1.00  0.00     0.074 A 
ATOM     55  C   UNL     1     -14.095  -0.619  -3.592  1.00  0.00     0.031 C 
ATOM     56  C   UNL     1     -15.062  -0.984  -1.339  1.00  0.00     0.034 A 
BRANCH  43  57
ATOM     57  C   UNL     1     -13.644  -2.899   4.406  1.00  0.00     0.023 A 
ATOM     58  C   UNL     1     -13.018  -2.236   5.475  1.00  0.00     0.031 A 
ATOM     59  C   UNL     1     -14.625  -3.862   4.713  1.00  0.00     0.131 A 
ATOM     60  C   UNL     1     -13.314  -2.609   6.797  1.00  0.00     0.055 A 
ATOM     61  C   UNL     1     -14.974  -4.168   6.029  1.00  0.00     0.041 A 
ATOM     62  F   UNL     1     -15.238  -4.548   3.736  1.00  0.00    -0.206 F 
ATOM     63  C   UNL     1     -14.303  -3.554   7.081  1.00  0.00     0.022 A 
BRANCH  60  64
ATOM     64  S   UNL     1     -12.270  -1.969   8.136  1.00  0.00     0.124 S 
ATOM     65  O   UNL     1     -10.950  -2.456   7.739  1.00  0.00    -0.237 OA
ATOM     66  O   UNL     1     -12.476  -0.529   8.037  1.00  0.00    -0.237 OA
ATOM     67  O   UNL     1     -12.822  -2.598   9.334  1.00  0.00    -0.744 OA
ENDBRANCH  60  64
ENDBRANCH  43  57
BRANCH  44  68
ATOM     68  C   UNL     1     -10.241  -1.692  -4.965  1.00  0.00     0.023 A 
ATOM     69  C   UNL     1     -10.116  -0.419  -5.550  1.00  0.00     0.031 A 
ATOM     70  C   UNL     1      -9.942  -2.808  -5.771  1.00  0.00     0.131 A 
ATOM     71  C   UNL     1      -9.729  -0.299  -6.898  1.00  0.00     0.055 A 
ATOM     72  C   UNL     1      -9.492  -2.681  -7.086  1.00  0.00     0.041 A 
ATOM     73  F   UNL     1     -10.073  -4.053  -5.285  1.00  0.00    -0.206 F 
ATOM     74  C   UNL     1      -9.393  -1.420  -7.661  1.00  0.00     0.022 A 
BRANCH  71  75
ATOM     75  S   UNL     1      -9.764   1.338  -7.684  1.00  0.00     0.124 S 
ATOM     76  O   UNL     1     -11.152   1.735  -7.482  1.00  0.00    -0.237 OA
ATOM     77  O   UNL     1      -8.767   2.069  -6.910  1.00  0.00    -0.237 OA
ATOM     78  O   UNL     1      -9.391   1.059  -9.069  1.00  0.00    -0.744 OA
ENDBRANCH  71  75
ENDBRANCH  44  68
BRANCH  56  79
ATOM     79  C   UNL     1     -16.348  -0.401  -1.865  1.00  0.00     0.023 A 
ATOM     80  C   UNL     1     -17.135  -1.091  -2.803  1.00  0.00     0.031 A 
ATOM     81  C   UNL     1     -16.779   0.865  -1.435  1.00  0.00     0.131 A 
ATOM     82  C   UNL     1     -18.290  -0.488  -3.321  1.00  0.00     0.055 A 
ATOM     83  C   UNL     1     -17.956   1.439  -1.918  1.00  0.00     0.041 A 
ATOM     84  F   UNL     1     -16.062   1.564  -0.541  1.00  0.00    -0.206 F 
ATOM     85  C   UNL     1     -18.712   0.767  -2.874  1.00  0.00     0.022 A 
BRANCH  82  86
ATOM     86  S   UNL     1     -19.197  -1.334  -4.645  1.00  0.00     0.124 S 
ATOM     87  O   UNL     1     -18.187  -1.429  -5.694  1.00  0.00    -0.237 OA
ATOM     88  O   UNL     1     -19.577  -2.592  -4.010  1.00  0.00    -0.237 OA
ATOM     89  O   UNL     1     -20.307  -0.427  -4.934  1.00  0.00    -0.744 OA
ENDBRANCH  82  86
ENDBRANCH  56  79
ENDBRANCH  30  31
ENDBRANCH  23  25
ENDBRANCH  22  23
ENDBRANCH  21  22
ENDBRANCH   1  21
TORSDOF 17
