REMARK SMILES Cc1ccnc(C(=O)c2[nH]c3ccc(C(C)(C)C)cc3c2CC(=O)OCCOC(=O)c2ccc(-c3c4nc(c(-c5cc(S(=O)(=O)[O-])ccc5F)c5ccc([nH]5)c(-c5cc(S(=O)(=O)[O-])ccc5F)c5nc(c(-c6cc(S(=O)(=O)[O-])ccc6F)c6ccc3[nH]6)C=C5)C=C4)cc2)c1
REMARK SMILES IDX 26 1 25 2 23 3 24 4 22 5 21 6 9 7 10 8 11 9 20 11 12 12
REMARK SMILES IDX 19 13 13 14 14 15 7 16 8 17 6 18 1 19 2 20 3 21 94 22 4 23
REMARK SMILES IDX 5 24 15 25 16 26 17 27 18 28 27 29 28 30 29 31 30 32 31 33
REMARK SMILES IDX 32 34 93 35 33 36 92 37 34 38 35 39 36 40 86 41 37 42 91 43
REMARK SMILES IDX 85 44 87 45 38 46 90 47 84 48 83 49 39 51 71 52 51 53 70 54
REMARK SMILES IDX 52 55 55 56 69 57 88 58 53 59 54 60 68 62 89 63 56 64 40 65
REMARK SMILES IDX 41 66 49 67 42 68 48 69 50 70 47 71 43 72 44 73 45 74 46 75
REMARK SMILES IDX 72 76 73 77 81 78 74 79 80 80 82 81 79 82 75 83 76 84 77 85
REMARK SMILES IDX 78 86 57 87 58 88 66 89 59 90 65 91 67 92 64 93 60 94 61 95
REMARK SMILES IDX 62 96 63 97
REMARK H PARENT 10 10 87 50 55 61
REMARK Flexibility Score: inf
ROOT
ATOM      1  C   UNL     1       5.186  -5.341   0.609  1.00  0.00     0.274 C 
ENDROOT
BRANCH   1   2
ATOM      2  O   UNL     1       3.757  -5.170   0.487  1.00  0.00    -0.462 OA
BRANCH   2   3
ATOM      3  C   UNL     1       3.065  -5.056   1.647  1.00  0.00     0.310 C 
ATOM      4  O   UNL     1       3.560  -5.232   2.759  1.00  0.00    -0.252 OA
BRANCH   3   5
ATOM      5  C   UNL     1       1.655  -4.528   1.496  1.00  0.00     0.161 C 
BRANCH   5   6
ATOM      6  C   UNL     1       0.872  -4.883   0.273  1.00  0.00     0.000 A 
ATOM      7  C   UNL     1       0.707  -4.125  -0.886  1.00  0.00     0.093 A 
ATOM      8  N   UNL     1      -0.152  -4.819  -1.703  1.00  0.00    -0.352 N 
ATOM      9  C   UNL     1      -0.657  -5.917  -1.065  1.00  0.00     0.046 A 
ATOM     10  H   UNL     1      -0.375  -4.559  -2.626  1.00  0.00     0.167 HD
ATOM     11  C   UNL     1       0.011  -6.031   0.148  1.00  0.00     0.004 A 
ATOM     12  C   UNL     1      -1.647  -6.806  -1.475  1.00  0.00     0.027 A 
ATOM     13  C   UNL     1      -0.301  -7.136   0.975  1.00  0.00     0.015 A 
ATOM     14  C   UNL     1      -1.952  -7.874  -0.625  1.00  0.00     0.006 A 
ATOM     15  C   UNL     1      -1.288  -8.078   0.595  1.00  0.00    -0.042 A 
BRANCH   7  16
ATOM     16  C   UNL     1       1.264  -2.865  -1.357  1.00  0.00     0.227 C 
ATOM     17  O   UNL     1       2.034  -2.864  -2.317  1.00  0.00    -0.285 OA
BRANCH  16  18
ATOM     18  C   UNL     1       0.671  -1.559  -0.869  1.00  0.00     0.113 A 
ATOM     19  C   UNL     1      -2.615  -0.156   0.431  1.00  0.00     0.044 C 
ATOM     20  C   UNL     1      -1.214  -0.274  -0.094  1.00  0.00    -0.047 A 
ATOM     21  C   UNL     1      -0.539   0.879  -0.492  1.00  0.00     0.023 A 
ATOM     22  C   UNL     1      -0.589  -1.516  -0.268  1.00  0.00     0.036 A 
ATOM     23  C   UNL     1       0.723   0.750  -1.044  1.00  0.00     0.112 A 
ATOM     24  N   UNL     1       1.341  -0.434  -1.242  1.00  0.00    -0.253 NA
ENDBRANCH  16  18
ENDBRANCH   7  16
BRANCH  15  25
ATOM     25  C   UNL     1      -1.600  -9.283   1.502  1.00  0.00    -0.013 C 
ATOM     26  C   UNL     1      -0.340 -10.166   1.626  1.00  0.00     0.016 C 
ATOM     27  C   UNL     1      -2.026  -8.800   2.904  1.00  0.00     0.016 C 
ATOM     28  C   UNL     1      -2.738 -10.185   0.968  1.00  0.00     0.016 C 
ENDBRANCH  15  25
ENDBRANCH   5   6
ENDBRANCH   3   5
ENDBRANCH   2   3
ENDBRANCH   1   2
BRANCH   1  29
ATOM     29  C   UNL     1       5.942  -4.061   0.227  1.00  0.00     0.275 C 
BRANCH  29  30
ATOM     30  O   UNL     1       5.693  -2.980   1.149  1.00  0.00    -0.458 OA
BRANCH  30  31
ATOM     31  C   UNL     1       4.623  -2.233   0.818  1.00  0.00     0.338 C 
ATOM     32  O   UNL     1       3.874  -2.421  -0.143  1.00  0.00    -0.246 OA
BRANCH  31  33
ATOM     33  C   UNL     1       4.316  -1.186   1.784  1.00  0.00     0.060 A 
ATOM     34  C   UNL     1       3.321  -1.450   2.724  1.00  0.00     0.016 A 
ATOM     35  C   UNL     1       4.786   0.113   1.588  1.00  0.00     0.016 A 
ATOM     36  C   UNL     1       2.721  -0.400   3.402  1.00  0.00     0.010 A 
ATOM     37  C   UNL     1       4.243   1.159   2.343  1.00  0.00     0.010 A 
ATOM     38  C   UNL     1       3.183   0.915   3.230  1.00  0.00    -0.014 A 
BRANCH  38  39
ATOM     39  C   UNL     1       2.551   1.997   4.025  1.00  0.00     0.031 A 
ATOM     40  C   UNL     1       1.711   3.059   3.374  1.00  0.00     0.074 A 
ATOM     41  C   UNL     1       2.678   1.958   5.365  1.00  0.00     0.049 A 
ATOM     42  N   UNL     1       1.051   4.044   3.929  1.00  0.00    -0.248 NA
ATOM     43  C   UNL     1       1.591   3.008   1.910  1.00  0.00     0.031 C 
ATOM     44  C   UNL     1       3.444   0.952   6.106  1.00  0.00     0.029 A 
ATOM     45  N   UNL     1       2.152   2.761   6.342  1.00  0.00    -0.354 N 
ATOM     46  C   UNL     1       0.422   4.719   2.890  1.00  0.00     0.074 A 
ATOM     47  C   UNL     1       0.814   4.055   1.664  1.00  0.00     0.031 C 
ATOM     48  C   UNL     1       3.307   1.176   7.420  1.00  0.00     0.029 A 
ATOM     49  C   UNL     1       2.505   2.377   7.614  1.00  0.00     0.049 A 
ATOM     50  H   UNL     1       1.577   3.537   6.152  1.00  0.00     0.167 HD
ATOM     51  C   UNL     1      -0.413   5.787   2.956  1.00  0.00     0.034 A 
ATOM     52  C   UNL     1       2.238   2.945   8.805  1.00  0.00     0.034 A 
ATOM     53  C   UNL     1      -0.765   6.464   4.181  1.00  0.00     0.049 A 
ATOM     54  C   UNL     1       1.397   4.189   8.837  1.00  0.00     0.074 A 
ATOM     55  C   UNL     1      -1.573   7.575   4.355  1.00  0.00     0.029 A 
ATOM     56  N   UNL     1      -0.319   6.100   5.445  1.00  0.00    -0.354 N 
ATOM     57  N   UNL     1       0.825   4.824   7.840  1.00  0.00    -0.248 NA
ATOM     58  C   UNL     1       1.167   4.791  10.154  1.00  0.00     0.031 C 
ATOM     59  C   UNL     1      -1.571   7.914   5.715  1.00  0.00     0.029 A 
ATOM     60  C   UNL     1      -0.809   6.980   6.398  1.00  0.00     0.049 A 
ATOM     61  H   UNL     1       0.261   5.328   5.637  1.00  0.00     0.167 HD
ATOM     62  C   UNL     1       0.164   5.904   8.414  1.00  0.00     0.074 A 
ATOM     63  C   UNL     1       0.380   5.810   9.845  1.00  0.00     0.031 C 
ATOM     64  C   UNL     1      -0.551   6.890   7.815  1.00  0.00     0.034 A 
BRANCH  51  65
ATOM     65  C   UNL     1      -0.971   6.305   1.656  1.00  0.00     0.023 A 
ATOM     66  C   UNL     1      -1.909   5.564   0.919  1.00  0.00     0.031 A 
ATOM     67  C   UNL     1      -0.555   7.545   1.141  1.00  0.00     0.131 A 
ATOM     68  C   UNL     1      -2.367   6.045  -0.317  1.00  0.00     0.055 A 
ATOM     69  C   UNL     1      -1.057   8.046  -0.062  1.00  0.00     0.041 A 
ATOM     70  F   UNL     1       0.354   8.285   1.795  1.00  0.00    -0.206 F 
ATOM     71  C   UNL     1      -1.961   7.290  -0.804  1.00  0.00     0.022 A 
BRANCH  68  72
ATOM     72  S   UNL     1      -3.408   4.963  -1.333  1.00  0.00     0.124 S 
ATOM     73  O   UNL     1      -2.565   3.776  -1.459  1.00  0.00    -0.237 OA
ATOM     74  O   UNL     1      -4.602   4.810  -0.509  1.00  0.00    -0.237 OA
ATOM     75  O   UNL     1      -3.592   5.724  -2.567  1.00  0.00    -0.744 OA
ENDBRANCH  68  72
ENDBRANCH  51  65
BRANCH  52  76
ATOM     76  C   UNL     1       2.825   2.378  10.049  1.00  0.00     0.023 A 
ATOM     77  C   UNL     1       2.014   1.851  11.064  1.00  0.00     0.031 A 
ATOM     78  C   UNL     1       4.218   2.385  10.250  1.00  0.00     0.131 A 
ATOM     79  C   UNL     1       2.599   1.383  12.250  1.00  0.00     0.055 A 
ATOM     80  C   UNL     1       4.799   1.872  11.409  1.00  0.00     0.041 A 
ATOM     81  F   UNL     1       5.038   2.878   9.307  1.00  0.00    -0.206 F 
ATOM     82  C   UNL     1       3.986   1.379  12.424  1.00  0.00     0.022 A 
BRANCH  79  83
ATOM     83  S   UNL     1       1.515   0.856  13.604  1.00  0.00     0.124 S 
ATOM     84  O   UNL     1       0.655   2.022  13.772  1.00  0.00    -0.237 OA
ATOM     85  O   UNL     1       0.882  -0.331  13.039  1.00  0.00    -0.237 OA
ATOM     86  O   UNL     1       2.443   0.602  14.704  1.00  0.00    -0.744 OA
ENDBRANCH  79  83
ENDBRANCH  52  76
BRANCH  64  87
ATOM     87  C   UNL     1      -1.144   7.928   8.731  1.00  0.00     0.023 A 
ATOM     88  C   UNL     1      -0.325   8.828   9.436  1.00  0.00     0.031 A 
ATOM     89  C   UNL     1      -2.530   7.972   8.958  1.00  0.00     0.131 A 
ATOM     90  C   UNL     1      -0.891   9.686  10.390  1.00  0.00     0.055 A 
ATOM     91  C   UNL     1      -3.094   8.868   9.868  1.00  0.00     0.041 A 
ATOM     92  F   UNL     1      -3.355   7.133   8.312  1.00  0.00    -0.206 F 
ATOM     93  C   UNL     1      -2.271   9.718  10.603  1.00  0.00     0.022 A 
BRANCH  90  94
ATOM     94  S   UNL     1       0.216  10.671  11.435  1.00  0.00     0.124 S 
ATOM     95  O   UNL     1       1.088   9.649  12.006  1.00  0.00    -0.237 OA
ATOM     96  O   UNL     1       0.837  11.571  10.468  1.00  0.00    -0.237 OA
ATOM     97  O   UNL     1      -0.691  11.312  12.386  1.00  0.00    -0.744 OA
ENDBRANCH  90  94
ENDBRANCH  64  87
ENDBRANCH  38  39
ENDBRANCH  31  33
ENDBRANCH  30  31
ENDBRANCH  29  30
ENDBRANCH   1  29
TORSDOF 18
