REMARK SMILES COc1ccccc1[C@@H]1C[N@@H+](Cc2cn3cc(C)ccc3n2)C[C@H]1C(=O)OCCOC(=O)c1ccc(-c2c3nc(c(-c4cc(S(=O)(=O)[O-])ccc4F)c4ccc([nH]4)c(-c4cc(S(=O)(=O)[O-])ccc4F)c4nc(c(-c5cc(S(=O)(=O)[O-])ccc5F)c5ccc2[nH]5)C=C4)C=C3)cc1
REMARK SMILES IDX 29 1 28 2 27 3 25 4 26 5 24 6 9 7 10 8 11 9 23 10 8 12 3 13
REMARK SMILES IDX 4 14 5 15 7 16 6 17 2 18 1 19 12 20 13 21 14 22 22 23 15 24
REMARK SMILES IDX 21 25 16 26 20 27 17 28 19 29 18 30 30 31 31 32 32 33 33 34
REMARK SMILES IDX 34 35 95 36 35 37 94 38 36 39 37 40 38 41 88 42 39 43 93 44
REMARK SMILES IDX 87 45 89 46 40 47 92 48 86 49 85 50 41 52 73 53 53 54 72 55
REMARK SMILES IDX 54 56 57 57 71 58 90 59 55 60 56 61 70 63 91 64 58 65 42 66
REMARK SMILES IDX 43 67 51 68 44 69 50 70 52 71 49 72 45 73 46 74 47 75 48 76
REMARK SMILES IDX 74 77 75 78 83 79 76 80 82 81 84 82 81 83 77 84 78 85 79 86
REMARK SMILES IDX 80 87 59 88 60 89 68 90 61 91 67 92 69 93 66 94 62 95 63 96
REMARK SMILES IDX 64 97 65 98
REMARK H PARENT 11 11 89 51 57 62
REMARK Flexibility Score: inf
ROOT
ATOM      1  C   UNL     1       4.146   3.789   3.697  1.00  0.00     0.275 C 
ENDROOT
BRANCH   1   2
ATOM      2  C   UNL     1       4.305   2.271   3.692  1.00  0.00     0.274 C 
BRANCH   2   3
ATOM      3  O   UNL     1       4.153   1.685   2.384  1.00  0.00    -0.462 OA
BRANCH   3   4
ATOM      4  C   UNL     1       2.927   1.208   2.044  1.00  0.00     0.315 C 
ATOM      5  O   UNL     1       1.936   1.284   2.765  1.00  0.00    -0.252 OA
BRANCH   4   6
ATOM      6  C   UNL     1       2.921   0.438   0.739  1.00  0.00     0.167 C 
ATOM      7  C   UNL     1       3.278   1.156  -0.565  1.00  0.00     0.098 C 
ATOM      8  C   UNL     1       3.819  -0.007  -1.416  1.00  0.00     0.272 C 
ATOM      9  N   UNL     1       4.545  -0.895  -0.498  1.00  0.00    -0.329 N 
ATOM     10  C   UNL     1       3.938  -0.709   0.829  1.00  0.00     0.278 C 
ATOM     11  H   UNL     1       4.446  -1.864  -0.799  1.00  0.00     0.348 HD
BRANCH   7  12
ATOM     12  C   UNL     1       2.241   1.954  -1.342  1.00  0.00     0.004 A 
ATOM     13  C   UNL     1       1.018   1.444  -1.809  1.00  0.00     0.122 A 
ATOM     14  C   UNL     1       0.145   2.237  -2.571  1.00  0.00     0.047 A 
ATOM     15  C   UNL     1       0.485   3.552  -2.890  1.00  0.00     0.004 A 
ATOM     16  C   UNL     1       2.570   3.277  -1.708  1.00  0.00     0.008 A 
ATOM     17  C   UNL     1       1.705   4.069  -2.469  1.00  0.00     0.001 A 
BRANCH  13  18
ATOM     18  O   UNL     1       0.740   0.110  -1.679  1.00  0.00    -0.496 OA
ATOM     19  C   UNL     1      -0.244  -0.152  -0.685  1.00  0.00     0.278 C 
ENDBRANCH  13  18
ENDBRANCH   7  12
BRANCH   9  20
ATOM     20  C   UNL     1       6.010  -0.726  -0.520  1.00  0.00     0.321 C 
BRANCH  20  21
ATOM     21  C   UNL     1       6.486   0.691  -0.406  1.00  0.00     0.114 A 
ATOM     22  C   UNL     1       6.740   1.587  -1.429  1.00  0.00     0.122 A 
ATOM     23  N   UNL     1       6.689   1.294   0.818  1.00  0.00    -0.228 NA
ATOM     24  N   UNL     1       6.968   2.793  -0.822  1.00  0.00    -0.306 N 
ATOM     25  C   UNL     1       6.938   2.561   0.547  1.00  0.00     0.137 A 
ATOM     26  C   UNL     1       7.180   4.044  -1.393  1.00  0.00     0.096 A 
ATOM     27  C   UNL     1       7.136   3.689   1.391  1.00  0.00     0.048 A 
ATOM     28  C   UNL     1       7.372   5.114  -0.597  1.00  0.00    -0.034 A 
ATOM     29  C   UNL     1       7.331   4.908   0.851  1.00  0.00     0.009 A 
ATOM     30  C   UNL     1       7.593   6.500  -1.117  1.00  0.00     0.046 C 
ENDBRANCH  20  21
ENDBRANCH   9  20
ENDBRANCH   4   6
ENDBRANCH   3   4
ENDBRANCH   2   3
ENDBRANCH   1   2
BRANCH   1  31
ATOM     31  O   UNL     1       2.803   4.194   3.438  1.00  0.00    -0.458 OA
BRANCH  31  32
ATOM     32  C   UNL     1       2.541   4.287   2.115  1.00  0.00     0.338 C 
ATOM     33  O   UNL     1       3.263   3.942   1.196  1.00  0.00    -0.246 OA
BRANCH  32  34
ATOM     34  C   UNL     1       1.312   5.035   1.895  1.00  0.00     0.060 A 
ATOM     35  C   UNL     1       0.530   4.699   0.790  1.00  0.00     0.016 A 
ATOM     36  C   UNL     1       1.138   6.229   2.596  1.00  0.00     0.016 A 
ATOM     37  C   UNL     1      -0.334   5.643   0.276  1.00  0.00     0.010 A 
ATOM     38  C   UNL     1       0.259   7.162   2.095  1.00  0.00     0.010 A 
ATOM     39  C   UNL     1      -0.412   6.892   0.897  1.00  0.00    -0.014 A 
BRANCH  39  40
ATOM     40  C   UNL     1      -1.290   7.897   0.317  1.00  0.00     0.031 A 
ATOM     41  C   UNL     1      -2.736   7.602   0.442  1.00  0.00     0.074 A 
ATOM     42  C   UNL     1      -0.821   9.086  -0.110  1.00  0.00     0.049 A 
ATOM     43  N   UNL     1      -3.644   7.612  -0.476  1.00  0.00    -0.248 NA
ATOM     44  C   UNL     1      -3.216   7.136   1.755  1.00  0.00     0.031 C 
ATOM     45  C   UNL     1       0.562   9.563  -0.000  1.00  0.00     0.029 A 
ATOM     46  N   UNL     1      -1.496  10.175  -0.581  1.00  0.00    -0.354 N 
ATOM     47  C   UNL     1      -4.845   7.359   0.181  1.00  0.00     0.074 A 
ATOM     48  C   UNL     1      -4.502   6.906   1.500  1.00  0.00     0.031 C 
ATOM     49  C   UNL     1       0.578  10.903  -0.154  1.00  0.00     0.029 A 
ATOM     50  C   UNL     1      -0.762  11.351  -0.498  1.00  0.00     0.049 A 
ATOM     51  H   UNL     1      -2.411  10.131  -0.943  1.00  0.00     0.167 HD
ATOM     52  C   UNL     1      -6.032   7.771  -0.335  1.00  0.00     0.034 A 
ATOM     53  C   UNL     1      -1.217  12.621  -0.626  1.00  0.00     0.034 A 
ATOM     54  C   UNL     1      -5.920   8.060  -1.742  1.00  0.00     0.049 A 
ATOM     55  C   UNL     1      -2.488  12.585  -1.380  1.00  0.00     0.074 A 
ATOM     56  C   UNL     1      -5.762   7.318  -2.892  1.00  0.00     0.029 A 
ATOM     57  N   UNL     1      -5.652   9.366  -2.066  1.00  0.00    -0.354 N 
ATOM     58  N   UNL     1      -2.574  12.192  -2.620  1.00  0.00    -0.248 NA
ATOM     59  C   UNL     1      -3.762  12.678  -0.676  1.00  0.00     0.031 C 
ATOM     60  C   UNL     1      -5.124   8.179  -3.831  1.00  0.00     0.029 A 
ATOM     61  C   UNL     1      -4.920   9.420  -3.227  1.00  0.00     0.049 A 
ATOM     62  H   UNL     1      -5.941  10.149  -1.544  1.00  0.00     0.167 HD
ATOM     63  C   UNL     1      -3.810  11.582  -2.709  1.00  0.00     0.074 A 
ATOM     64  C   UNL     1      -4.559  12.077  -1.565  1.00  0.00     0.031 C 
ATOM     65  C   UNL     1      -3.992  10.498  -3.516  1.00  0.00     0.034 A 
BRANCH  52  66
ATOM     66  C   UNL     1      -7.198   8.282   0.489  1.00  0.00     0.023 A 
ATOM     67  C   UNL     1      -8.352   8.690  -0.209  1.00  0.00     0.031 A 
ATOM     68  C   UNL     1      -7.144   8.658   1.852  1.00  0.00     0.131 A 
ATOM     69  C   UNL     1      -9.332   9.487   0.409  1.00  0.00     0.055 A 
ATOM     70  C   UNL     1      -8.154   9.394   2.480  1.00  0.00     0.041 A 
ATOM     71  F   UNL     1      -6.080   8.427   2.629  1.00  0.00    -0.206 F 
ATOM     72  C   UNL     1      -9.242   9.838   1.752  1.00  0.00     0.022 A 
BRANCH  69  73
ATOM     73  S   UNL     1     -10.638  10.208  -0.620  1.00  0.00     0.124 S 
ATOM     74  O   UNL     1      -9.870  10.817  -1.700  1.00  0.00    -0.237 OA
ATOM     75  O   UNL     1     -11.426   9.031  -0.970  1.00  0.00    -0.237 OA
ATOM     76  O   UNL     1     -11.294  11.152   0.283  1.00  0.00    -0.744 OA
ENDBRANCH  69  73
ENDBRANCH  52  66
BRANCH  53  77
ATOM     77  C   UNL     1      -0.697  13.824   0.064  1.00  0.00     0.023 A 
ATOM     78  C   UNL     1      -0.876  15.119  -0.451  1.00  0.00     0.031 A 
ATOM     79  C   UNL     1      -0.182  13.720   1.377  1.00  0.00     0.131 A 
ATOM     80  C   UNL     1      -0.540  16.243   0.334  1.00  0.00     0.055 A 
ATOM     81  C   UNL     1       0.166  14.833   2.141  1.00  0.00     0.041 A 
ATOM     82  F   UNL     1      -0.077  12.530   1.990  1.00  0.00    -0.206 F 
ATOM     83  C   UNL     1      -0.020  16.104   1.624  1.00  0.00     0.022 A 
BRANCH  80  84
ATOM     84  S   UNL     1      -0.894  17.916  -0.284  1.00  0.00     0.124 S 
ATOM     85  O   UNL     1       0.116  18.082  -1.322  1.00  0.00    -0.237 OA
ATOM     86  O   UNL     1      -2.276  17.797  -0.735  1.00  0.00    -0.237 OA
ATOM     87  O   UNL     1      -0.708  18.760   0.897  1.00  0.00    -0.744 OA
ENDBRANCH  80  84
ENDBRANCH  53  77
BRANCH  65  88
ATOM     88  C   UNL     1      -3.023  10.319  -4.661  1.00  0.00     0.023 A 
ATOM     89  C   UNL     1      -1.635  10.112  -4.509  1.00  0.00     0.031 A 
ATOM     90  C   UNL     1      -3.550  10.310  -5.963  1.00  0.00     0.131 A 
ATOM     91  C   UNL     1      -0.824   9.927  -5.644  1.00  0.00     0.055 A 
ATOM     92  C   UNL     1      -2.747  10.107  -7.085  1.00  0.00     0.041 A 
ATOM     93  F   UNL     1      -4.868  10.476  -6.167  1.00  0.00    -0.206 F 
ATOM     94  C   UNL     1      -1.377   9.924  -6.929  1.00  0.00     0.022 A 
BRANCH  91  95
ATOM     95  S   UNL     1       0.975   9.708  -5.463  1.00  0.00     0.124 S 
ATOM     96  O   UNL     1       1.366  10.789  -4.566  1.00  0.00    -0.237 OA
ATOM     97  O   UNL     1       1.075   8.356  -4.917  1.00  0.00    -0.237 OA
ATOM     98  O   UNL     1       1.473   9.845  -6.833  1.00  0.00    -0.744 OA
ENDBRANCH  91  95
ENDBRANCH  65  88
ENDBRANCH  39  40
ENDBRANCH  32  34
ENDBRANCH  31  32
ENDBRANCH   1  31
TORSDOF 18
