REMARK SMILES O=C(OCCOC(=O)c1ccccc1-c1ccccc1C(=O)N1CC[NH+](Cc2ccc3c(c2)OCO3)CC1)c1ccc(-c2c3nc(c(-c4cc(S(=O)(=O)[O-])ccc4F)c4ccc([nH]4)c(-c4cc(S(=O)(=O)[O-])ccc4F)c4nc(c(-c5cc(S(=O)(=O)[O-])ccc5F)c5ccc2[nH]5)C=C4)C=C3)cc1
REMARK SMILES IDX 5 1 4 2 3 3 2 4 1 5 39 6 40 7 101 8 41 9 100 10 42 11 43 12
REMARK SMILES IDX 44 13 94 14 45 15 99 16 93 17 95 18 46 19 98 20 92 21 91 22
REMARK SMILES IDX 47 24 79 25 59 26 78 27 60 28 63 29 77 30 96 31 61 32 62 33
REMARK SMILES IDX 76 35 97 36 64 37 48 38 49 39 57 40 50 41 56 42 58 43 55 44
REMARK SMILES IDX 51 45 52 46 53 47 54 48 80 49 81 50 89 51 82 52 88 53 90 54
REMARK SMILES IDX 87 55 83 56 84 57 85 58 86 59 65 60 66 61 74 62 67 63 73 64
REMARK SMILES IDX 75 65 72 66 68 67 69 68 70 69 71 70 6 71 7 72 8 73 9 74
REMARK SMILES IDX 10 75 14 76 11 77 13 78 12 79 15 80 16 81 20 82 17 83 19 84
REMARK SMILES IDX 18 85 21 86 22 87 23 88 24 89 38 90 25 91 37 92 26 93 27 95
REMARK SMILES IDX 28 96 29 97 33 98 30 99 32 100 31 101 34 102 36 103 35 104
REMARK H PARENT 95 23 63 34 26 94
REMARK Flexibility Score: inf
ROOT
ATOM      1  C   UNL     1       5.061  -1.470   0.345  1.00  0.00     0.275 C 
ENDROOT
BRANCH   1   2
ATOM      2  C   UNL     1       5.542  -0.246   1.138  1.00  0.00     0.275 C 
BRANCH   2   3
ATOM      3  O   UNL     1       4.630   0.865   1.258  1.00  0.00    -0.458 OA
BRANCH   3   4
ATOM      4  C   UNL     1       4.420   1.933   0.448  1.00  0.00     0.338 C 
ATOM      5  O   UNL     1       3.719   2.861   0.848  1.00  0.00    -0.246 OA
BRANCH   4   6
ATOM      6  C   UNL     1       4.877   1.957  -0.975  1.00  0.00     0.060 A 
ATOM      7  C   UNL     1       6.053   1.380  -1.454  1.00  0.00     0.016 A 
ATOM      8  C   UNL     1       4.026   2.582  -1.901  1.00  0.00     0.016 A 
ATOM      9  C   UNL     1       6.311   1.294  -2.827  1.00  0.00     0.010 A 
ATOM     10  C   UNL     1       4.284   2.511  -3.277  1.00  0.00     0.010 A 
ATOM     11  C   UNL     1       5.425   1.848  -3.753  1.00  0.00    -0.014 A 
BRANCH  11  12
ATOM     12  C   UNL     1       5.848   1.970  -5.175  1.00  0.00     0.031 A 
ATOM     13  C   UNL     1       6.381   3.288  -5.586  1.00  0.00     0.074 A 
ATOM     14  C   UNL     1       5.847   0.943  -6.047  1.00  0.00     0.049 A 
ATOM     15  N   UNL     1       6.939   3.620  -6.713  1.00  0.00    -0.248 NA
ATOM     16  C   UNL     1       6.282   4.369  -4.596  1.00  0.00     0.031 C 
ATOM     17  C   UNL     1       5.373  -0.368  -5.692  1.00  0.00     0.029 A 
ATOM     18  N   UNL     1       6.229   0.784  -7.353  1.00  0.00    -0.354 N 
ATOM     19  C   UNL     1       7.312   4.939  -6.540  1.00  0.00     0.074 A 
ATOM     20  C   UNL     1       6.782   5.381  -5.272  1.00  0.00     0.031 C 
ATOM     21  C   UNL     1       5.447  -1.212  -6.730  1.00  0.00     0.029 A 
ATOM     22  C   UNL     1       6.008  -0.490  -7.853  1.00  0.00     0.049 A 
ATOM     23  H   UNL     1       6.625   1.509  -7.889  1.00  0.00     0.167 HD
ATOM     24  C   UNL     1       8.101   5.683  -7.344  1.00  0.00     0.034 A 
ATOM     25  C   UNL     1       6.248  -1.020  -9.069  1.00  0.00     0.034 A 
ATOM     26  C   UNL     1       8.541   5.218  -8.629  1.00  0.00     0.049 A 
ATOM     27  C   UNL     1       6.987  -0.127 -10.024  1.00  0.00     0.074 A 
ATOM     28  C   UNL     1       9.250   5.893  -9.599  1.00  0.00     0.029 A 
ATOM     29  N   UNL     1       8.270   3.946  -9.137  1.00  0.00    -0.354 N 
ATOM     30  N   UNL     1       7.390   1.110  -9.825  1.00  0.00    -0.248 NA
ATOM     31  C   UNL     1       7.348  -0.683 -11.329  1.00  0.00     0.031 C 
ATOM     32  C   UNL     1       9.353   5.053 -10.716  1.00  0.00     0.029 A 
ATOM     33  C   UNL     1       8.768   3.827 -10.422  1.00  0.00     0.049 A 
ATOM     34  H   UNL     1       7.792   3.236  -8.650  1.00  0.00     0.167 HD
ATOM     35  C   UNL     1       8.084   1.473 -10.965  1.00  0.00     0.074 A 
ATOM     36  C   UNL     1       8.054   0.314 -11.845  1.00  0.00     0.031 C 
ATOM     37  C   UNL     1       8.695   2.649 -11.260  1.00  0.00     0.034 A 
BRANCH  24  38
ATOM     38  C   UNL     1       8.405   7.057  -6.814  1.00  0.00     0.023 A 
ATOM     39  C   UNL     1       9.095   7.212  -5.592  1.00  0.00     0.031 A 
ATOM     40  C   UNL     1       7.755   8.173  -7.358  1.00  0.00     0.131 A 
ATOM     41  C   UNL     1       8.975   8.413  -4.878  1.00  0.00     0.055 A 
ATOM     42  C   UNL     1       7.735   9.399  -6.691  1.00  0.00     0.041 A 
ATOM     43  F   UNL     1       7.046   8.065  -8.492  1.00  0.00    -0.206 F 
ATOM     44  C   UNL     1       8.319   9.516  -5.430  1.00  0.00     0.022 A 
BRANCH  41  45
ATOM     45  S   UNL     1       9.438   8.424  -3.119  1.00  0.00     0.124 S 
ATOM     46  O   UNL     1       8.472   7.482  -2.558  1.00  0.00    -0.237 OA
ATOM     47  O   UNL     1      10.824   7.972  -3.151  1.00  0.00    -0.237 OA
ATOM     48  O   UNL     1       9.244   9.817  -2.725  1.00  0.00    -0.744 OA
ENDBRANCH  41  45
ENDBRANCH  24  38
BRANCH  25  49
ATOM     49  C   UNL     1       5.821  -2.412  -9.436  1.00  0.00     0.023 A 
ATOM     50  C   UNL     1       6.742  -3.419  -9.778  1.00  0.00     0.031 A 
ATOM     51  C   UNL     1       4.453  -2.748  -9.489  1.00  0.00     0.131 A 
ATOM     52  C   UNL     1       6.288  -4.689 -10.191  1.00  0.00     0.055 A 
ATOM     53  C   UNL     1       4.008  -4.020  -9.869  1.00  0.00     0.041 A 
ATOM     54  F   UNL     1       3.518  -1.841  -9.163  1.00  0.00    -0.206 F 
ATOM     55  C   UNL     1       4.927  -4.996 -10.234  1.00  0.00     0.022 A 
BRANCH  52  56
ATOM     56  S   UNL     1       7.500  -5.927 -10.743  1.00  0.00     0.124 S 
ATOM     57  O   UNL     1       8.233  -5.194 -11.769  1.00  0.00    -0.237 OA
ATOM     58  O   UNL     1       8.227  -6.205  -9.508  1.00  0.00    -0.237 OA
ATOM     59  O   UNL     1       6.669  -7.024 -11.234  1.00  0.00    -0.744 OA
ENDBRANCH  52  56
ENDBRANCH  25  49
BRANCH  37  60
ATOM     60  C   UNL     1       9.390   2.707 -12.589  1.00  0.00     0.023 A 
ATOM     61  C   UNL     1       8.664   2.694 -13.790  1.00  0.00     0.031 A 
ATOM     62  C   UNL     1      10.791   2.777 -12.647  1.00  0.00     0.131 A 
ATOM     63  C   UNL     1       9.349   2.699 -15.009  1.00  0.00     0.055 A 
ATOM     64  C   UNL     1      11.464   2.849 -13.864  1.00  0.00     0.041 A 
ATOM     65  F   UNL     1      11.523   2.784 -11.521  1.00  0.00    -0.206 F 
ATOM     66  C   UNL     1      10.742   2.800 -15.055  1.00  0.00     0.022 A 
BRANCH  63  67
ATOM     67  S   UNL     1       8.394   2.490 -16.534  1.00  0.00     0.124 S 
ATOM     68  O   UNL     1       7.822   1.160 -16.349  1.00  0.00    -0.237 OA
ATOM     69  O   UNL     1       7.452   3.603 -16.469  1.00  0.00    -0.237 OA
ATOM     70  O   UNL     1       9.404   2.593 -17.585  1.00  0.00    -0.744 OA
ENDBRANCH  63  67
ENDBRANCH  37  60
ENDBRANCH  11  12
ENDBRANCH   4   6
ENDBRANCH   3   4
ENDBRANCH   2   3
ENDBRANCH   1   2
BRANCH   1  71
ATOM     71  O   UNL     1       4.733  -1.251  -1.037  1.00  0.00    -0.458 OA
BRANCH  71  72
ATOM     72  C   UNL     1       3.472  -0.811  -1.241  1.00  0.00     0.338 C 
ATOM     73  O   UNL     1       2.742  -0.400  -0.338  1.00  0.00    -0.246 OA
BRANCH  72  74
ATOM     74  C   UNL     1       3.046  -0.808  -2.666  1.00  0.00     0.067 A 
ATOM     75  C   UNL     1       2.233   0.261  -3.089  1.00  0.00     0.016 A 
ATOM     76  C   UNL     1       3.293  -1.868  -3.554  1.00  0.00    -0.003 A 
ATOM     77  C   UNL     1       1.774   0.368  -4.400  1.00  0.00     0.001 A 
ATOM     78  C   UNL     1       2.747  -1.783  -4.860  1.00  0.00     0.009 A 
ATOM     79  C   UNL     1       2.036  -0.658  -5.293  1.00  0.00     0.001 A 
BRANCH  76  80
ATOM     80  C   UNL     1       4.077  -3.056  -3.199  1.00  0.00    -0.005 A 
ATOM     81  C   UNL     1       5.449  -3.088  -3.559  1.00  0.00     0.009 A 
ATOM     82  C   UNL     1       3.542  -4.167  -2.526  1.00  0.00     0.047 A 
ATOM     83  C   UNL     1       6.262  -4.192  -3.334  1.00  0.00     0.001 A 
ATOM     84  C   UNL     1       4.382  -5.285  -2.310  1.00  0.00     0.014 A 
ATOM     85  C   UNL     1       5.721  -5.304  -2.720  1.00  0.00     0.001 A 
BRANCH  82  86
ATOM     86  C   UNL     1       2.163  -4.237  -1.915  1.00  0.00     0.254 C 
ATOM     87  O   UNL     1       1.881  -5.188  -1.183  1.00  0.00    -0.269 OA
ATOM     88  N   UNL     1       1.274  -3.163  -2.067  1.00  0.00    -0.327 N 
ATOM     89  C   UNL     1       0.748  -2.605  -0.832  1.00  0.00     0.181 C 
ATOM     90  C   UNL     1       0.248  -3.272  -3.100  1.00  0.00     0.181 C 
ATOM     91  C   UNL     1       0.003  -1.265  -1.015  1.00  0.00     0.284 C 
ATOM     92  C   UNL     1      -0.644  -2.007  -3.272  1.00  0.00     0.284 C 
ATOM     93  N   UNL     1      -0.988  -1.192  -2.096  1.00  0.00    -0.328 N 
ATOM     94  H   UNL     1      -0.917  -0.244  -2.467  1.00  0.00     0.348 HD
BRANCH  93  95
ATOM     95  C   UNL     1      -2.387  -1.195  -1.657  1.00  0.00     0.299 C 
BRANCH  95  96
ATOM     96  C   UNL     1      -2.756  -2.492  -0.970  1.00  0.00     0.010 A 
ATOM     97  C   UNL     1      -3.035  -3.619  -1.775  1.00  0.00     0.013 A 
ATOM     98  C   UNL     1      -2.430  -2.646   0.388  1.00  0.00     0.060 A 
ATOM     99  C   UNL     1      -2.743  -4.899  -1.310  1.00  0.00     0.051 A 
ATOM    100  C   UNL     1      -2.078  -3.912   0.788  1.00  0.00     0.166 A 
ATOM    101  C   UNL     1      -2.188  -4.998  -0.053  1.00  0.00     0.165 A 
ATOM    102  O   UNL     1      -1.339  -4.196   1.901  1.00  0.00    -0.454 OA
ATOM    103  O   UNL     1      -1.534  -6.088   0.441  1.00  0.00    -0.454 OA
ATOM    104  C   UNL     1      -0.760  -5.452   1.481  1.00  0.00     0.468 C 
ENDBRANCH  95  96
ENDBRANCH  93  95
ENDBRANCH  82  86
ENDBRANCH  76  80
ENDBRANCH  72  74
ENDBRANCH  71  72
ENDBRANCH   1  71
TORSDOF 18
