REMARK SMILES O=C(OCCOC(=O)[C@H]1C[C@H]1c1ccc(C2CC2)cc1)c1ccc(-c2c3nc(c(-c4cc(S(=O)(=O)[O-])ccc4F)c4ccc([nH]4)c(-c4cc(S(=O)(=O)[O-])ccc4F)c4nc(c(-c5cc(S(=O)(=O)[O-])ccc5F)c5ccc2[nH]5)C=C4)C=C3)cc1
REMARK SMILES IDX 4 1 3 2 2 3 1 4 21 5 22 6 83 7 23 8 82 9 24 10 25 11 26 12
REMARK SMILES IDX 76 13 27 14 81 15 75 16 77 17 28 18 80 19 74 20 73 21 29 23
REMARK SMILES IDX 61 24 41 25 60 26 42 27 45 28 59 29 78 30 43 31 44 32 58 34
REMARK SMILES IDX 79 35 46 36 30 37 31 38 39 39 32 40 38 41 40 42 37 43 33 44
REMARK SMILES IDX 34 45 35 46 36 47 62 48 63 49 71 50 64 51 70 52 72 53 69 54
REMARK SMILES IDX 65 55 66 56 67 57 68 58 47 59 48 60 56 61 49 62 55 63 57 64
REMARK SMILES IDX 54 65 50 66 51 67 52 68 53 69 5 70 6 71 7 72 8 73 9 74 10 75
REMARK SMILES IDX 11 76 12 77 13 78 20 79 14 80 19 81 15 82 16 83 17 84 18 85
REMARK H PARENT 77 22 45 33
REMARK Flexibility Score: inf
ROOT
ATOM      1  C   UNL     1       3.600  -0.559   3.958  1.00  0.00     0.275 C 
ENDROOT
BRANCH   1   2
ATOM      2  O   UNL     1       3.623  -1.079   2.614  1.00  0.00    -0.458 OA
BRANCH   2   3
ATOM      3  C   UNL     1       2.696  -0.995   1.628  1.00  0.00     0.338 C 
ATOM      4  O   UNL     1       2.919  -1.576   0.566  1.00  0.00    -0.246 OA
BRANCH   3   5
ATOM      5  C   UNL     1       1.475  -0.134   1.703  1.00  0.00     0.060 A 
ATOM      6  C   UNL     1       0.733   0.133   2.856  1.00  0.00     0.016 A 
ATOM      7  C   UNL     1       1.024   0.418   0.489  1.00  0.00     0.016 A 
ATOM      8  C   UNL     1      -0.362   1.005   2.825  1.00  0.00     0.010 A 
ATOM      9  C   UNL     1      -0.083   1.274   0.449  1.00  0.00     0.010 A 
ATOM     10  C   UNL     1      -0.775   1.587   1.624  1.00  0.00    -0.014 A 
BRANCH  10  11
ATOM     11  C   UNL     1      -2.026   2.382   1.583  1.00  0.00     0.031 A 
ATOM     12  C   UNL     1      -3.276   1.705   1.104  1.00  0.00     0.074 A 
ATOM     13  C   UNL     1      -2.058   3.662   2.000  1.00  0.00     0.049 A 
ATOM     14  N   UNL     1      -4.506   2.146   1.096  1.00  0.00    -0.248 NA
ATOM     15  C   UNL     1      -3.116   0.341   0.576  1.00  0.00     0.031 C 
ATOM     16  C   UNL     1      -0.915   4.414   2.513  1.00  0.00     0.029 A 
ATOM     17  N   UNL     1      -3.093   4.561   2.058  1.00  0.00    -0.354 N 
ATOM     18  C   UNL     1      -5.274   1.093   0.615  1.00  0.00     0.074 A 
ATOM     19  C   UNL     1      -4.360   0.033   0.249  1.00  0.00     0.031 C 
ATOM     20  C   UNL     1      -1.299   5.670   2.797  1.00  0.00     0.029 A 
ATOM     21  C   UNL     1      -2.723   5.807   2.509  1.00  0.00     0.049 A 
ATOM     22  H   UNL     1      -4.016   4.335   1.800  1.00  0.00     0.167 HD
ATOM     23  C   UNL     1      -6.623   1.000   0.529  1.00  0.00     0.034 A 
ATOM     24  C   UNL     1      -3.455   6.925   2.687  1.00  0.00     0.034 A 
ATOM     25  C   UNL     1      -7.513   2.088   0.838  1.00  0.00     0.049 A 
ATOM     26  C   UNL     1      -4.945   6.846   2.462  1.00  0.00     0.074 A 
ATOM     27  C   UNL     1      -8.893   2.130   0.767  1.00  0.00     0.029 A 
ATOM     28  N   UNL     1      -7.098   3.349   1.254  1.00  0.00    -0.354 N 
ATOM     29  N   UNL     1      -5.669   5.816   2.085  1.00  0.00    -0.248 NA
ATOM     30  C   UNL     1      -5.719   8.064   2.728  1.00  0.00     0.031 C 
ATOM     31  C   UNL     1      -9.307   3.431   1.084  1.00  0.00     0.029 A 
ATOM     32  C   UNL     1      -8.191   4.184   1.414  1.00  0.00     0.049 A 
ATOM     33  H   UNL     1      -6.162   3.610   1.412  1.00  0.00     0.167 HD
ATOM     34  C   UNL     1      -6.992   6.248   2.125  1.00  0.00     0.074 A 
ATOM     35  C   UNL     1      -6.960   7.632   2.557  1.00  0.00     0.031 C 
ATOM     36  C   UNL     1      -8.131   5.561   1.850  1.00  0.00     0.034 A 
BRANCH  23  37
ATOM     37  C   UNL     1      -7.168  -0.320   0.045  1.00  0.00     0.023 A 
ATOM     38  C   UNL     1      -6.957  -1.502   0.780  1.00  0.00     0.031 A 
ATOM     39  C   UNL     1      -7.792  -0.424  -1.208  1.00  0.00     0.131 A 
ATOM     40  C   UNL     1      -7.269  -2.745   0.211  1.00  0.00     0.055 A 
ATOM     41  C   UNL     1      -8.177  -1.660  -1.734  1.00  0.00     0.041 A 
ATOM     42  F   UNL     1      -7.995   0.666  -1.963  1.00  0.00    -0.206 F 
ATOM     43  C   UNL     1      -7.896  -2.831  -1.034  1.00  0.00     0.022 A 
BRANCH  40  44
ATOM     44  S   UNL     1      -6.676  -4.248   1.038  1.00  0.00     0.124 S 
ATOM     45  O   UNL     1      -5.231  -4.030   1.046  1.00  0.00    -0.237 OA
ATOM     46  O   UNL     1      -7.339  -4.178   2.335  1.00  0.00    -0.237 OA
ATOM     47  O   UNL     1      -7.131  -5.325   0.161  1.00  0.00    -0.744 OA
ENDBRANCH  40  44
ENDBRANCH  23  37
BRANCH  24  48
ATOM     48  C   UNL     1      -2.810   8.199   3.116  1.00  0.00     0.023 A 
ATOM     49  C   UNL     1      -3.090   8.780   4.364  1.00  0.00     0.031 A 
ATOM     50  C   UNL     1      -1.931   8.882   2.256  1.00  0.00     0.131 A 
ATOM     51  C   UNL     1      -2.534  10.027   4.698  1.00  0.00     0.055 A 
ATOM     52  C   UNL     1      -1.351  10.103   2.607  1.00  0.00     0.041 A 
ATOM     53  F   UNL     1      -1.621   8.367   1.055  1.00  0.00    -0.206 F 
ATOM     54  C   UNL     1      -1.662  10.689   3.831  1.00  0.00     0.022 A 
BRANCH  51  55
ATOM     55  S   UNL     1      -3.024  10.810   6.260  1.00  0.00     0.124 S 
ATOM     56  O   UNL     1      -4.476  10.856   6.130  1.00  0.00    -0.237 OA
ATOM     57  O   UNL     1      -2.497   9.871   7.245  1.00  0.00    -0.237 OA
ATOM     58  O   UNL     1      -2.352  12.106   6.216  1.00  0.00    -0.744 OA
ENDBRANCH  51  55
ENDBRANCH  24  48
BRANCH  36  59
ATOM     59  C   UNL     1      -9.431   6.287   2.075  1.00  0.00     0.023 A 
ATOM     60  C   UNL     1      -9.820   7.374   1.274  1.00  0.00     0.031 A 
ATOM     61  C   UNL     1     -10.283   5.894   3.122  1.00  0.00     0.131 A 
ATOM     62  C   UNL     1     -11.001   8.070   1.571  1.00  0.00     0.055 A 
ATOM     63  C   UNL     1     -11.486   6.553   3.376  1.00  0.00     0.041 A 
ATOM     64  F   UNL     1      -9.957   4.862   3.917  1.00  0.00    -0.206 F 
ATOM     65  C   UNL     1     -11.844   7.657   2.607  1.00  0.00     0.022 A 
BRANCH  62  66
ATOM     66  S   UNL     1     -11.374   9.583   0.643  1.00  0.00     0.124 S 
ATOM     67  O   UNL     1     -10.203  10.407   0.924  1.00  0.00    -0.237 OA
ATOM     68  O   UNL     1     -11.492   9.088  -0.724  1.00  0.00    -0.237 OA
ATOM     69  O   UNL     1     -12.622  10.053   1.242  1.00  0.00    -0.744 OA
ENDBRANCH  62  66
ENDBRANCH  36  59
ENDBRANCH  10  11
ENDBRANCH   3   5
ENDBRANCH   2   3
ENDBRANCH   1   2
BRANCH   1  70
ATOM     70  C   UNL     1       4.005   0.910   4.082  1.00  0.00     0.274 C 
BRANCH  70  71
ATOM     71  O   UNL     1       3.474   1.699   3.013  1.00  0.00    -0.462 OA
BRANCH  71  72
ATOM     72  C   UNL     1       4.379   2.154   2.103  1.00  0.00     0.309 C 
ATOM     73  O   UNL     1       5.596   2.049   2.183  1.00  0.00    -0.252 OA
BRANCH  72  74
ATOM     74  C   UNL     1       3.732   2.671   0.878  1.00  0.00     0.107 C 
ATOM     75  C   UNL     1       2.408   3.376   0.909  1.00  0.00     0.025 C 
ATOM     76  C   UNL     1       3.646   4.144   0.543  1.00  0.00     0.034 C 
BRANCH  76  77
ATOM     77  C   UNL     1       4.039   5.274   1.451  1.00  0.00    -0.044 A 
ATOM     78  C   UNL     1       3.131   6.303   1.746  1.00  0.00     0.004 A 
ATOM     79  C   UNL     1       5.329   5.390   1.970  1.00  0.00     0.004 A 
ATOM     80  C   UNL     1       3.510   7.411   2.507  1.00  0.00     0.004 A 
ATOM     81  C   UNL     1       5.703   6.495   2.742  1.00  0.00     0.004 A 
ATOM     82  C   UNL     1       4.812   7.545   3.010  1.00  0.00    -0.045 A 
BRANCH  82  83
ATOM     83  C   UNL     1       5.193   8.796   3.768  1.00  0.00     0.019 C 
ATOM     84  C   UNL     1       6.599   9.118   4.208  1.00  0.00     0.009 C 
ATOM     85  C   UNL     1       6.009   9.838   3.033  1.00  0.00     0.009 C 
ENDBRANCH  82  83
ENDBRANCH  76  77
ENDBRANCH  72  74
ENDBRANCH  71  72
ENDBRANCH  70  71
ENDBRANCH   1  70
TORSDOF 16
