REMARK SMILES Cc1ccc([C@H]2C[C@]2([NH3+])C(=O)OCCOC(=O)c2ccc(-c3c4nc(c(-c5cc(S(=O)(=O)[O-])ccc5F)c5ccc([nH]5)c(-c5cc(S(=O)(=O)[O-])ccc5F)c5nc(c(-c6cc(S(=O)(=O)[O-])ccc6F)c6ccc3[nH]6)C=C5)C=C4)cc2)cc1C
REMARK SMILES IDX 14 1 13 2 12 3 10 4 11 5 8 6 6 7 7 8 5 9 1 10 2 11 3 12
REMARK SMILES IDX 82 13 4 14 81 15 83 16 9 17 15 21 16 22 17 23 18 24 19 25
REMARK SMILES IDX 80 26 20 27 79 28 21 29 22 30 23 31 73 32 24 33 78 34 72 35
REMARK SMILES IDX 74 36 25 37 77 38 71 39 70 40 26 42 58 43 38 44 57 45 39 46
REMARK SMILES IDX 42 47 56 48 75 49 40 50 41 51 55 53 76 54 43 55 27 56 28 57
REMARK SMILES IDX 36 58 29 59 35 60 37 61 34 62 30 63 31 64 32 65 33 66 59 67
REMARK SMILES IDX 60 68 68 69 61 70 67 71 69 72 66 73 62 74 63 75 64 76 65 77
REMARK SMILES IDX 44 78 45 79 53 80 46 81 52 82 54 83 51 84 47 85 48 86 49 87
REMARK SMILES IDX 50 88
REMARK H PARENT 9 18 9 19 9 20 74 41 42 52
REMARK Flexibility Score: inf
ROOT
ATOM      1  C   UNL     1      -3.529   3.298   0.737  1.00  0.00     0.275 C 
ENDROOT
BRANCH   1   2
ATOM      2  C   UNL     1      -4.658   2.535   1.421  1.00  0.00     0.274 C 
BRANCH   2   3
ATOM      3  O   UNL     1      -4.352   1.129   1.452  1.00  0.00    -0.457 OA
BRANCH   3   4
ATOM      4  C   UNL     1      -5.170   0.320   0.722  1.00  0.00     0.368 C 
ATOM      5  O   UNL     1      -6.136   0.672   0.065  1.00  0.00    -0.245 OA
BRANCH   4   6
ATOM      6  C   UNL     1      -4.769  -1.138   0.818  1.00  0.00     0.200 C 
ATOM      7  C   UNL     1      -3.428  -1.542   0.223  1.00  0.00     0.099 C 
ATOM      8  C   UNL     1      -4.716  -1.942  -0.463  1.00  0.00     0.097 C 
BRANCH   7   9
ATOM      9  C   UNL     1      -2.531  -2.656   0.703  1.00  0.00    -0.037 A 
ATOM     10  C   UNL     1       0.183  -5.834   1.913  1.00  0.00     0.044 C 
ATOM     11  C   UNL     1      -0.764  -4.732   1.531  1.00  0.00    -0.048 A 
ATOM     12  C   UNL     1      -0.924  -4.420   0.175  1.00  0.00     0.004 A 
ATOM     13  C   UNL     1      -1.489  -3.998   2.486  1.00  0.00    -0.048 A 
ATOM     14  C   UNL     1      -1.794  -3.405  -0.227  1.00  0.00     0.004 A 
ATOM     15  C   UNL     1      -2.341  -2.960   2.057  1.00  0.00     0.008 A 
ATOM     16  C   UNL     1      -1.395  -4.250   3.964  1.00  0.00     0.044 C 
ENDBRANCH   7   9
BRANCH   6  17
ATOM     17  N   UNL     1      -5.377  -1.823   1.992  1.00  0.00    -0.343 N 
ATOM     18  H   UNL     1      -5.077  -2.797   2.011  1.00  0.00     0.345 HD
ATOM     19  H   UNL     1      -6.394  -1.782   1.921  1.00  0.00     0.345 HD
ATOM     20  H   UNL     1      -5.078  -1.358   2.850  1.00  0.00     0.345 HD
ENDBRANCH   6  17
ENDBRANCH   4   6
ENDBRANCH   3   4
ENDBRANCH   2   3
ENDBRANCH   1   2
BRANCH   1  21
ATOM     21  O   UNL     1      -3.453   2.878  -0.636  1.00  0.00    -0.458 OA
BRANCH  21  22
ATOM     22  C   UNL     1      -2.300   2.275  -1.002  1.00  0.00     0.338 C 
ATOM     23  O   UNL     1      -1.289   2.132  -0.337  1.00  0.00    -0.246 OA
BRANCH  22  24
ATOM     24  C   UNL     1      -2.446   1.771  -2.376  1.00  0.00     0.060 A 
ATOM     25  C   UNL     1      -3.398   0.789  -2.648  1.00  0.00     0.016 A 
ATOM     26  C   UNL     1      -1.575   2.205  -3.372  1.00  0.00     0.016 A 
ATOM     27  C   UNL     1      -3.429   0.174  -3.897  1.00  0.00     0.010 A 
ATOM     28  C   UNL     1      -1.679   1.660  -4.655  1.00  0.00     0.010 A 
ATOM     29  C   UNL     1      -2.587   0.618  -4.925  1.00  0.00    -0.014 A 
BRANCH  29  30
ATOM     30  C   UNL     1      -2.636  -0.004  -6.278  1.00  0.00     0.031 A 
ATOM     31  C   UNL     1      -1.400  -0.639  -6.857  1.00  0.00     0.074 A 
ATOM     32  C   UNL     1      -3.776   0.020  -6.998  1.00  0.00     0.049 A 
ATOM     33  N   UNL     1      -1.163  -1.031  -8.083  1.00  0.00    -0.248 NA
ATOM     34  C   UNL     1      -0.275  -0.845  -5.933  1.00  0.00     0.031 C 
ATOM     35  C   UNL     1      -5.060   0.555  -6.537  1.00  0.00     0.029 A 
ATOM     36  N   UNL     1      -4.039  -0.407  -8.277  1.00  0.00    -0.354 N 
ATOM     37  C   UNL     1       0.153  -1.484  -8.091  1.00  0.00     0.074 A 
ATOM     38  C   UNL     1       0.664  -1.303  -6.748  1.00  0.00     0.031 C 
ATOM     39  C   UNL     1      -5.973   0.407  -7.508  1.00  0.00     0.029 A 
ATOM     40  C   UNL     1      -5.323  -0.140  -8.693  1.00  0.00     0.049 A 
ATOM     41  H   UNL     1      -3.372  -0.861  -8.842  1.00  0.00     0.167 HD
ATOM     42  C   UNL     1       0.864  -2.001  -9.124  1.00  0.00     0.034 A 
ATOM     43  C   UNL     1      -5.901  -0.263  -9.905  1.00  0.00     0.034 A 
ATOM     44  C   UNL     1       0.325  -2.199 -10.449  1.00  0.00     0.049 A 
ATOM     45  C   UNL     1      -5.072  -0.769 -11.056  1.00  0.00     0.074 A 
ATOM     46  C   UNL     1       0.949  -2.730 -11.565  1.00  0.00     0.029 A 
ATOM     47  N   UNL     1      -0.969  -1.876 -10.838  1.00  0.00    -0.354 N 
ATOM     48  N   UNL     1      -3.813  -1.143 -11.065  1.00  0.00    -0.248 NA
ATOM     49  C   UNL     1      -5.737  -0.856 -12.362  1.00  0.00     0.031 C 
ATOM     50  C   UNL     1       0.056  -2.669 -12.641  1.00  0.00     0.029 A 
ATOM     51  C   UNL     1      -1.152  -2.169 -12.182  1.00  0.00     0.049 A 
ATOM     52  H   UNL     1      -1.657  -1.495 -10.246  1.00  0.00     0.167 HD
ATOM     53  C   UNL     1      -3.542  -1.524 -12.375  1.00  0.00     0.074 A 
ATOM     54  C   UNL     1      -4.772  -1.354 -13.121  1.00  0.00     0.031 C 
ATOM     55  C   UNL     1      -2.381  -1.976 -12.915  1.00  0.00     0.034 A 
BRANCH  42  56
ATOM     56  C   UNL     1       2.319  -2.325  -8.875  1.00  0.00     0.023 A 
ATOM     57  C   UNL     1       2.718  -3.324  -7.971  1.00  0.00     0.031 A 
ATOM     58  C   UNL     1       3.325  -1.597  -9.536  1.00  0.00     0.131 A 
ATOM     59  C   UNL     1       4.082  -3.518  -7.699  1.00  0.00     0.055 A 
ATOM     60  C   UNL     1       4.681  -1.848  -9.319  1.00  0.00     0.041 A 
ATOM     61  F   UNL     1       3.006  -0.616 -10.395  1.00  0.00    -0.206 F 
ATOM     62  C   UNL     1       5.067  -2.803  -8.385  1.00  0.00     0.022 A 
BRANCH  59  63
ATOM     63  S   UNL     1       4.546  -4.619  -6.334  1.00  0.00     0.124 S 
ATOM     64  O   UNL     1       3.856  -3.998  -5.205  1.00  0.00    -0.237 OA
ATOM     65  O   UNL     1       4.022  -5.906  -6.774  1.00  0.00    -0.237 OA
ATOM     66  O   UNL     1       6.004  -4.519  -6.293  1.00  0.00    -0.744 OA
ENDBRANCH  59  63
ENDBRANCH  42  56
BRANCH  43  67
ATOM     67  C   UNL     1      -7.312   0.172 -10.114  1.00  0.00     0.023 A 
ATOM     68  C   UNL     1      -8.306  -0.745 -10.486  1.00  0.00     0.031 A 
ATOM     69  C   UNL     1      -7.679   1.524  -9.979  1.00  0.00     0.131 A 
ATOM     70  C   UNL     1      -9.611  -0.295 -10.746  1.00  0.00     0.055 A 
ATOM     71  C   UNL     1      -8.990   1.958 -10.183  1.00  0.00     0.041 A 
ATOM     72  F   UNL     1      -6.767   2.444  -9.628  1.00  0.00    -0.206 F 
ATOM     73  C   UNL     1      -9.962   1.047 -10.581  1.00  0.00     0.022 A 
BRANCH  70  74
ATOM     74  S   UNL     1     -10.828  -1.479 -11.382  1.00  0.00     0.124 S 
ATOM     75  O   UNL     1     -10.180  -1.943 -12.604  1.00  0.00    -0.237 OA
ATOM     76  O   UNL     1     -10.909  -2.446 -10.293  1.00  0.00    -0.237 OA
ATOM     77  O   UNL     1     -12.024  -0.664 -11.580  1.00  0.00    -0.744 OA
ENDBRANCH  70  74
ENDBRANCH  43  67
BRANCH  55  78
ATOM     78  C   UNL     1      -2.411  -2.352 -14.375  1.00  0.00     0.023 A 
ATOM     79  C   UNL     1      -2.565  -1.385 -15.383  1.00  0.00     0.031 A 
ATOM     80  C   UNL     1      -2.302  -3.700 -14.759  1.00  0.00     0.131 A 
ATOM     81  C   UNL     1      -2.658  -1.785 -16.725  1.00  0.00     0.055 A 
ATOM     82  C   UNL     1      -2.338  -4.087 -16.099  1.00  0.00     0.041 A 
ATOM     83  F   UNL     1      -2.156  -4.664 -13.835  1.00  0.00    -0.206 F 
ATOM     84  C   UNL     1      -2.530  -3.128 -17.090  1.00  0.00     0.022 A 
BRANCH  81  85
ATOM     85  S   UNL     1      -3.032  -0.535 -17.984  1.00  0.00     0.124 S 
ATOM     86  O   UNL     1      -4.325  -0.028 -17.534  1.00  0.00    -0.237 OA
ATOM     87  O   UNL     1      -1.907   0.386 -17.856  1.00  0.00    -0.237 OA
ATOM     88  O   UNL     1      -3.066  -1.300 -19.229  1.00  0.00    -0.744 OA
ENDBRANCH  81  85
ENDBRANCH  55  78
ENDBRANCH  29  30
ENDBRANCH  22  24
ENDBRANCH  21  22
ENDBRANCH   1  21
TORSDOF 16
