REMARK SMILES Cc1cccc(C[N@H+]2CC[C@@](C)(C(=O)OCCOC(=O)c3ccc(-c4c5nc(c(-c6cc(S(=O)(=O)[O-])ccc6F)c6ccc([nH]6)c(-c6cc(S(=O)(=O)[O-])ccc6F)c6nc(c(-c7cc(S(=O)(=O)[O-])ccc7F)c7ccc4[nH]7)C=C6)C=C5)cc3)C2)n1
REMARK SMILES IDX 17 1 16 2 15 3 13 4 14 5 11 6 8 7 9 8 84 9 10 11 12 12 7 13
REMARK SMILES IDX 6 14 1 15 2 16 3 17 85 18 4 19 5 20 18 21 19 22 20 23 21 24
REMARK SMILES IDX 22 25 83 26 23 27 82 28 24 29 25 30 26 31 76 32 27 33 81 34
REMARK SMILES IDX 75 35 77 36 28 37 80 38 74 39 73 40 29 42 61 43 41 44 60 45
REMARK SMILES IDX 42 46 45 47 59 48 78 49 43 50 44 51 58 53 79 54 46 55 30 56
REMARK SMILES IDX 31 57 39 58 32 59 38 60 40 61 37 62 33 63 34 64 35 65 36 66
REMARK SMILES IDX 62 67 63 68 71 69 64 70 70 71 72 72 69 73 65 74 66 75 67 76
REMARK SMILES IDX 68 77 47 78 48 79 56 80 49 81 55 82 57 83 54 84 50 85 51 86
REMARK SMILES IDX 52 87 53 88
REMARK H PARENT 8 10 77 41 45 52
REMARK Flexibility Score: inf
ROOT
ATOM      1  C   UNL     1       3.777   0.362   2.259  1.00  0.00     0.275 C 
ENDROOT
BRANCH   1   2
ATOM      2  C   UNL     1       2.327   0.170   2.691  1.00  0.00     0.274 C 
BRANCH   2   3
ATOM      3  O   UNL     1       1.518   1.285   2.263  1.00  0.00    -0.461 OA
BRANCH   3   4
ATOM      4  C   UNL     1       1.058   2.125   3.224  1.00  0.00     0.317 C 
ATOM      5  O   UNL     1       1.319   1.996   4.418  1.00  0.00    -0.251 OA
BRANCH   4   6
ATOM      6  C   UNL     1       0.134   3.237   2.704  1.00  0.00     0.119 C 
ATOM      7  N   UNL     1      -1.551   2.891   1.035  1.00  0.00    -0.329 N 
ATOM      8  C   UNL     1      -1.970   2.197   2.244  1.00  0.00     0.263 C 
ATOM      9  C   UNL     1      -0.126   3.225   1.187  1.00  0.00     0.281 C 
ATOM     10  H   UNL     1      -2.102   3.745   0.947  1.00  0.00     0.348 HD
ATOM     11  C   UNL     1      -1.256   2.997   3.317  1.00  0.00     0.086 C 
ATOM     12  C   UNL     1       0.689   4.599   3.132  1.00  0.00     0.030 C 
BRANCH   7  13
ATOM     13  C   UNL     1      -1.882   2.221  -0.230  1.00  0.00     0.319 C 
BRANCH  13  14
ATOM     14  C   UNL     1      -1.296   0.833  -0.429  1.00  0.00     0.095 A 
ATOM     15  C   UNL     1       2.042  -0.455  -1.274  1.00  0.00     0.067 C 
ATOM     16  C   UNL     1       0.598  -0.446  -0.880  1.00  0.00     0.038 A 
ATOM     17  C   UNL     1      -0.072  -1.620  -0.565  1.00  0.00     0.023 A 
ATOM     18  N   UNL     1      -0.009   0.759  -0.851  1.00  0.00    -0.252 NA
ATOM     19  C   UNL     1      -1.406  -1.545  -0.174  1.00  0.00     0.004 A 
ATOM     20  C   UNL     1      -2.028  -0.303  -0.097  1.00  0.00     0.030 A 
ENDBRANCH  13  14
ENDBRANCH   7  13
ENDBRANCH   4   6
ENDBRANCH   3   4
ENDBRANCH   2   3
ENDBRANCH   1   2
BRANCH   1  21
ATOM     21  O   UNL     1       4.294   1.535   2.902  1.00  0.00    -0.458 OA
BRANCH  21  22
ATOM     22  C   UNL     1       4.786   2.494   2.087  1.00  0.00     0.338 C 
ATOM     23  O   UNL     1       4.977   2.417   0.882  1.00  0.00    -0.246 OA
BRANCH  22  24
ATOM     24  C   UNL     1       5.068   3.696   2.890  1.00  0.00     0.060 A 
ATOM     25  C   UNL     1       4.097   4.191   3.759  1.00  0.00     0.016 A 
ATOM     26  C   UNL     1       6.271   4.377   2.725  1.00  0.00     0.016 A 
ATOM     27  C   UNL     1       4.286   5.411   4.402  1.00  0.00     0.010 A 
ATOM     28  C   UNL     1       6.506   5.544   3.461  1.00  0.00     0.010 A 
ATOM     29  C   UNL     1       5.506   6.089   4.289  1.00  0.00    -0.014 A 
BRANCH  29  30
ATOM     30  C   UNL     1       5.732   7.372   5.013  1.00  0.00     0.031 A 
ATOM     31  C   UNL     1       6.107   8.610   4.242  1.00  0.00     0.074 A 
ATOM     32  C   UNL     1       5.605   7.430   6.355  1.00  0.00     0.049 A 
ATOM     33  N   UNL     1       6.577   9.749   4.679  1.00  0.00    -0.248 NA
ATOM     34  C   UNL     1       5.949   8.546   2.781  1.00  0.00     0.031 C 
ATOM     35  C   UNL     1       5.190   6.321   7.218  1.00  0.00     0.029 A 
ATOM     36  N   UNL     1       5.808   8.467   7.232  1.00  0.00    -0.354 N 
ATOM     37  C   UNL     1       6.832  10.516   3.546  1.00  0.00     0.074 A 
ATOM     38  C   UNL     1       6.465   9.707   2.402  1.00  0.00     0.031 C 
ATOM     39  C   UNL     1       5.130   6.747   8.489  1.00  0.00     0.029 A 
ATOM     40  C   UNL     1       5.604   8.124   8.549  1.00  0.00     0.049 A 
ATOM     41  H   UNL     1       6.074   9.371   6.946  1.00  0.00     0.167 HD
ATOM     42  C   UNL     1       7.334  11.774   3.472  1.00  0.00     0.034 A 
ATOM     43  C   UNL     1       5.824   8.816   9.684  1.00  0.00     0.034 A 
ATOM     44  C   UNL     1       7.650  12.577   4.630  1.00  0.00     0.049 A 
ATOM     45  C   UNL     1       6.408  10.200   9.579  1.00  0.00     0.074 A 
ATOM     46  C   UNL     1       8.180  13.855   4.680  1.00  0.00     0.029 A 
ATOM     47  N   UNL     1       7.446  12.183   5.947  1.00  0.00    -0.354 N 
ATOM     48  N   UNL     1       6.743  10.875   8.503  1.00  0.00    -0.248 NA
ATOM     49  C   UNL     1       6.660  10.909  10.840  1.00  0.00     0.031 C 
ATOM     50  C   UNL     1       8.336  14.216   6.024  1.00  0.00     0.029 A 
ATOM     51  C   UNL     1       7.847  13.188   6.814  1.00  0.00     0.049 A 
ATOM     52  H   UNL     1       7.071  11.316   6.225  1.00  0.00     0.167 HD
ATOM     53  C   UNL     1       7.237  12.092   8.960  1.00  0.00     0.074 A 
ATOM     54  C   UNL     1       7.131  12.068  10.405  1.00  0.00     0.031 C 
ATOM     55  C   UNL     1       7.741  13.135   8.252  1.00  0.00     0.034 A 
BRANCH  42  56
ATOM     56  C   UNL     1       7.632  12.326   2.099  1.00  0.00     0.023 A 
ATOM     57  C   UNL     1       6.619  12.598   1.164  1.00  0.00     0.031 A 
ATOM     58  C   UNL     1       8.965  12.554   1.709  1.00  0.00     0.131 A 
ATOM     59  C   UNL     1       6.958  13.020  -0.133  1.00  0.00     0.055 A 
ATOM     60  C   UNL     1       9.291  13.044   0.443  1.00  0.00     0.041 A 
ATOM     61  F   UNL     1       9.977  12.292   2.552  1.00  0.00    -0.206 F 
ATOM     62  C   UNL     1       8.286  13.267  -0.491  1.00  0.00     0.022 A 
BRANCH  59  63
ATOM     63  S   UNL     1       5.650  13.121  -1.385  1.00  0.00     0.124 S 
ATOM     64  O   UNL     1       5.185  11.737  -1.438  1.00  0.00    -0.237 OA
ATOM     65  O   UNL     1       4.725  14.084  -0.799  1.00  0.00    -0.237 OA
ATOM     66  O   UNL     1       6.354  13.581  -2.581  1.00  0.00    -0.744 OA
ENDBRANCH  59  63
ENDBRANCH  42  56
BRANCH  43  67
ATOM     67  C   UNL     1       5.571   8.192  11.016  1.00  0.00     0.023 A 
ATOM     68  C   UNL     1       4.612   8.720  11.894  1.00  0.00     0.031 A 
ATOM     69  C   UNL     1       6.314   7.077  11.446  1.00  0.00     0.131 A 
ATOM     70  C   UNL     1       4.445   8.157  13.169  1.00  0.00     0.055 A 
ATOM     71  C   UNL     1       6.105   6.485  12.692  1.00  0.00     0.041 A 
ATOM     72  F   UNL     1       7.248   6.534  10.649  1.00  0.00    -0.206 F 
ATOM     73  C   UNL     1       5.174   7.033  13.568  1.00  0.00     0.022 A 
BRANCH  70  74
ATOM     74  S   UNL     1       3.323   8.969  14.340  1.00  0.00     0.124 S 
ATOM     75  O   UNL     1       3.868  10.321  14.388  1.00  0.00    -0.237 OA
ATOM     76  O   UNL     1       2.033   8.821  13.674  1.00  0.00    -0.237 OA
ATOM     77  O   UNL     1       3.484   8.188  15.564  1.00  0.00    -0.744 OA
ENDBRANCH  70  74
ENDBRANCH  43  67
BRANCH  55  78
ATOM     78  C   UNL     1       8.170  14.340   9.047  1.00  0.00     0.023 A 
ATOM     79  C   UNL     1       9.301  14.306   9.881  1.00  0.00     0.031 A 
ATOM     80  C   UNL     1       7.414  15.524   8.996  1.00  0.00     0.131 A 
ATOM     81  C   UNL     1       9.613  15.418  10.676  1.00  0.00     0.055 A 
ATOM     82  C   UNL     1       7.759  16.645   9.751  1.00  0.00     0.041 A 
ATOM     83  F   UNL     1       6.324  15.605   8.216  1.00  0.00    -0.206 F 
ATOM     84  C   UNL     1       8.856  16.591  10.607  1.00  0.00     0.022 A 
BRANCH  81  85
ATOM     85  S   UNL     1      10.970  15.281  11.871  1.00  0.00     0.124 S 
ATOM     86  O   UNL     1      10.529  14.169  12.707  1.00  0.00    -0.237 OA
ATOM     87  O   UNL     1      12.118  15.015  11.010  1.00  0.00    -0.237 OA
ATOM     88  O   UNL     1      10.981  16.586  12.530  1.00  0.00    -0.744 OA
ENDBRANCH  81  85
ENDBRANCH  55  78
ENDBRANCH  29  30
ENDBRANCH  22  24
ENDBRANCH  21  22
ENDBRANCH   1  21
TORSDOF 16
