REMARK SMILES Cc1ccc(C)c(/C=C2\SC(=S)N(CC(=O)OCCOC(=O)c3ccc(-c4c5nc(c(-c6cc(S(=O)(=O)[O-])ccc6F)c6ccc([nH]6)c(-c6cc(S(=O)(=O)[O-])ccc6F)c6nc(c(-c7cc(S(=O)(=O)[O-])ccc7F)c7ccc4[nH]7)C=C6)C=C5)cc3)C2=O)c1
REMARK SMILES IDX 19 1 18 2 17 3 15 4 16 5 14 6 13 7 8 8 9 9 10 10 86 11 11 12
REMARK SMILES IDX 87 13 12 14 7 15 1 16 2 17 3 18 88 19 4 20 5 21 6 22 20 23
REMARK SMILES IDX 21 24 22 25 23 26 24 27 85 28 25 29 84 30 26 31 27 32 28 33
REMARK SMILES IDX 78 34 29 35 83 36 77 37 79 38 30 39 82 40 76 41 75 42 31 44
REMARK SMILES IDX 63 45 43 46 62 47 44 48 47 49 61 50 80 51 45 52 46 53 60 55
REMARK SMILES IDX 81 56 48 57 32 58 33 59 41 60 34 61 40 62 42 63 39 64 35 65
REMARK SMILES IDX 36 66 37 67 38 68 64 69 65 70 73 71 66 72 72 73 74 74 71 75
REMARK SMILES IDX 67 76 68 77 69 78 70 79 49 80 50 81 58 82 51 83 57 84 59 85
REMARK SMILES IDX 56 86 52 87 53 88 54 89 55 90
REMARK H PARENT 79 43 47 54
REMARK Flexibility Score: inf
ROOT
ATOM      1  C   UNL     1      -7.128   4.698  -1.470  1.00  0.00     0.275 C 
ENDROOT
BRANCH   1   2
ATOM      2  C   UNL     1      -7.585   5.571  -2.640  1.00  0.00     0.274 C 
BRANCH   2   3
ATOM      3  O   UNL     1      -6.444   5.820  -3.451  1.00  0.00    -0.461 OA
BRANCH   3   4
ATOM      4  C   UNL     1      -5.507   6.782  -2.946  1.00  0.00     0.326 C 
ATOM      5  O   UNL     1      -6.206   7.618  -2.301  1.00  0.00    -0.250 OA
BRANCH   4   6
ATOM      6  C   UNL     1      -3.356   6.631  -3.256  1.00  0.00     0.250 C 
BRANCH   6   7
ATOM      7  N   UNL     1      -2.136   5.430  -2.846  1.00  0.00    -0.282 N 
ATOM      8  C   UNL     1      -1.244   2.831  -0.466  1.00  0.00     0.029 C 
ATOM      9  C   UNL     1      -1.159   3.692  -1.505  1.00  0.00     0.081 C 
ATOM     10  S   UNL     1      -0.422   3.455  -3.030  1.00  0.00    -0.054 SA
ATOM     11  C   UNL     1      -1.785   5.062  -1.540  1.00  0.00     0.266 C 
ATOM     12  C   UNL     1      -1.207   4.902  -3.724  1.00  0.00     0.148 C 
ATOM     13  O   UNL     1      -1.859   5.751  -0.533  1.00  0.00    -0.268 OA
ATOM     14  S   UNL     1      -0.760   5.453  -5.231  1.00  0.00    -0.052 S 
BRANCH   8  15
ATOM     15  C   UNL     1      -0.646   1.468  -0.316  1.00  0.00    -0.021 A 
ATOM     16  C   UNL     1       2.907   0.031   0.003  1.00  0.00     0.044 C 
ATOM     17  C   UNL     1       1.411   0.125  -0.071  1.00  0.00    -0.051 A 
ATOM     18  C   UNL     1       0.652  -1.041   0.006  1.00  0.00     0.004 A 
ATOM     19  C   UNL     1       0.758   1.364  -0.234  1.00  0.00     0.011 A 
ATOM     20  C   UNL     1      -0.736  -0.963  -0.029  1.00  0.00     0.004 A 
ATOM     21  C   UNL     1      -1.400   0.280  -0.161  1.00  0.00    -0.044 A 
ATOM     22  C   UNL     1      -2.903   0.218  -0.122  1.00  0.00     0.045 C 
ENDBRANCH   8  15
ENDBRANCH   6   7
ENDBRANCH   4   6
ENDBRANCH   3   4
ENDBRANCH   2   3
ENDBRANCH   1   2
BRANCH   1  23
ATOM     23  O   UNL     1      -6.394   5.357  -0.387  1.00  0.00    -0.458 OA
BRANCH  23  24
ATOM     24  C   UNL     1      -5.056   5.594  -0.252  1.00  0.00     0.338 C 
ATOM     25  O   UNL     1      -4.507   5.644   0.837  1.00  0.00    -0.246 OA
BRANCH  24  26
ATOM     26  C   UNL     1      -4.333   6.013  -1.478  1.00  0.00     0.060 A 
ATOM     27  C   UNL     1      -4.150   7.801  -1.712  1.00  0.00     0.016 A 
ATOM     28  C   UNL     1      -4.483   4.928  -2.914  1.00  0.00     0.016 A 
ATOM     29  C   UNL     1      -4.404   8.501  -3.384  1.00  0.00     0.010 A 
ATOM     30  C   UNL     1      -4.664   5.639  -4.563  1.00  0.00     0.010 A 
ATOM     31  C   UNL     1      -4.817   7.426  -4.766  1.00  0.00    -0.014 A 
BRANCH  31  32
ATOM     32  C   UNL     1      -5.707   7.828  -5.963  1.00  0.00     0.031 A 
ATOM     33  C   UNL     1      -4.768   7.871  -7.100  1.00  0.00     0.074 A 
ATOM     34  C   UNL     1      -7.076   7.952  -6.191  1.00  0.00     0.049 A 
ATOM     35  N   UNL     1      -4.141   8.931  -7.496  1.00  0.00    -0.248 NA
ATOM     36  C   UNL     1      -4.170   6.614  -7.584  1.00  0.00     0.031 C 
ATOM     37  C   UNL     1      -8.214   7.866  -5.255  1.00  0.00     0.029 A 
ATOM     38  N   UNL     1      -7.795   8.168  -7.393  1.00  0.00    -0.354 N 
ATOM     39  C   UNL     1      -3.333   8.471  -8.520  1.00  0.00     0.074 A 
ATOM     40  C   UNL     1      -3.111   7.083  -8.247  1.00  0.00     0.031 C 
ATOM     41  C   UNL     1      -9.415   7.798  -5.907  1.00  0.00     0.029 A 
ATOM     42  C   UNL     1      -9.225   7.954  -7.346  1.00  0.00     0.049 A 
ATOM     43  H   UNL     1      -7.343   8.450  -8.220  1.00  0.00     0.167 HD
ATOM     44  C   UNL     1      -3.314   9.120  -9.713  1.00  0.00     0.034 A 
ATOM     45  C   UNL     1     -10.214   8.080  -8.332  1.00  0.00     0.034 A 
ATOM     46  C   UNL     1      -3.890  10.442  -9.581  1.00  0.00     0.049 A 
ATOM     47  C   UNL     1      -9.651   8.982  -9.353  1.00  0.00     0.074 A 
ATOM     48  C   UNL     1      -3.623  11.556  -8.811  1.00  0.00     0.029 A 
ATOM     49  N   UNL     1      -5.184  10.585 -10.021  1.00  0.00    -0.354 N 
ATOM     50  N   UNL     1      -9.425  10.242  -9.128  1.00  0.00    -0.248 NA
ATOM     51  C   UNL     1      -8.857   8.366 -10.397  1.00  0.00     0.031 C 
ATOM     52  C   UNL     1      -4.898  12.104  -8.482  1.00  0.00     0.029 A 
ATOM     53  C   UNL     1      -5.885  11.388  -9.159  1.00  0.00     0.049 A 
ATOM     54  H   UNL     1      -5.552  10.172 -10.835  1.00  0.00     0.167 HD
ATOM     55  C   UNL     1      -8.146  10.440  -9.612  1.00  0.00     0.074 A 
ATOM     56  C   UNL     1      -7.872   9.266 -10.448  1.00  0.00     0.031 C 
ATOM     57  C   UNL     1      -7.331  11.368  -9.033  1.00  0.00     0.034 A 
BRANCH  44  58
ATOM     58  C   UNL     1      -3.230   8.406 -11.047  1.00  0.00     0.023 A 
ATOM     59  C   UNL     1      -3.081   9.216 -12.183  1.00  0.00     0.031 A 
ATOM     60  C   UNL     1      -3.554   7.048 -11.299  1.00  0.00     0.131 A 
ATOM     61  C   UNL     1      -3.314   8.699 -13.468  1.00  0.00     0.055 A 
ATOM     62  C   UNL     1      -3.713   6.524 -12.582  1.00  0.00     0.041 A 
ATOM     63  F   UNL     1      -3.837   6.166 -10.336  1.00  0.00    -0.206 F 
ATOM     64  C   UNL     1      -3.619   7.357 -13.678  1.00  0.00     0.022 A 
BRANCH  61  65
ATOM     65  S   UNL     1      -3.377   9.860 -14.852  1.00  0.00     0.124 S 
ATOM     66  O   UNL     1      -4.414  10.785 -14.409  1.00  0.00    -0.237 OA
ATOM     67  O   UNL     1      -2.013  10.376 -14.870  1.00  0.00    -0.237 OA
ATOM     68  O   UNL     1      -3.739   9.012 -15.985  1.00  0.00    -0.744 OA
ENDBRANCH  61  65
ENDBRANCH  44  58
BRANCH  45  69
ATOM     69  C   UNL     1     -11.450   7.227  -8.730  1.00  0.00     0.023 A 
ATOM     70  C   UNL     1     -12.522   7.585  -9.644  1.00  0.00     0.031 A 
ATOM     71  C   UNL     1     -11.385   5.856  -8.424  1.00  0.00     0.131 A 
ATOM     72  C   UNL     1     -13.434   6.594 -10.163  1.00  0.00     0.055 A 
ATOM     73  C   UNL     1     -12.262   4.894  -8.958  1.00  0.00     0.041 A 
ATOM     74  F   UNL     1     -10.395   5.382  -7.656  1.00  0.00    -0.206 F 
ATOM     75  C   UNL     1     -13.281   5.252  -9.827  1.00  0.00     0.022 A 
BRANCH  72  76
ATOM     76  S   UNL     1     -14.852   6.961 -11.314  1.00  0.00     0.124 S 
ATOM     77  O   UNL     1     -15.648   7.919 -10.557  1.00  0.00    -0.237 OA
ATOM     78  O   UNL     1     -14.183   7.467 -12.506  1.00  0.00    -0.237 OA
ATOM     79  O   UNL     1     -15.499   5.658 -11.497  1.00  0.00    -0.744 OA
ENDBRANCH  72  76
ENDBRANCH  45  69
BRANCH  57  80
ATOM     80  C   UNL     1      -7.967  12.383  -8.094  1.00  0.00     0.023 A 
ATOM     81  C   UNL     1      -8.627  12.094  -6.873  1.00  0.00     0.031 A 
ATOM     82  C   UNL     1      -7.802  13.735  -8.437  1.00  0.00     0.131 A 
ATOM     83  C   UNL     1      -9.088  13.150  -6.054  1.00  0.00     0.055 A 
ATOM     84  C   UNL     1      -8.227  14.772  -7.610  1.00  0.00     0.041 A 
ATOM     85  F   UNL     1      -7.184  14.073  -9.581  1.00  0.00    -0.206 F 
ATOM     86  C   UNL     1      -8.874  14.485  -6.415  1.00  0.00     0.022 A 
BRANCH  83  87
ATOM     87  S   UNL     1     -10.000  12.814  -4.508  1.00  0.00     0.124 S 
ATOM     88  O   UNL     1     -11.081  11.936  -4.942  1.00  0.00    -0.237 OA
ATOM     89  O   UNL     1      -8.979  12.201  -3.663  1.00  0.00    -0.237 OA
ATOM     90  O   UNL     1     -10.433  14.143  -4.069  1.00  0.00    -0.744 OA
ENDBRANCH  83  87
ENDBRANCH  57  80
ENDBRANCH  31  32
ENDBRANCH  24  26
ENDBRANCH  23  24
ENDBRANCH   1  23
TORSDOF 16
