REMARK SMILES O=C(NC[C@@H]1CC[C@H](C(=O)OCCOC(=O)c2ccc(-c3c4nc(c(-c5cc(S(=O)(=O)[O-])ccc5F)c5ccc([nH]5)c(-c5cc(S(=O)(=O)[O-])ccc5F)c5nc(c(-c6cc(S(=O)(=O)[O-])ccc6F)c6ccc3[nH]6)C=C5)C=C4)cc2)O1)Nc1ncccn1
REMARK SMILES IDX 12 1 11 2 9 3 10 4 8 5 5 6 6 7 80 8 7 9 4 10 3 11 1 12 2 13
REMARK SMILES IDX 81 14 82 17 83 18 87 19 84 20 86 21 85 22 13 23 14 24 15 25
REMARK SMILES IDX 16 26 17 27 18 28 79 29 19 30 78 31 20 32 21 33 22 34 72 35
REMARK SMILES IDX 23 36 77 37 71 38 73 39 24 40 76 41 70 42 69 43 25 45 57 46
REMARK SMILES IDX 37 47 56 48 38 49 41 50 55 51 74 52 39 53 40 54 54 56 75 57
REMARK SMILES IDX 42 58 26 59 27 60 35 61 28 62 34 63 36 64 33 65 29 66 30 67
REMARK SMILES IDX 31 68 32 69 58 70 59 71 67 72 60 73 66 74 68 75 65 76 61 77
REMARK SMILES IDX 62 78 63 79 64 80 43 81 44 82 52 83 45 84 51 85 53 86 50 87
REMARK SMILES IDX 46 88 47 89 48 90 49 91
REMARK H PARENT 3 15 81 16 73 44 41 55
REMARK Flexibility Score: inf
ROOT
ATOM      1  C   UNL     1       6.149   2.578  -2.316  1.00  0.00     0.274 C 
ENDROOT
BRANCH   1   2
ATOM      2  O   UNL     1       5.787   2.571  -0.922  1.00  0.00    -0.460 OA
BRANCH   2   3
ATOM      3  C   UNL     1       6.721   2.103  -0.050  1.00  0.00     0.335 C 
ATOM      4  O   UNL     1       7.802   1.632  -0.386  1.00  0.00    -0.249 OA
BRANCH   3   5
ATOM      5  C   UNL     1       6.261   2.182   1.417  1.00  0.00     0.228 C 
ATOM      6  C   UNL     1       4.466   0.815   2.017  1.00  0.00     0.138 C 
ATOM      7  C   UNL     1       3.908   2.145   1.529  1.00  0.00     0.037 C 
ATOM      8  O   UNL     1       5.897   0.882   1.902  1.00  0.00    -0.361 OA
ATOM      9  C   UNL     1       5.075   3.084   1.702  1.00  0.00     0.047 C 
BRANCH   6  10
ATOM     10  C   UNL     1       3.984  -0.403   1.224  1.00  0.00     0.149 C 
BRANCH  10  11
ATOM     11  N   UNL     1       2.540  -0.446   1.084  1.00  0.00    -0.335 N 
ATOM     12  O   UNL     1       0.570  -0.144   0.117  1.00  0.00    -0.248 OA
ATOM     13  C   UNL     1       1.774  -0.323  -0.039  1.00  0.00     0.321 C 
ATOM     14  N   UNL     1       2.429  -0.446  -1.220  1.00  0.00    -0.276 N 
ATOM     15  H   UNL     1       2.040  -0.584   1.921  1.00  0.00     0.165 HD
ATOM     16  H   UNL     1       3.367  -0.743  -1.181  1.00  0.00     0.175 HD
BRANCH  14  17
ATOM     17  C   UNL     1       1.901  -0.194  -2.474  1.00  0.00     0.230 A 
ATOM     18  N   UNL     1       2.650  -0.658  -3.490  1.00  0.00    -0.221 NA
ATOM     19  N   UNL     1       0.759   0.483  -2.633  1.00  0.00    -0.221 NA
ATOM     20  C   UNL     1       2.171  -0.458  -4.732  1.00  0.00     0.117 A 
ATOM     21  C   UNL     1       0.333   0.677  -3.892  1.00  0.00     0.117 A 
ATOM     22  C   UNL     1       1.002   0.212  -4.996  1.00  0.00     0.040 A 
ENDBRANCH  14  17
ENDBRANCH  10  11
ENDBRANCH   6  10
ENDBRANCH   3   5
ENDBRANCH   2   3
ENDBRANCH   1   2
BRANCH   1  23
ATOM     23  C   UNL     1       6.474   3.995  -2.798  1.00  0.00     0.275 C 
BRANCH  23  24
ATOM     24  O   UNL     1       7.650   4.519  -2.154  1.00  0.00    -0.458 OA
BRANCH  24  25
ATOM     25  C   UNL     1       7.405   5.257  -1.045  1.00  0.00     0.338 C 
ATOM     26  O   UNL     1       6.316   5.540  -0.575  1.00  0.00    -0.246 OA
BRANCH  25  27
ATOM     27  C   UNL     1       8.668   5.573  -0.366  1.00  0.00     0.060 A 
ATOM     28  C   UNL     1       8.927   4.939   0.850  1.00  0.00     0.016 A 
ATOM     29  C   UNL     1       9.527   6.559  -0.849  1.00  0.00     0.016 A 
ATOM     30  C   UNL     1      10.037   5.298   1.606  1.00  0.00     0.010 A 
ATOM     31  C   UNL     1      10.651   6.914  -0.093  1.00  0.00     0.010 A 
ATOM     32  C   UNL     1      10.901   6.299   1.148  1.00  0.00    -0.014 A 
BRANCH  32  33
ATOM     33  C   UNL     1      12.016   6.747   2.016  1.00  0.00     0.031 A 
ATOM     34  C   UNL     1      11.927   8.077   2.710  1.00  0.00     0.074 A 
ATOM     35  C   UNL     1      13.076   5.943   2.220  1.00  0.00     0.049 A 
ATOM     36  N   UNL     1      12.818   8.693   3.442  1.00  0.00    -0.248 NA
ATOM     37  C   UNL     1      10.663   8.812   2.552  1.00  0.00     0.031 C 
ATOM     38  C   UNL     1      13.238   4.603   1.653  1.00  0.00     0.029 A 
ATOM     39  N   UNL     1      14.213   6.131   2.963  1.00  0.00    -0.354 N 
ATOM     40  C   UNL     1      12.234   9.899   3.816  1.00  0.00     0.074 A 
ATOM     41  C   UNL     1      10.920   9.933   3.208  1.00  0.00     0.031 C 
ATOM     42  C   UNL     1      14.405   4.089   2.074  1.00  0.00     0.029 A 
ATOM     43  C   UNL     1      15.096   5.080   2.893  1.00  0.00     0.049 A 
ATOM     44  H   UNL     1      14.380   6.942   3.496  1.00  0.00     0.167 HD
ATOM     45  C   UNL     1      12.749  10.883   4.596  1.00  0.00     0.034 A 
ATOM     46  C   UNL     1      16.336   4.947   3.404  1.00  0.00     0.034 A 
ATOM     47  C   UNL     1      14.061  10.826   5.195  1.00  0.00     0.049 A 
ATOM     48  C   UNL     1      16.914   6.080   4.210  1.00  0.00     0.074 A 
ATOM     49  C   UNL     1      14.692  11.770   5.988  1.00  0.00     0.029 A 
ATOM     50  N   UNL     1      14.947   9.763   5.067  1.00  0.00    -0.354 N 
ATOM     51  N   UNL     1      16.373   7.238   4.515  1.00  0.00    -0.248 NA
ATOM     52  C   UNL     1      18.270   5.890   4.739  1.00  0.00     0.031 C 
ATOM     53  C   UNL     1      15.976  11.301   6.293  1.00  0.00     0.029 A 
ATOM     54  C   UNL     1      16.125  10.036   5.747  1.00  0.00     0.049 A 
ATOM     55  H   UNL     1      14.765   8.935   4.566  1.00  0.00     0.167 HD
ATOM     56  C   UNL     1      17.317   7.905   5.290  1.00  0.00     0.074 A 
ATOM     57  C   UNL     1      18.453   7.014   5.417  1.00  0.00     0.031 C 
ATOM     58  C   UNL     1      17.252   9.140   5.848  1.00  0.00     0.034 A 
BRANCH  45  59
ATOM     59  C   UNL     1      11.909  12.123   4.781  1.00  0.00     0.023 A 
ATOM     60  C   UNL     1      10.679  12.094   5.461  1.00  0.00     0.031 A 
ATOM     61  C   UNL     1      12.324  13.346   4.223  1.00  0.00     0.131 A 
ATOM     62  C   UNL     1       9.874  13.243   5.501  1.00  0.00     0.055 A 
ATOM     63  C   UNL     1      11.554  14.505   4.332  1.00  0.00     0.041 A 
ATOM     64  F   UNL     1      13.478  13.429   3.542  1.00  0.00    -0.206 F 
ATOM     65  C   UNL     1      10.313  14.454   4.960  1.00  0.00     0.022 A 
BRANCH  62  66
ATOM     66  S   UNL     1       8.182  13.097   6.140  1.00  0.00     0.124 S 
ATOM     67  O   UNL     1       7.617  12.085   5.251  1.00  0.00    -0.237 OA
ATOM     68  O   UNL     1       8.402  12.685   7.521  1.00  0.00    -0.237 OA
ATOM     69  O   UNL     1       7.634  14.442   5.969  1.00  0.00    -0.744 OA
ENDBRANCH  62  66
ENDBRANCH  45  59
BRANCH  46  70
ATOM     70  C   UNL     1      17.136   3.721   3.125  1.00  0.00     0.023 A 
ATOM     71  C   UNL     1      17.506   2.844   4.156  1.00  0.00     0.031 A 
ATOM     72  C   UNL     1      17.574   3.432   1.820  1.00  0.00     0.131 A 
ATOM     73  C   UNL     1      18.322   1.737   3.870  1.00  0.00     0.055 A 
ATOM     74  C   UNL     1      18.344   2.304   1.534  1.00  0.00     0.041 A 
ATOM     75  F   UNL     1      17.247   4.240   0.799  1.00  0.00    -0.206 F 
ATOM     76  C   UNL     1      18.732   1.455   2.565  1.00  0.00     0.022 A 
BRANCH  73  77
ATOM     77  S   UNL     1      18.901   0.706   5.245  1.00  0.00     0.124 S 
ATOM     78  O   UNL     1      19.613   1.677   6.067  1.00  0.00    -0.237 OA
ATOM     79  O   UNL     1      17.647   0.198   5.792  1.00  0.00    -0.237 OA
ATOM     80  O   UNL     1      19.742  -0.294   4.590  1.00  0.00    -0.744 OA
ENDBRANCH  73  77
ENDBRANCH  46  70
BRANCH  58  81
ATOM     81  C   UNL     1      18.434   9.569   6.680  1.00  0.00     0.023 A 
ATOM     82  C   UNL     1      19.683   9.849   6.099  1.00  0.00     0.031 A 
ATOM     83  C   UNL     1      18.313   9.672   8.077  1.00  0.00     0.131 A 
ATOM     84  C   UNL     1      20.778  10.165   6.918  1.00  0.00     0.055 A 
ATOM     85  C   UNL     1      19.392  10.037   8.882  1.00  0.00     0.041 A 
ATOM     86  F   UNL     1      17.142   9.414   8.681  1.00  0.00    -0.206 F 
ATOM     87  C   UNL     1      20.637  10.273   8.304  1.00  0.00     0.022 A 
BRANCH  84  88
ATOM     88  S   UNL     1      22.413  10.349   6.154  1.00  0.00     0.124 S 
ATOM     89  O   UNL     1      22.598   9.050   5.515  1.00  0.00    -0.237 OA
ATOM     90  O   UNL     1      22.212  11.480   5.255  1.00  0.00    -0.237 OA
ATOM     91  O   UNL     1      23.295  10.611   7.291  1.00  0.00    -0.744 OA
ENDBRANCH  84  88
ENDBRANCH  58  81
ENDBRANCH  32  33
ENDBRANCH  25  27
ENDBRANCH  24  25
ENDBRANCH  23  24
ENDBRANCH   1  23
TORSDOF 17
