REMARK SMILES CCOC(=O)c1nc(Nc2cccc(C(=O)OCCOC(=O)c3ccc(-c4c5nc(c(-c6cc(S(=O)(=O)[O-])ccc6F)c6ccc([nH]6)c(-c6cc(S(=O)(=O)[O-])ccc6F)c6nc(c(-c7cc(S(=O)(=O)[O-])ccc7F)c7ccc4[nH]7)C=C6)C=C5)cc3)c2)c2ccccc2n1
REMARK SMILES IDX 18 1 17 2 15 3 16 4 14 5 10 6 11 7 86 8 12 9 13 10 9 11 8 13
REMARK SMILES IDX 6 14 7 15 93 16 92 17 87 18 91 19 88 20 90 21 89 22 4 23
REMARK SMILES IDX 5 24 3 25 2 26 1 27 19 28 20 29 21 30 22 31 23 32 24 33
REMARK SMILES IDX 85 34 25 35 84 36 26 37 27 38 28 39 78 40 29 41 83 42 77 43
REMARK SMILES IDX 79 44 30 45 82 46 76 47 75 48 31 50 63 51 43 52 62 53 44 54
REMARK SMILES IDX 47 55 61 56 80 57 45 58 46 59 60 61 81 62 48 63 32 64 33 65
REMARK SMILES IDX 41 66 34 67 40 68 42 69 39 70 35 71 36 72 37 73 38 74 64 75
REMARK SMILES IDX 65 76 73 77 66 78 72 79 74 80 71 81 67 82 68 83 69 84 70 85
REMARK SMILES IDX 49 86 50 87 58 88 51 89 57 90 59 91 56 92 52 93 53 94 54 95
REMARK SMILES IDX 55 96
REMARK H PARENT 9 12 79 49 47 60
REMARK Flexibility Score: inf
ROOT
ATOM      1  C   UNL     1       3.525  -5.866  -0.212  1.00  0.00     0.275 C 
ENDROOT
BRANCH   1   2
ATOM      2  O   UNL     1       4.270  -5.119  -1.194  1.00  0.00    -0.458 OA
BRANCH   2   3
ATOM      3  C   UNL     1       5.184  -4.234  -0.717  1.00  0.00     0.338 C 
ATOM      4  O   UNL     1       5.402  -3.986   0.458  1.00  0.00    -0.246 OA
BRANCH   3   5
ATOM      5  C   UNL     1       5.991  -3.681  -1.833  1.00  0.00     0.062 A 
ATOM      6  C   UNL     1       6.190  -2.913  -4.123  1.00  0.00     0.040 A 
ATOM      7  C   UNL     1       7.560  -2.699  -3.927  1.00  0.00     0.026 A 
ATOM      8  C   UNL     1       5.425  -3.464  -3.087  1.00  0.00     0.041 A 
ATOM      9  C   UNL     1       8.130  -2.906  -2.675  1.00  0.00     0.003 A 
ATOM     10  C   UNL     1       7.330  -3.334  -1.618  1.00  0.00     0.016 A 
BRANCH   6  11
ATOM     11  N   UNL     1       5.572  -2.409  -5.285  1.00  0.00    -0.340 N 
ATOM     12  H   UNL     1       5.959  -2.659  -6.155  1.00  0.00     0.168 HD
BRANCH  11  13
ATOM     13  C   UNL     1       4.434  -1.568  -5.289  1.00  0.00     0.142 A 
ATOM     14  C   UNL     1       2.913  -0.314  -4.112  1.00  0.00     0.241 A 
ATOM     15  N   UNL     1       3.997  -1.099  -4.107  1.00  0.00    -0.204 NA
ATOM     16  N   UNL     1       2.215   0.049  -5.203  1.00  0.00    -0.222 NA
ATOM     17  C   UNL     1       2.674  -0.404  -6.374  1.00  0.00     0.077 A 
ATOM     18  C   UNL     1       3.794  -1.245  -6.493  1.00  0.00     0.043 A 
ATOM     19  C   UNL     1       2.025  -0.009  -7.536  1.00  0.00     0.029 A 
ATOM     20  C   UNL     1       4.209  -1.689  -7.774  1.00  0.00     0.014 A 
ATOM     21  C   UNL     1       2.452  -0.422  -8.802  1.00  0.00     0.002 A 
ATOM     22  C   UNL     1       3.544  -1.269  -8.922  1.00  0.00     0.001 A 
BRANCH  14  23
ATOM     23  C   UNL     1       2.533   0.286  -2.795  1.00  0.00     0.376 C 
ATOM     24  O   UNL     1       3.326   0.779  -2.006  1.00  0.00    -0.242 OA
BRANCH  23  25
ATOM     25  O   UNL     1       1.188   0.182  -2.604  1.00  0.00    -0.460 OA
BRANCH  25  26
ATOM     26  C   UNL     1       0.699   0.761  -1.384  1.00  0.00     0.230 C 
ATOM     27  C   UNL     1       0.981  -0.121  -0.177  1.00  0.00     0.049 C 
ENDBRANCH  25  26
ENDBRANCH  23  25
ENDBRANCH  14  23
ENDBRANCH  11  13
ENDBRANCH   6  11
ENDBRANCH   3   5
ENDBRANCH   2   3
ENDBRANCH   1   2
BRANCH   1  28
ATOM     28  C   UNL     1       4.021  -7.311  -0.129  1.00  0.00     0.275 C 
BRANCH  28  29
ATOM     29  O   UNL     1       5.345  -7.361   0.434  1.00  0.00    -0.458 OA
BRANCH  29  30
ATOM     30  C   UNL     1       6.339  -7.594  -0.454  1.00  0.00     0.338 C 
ATOM     31  O   UNL     1       6.227  -7.830  -1.645  1.00  0.00    -0.246 OA
BRANCH  30  32
ATOM     32  C   UNL     1       7.643  -7.421   0.202  1.00  0.00     0.060 A 
ATOM     33  C   UNL     1       8.138  -6.129   0.309  1.00  0.00     0.016 A 
ATOM     34  C   UNL     1       8.446  -8.502   0.548  1.00  0.00     0.016 A 
ATOM     35  C   UNL     1       9.466  -5.900   0.646  1.00  0.00     0.010 A 
ATOM     36  C   UNL     1       9.752  -8.265   1.005  1.00  0.00     0.010 A 
ATOM     37  C   UNL     1      10.293  -6.963   1.024  1.00  0.00    -0.014 A 
BRANCH  37  38
ATOM     38  C   UNL     1      11.719  -6.710   1.394  1.00  0.00     0.031 A 
ATOM     39  C   UNL     1      12.827  -7.421   0.655  1.00  0.00     0.074 A 
ATOM     40  C   UNL     1      12.034  -5.824   2.364  1.00  0.00     0.049 A 
ATOM     41  N   UNL     1      14.101  -7.500   0.944  1.00  0.00    -0.248 NA
ATOM     42  C   UNL     1      12.446  -8.151  -0.565  1.00  0.00     0.031 C 
ATOM     43  C   UNL     1      11.075  -5.005   3.111  1.00  0.00     0.029 A 
ATOM     44  N   UNL     1      13.251  -5.455   2.889  1.00  0.00    -0.354 N 
ATOM     45  C   UNL     1      14.667  -8.314  -0.032  1.00  0.00     0.074 A 
ATOM     46  C   UNL     1      13.589  -8.730  -0.905  1.00  0.00     0.031 C 
ATOM     47  C   UNL     1      11.739  -4.213   3.967  1.00  0.00     0.029 A 
ATOM     48  C   UNL     1      13.156  -4.546   3.920  1.00  0.00     0.049 A 
ATOM     49  H   UNL     1      14.109  -5.809   2.559  1.00  0.00     0.167 HD
ATOM     50  C   UNL     1      15.965  -8.674  -0.190  1.00  0.00     0.034 A 
ATOM     51  C   UNL     1      14.087  -4.077   4.775  1.00  0.00     0.034 A 
ATOM     52  C   UNL     1      17.034  -8.227   0.671  1.00  0.00     0.049 A 
ATOM     53  C   UNL     1      15.506  -4.576   4.644  1.00  0.00     0.074 A 
ATOM     54  C   UNL     1      18.379  -8.552   0.617  1.00  0.00     0.029 A 
ATOM     55  N   UNL     1      16.884  -7.347   1.735  1.00  0.00    -0.354 N 
ATOM     56  N   UNL     1      16.011  -5.408   3.762  1.00  0.00    -0.248 NA
ATOM     57  C   UNL     1      16.478  -4.080   5.626  1.00  0.00     0.031 C 
ATOM     58  C   UNL     1      19.029  -7.919   1.681  1.00  0.00     0.029 A 
ATOM     59  C   UNL     1      18.107  -7.133   2.352  1.00  0.00     0.049 A 
ATOM     60  H   UNL     1      16.033  -6.935   2.011  1.00  0.00     0.167 HD
ATOM     61  C   UNL     1      17.367  -5.501   4.064  1.00  0.00     0.074 A 
ATOM     62  C   UNL     1      17.603  -4.625   5.192  1.00  0.00     0.031 C 
ATOM     63  C   UNL     1      18.331  -6.246   3.468  1.00  0.00     0.034 A 
BRANCH  50  64
ATOM     64  C   UNL     1      16.300  -9.628  -1.312  1.00  0.00     0.023 A 
ATOM     65  C   UNL     1      16.153  -9.268  -2.662  1.00  0.00     0.031 A 
ATOM     66  C   UNL     1      16.785 -10.918  -1.024  1.00  0.00     0.131 A 
ATOM     67  C   UNL     1      16.436 -10.202  -3.671  1.00  0.00     0.055 A 
ATOM     68  C   UNL     1      17.138 -11.816  -2.033  1.00  0.00     0.041 A 
ATOM     69  F   UNL     1      16.926 -11.327   0.247  1.00  0.00    -0.206 F 
ATOM     70  C   UNL     1      16.954 -11.463  -3.366  1.00  0.00     0.022 A 
BRANCH  67  71
ATOM     71  S   UNL     1      16.011  -9.787  -5.384  1.00  0.00     0.124 S 
ATOM     72  O   UNL     1      14.566  -9.594  -5.291  1.00  0.00    -0.237 OA
ATOM     73  O   UNL     1      16.801  -8.585  -5.624  1.00  0.00    -0.237 OA
ATOM     74  O   UNL     1      16.428 -10.967  -6.137  1.00  0.00    -0.744 OA
ENDBRANCH  67  71
ENDBRANCH  50  64
BRANCH  51  75
ATOM     75  C   UNL     1      13.714  -3.151   5.890  1.00  0.00     0.023 A 
ATOM     76  C   UNL     1      14.332  -1.899   6.028  1.00  0.00     0.031 A 
ATOM     77  C   UNL     1      12.808  -3.547   6.893  1.00  0.00     0.131 A 
ATOM     78  C   UNL     1      14.099  -1.126   7.177  1.00  0.00     0.055 A 
ATOM     79  C   UNL     1      12.515  -2.736   7.990  1.00  0.00     0.041 A 
ATOM     80  F   UNL     1      12.195  -4.740   6.825  1.00  0.00    -0.206 F 
ATOM     81  C   UNL     1      13.181  -1.526   8.149  1.00  0.00     0.022 A 
BRANCH  78  82
ATOM     82  S   UNL     1      15.140   0.334   7.461  1.00  0.00     0.124 S 
ATOM     83  O   UNL     1      16.479  -0.238   7.374  1.00  0.00    -0.237 OA
ATOM     84  O   UNL     1      14.742   1.207   6.362  1.00  0.00    -0.237 OA
ATOM     85  O   UNL     1      14.738   0.783   8.792  1.00  0.00    -0.744 OA
ENDBRANCH  78  82
ENDBRANCH  51  75
BRANCH  63  86
ATOM     86  C   UNL     1      19.740  -6.082   3.981  1.00  0.00     0.023 A 
ATOM     87  C   UNL     1      20.110  -6.479   5.278  1.00  0.00     0.031 A 
ATOM     88  C   UNL     1      20.724  -5.499   3.162  1.00  0.00     0.131 A 
ATOM     89  C   UNL     1      21.411  -6.229   5.740  1.00  0.00     0.055 A 
ATOM     90  C   UNL     1      22.034  -5.315   3.604  1.00  0.00     0.041 A 
ATOM     91  F   UNL     1      20.426  -5.098   1.916  1.00  0.00    -0.206 F 
ATOM     92  C   UNL     1      22.380  -5.667   4.905  1.00  0.00     0.022 A 
BRANCH  89  93
ATOM     93  S   UNL     1      21.793  -6.555   7.483  1.00  0.00     0.124 S 
ATOM     94  O   UNL     1      20.825  -5.707   8.170  1.00  0.00    -0.237 OA
ATOM     95  O   UNL     1      21.569  -7.993   7.588  1.00  0.00    -0.237 OA
ATOM     96  O   UNL     1      23.188  -6.136   7.612  1.00  0.00    -0.744 OA
ENDBRANCH  89  93
ENDBRANCH  63  86
ENDBRANCH  37  38
ENDBRANCH  30  32
ENDBRANCH  29  30
ENDBRANCH  28  29
ENDBRANCH   1  28
TORSDOF 19
