REMARK SMILES O=C(OCCOC(=O)C1([NH+]2CCOCC2)CCC1)c1ccc(-c2c3nc(c(-c4cc(S(=O)(=O)[O-])ccc4F)c4ccc([nH]4)c(-c4cc(S(=O)(=O)[O-])ccc4F)c4nc(c(-c5cc(S(=O)(=O)[O-])ccc5F)c5ccc2[nH]5)C=C4)C=C3)cc1
REMARK SMILES IDX 4 1 3 2 2 3 1 4 19 5 20 6 81 7 21 8 80 9 22 10 23 11 24 12
REMARK SMILES IDX 74 13 25 14 79 15 73 16 75 17 26 18 78 19 72 20 71 21 27 23
REMARK SMILES IDX 59 24 39 25 58 26 40 27 43 28 57 29 76 30 41 31 42 32 56 34
REMARK SMILES IDX 77 35 44 36 28 37 29 38 37 39 30 40 36 41 38 42 35 43 31 44
REMARK SMILES IDX 32 45 33 46 34 47 60 48 61 49 69 50 62 51 68 52 70 53 67 54
REMARK SMILES IDX 63 55 64 56 65 57 66 58 45 59 46 60 54 61 47 62 53 63 55 64
REMARK SMILES IDX 52 65 48 66 49 67 50 68 51 69 5 70 6 71 7 72 8 73 9 74 16 75
REMARK SMILES IDX 18 76 17 77 10 78 11 79 15 80 12 82 14 83 13 84
REMARK H PARENT 75 22 43 33 10 81
REMARK Flexibility Score: inf
ROOT
ATOM      1  C   UNL     1       4.423   0.488  -1.538  1.00  0.00     0.275 C 
ENDROOT
BRANCH   1   2
ATOM      2  O   UNL     1       3.381  -0.412  -1.140  1.00  0.00    -0.458 OA
BRANCH   2   3
ATOM      3  C   UNL     1       3.345  -1.266  -0.088  1.00  0.00     0.338 C 
ATOM      4  O   UNL     1       2.452  -2.113  -0.062  1.00  0.00    -0.246 OA
BRANCH   3   5
ATOM      5  C   UNL     1       4.215  -1.121   1.127  1.00  0.00     0.060 A 
ATOM      6  C   UNL     1       5.454  -0.472   1.203  1.00  0.00     0.016 A 
ATOM      7  C   UNL     1       3.657  -1.597   2.327  1.00  0.00     0.016 A 
ATOM      8  C   UNL     1       6.043  -0.159   2.437  1.00  0.00     0.010 A 
ATOM      9  C   UNL     1       4.223  -1.258   3.561  1.00  0.00     0.010 A 
ATOM     10  C   UNL     1       5.410  -0.505   3.627  1.00  0.00    -0.014 A 
BRANCH  10  11
ATOM     11  C   UNL     1       6.036  -0.230   4.944  1.00  0.00     0.031 A 
ATOM     12  C   UNL     1       6.474  -1.426   5.737  1.00  0.00     0.074 A 
ATOM     13  C   UNL     1       6.171   1.017   5.445  1.00  0.00     0.049 A 
ATOM     14  N   UNL     1       6.960  -1.489   6.945  1.00  0.00    -0.248 NA
ATOM     15  C   UNL     1       6.331  -2.733   5.071  1.00  0.00     0.031 C 
ATOM     16  C   UNL     1       5.837   2.264   4.754  1.00  0.00     0.029 A 
ATOM     17  N   UNL     1       6.574   1.445   6.689  1.00  0.00    -0.354 N 
ATOM     18  C   UNL     1       7.225  -2.835   7.154  1.00  0.00     0.074 A 
ATOM     19  C   UNL     1       6.677  -3.563   6.036  1.00  0.00     0.031 C 
ATOM     20  C   UNL     1       5.925   3.295   5.616  1.00  0.00     0.029 A 
ATOM     21  C   UNL     1       6.382   2.795   6.906  1.00  0.00     0.049 A 
ATOM     22  H   UNL     1       6.965   0.843   7.362  1.00  0.00     0.167 HD
ATOM     23  C   UNL     1       7.960  -3.405   8.136  1.00  0.00     0.034 A 
ATOM     24  C   UNL     1       6.559   3.532   8.022  1.00  0.00     0.034 A 
ATOM     25  C   UNL     1       8.483  -2.660   9.245  1.00  0.00     0.049 A 
ATOM     26  C   UNL     1       7.204   2.856   9.209  1.00  0.00     0.074 A 
ATOM     27  C   UNL     1       9.251  -3.102  10.303  1.00  0.00     0.029 A 
ATOM     28  N   UNL     1       8.267  -1.300   9.441  1.00  0.00    -0.354 N 
ATOM     29  N   UNL     1       7.550   1.596   9.350  1.00  0.00    -0.248 NA
ATOM     30  C   UNL     1       7.553   3.708  10.352  1.00  0.00     0.031 C 
ATOM     31  C   UNL     1       9.440  -2.024  11.175  1.00  0.00     0.029 A 
ATOM     32  C   UNL     1       8.857  -0.892  10.622  1.00  0.00     0.049 A 
ATOM     33  H   UNL     1       7.767  -0.714   8.828  1.00  0.00     0.167 HD
ATOM     34  C   UNL     1       8.236   1.523  10.559  1.00  0.00     0.074 A 
ATOM     35  C   UNL     1       8.228   2.862  11.116  1.00  0.00     0.031 C 
ATOM     36  C   UNL     1       8.845   0.457  11.140  1.00  0.00     0.034 A 
BRANCH  23  37
ATOM     37  C   UNL     1       8.210  -4.884   7.999  1.00  0.00     0.023 A 
ATOM     38  C   UNL     1       8.890  -5.394   6.875  1.00  0.00     0.031 A 
ATOM     39  C   UNL     1       7.642  -5.796   8.899  1.00  0.00     0.131 A 
ATOM     40  C   UNL     1       8.869  -6.770   6.611  1.00  0.00     0.055 A 
ATOM     41  C   UNL     1       7.713  -7.174   8.681  1.00  0.00     0.041 A 
ATOM     42  F   UNL     1       6.960  -5.365   9.971  1.00  0.00    -0.206 F 
ATOM     43  C   UNL     1       8.306  -7.667   7.520  1.00  0.00     0.022 A 
BRANCH  40  44
ATOM     44  S   UNL     1       9.401  -7.339   4.971  1.00  0.00     0.124 S 
ATOM     45  O   UNL     1       8.429  -6.676   4.102  1.00  0.00    -0.237 OA
ATOM     46  O   UNL     1      10.767  -6.850   4.889  1.00  0.00    -0.237 OA
ATOM     47  O   UNL     1       9.259  -8.795   5.053  1.00  0.00    -0.744 OA
ENDBRANCH  40  44
ENDBRANCH  23  37
BRANCH  24  48
ATOM     48  C   UNL     1       6.175   4.976   8.084  1.00  0.00     0.023 A 
ATOM     49  C   UNL     1       7.141   5.989   8.198  1.00  0.00     0.031 A 
ATOM     50  C   UNL     1       4.821   5.359   8.119  1.00  0.00     0.131 A 
ATOM     51  C   UNL     1       6.745   7.324   8.400  1.00  0.00     0.055 A 
ATOM     52  C   UNL     1       4.431   6.693   8.285  1.00  0.00     0.041 A 
ATOM     53  F   UNL     1       3.852   4.436   8.008  1.00  0.00    -0.206 F 
ATOM     54  C   UNL     1       5.397   7.683   8.442  1.00  0.00     0.022 A 
BRANCH  51  55
ATOM     55  S   UNL     1       8.026   8.577   8.696  1.00  0.00     0.124 S 
ATOM     56  O   UNL     1       8.715   8.030   9.858  1.00  0.00    -0.237 OA
ATOM     57  O   UNL     1       8.766   8.551   7.439  1.00  0.00    -0.237 OA
ATOM     58  O   UNL     1       7.259   9.797   8.940  1.00  0.00    -0.744 OA
ENDBRANCH  51  55
ENDBRANCH  24  48
BRANCH  36  59
ATOM     59  C   UNL     1       9.623   0.716  12.402  1.00  0.00     0.023 A 
ATOM     60  C   UNL     1       8.992   1.089  13.598  1.00  0.00     0.031 A 
ATOM     61  C   UNL     1      11.021   0.559  12.405  1.00  0.00     0.131 A 
ATOM     62  C   UNL     1       9.764   1.338  14.740  1.00  0.00     0.055 A 
ATOM     63  C   UNL     1      11.776   0.739  13.562  1.00  0.00     0.041 A 
ATOM     64  F   UNL     1      11.672   0.209  11.283  1.00  0.00    -0.206 F 
ATOM     65  C   UNL     1      11.149   1.142  14.737  1.00  0.00     0.022 A 
BRANCH  62  66
ATOM     66  S   UNL     1       8.942   2.008  16.209  1.00  0.00     0.124 S 
ATOM     67  O   UNL     1       8.384   3.256  15.699  1.00  0.00    -0.237 OA
ATOM     68  O   UNL     1       7.976   0.962  16.530  1.00  0.00    -0.237 OA
ATOM     69  O   UNL     1      10.032   2.162  17.171  1.00  0.00    -0.744 OA
ENDBRANCH  62  66
ENDBRANCH  36  59
ENDBRANCH  10  11
ENDBRANCH   3   5
ENDBRANCH   2   3
ENDBRANCH   1   2
BRANCH   1  70
ATOM     70  C   UNL     1       4.349   1.887  -0.914  1.00  0.00     0.274 C 
BRANCH  70  71
ATOM     71  O   UNL     1       3.741   1.933   0.391  1.00  0.00    -0.457 OA
BRANCH  71  72
ATOM     72  C   UNL     1       2.408   2.294   0.429  1.00  0.00     0.368 C 
ATOM     73  O   UNL     1       1.804   2.541  -0.616  1.00  0.00    -0.245 OA
BRANCH  72  74
ATOM     74  C   UNL     1       1.809   2.345   1.972  1.00  0.00     0.196 C 
ATOM     75  C   UNL     1       2.333   1.202   2.873  1.00  0.00     0.081 C 
ATOM     76  C   UNL     1       2.507   3.306   2.991  1.00  0.00     0.081 C 
ATOM     77  C   UNL     1       2.501   2.173   4.040  1.00  0.00     0.014 C 
BRANCH  74  78
ATOM     78  N   UNL     1       0.312   2.361   2.014  1.00  0.00    -0.317 N 
ATOM     79  C   UNL     1      -0.294   3.512   1.327  1.00  0.00     0.292 C 
ATOM     80  C   UNL     1      -0.422   2.101   3.264  1.00  0.00     0.292 C 
ATOM     81  H   UNL     1       0.182   1.491   1.497  1.00  0.00     0.349 HD
ATOM     82  C   UNL     1      -0.544   4.727   2.228  1.00  0.00     0.221 C 
ATOM     83  C   UNL     1      -0.679   3.347   4.131  1.00  0.00     0.221 C 
ATOM     84  O   UNL     1      -1.323   4.380   3.377  1.00  0.00    -0.370 OA
ENDBRANCH  74  78
ENDBRANCH  72  74
ENDBRANCH  71  72
ENDBRANCH  70  71
ENDBRANCH   1  70
TORSDOF 15
