REMARK SMILES CCc1c(C)nn(CC(=O)N2CCC[C@@H](Cn3cc(C(=O)OCCOC(=O)c4ccc(-c5c6nc(c(-c7cc(S(=O)(=O)[O-])ccc7F)c7ccc([nH]7)c(-c7cc(S(=O)(=O)[O-])ccc7F)c7nc(c(-c8cc(S(=O)(=O)[O-])ccc8F)c8ccc5[nH]8)C=C7)C=C6)cc4)nn3)C2)c1C
REMARK SMILES IDX 22 1 20 2 21 3 19 4 17 5 18 6 92 7 91 8 16 9 15 10 11 11
REMARK SMILES IDX 12 12 93 13 13 14 14 15 9 16 10 17 8 18 7 19 3 20 4 21 94 22
REMARK SMILES IDX 5 23 6 24 95 25 2 26 1 27 23 28 24 29 25 30 26 31 27 32
REMARK SMILES IDX 28 33 29 34 90 35 30 36 89 37 31 38 32 39 33 40 83 41 34 42
REMARK SMILES IDX 88 43 82 44 84 45 35 46 87 47 81 48 80 49 36 51 68 52 48 53
REMARK SMILES IDX 67 54 49 55 52 56 66 57 85 58 50 59 51 60 65 62 86 63 53 64
REMARK SMILES IDX 37 65 38 66 46 67 39 68 45 69 47 70 44 71 40 72 41 73 42 74
REMARK SMILES IDX 43 75 69 76 70 77 78 78 71 79 77 80 79 81 76 82 72 83 73 84
REMARK SMILES IDX 74 85 75 86 54 87 55 88 63 89 56 90 62 91 64 92 61 93 57 94
REMARK SMILES IDX 58 95 59 96 60 97
REMARK H PARENT 84 50 52 61
REMARK Flexibility Score: inf
ROOT
ATOM      1  O   UNL     1       2.687  -5.240  -4.818  1.00  0.00    -0.457 OA
ENDROOT
BRANCH   1   2
ATOM      2  C   UNL     1       3.999  -5.017  -5.147  1.00  0.00     0.360 C 
ATOM      3  O   UNL     1       4.486  -5.282  -6.245  1.00  0.00    -0.244 OA
BRANCH   2   4
ATOM      4  C   UNL     1       4.753  -4.452  -4.045  1.00  0.00     0.190 A 
ATOM      5  N   UNL     1       5.369  -3.784  -2.089  1.00  0.00    -0.251 N 
ATOM      6  C   UNL     1       4.260  -3.938  -2.860  1.00  0.00     0.146 A 
ATOM      7  N   UNL     1       6.490  -3.958  -2.808  1.00  0.00    -0.067 NA
ATOM      8  N   UNL     1       6.125  -4.377  -4.013  1.00  0.00    -0.123 NA
BRANCH   5   9
ATOM      9  C   UNL     1       5.430  -3.774  -0.644  1.00  0.00     0.151 C 
BRANCH   9  10
ATOM     10  C   UNL     1       5.083  -5.136   0.002  1.00  0.00     0.030 C 
ATOM     11  N   UNL     1       3.242  -6.716   0.509  1.00  0.00    -0.341 N 
ATOM     12  C   UNL     1       4.028  -7.865   0.055  1.00  0.00     0.119 C 
ATOM     13  C   UNL     1       3.591  -5.469  -0.153  1.00  0.00     0.125 C 
ATOM     14  C   UNL     1       5.530  -7.616   0.160  1.00  0.00     0.022 C 
ATOM     15  C   UNL     1       5.937  -6.304  -0.514  1.00  0.00     0.009 C 
BRANCH  11  16
ATOM     16  C   UNL     1       2.261  -6.901   1.474  1.00  0.00     0.244 C 
ATOM     17  O   UNL     1       2.289  -7.923   2.179  1.00  0.00    -0.273 OA
BRANCH  16  18
ATOM     18  C   UNL     1       0.996  -6.054   1.538  1.00  0.00     0.244 C 
BRANCH  18  19
ATOM     19  N   UNL     1       1.086  -4.617   1.364  1.00  0.00    -0.260 N 
ATOM     20  C   UNL     1       0.938  -2.543   0.595  1.00  0.00    -0.004 A 
ATOM     21  C   UNL     1       1.629  -2.617   1.845  1.00  0.00     0.063 A 
ATOM     22  C   UNL     1       0.594  -3.865   0.325  1.00  0.00     0.039 A 
ATOM     23  C   UNL     1       2.278  -1.570   2.676  1.00  0.00     0.069 C 
ATOM     24  N   UNL     1       1.693  -3.876   2.303  1.00  0.00    -0.177 NA
ATOM     25  C   UNL     1      -0.111  -4.455  -0.847  1.00  0.00     0.066 C 
BRANCH  20  26
ATOM     26  C   UNL     1       0.600  -1.399  -0.323  1.00  0.00     0.036 C 
ATOM     27  C   UNL     1       1.074  -0.011   0.050  1.00  0.00     0.009 C 
ENDBRANCH  20  26
ENDBRANCH  18  19
ENDBRANCH  16  18
ENDBRANCH  11  16
ENDBRANCH   9  10
ENDBRANCH   5   9
ENDBRANCH   2   4
ENDBRANCH   1   2
BRANCH   1  28
ATOM     28  C   UNL     1       1.802  -5.526  -5.913  1.00  0.00     0.275 C 
BRANCH  28  29
ATOM     29  C   UNL     1       1.199  -4.241  -6.457  1.00  0.00     0.275 C 
BRANCH  29  30
ATOM     30  O   UNL     1       2.201  -3.442  -7.080  1.00  0.00    -0.458 OA
BRANCH  30  31
ATOM     31  C   UNL     1       2.740  -2.479  -6.296  1.00  0.00     0.338 C 
ATOM     32  O   UNL     1       2.706  -2.428  -5.078  1.00  0.00    -0.246 OA
BRANCH  31  33
ATOM     33  C   UNL     1       3.162  -1.362  -7.146  1.00  0.00     0.060 A 
ATOM     34  C   UNL     1       3.666  -0.228  -6.506  1.00  0.00     0.016 A 
ATOM     35  C   UNL     1       2.752  -1.338  -8.487  1.00  0.00     0.016 A 
ATOM     36  C   UNL     1       3.560   0.985  -7.153  1.00  0.00     0.010 A 
ATOM     37  C   UNL     1       2.621  -0.127  -9.118  1.00  0.00     0.010 A 
ATOM     38  C   UNL     1       2.952   1.028  -8.415  1.00  0.00    -0.014 A 
BRANCH  38  39
ATOM     39  C   UNL     1       2.845   2.303  -9.092  1.00  0.00     0.031 A 
ATOM     40  C   UNL     1       4.175   2.783  -9.530  1.00  0.00     0.074 A 
ATOM     41  C   UNL     1       1.671   2.888  -9.398  1.00  0.00     0.049 A 
ATOM     42  N   UNL     1       4.854   3.756  -9.023  1.00  0.00    -0.248 NA
ATOM     43  C   UNL     1       4.948   1.937 -10.458  1.00  0.00     0.031 C 
ATOM     44  C   UNL     1       0.317   2.362  -9.214  1.00  0.00     0.029 A 
ATOM     45  N   UNL     1       1.444   4.069 -10.034  1.00  0.00    -0.354 N 
ATOM     46  C   UNL     1       6.019   3.816  -9.777  1.00  0.00     0.074 A 
ATOM     47  C   UNL     1       6.134   2.544 -10.431  1.00  0.00     0.031 C 
ATOM     48  C   UNL     1      -0.557   3.108  -9.933  1.00  0.00     0.029 A 
ATOM     49  C   UNL     1       0.150   4.232 -10.527  1.00  0.00     0.049 A 
ATOM     50  H   UNL     1       2.141   4.757 -10.138  1.00  0.00     0.167 HD
ATOM     51  C   UNL     1       6.593   5.018 -10.050  1.00  0.00     0.034 A 
ATOM     52  C   UNL     1      -0.280   5.187 -11.404  1.00  0.00     0.034 A 
ATOM     53  C   UNL     1       6.134   6.027  -9.116  1.00  0.00     0.049 A 
ATOM     54  C   UNL     1       0.701   6.301 -11.325  1.00  0.00     0.074 A 
ATOM     55  C   UNL     1       6.145   6.140  -7.738  1.00  0.00     0.029 A 
ATOM     56  N   UNL     1       5.187   6.930  -9.551  1.00  0.00    -0.354 N 
ATOM     57  N   UNL     1       0.864   7.028 -10.252  1.00  0.00    -0.248 NA
ATOM     58  C   UNL     1       1.849   6.260 -12.221  1.00  0.00     0.031 C 
ATOM     59  C   UNL     1       4.879   6.707  -7.405  1.00  0.00     0.029 A 
ATOM     60  C   UNL     1       4.206   7.005  -8.592  1.00  0.00     0.049 A 
ATOM     61  H   UNL     1       5.209   7.431 -10.398  1.00  0.00     0.167 HD
ATOM     62  C   UNL     1       2.238   7.154 -10.109  1.00  0.00     0.074 A 
ATOM     63  C   UNL     1       2.792   6.731 -11.397  1.00  0.00     0.031 C 
ATOM     64  C   UNL     1       2.813   7.300  -8.877  1.00  0.00     0.034 A 
BRANCH  51  65
ATOM     65  C   UNL     1       7.195   5.369 -11.395  1.00  0.00     0.023 A 
ATOM     66  C   UNL     1       7.689   6.677 -11.536  1.00  0.00     0.031 A 
ATOM     67  C   UNL     1       7.037   4.641 -12.599  1.00  0.00     0.131 A 
ATOM     68  C   UNL     1       7.865   7.247 -12.807  1.00  0.00     0.055 A 
ATOM     69  C   UNL     1       7.281   5.191 -13.859  1.00  0.00     0.041 A 
ATOM     70  F   UNL     1       6.558   3.394 -12.649  1.00  0.00    -0.206 F 
ATOM     71  C   UNL     1       7.660   6.515 -13.972  1.00  0.00     0.022 A 
BRANCH  68  72
ATOM     72  S   UNL     1       8.175   9.026 -12.902  1.00  0.00     0.124 S 
ATOM     73  O   UNL     1       7.040   9.556 -12.153  1.00  0.00    -0.237 OA
ATOM     74  O   UNL     1       9.480   9.135 -12.260  1.00  0.00    -0.237 OA
ATOM     75  O   UNL     1       8.159   9.294 -14.337  1.00  0.00    -0.744 OA
ENDBRANCH  68  72
ENDBRANCH  51  65
BRANCH  52  76
ATOM     76  C   UNL     1      -1.236   5.016 -12.545  1.00  0.00     0.023 A 
ATOM     77  C   UNL     1      -1.853   6.096 -13.223  1.00  0.00     0.031 A 
ATOM     78  C   UNL     1      -1.360   3.746 -13.156  1.00  0.00     0.131 A 
ATOM     79  C   UNL     1      -2.549   5.879 -14.443  1.00  0.00     0.055 A 
ATOM     80  C   UNL     1      -2.042   3.540 -14.358  1.00  0.00     0.041 A 
ATOM     81  F   UNL     1      -0.746   2.667 -12.649  1.00  0.00    -0.206 F 
ATOM     82  C   UNL     1      -2.631   4.607 -15.013  1.00  0.00     0.022 A 
BRANCH  79  83
ATOM     83  S   UNL     1      -3.306   7.264 -15.364  1.00  0.00     0.124 S 
ATOM     84  O   UNL     1      -4.384   7.678 -14.474  1.00  0.00    -0.237 OA
ATOM     85  O   UNL     1      -2.192   8.193 -15.513  1.00  0.00    -0.237 OA
ATOM     86  O   UNL     1      -3.752   6.643 -16.613  1.00  0.00    -0.744 OA
ENDBRANCH  79  83
ENDBRANCH  52  76
BRANCH  64  87
ATOM     87  C   UNL     1       1.918   7.615  -7.692  1.00  0.00     0.023 A 
ATOM     88  C   UNL     1       0.831   6.825  -7.247  1.00  0.00     0.031 A 
ATOM     89  C   UNL     1       2.270   8.732  -6.913  1.00  0.00     0.131 A 
ATOM     90  C   UNL     1       0.139   7.176  -6.068  1.00  0.00     0.055 A 
ATOM     91  C   UNL     1       1.600   9.062  -5.737  1.00  0.00     0.041 A 
ATOM     92  F   UNL     1       3.307   9.509  -7.268  1.00  0.00    -0.206 F 
ATOM     93  C   UNL     1       0.526   8.289  -5.313  1.00  0.00     0.022 A 
BRANCH  90  94
ATOM     94  S   UNL     1      -1.299   6.210  -5.497  1.00  0.00     0.124 S 
ATOM     95  O   UNL     1      -2.106   6.053  -6.701  1.00  0.00    -0.237 OA
ATOM     96  O   UNL     1      -0.680   4.993  -4.979  1.00  0.00    -0.237 OA
ATOM     97  O   UNL     1      -1.899   7.066  -4.471  1.00  0.00    -0.744 OA
ENDBRANCH  90  94
ENDBRANCH  64  87
ENDBRANCH  38  39
ENDBRANCH  31  33
ENDBRANCH  30  31
ENDBRANCH  29  30
ENDBRANCH  28  29
ENDBRANCH   1  28
TORSDOF 20
