REMARK SMILES CC[C@@H](C(=O)Nc1ccc(OC(C)=O)cc1C(=O)OCCOC(=O)c1ccc(-c2c3nc(c(-c4cc(S(=O)(=O)[O-])ccc4F)c4ccc([nH]4)c(-c4cc(S(=O)(=O)[O-])ccc4F)c4nc(c(-c5cc(S(=O)(=O)[O-])ccc5F)c5ccc2[nH]5)C=C4)C=C3)cc1)c1ccccc1
REMARK SMILES IDX 20 1 19 2 17 3 18 4 16 5 7 6 8 7 9 8 15 9 10 10 6 11 4 12
REMARK SMILES IDX 5 13 3 15 2 16 1 17 88 18 89 19 93 20 90 21 92 22 91 23
REMARK SMILES IDX 11 24 12 25 13 26 14 27 21 28 22 29 23 30 24 31 25 32 26 33
REMARK SMILES IDX 87 34 27 35 86 36 28 37 29 38 30 39 80 40 31 41 85 42 79 43
REMARK SMILES IDX 81 44 32 45 84 46 78 47 77 48 33 50 65 51 45 52 64 53 46 54
REMARK SMILES IDX 49 55 63 56 82 57 47 58 48 59 62 61 83 62 50 63 34 64 35 65
REMARK SMILES IDX 43 66 36 67 42 68 44 69 41 70 37 71 38 72 39 73 40 74 66 75
REMARK SMILES IDX 67 76 75 77 68 78 74 79 76 80 73 81 69 82 70 83 71 84 72 85
REMARK SMILES IDX 51 86 52 87 60 88 53 89 59 90 61 91 58 92 54 93 55 94 56 95
REMARK SMILES IDX 57 96
REMARK H PARENT 6 14 81 49 49 60
REMARK Flexibility Score: inf
ROOT
ATOM      1  C   UNL     1      -2.310  -0.735   0.950  1.00  0.00     0.275 C 
ENDROOT
BRANCH   1   2
ATOM      2  O   UNL     1      -1.286   0.173   1.412  1.00  0.00    -0.458 OA
BRANCH   2   3
ATOM      3  C   UNL     1      -0.225   0.225   0.587  1.00  0.00     0.340 C 
ATOM      4  O   UNL     1      -0.160  -0.265  -0.528  1.00  0.00    -0.246 OA
BRANCH   3   5
ATOM      5  C   UNL     1       0.950   0.897   1.125  1.00  0.00     0.087 A 
ATOM      6  C   UNL     1       1.705   0.385   2.191  1.00  0.00     0.056 A 
ATOM      7  C   UNL     1       2.842   1.094   2.609  1.00  0.00     0.031 A 
ATOM      8  C   UNL     1       3.308   2.190   1.876  1.00  0.00     0.049 A 
ATOM      9  C   UNL     1       1.392   2.021   0.409  1.00  0.00     0.065 A 
ATOM     10  C   UNL     1       2.599   2.614   0.755  1.00  0.00     0.131 A 
BRANCH   6  11
ATOM     11  N   UNL     1       1.415  -0.785   2.919  1.00  0.00    -0.325 N 
ATOM     12  C   UNL     1       0.833  -1.963   2.516  1.00  0.00     0.231 C 
ATOM     13  O   UNL     1      -0.121  -2.344   3.205  1.00  0.00    -0.274 OA
ATOM     14  H   UNL     1       1.672  -0.755   3.869  1.00  0.00     0.169 HD
BRANCH  12  15
ATOM     15  C   UNL     1       1.590  -2.908   1.513  1.00  0.00     0.108 C 
BRANCH  15  16
ATOM     16  C   UNL     1       1.765  -2.505   0.039  1.00  0.00     0.015 C 
ATOM     17  C   UNL     1       2.948  -1.608  -0.280  1.00  0.00     0.005 C 
ENDBRANCH  15  16
BRANCH  15  18
ATOM     18  C   UNL     1       0.961  -4.316   1.450  1.00  0.00    -0.036 A 
ATOM     19  C   UNL     1      -0.424  -4.507   1.312  1.00  0.00     0.004 A 
ATOM     20  C   UNL     1       1.800  -5.438   1.347  1.00  0.00     0.004 A 
ATOM     21  C   UNL     1      -0.957  -5.779   1.099  1.00  0.00     0.000 A 
ATOM     22  C   UNL     1       1.267  -6.708   1.114  1.00  0.00     0.000 A 
ATOM     23  C   UNL     1      -0.111  -6.878   0.993  1.00  0.00     0.000 A 
ENDBRANCH  15  18
ENDBRANCH  12  15
ENDBRANCH   6  11
BRANCH  10  24
ATOM     24  O   UNL     1       3.089   3.683   0.003  1.00  0.00    -0.427 OA
BRANCH  24  25
ATOM     25  C   UNL     1       4.033   3.288  -0.936  1.00  0.00     0.308 C 
ATOM     26  C   UNL     1       3.478   2.410  -2.027  1.00  0.00     0.139 C 
ATOM     27  O   UNL     1       5.200   3.660  -0.891  1.00  0.00    -0.252 OA
ENDBRANCH  24  25
ENDBRANCH  10  24
ENDBRANCH   3   5
ENDBRANCH   2   3
ENDBRANCH   1   2
BRANCH   1  28
ATOM     28  C   UNL     1      -3.283  -0.129  -0.070  1.00  0.00     0.275 C 
BRANCH  28  29
ATOM     29  O   UNL     1      -2.656   0.115  -1.347  1.00  0.00    -0.458 OA
BRANCH  29  30
ATOM     30  C   UNL     1      -2.553   1.416  -1.707  1.00  0.00     0.338 C 
ATOM     31  O   UNL     1      -2.991   2.373  -1.087  1.00  0.00    -0.246 OA
BRANCH  30  32
ATOM     32  C   UNL     1      -1.836   1.589  -2.990  1.00  0.00     0.060 A 
ATOM     33  C   UNL     1      -0.512   1.177  -3.144  1.00  0.00     0.016 A 
ATOM     34  C   UNL     1      -2.426   2.372  -3.981  1.00  0.00     0.016 A 
ATOM     35  C   UNL     1       0.259   1.638  -4.209  1.00  0.00     0.010 A 
ATOM     36  C   UNL     1      -1.677   2.759  -5.098  1.00  0.00     0.010 A 
ATOM     37  C   UNL     1      -0.308   2.444  -5.196  1.00  0.00    -0.014 A 
BRANCH  37  38
ATOM     38  C   UNL     1       0.528   3.082  -6.249  1.00  0.00     0.031 A 
ATOM     39  C   UNL     1       0.487   4.581  -6.380  1.00  0.00     0.074 A 
ATOM     40  C   UNL     1       1.339   2.377  -7.062  1.00  0.00     0.049 A 
ATOM     41  N   UNL     1       0.758   5.336  -7.409  1.00  0.00    -0.248 NA
ATOM     42  C   UNL     1       0.050   5.320  -5.185  1.00  0.00     0.031 C 
ATOM     43  C   UNL     1       1.619   0.945  -6.964  1.00  0.00     0.029 A 
ATOM     44  N   UNL     1       2.080   2.785  -8.145  1.00  0.00    -0.354 N 
ATOM     45  C   UNL     1       0.422   6.630  -7.023  1.00  0.00     0.074 A 
ATOM     46  C   UNL     1      -0.042   6.555  -5.654  1.00  0.00     0.031 C 
ATOM     47  C   UNL     1       2.492   0.600  -7.923  1.00  0.00     0.029 A 
ATOM     48  C   UNL     1       2.721   1.752  -8.788  1.00  0.00     0.049 A 
ATOM     49  H   UNL     1       2.147   3.724  -8.432  1.00  0.00     0.167 HD
ATOM     50  C   UNL     1       0.470   7.763  -7.768  1.00  0.00     0.034 A 
ATOM     51  C   UNL     1       3.342   1.714  -9.985  1.00  0.00     0.034 A 
ATOM     52  C   UNL     1       1.002   7.797  -9.110  1.00  0.00     0.049 A 
ATOM     53  C   UNL     1       3.328   2.957 -10.838  1.00  0.00     0.074 A 
ATOM     54  C   UNL     1       1.067   8.858  -9.995  1.00  0.00     0.029 A 
ATOM     55  N   UNL     1       1.590   6.712  -9.749  1.00  0.00    -0.354 N 
ATOM     56  N   UNL     1       2.822   4.139 -10.567  1.00  0.00    -0.248 NA
ATOM     57  C   UNL     1       3.925   2.848 -12.175  1.00  0.00     0.031 C 
ATOM     58  C   UNL     1       1.657   8.403 -11.182  1.00  0.00     0.029 A 
ATOM     59  C   UNL     1       2.014   7.074 -11.015  1.00  0.00     0.049 A 
ATOM     60  H   UNL     1       1.690   5.814  -9.357  1.00  0.00     0.167 HD
ATOM     61  C   UNL     1       3.044   4.915 -11.700  1.00  0.00     0.074 A 
ATOM     62  C   UNL     1       3.743   4.072 -12.650  1.00  0.00     0.031 C 
ATOM     63  C   UNL     1       2.700   6.205 -11.941  1.00  0.00     0.034 A 
BRANCH  50  64
ATOM     64  C   UNL     1      -0.160   9.004  -7.184  1.00  0.00     0.023 A 
ATOM     65  C   UNL     1       0.337   9.633  -6.031  1.00  0.00     0.031 A 
ATOM     66  C   UNL     1      -1.334   9.523  -7.761  1.00  0.00     0.131 A 
ATOM     67  C   UNL     1      -0.381  10.689  -5.446  1.00  0.00     0.055 A 
ATOM     68  C   UNL     1      -1.998  10.627  -7.222  1.00  0.00     0.041 A 
ATOM     69  F   UNL     1      -1.874   8.949  -8.848  1.00  0.00    -0.206 F 
ATOM     70  C   UNL     1      -1.532  11.205  -6.047  1.00  0.00     0.022 A 
BRANCH  67  71
ATOM     71  S   UNL     1       0.116  11.270  -3.801  1.00  0.00     0.124 S 
ATOM     72  O   UNL     1       0.033  10.041  -3.016  1.00  0.00    -0.237 OA
ATOM     73  O   UNL     1       1.459  11.785  -4.042  1.00  0.00    -0.237 OA
ATOM     74  O   UNL     1      -0.890  12.279  -3.474  1.00  0.00    -0.744 OA
ENDBRANCH  67  71
ENDBRANCH  50  64
BRANCH  51  75
ATOM     75  C   UNL     1       3.910   0.436 -10.502  1.00  0.00     0.023 A 
ATOM     76  C   UNL     1       5.287   0.298 -10.738  1.00  0.00     0.031 A 
ATOM     77  C   UNL     1       3.079  -0.664 -10.787  1.00  0.00     0.131 A 
ATOM     78  C   UNL     1       5.788  -0.906 -11.260  1.00  0.00     0.055 A 
ATOM     79  C   UNL     1       3.589  -1.875 -11.255  1.00  0.00     0.041 A 
ATOM     80  F   UNL     1       1.754  -0.584 -10.589  1.00  0.00    -0.206 F 
ATOM     81  C   UNL     1       4.952  -1.998 -11.503  1.00  0.00     0.022 A 
BRANCH  78  82
ATOM     82  S   UNL     1       7.551  -1.008 -11.678  1.00  0.00     0.124 S 
ATOM     83  O   UNL     1       7.681   0.047 -12.676  1.00  0.00    -0.237 OA
ATOM     84  O   UNL     1       8.184  -0.754 -10.388  1.00  0.00    -0.237 OA
ATOM     85  O   UNL     1       7.702  -2.370 -12.186  1.00  0.00    -0.744 OA
ENDBRANCH  78  82
ENDBRANCH  51  75
BRANCH  63  86
ATOM     86  C   UNL     1       3.124   6.783 -13.263  1.00  0.00     0.023 A 
ATOM     87  C   UNL     1       2.480   6.430 -14.461  1.00  0.00     0.031 A 
ATOM     88  C   UNL     1       4.188   7.699 -13.319  1.00  0.00     0.131 A 
ATOM     89  C   UNL     1       2.934   6.965 -15.675  1.00  0.00     0.055 A 
ATOM     90  C   UNL     1       4.608   8.259 -14.524  1.00  0.00     0.041 A 
ATOM     91  F   UNL     1       4.832   8.064 -12.199  1.00  0.00    -0.206 F 
ATOM     92  C   UNL     1       3.985   7.886 -15.713  1.00  0.00     0.022 A 
BRANCH  89  93
ATOM     93  S   UNL     1       2.163   6.405 -17.219  1.00  0.00     0.124 S 
ATOM     94  O   UNL     1       2.505   4.986 -17.230  1.00  0.00    -0.237 OA
ATOM     95  O   UNL     1       0.755   6.721 -17.000  1.00  0.00    -0.237 OA
ATOM     96  O   UNL     1       2.825   7.211 -18.244  1.00  0.00    -0.744 OA
ENDBRANCH  89  93
ENDBRANCH  63  86
ENDBRANCH  37  38
ENDBRANCH  30  32
ENDBRANCH  29  30
ENDBRANCH  28  29
ENDBRANCH   1  28
TORSDOF 20
