REMARK SMILES CC(C)[C@@H](NC(=O)[C@H]1CCCO1)C(=O)OCCOC(=O)c1ccc(-c2c3nc(c(-c4cc(S(=O)(=O)[O-])ccc4F)c4ccc([nH]4)c(-c4cc(S(=O)(=O)[O-])ccc4F)c4nc(c(-c5cc(S(=O)(=O)[O-])ccc5F)c5ccc2[nH]5)C=C4)C=C3)cc1
REMARK SMILES IDX 17 1 16 2 15 3 13 4 14 5 4 6 2 7 1 8 3 9 5 10 6 11 7 13 8 14
REMARK SMILES IDX 9 15 12 16 10 17 11 18 18 19 19 20 20 21 21 22 22 23 83 24
REMARK SMILES IDX 23 25 82 26 24 27 25 28 26 29 76 30 27 31 81 32 75 33 77 34
REMARK SMILES IDX 28 35 80 36 74 37 73 38 29 40 61 41 41 42 60 43 42 44 45 45
REMARK SMILES IDX 59 46 78 47 43 48 44 49 58 51 79 52 46 53 30 54 31 55 39 56
REMARK SMILES IDX 32 57 38 58 40 59 37 60 33 61 34 62 35 63 36 64 62 65 63 66
REMARK SMILES IDX 71 67 64 68 70 69 72 70 69 71 65 72 66 73 67 74 68 75 47 76
REMARK SMILES IDX 48 77 56 78 49 79 55 80 57 81 54 82 50 83 51 84 52 85 53 86
REMARK H PARENT 5 12 77 39 45 50
REMARK Flexibility Score: inf
ROOT
ATOM      1  C   UNL     1       0.863  -0.601  -0.428  1.00  0.00     0.275 C 
ENDROOT
BRANCH   1   2
ATOM      2  C   UNL     1      -0.026  -0.808  -1.661  1.00  0.00     0.274 C 
BRANCH   2   3
ATOM      3  O   UNL     1      -1.305  -0.140  -1.594  1.00  0.00    -0.461 OA
BRANCH   3   4
ATOM      4  C   UNL     1      -2.286  -0.853  -0.984  1.00  0.00     0.329 C 
ATOM      5  O   UNL     1      -2.098  -1.933  -0.432  1.00  0.00    -0.250 OA
BRANCH   4   6
ATOM      6  C   UNL     1      -3.705  -0.321  -1.210  1.00  0.00     0.194 C 
BRANCH   6   7
ATOM      7  C   UNL     1      -3.859   1.223  -1.065  1.00  0.00     0.017 C 
ATOM      8  C   UNL     1      -5.331   1.605  -0.826  1.00  0.00     0.010 C 
ATOM      9  C   UNL     1      -3.042   1.839   0.075  1.00  0.00     0.010 C 
ENDBRANCH   6   7
BRANCH   6  10
ATOM     10  N   UNL     1      -4.323  -0.779  -2.481  1.00  0.00    -0.340 N 
ATOM     11  C   UNL     1      -4.380  -2.026  -3.049  1.00  0.00     0.249 C 
ATOM     12  H   UNL     1      -4.766  -0.070  -3.001  1.00  0.00     0.164 HD
ATOM     13  O   UNL     1      -5.429  -2.332  -3.623  1.00  0.00    -0.272 OA
BRANCH  11  14
ATOM     14  C   UNL     1      -3.124  -2.916  -3.107  1.00  0.00     0.207 C 
ATOM     15  C   UNL     1      -3.134  -4.031  -2.070  1.00  0.00     0.044 C 
ATOM     16  O   UNL     1      -2.986  -3.545  -4.398  1.00  0.00    -0.368 OA
ATOM     17  C   UNL     1      -3.407  -5.276  -2.874  1.00  0.00     0.032 C 
ATOM     18  C   UNL     1      -2.763  -4.942  -4.195  1.00  0.00     0.161 C 
ENDBRANCH  11  14
ENDBRANCH   6  10
ENDBRANCH   4   6
ENDBRANCH   3   4
ENDBRANCH   2   3
ENDBRANCH   1   2
BRANCH   1  19
ATOM     19  O   UNL     1       0.321  -1.228   0.749  1.00  0.00    -0.458 OA
BRANCH  19  20
ATOM     20  C   UNL     1      -0.269  -0.383   1.626  1.00  0.00     0.338 C 
ATOM     21  O   UNL     1      -0.306   0.833   1.554  1.00  0.00    -0.246 OA
BRANCH  20  22
ATOM     22  C   UNL     1      -1.000  -1.133   2.660  1.00  0.00     0.060 A 
ATOM     23  C   UNL     1      -2.398  -1.123   2.615  1.00  0.00     0.016 A 
ATOM     24  C   UNL     1      -0.333  -1.702   3.745  1.00  0.00     0.016 A 
ATOM     25  C   UNL     1      -3.140  -1.650   3.665  1.00  0.00     0.010 A 
ATOM     26  C   UNL     1      -1.080  -2.233   4.803  1.00  0.00     0.010 A 
ATOM     27  C   UNL     1      -2.486  -2.182   4.780  1.00  0.00    -0.014 A 
BRANCH  27  28
ATOM     28  C   UNL     1      -3.283  -2.564   5.969  1.00  0.00     0.031 A 
ATOM     29  C   UNL     1      -3.342  -1.625   7.141  1.00  0.00     0.074 A 
ATOM     30  C   UNL     1      -3.989  -3.708   5.974  1.00  0.00     0.049 A 
ATOM     31  N   UNL     1      -3.911  -1.786   8.307  1.00  0.00    -0.248 NA
ATOM     32  C   UNL     1      -2.666  -0.330   6.971  1.00  0.00     0.031 C 
ATOM     33  C   UNL     1      -4.067  -4.655   4.862  1.00  0.00     0.029 A 
ATOM     34  N   UNL     1      -4.777  -4.266   6.948  1.00  0.00    -0.354 N 
ATOM     35  C   UNL     1      -3.651  -0.619   9.019  1.00  0.00     0.074 A 
ATOM     36  C   UNL     1      -2.853   0.229   8.157  1.00  0.00     0.031 C 
ATOM     37  C   UNL     1      -4.853  -5.684   5.221  1.00  0.00     0.029 A 
ATOM     38  C   UNL     1      -5.295  -5.491   6.600  1.00  0.00     0.049 A 
ATOM     39  H   UNL     1      -4.955  -3.831   7.813  1.00  0.00     0.167 HD
ATOM     40  C   UNL     1      -4.042  -0.289  10.276  1.00  0.00     0.034 A 
ATOM     41  C   UNL     1      -6.015  -6.368   7.325  1.00  0.00     0.034 A 
ATOM     42  C   UNL     1      -4.826  -1.156  11.123  1.00  0.00     0.049 A 
ATOM     43  C   UNL     1      -6.373  -6.015   8.746  1.00  0.00     0.074 A 
ATOM     44  C   UNL     1      -5.253  -0.943  12.422  1.00  0.00     0.029 A 
ATOM     45  N   UNL     1      -5.299  -2.410  10.754  1.00  0.00    -0.354 N 
ATOM     46  N   UNL     1      -6.080  -4.931   9.428  1.00  0.00    -0.248 NA
ATOM     47  C   UNL     1      -7.161  -7.003   9.493  1.00  0.00     0.031 C 
ATOM     48  C   UNL     1      -5.936  -2.087  12.855  1.00  0.00     0.029 A 
ATOM     49  C   UNL     1      -5.994  -2.989  11.805  1.00  0.00     0.049 A 
ATOM     50  H   UNL     1      -5.161  -2.826   9.872  1.00  0.00     0.167 HD
ATOM     51  C   UNL     1      -6.664  -5.102  10.680  1.00  0.00     0.074 A 
ATOM     52  C   UNL     1      -7.343  -6.382  10.649  1.00  0.00     0.031 C 
ATOM     53  C   UNL     1      -6.645  -4.277  11.759  1.00  0.00     0.034 A 
BRANCH  40  54
ATOM     54  C   UNL     1      -3.558   1.033  10.818  1.00  0.00     0.023 A 
ATOM     55  C   UNL     1      -3.967   2.259  10.262  1.00  0.00     0.031 A 
ATOM     56  C   UNL     1      -2.624   1.066  11.869  1.00  0.00     0.131 A 
ATOM     57  C   UNL     1      -3.390   3.458  10.709  1.00  0.00     0.055 A 
ATOM     58  C   UNL     1      -2.110   2.268  12.360  1.00  0.00     0.041 A 
ATOM     59  F   UNL     1      -2.178  -0.072  12.422  1.00  0.00    -0.206 F 
ATOM     60  C   UNL     1      -2.480   3.472  11.769  1.00  0.00     0.022 A 
BRANCH  57  61
ATOM     61  S   UNL     1      -3.732   4.983   9.788  1.00  0.00     0.124 S 
ATOM     62  O   UNL     1      -3.260   4.633   8.450  1.00  0.00    -0.237 OA
ATOM     63  O   UNL     1      -5.175   5.127   9.940  1.00  0.00    -0.237 OA
ATOM     64  O   UNL     1      -2.928   5.989  10.480  1.00  0.00    -0.744 OA
ENDBRANCH  57  61
ENDBRANCH  40  54
BRANCH  41  65
ATOM     65  C   UNL     1      -6.396  -7.688   6.748  1.00  0.00     0.023 A 
ATOM     66  C   UNL     1      -7.740  -8.026   6.528  1.00  0.00     0.031 A 
ATOM     67  C   UNL     1      -5.415  -8.650   6.451  1.00  0.00     0.131 A 
ATOM     68  C   UNL     1      -8.069  -9.308   6.061  1.00  0.00     0.055 A 
ATOM     69  C   UNL     1      -5.744  -9.907   5.942  1.00  0.00     0.041 A 
ATOM     70  F   UNL     1      -4.114  -8.376   6.643  1.00  0.00    -0.206 F 
ATOM     71  C   UNL     1      -7.080 -10.246   5.755  1.00  0.00     0.022 A 
BRANCH  68  72
ATOM     72  S   UNL     1      -9.820  -9.760   5.923  1.00  0.00     0.124 S 
ATOM     73  O   UNL     1     -10.283  -9.583   7.295  1.00  0.00    -0.237 OA
ATOM     74  O   UNL     1     -10.308  -8.788   4.951  1.00  0.00    -0.237 OA
ATOM     75  O   UNL     1      -9.779 -11.143   5.452  1.00  0.00    -0.744 OA
ENDBRANCH  68  72
ENDBRANCH  41  65
BRANCH  53  76
ATOM     76  C   UNL     1      -7.414  -4.737  12.973  1.00  0.00     0.023 A 
ATOM     77  C   UNL     1      -7.004  -5.850  13.728  1.00  0.00     0.031 A 
ATOM     78  C   UNL     1      -8.594  -4.074  13.354  1.00  0.00     0.131 A 
ATOM     79  C   UNL     1      -7.802  -6.307  14.787  1.00  0.00     0.055 A 
ATOM     80  C   UNL     1      -9.354  -4.500  14.444  1.00  0.00     0.041 A 
ATOM     81  F   UNL     1      -9.030  -3.007  12.667  1.00  0.00    -0.206 F 
ATOM     82  C   UNL     1      -8.969  -5.631  15.158  1.00  0.00     0.022 A 
BRANCH  79  83
ATOM     83  S   UNL     1      -7.353  -7.860  15.609  1.00  0.00     0.124 S 
ATOM     84  O   UNL     1      -7.309  -8.796  14.491  1.00  0.00    -0.237 OA
ATOM     85  O   UNL     1      -6.066  -7.530  16.215  1.00  0.00    -0.237 OA
ATOM     86  O   UNL     1      -8.445  -8.076  16.556  1.00  0.00    -0.744 OA
ENDBRANCH  79  83
ENDBRANCH  53  76
ENDBRANCH  27  28
ENDBRANCH  20  22
ENDBRANCH  19  20
ENDBRANCH   1  19
TORSDOF 17
