REMARK SMILES CC[C@H](C)Nc1ncnc(N2CCC(C(=O)OCCOC(=O)c3ccc(-c4c5nc(c(-c6cc(S(=O)(=O)[O-])ccc6F)c6ccc([nH]6)c(-c6cc(S(=O)(=O)[O-])ccc6F)c6nc(c(-c7cc(S(=O)(=O)[O-])ccc7F)c7ccc4[nH]7)C=C6)C=C5)cc3)CC2)c1[N+](=O)[O-]
REMARK SMILES IDX 18 1 17 2 15 3 16 4 14 5 11 6 12 7 87 8 13 9 86 10 10 11
REMARK SMILES IDX 6 12 7 13 88 14 8 15 9 16 5 17 3 19 4 20 2 21 1 22 89 23
REMARK SMILES IDX 90 24 91 25 19 26 20 27 21 28 22 29 23 30 24 31 85 32 25 33
REMARK SMILES IDX 84 34 26 35 27 36 28 37 78 38 29 39 83 40 77 41 79 42 30 43
REMARK SMILES IDX 82 44 76 45 75 46 31 48 63 49 43 50 62 51 44 52 47 53 61 54
REMARK SMILES IDX 80 55 45 56 46 57 60 59 81 60 48 61 32 62 33 63 41 64 34 65
REMARK SMILES IDX 40 66 42 67 39 68 35 69 36 70 37 71 38 72 64 73 65 74 73 75
REMARK SMILES IDX 66 76 72 77 74 78 71 79 67 80 68 81 69 82 70 83 49 84 50 85
REMARK SMILES IDX 58 86 51 87 57 88 59 89 56 90 52 91 53 92 54 93 55 94
REMARK H PARENT 5 18 79 47 47 58
REMARK Flexibility Score: inf
ROOT
ATOM      1  C   UNL     1       7.510   6.147   9.959  1.00  0.00     0.274 C 
ENDROOT
BRANCH   1   2
ATOM      2  O   UNL     1       6.853   5.464   8.876  1.00  0.00    -0.462 OA
BRANCH   2   3
ATOM      3  C   UNL     1       6.783   6.139   7.701  1.00  0.00     0.309 C 
ATOM      4  O   UNL     1       7.144   7.299   7.539  1.00  0.00    -0.252 OA
BRANCH   3   5
ATOM      5  C   UNL     1       6.186   5.319   6.578  1.00  0.00     0.103 C 
ATOM      6  N   UNL     1       4.364   3.658   5.168  1.00  0.00    -0.351 N 
ATOM      7  C   UNL     1       5.647   3.091   5.572  1.00  0.00     0.119 C 
ATOM      8  C   UNL     1       4.250   5.104   5.009  1.00  0.00     0.119 C 
ATOM      9  C   UNL     1       6.177   3.806   6.809  1.00  0.00     0.037 C 
ATOM     10  C   UNL     1       4.778   5.812   6.253  1.00  0.00     0.037 C 
BRANCH   6  11
ATOM     11  C   UNL     1       3.255   2.841   5.149  1.00  0.00     0.213 A 
ATOM     12  C   UNL     1       1.275   1.905   4.172  1.00  0.00     0.211 A 
ATOM     13  N   UNL     1       1.034   1.234   5.314  1.00  0.00    -0.213 NA
ATOM     14  C   UNL     1       2.377   2.736   4.077  1.00  0.00     0.353 A 
ATOM     15  C   UNL     1       1.937   1.357   6.296  1.00  0.00     0.227 A 
ATOM     16  N   UNL     1       3.040   2.111   6.262  1.00  0.00    -0.212 NA
BRANCH  12  17
ATOM     17  N   UNL     1       0.318   1.656   3.214  1.00  0.00    -0.362 N 
ATOM     18  H   UNL     1      -0.627   1.700   3.485  1.00  0.00     0.162 HD
BRANCH  17  19
ATOM     19  C   UNL     1       0.617   1.331   1.819  1.00  0.00     0.077 C 
ATOM     20  C   UNL     1       0.180  -0.113   1.557  1.00  0.00     0.031 C 
BRANCH  19  21
ATOM     21  C   UNL     1      -0.119   2.334   0.917  1.00  0.00     0.021 C 
ATOM     22  C   UNL     1       0.154   2.134  -0.566  1.00  0.00     0.006 C 
ENDBRANCH  19  21
ENDBRANCH  17  19
ENDBRANCH  12  17
BRANCH  14  23
ATOM     23  N   UNL     1       2.612   3.509   2.902  1.00  0.00     0.070 N 
ATOM     24  O   UNL     1       3.457   3.088   2.099  1.00  0.00    -0.258 OA
ATOM     25  O   UNL     1       1.952   4.551   2.766  1.00  0.00    -0.258 OA
ENDBRANCH  14  23
ENDBRANCH   6  11
ENDBRANCH   3   5
ENDBRANCH   2   3
ENDBRANCH   1   2
BRANCH   1  26
ATOM     26  C   UNL     1       8.926   5.608  10.168  1.00  0.00     0.275 C 
BRANCH  26  27
ATOM     27  O   UNL     1       9.774   5.892   9.040  1.00  0.00    -0.458 OA
BRANCH  27  28
ATOM     28  C   UNL     1       9.910   4.878   8.153  1.00  0.00     0.338 C 
ATOM     29  O   UNL     1       9.418   3.766   8.223  1.00  0.00    -0.246 OA
BRANCH  28  30
ATOM     30  C   UNL     1      10.675   5.343   6.986  1.00  0.00     0.060 A 
ATOM     31  C   UNL     1      10.001   5.513   5.776  1.00  0.00     0.016 A 
ATOM     32  C   UNL     1      12.057   5.517   7.058  1.00  0.00     0.016 A 
ATOM     33  C   UNL     1      10.703   5.859   4.624  1.00  0.00     0.010 A 
ATOM     34  C   UNL     1      12.762   5.867   5.902  1.00  0.00     0.010 A 
ATOM     35  C   UNL     1      12.091   6.030   4.676  1.00  0.00    -0.014 A 
BRANCH  35  36
ATOM     36  C   UNL     1      12.850   6.322   3.435  1.00  0.00     0.031 A 
ATOM     37  C   UNL     1      13.694   5.248   2.812  1.00  0.00     0.074 A 
ATOM     38  C   UNL     1      12.778   7.543   2.872  1.00  0.00     0.049 A 
ATOM     39  N   UNL     1      14.537   5.328   1.816  1.00  0.00    -0.248 NA
ATOM     40  C   UNL     1      13.572   3.904   3.395  1.00  0.00     0.031 C 
ATOM     41  C   UNL     1      11.946   8.646   3.355  1.00  0.00     0.029 A 
ATOM     42  N   UNL     1      13.422   8.063   1.778  1.00  0.00    -0.354 N 
ATOM     43  C   UNL     1      15.069   4.052   1.667  1.00  0.00     0.074 A 
ATOM     44  C   UNL     1      14.461   3.223   2.687  1.00  0.00     0.031 C 
ATOM     45  C   UNL     1      12.140   9.716   2.567  1.00  0.00     0.029 A 
ATOM     46  C   UNL     1      13.149   9.393   1.562  1.00  0.00     0.049 A 
ATOM     47  H   UNL     1      14.021   7.534   1.203  1.00  0.00     0.167 HD
ATOM     48  C   UNL     1      15.982   3.618   0.762  1.00  0.00     0.034 A 
ATOM     49  C   UNL     1      13.684  10.263   0.683  1.00  0.00     0.034 A 
ATOM     50  C   UNL     1      16.573   4.461  -0.250  1.00  0.00     0.049 A 
ATOM     51  C   UNL     1      14.750   9.777  -0.266  1.00  0.00     0.074 A 
ATOM     52  C   UNL     1      17.500   4.125  -1.221  1.00  0.00     0.029 A 
ATOM     53  N   UNL     1      16.297   5.812  -0.418  1.00  0.00    -0.354 N 
ATOM     54  N   UNL     1      15.271   8.577  -0.377  1.00  0.00    -0.248 NA
ATOM     55  C   UNL     1      15.302  10.763  -1.204  1.00  0.00     0.031 C 
ATOM     56  C   UNL     1      17.828   5.284  -1.936  1.00  0.00     0.029 A 
ATOM     57  C   UNL     1      17.056   6.330  -1.456  1.00  0.00     0.049 A 
ATOM     58  H   UNL     1      15.655   6.328   0.122  1.00  0.00     0.167 HD
ATOM     59  C   UNL     1      16.199   8.661  -1.411  1.00  0.00     0.074 A 
ATOM     60  C   UNL     1      16.156  10.025  -1.898  1.00  0.00     0.031 C 
ATOM     61  C   UNL     1      17.011   7.698  -1.916  1.00  0.00     0.034 A 
BRANCH  48  62
ATOM     62  C   UNL     1      16.442   2.185   0.878  1.00  0.00     0.023 A 
ATOM     63  C   UNL     1      15.574   1.103   0.647  1.00  0.00     0.031 A 
ATOM     64  C   UNL     1      17.764   1.899   1.263  1.00  0.00     0.131 A 
ATOM     65  C   UNL     1      16.019  -0.209   0.869  1.00  0.00     0.055 A 
ATOM     66  C   UNL     1      18.221   0.589   1.412  1.00  0.00     0.041 A 
ATOM     67  F   UNL     1      18.630   2.892   1.519  1.00  0.00    -0.206 F 
ATOM     68  C   UNL     1      17.343  -0.475   1.228  1.00  0.00     0.022 A 
BRANCH  65  69
ATOM     69  S   UNL     1      14.808  -1.559   0.814  1.00  0.00     0.124 S 
ATOM     70  O   UNL     1      13.858  -1.147   1.844  1.00  0.00    -0.237 OA
ATOM     71  O   UNL     1      14.327  -1.495  -0.561  1.00  0.00    -0.237 OA
ATOM     72  O   UNL     1      15.598  -2.743   1.144  1.00  0.00    -0.744 OA
ENDBRANCH  65  69
ENDBRANCH  48  62
BRANCH  49  73
ATOM     73  C   UNL     1      13.276  11.696   0.702  1.00  0.00     0.023 A 
ATOM     74  C   UNL     1      12.602  12.277  -0.383  1.00  0.00     0.031 A 
ATOM     75  C   UNL     1      13.591  12.516   1.801  1.00  0.00     0.131 A 
ATOM     76  C   UNL     1      12.294  13.646  -0.361  1.00  0.00     0.055 A 
ATOM     77  C   UNL     1      13.240  13.866   1.839  1.00  0.00     0.041 A 
ATOM     78  F   UNL     1      14.236  12.009   2.864  1.00  0.00    -0.206 F 
ATOM     79  C   UNL     1      12.597  14.441   0.748  1.00  0.00     0.022 A 
BRANCH  76  80
ATOM     80  S   UNL     1      11.551  14.395  -1.837  1.00  0.00     0.124 S 
ATOM     81  O   UNL     1      12.557  14.111  -2.854  1.00  0.00    -0.237 OA
ATOM     82  O   UNL     1      10.297  13.658  -1.951  1.00  0.00    -0.237 OA
ATOM     83  O   UNL     1      11.413  15.803  -1.471  1.00  0.00    -0.744 OA
ENDBRANCH  76  80
ENDBRANCH  49  73
BRANCH  61  84
ATOM     84  C   UNL     1      17.885   8.087  -3.082  1.00  0.00     0.023 A 
ATOM     85  C   UNL     1      18.974   8.963  -2.928  1.00  0.00     0.031 A 
ATOM     86  C   UNL     1      17.613   7.583  -4.365  1.00  0.00     0.131 A 
ATOM     87  C   UNL     1      19.724   9.345  -4.051  1.00  0.00     0.055 A 
ATOM     88  C   UNL     1      18.393   7.928  -5.469  1.00  0.00     0.041 A 
ATOM     89  F   UNL     1      16.583   6.744  -4.566  1.00  0.00    -0.206 F 
ATOM     90  C   UNL     1      19.449   8.822  -5.317  1.00  0.00     0.022 A 
BRANCH  87  91
ATOM     91  S   UNL     1      21.023  10.595  -3.848  1.00  0.00     0.124 S 
ATOM     92  O   UNL     1      20.268  11.741  -3.354  1.00  0.00    -0.237 OA
ATOM     93  O   UNL     1      21.920   9.960  -2.887  1.00  0.00    -0.237 OA
ATOM     94  O   UNL     1      21.568  10.745  -5.196  1.00  0.00    -0.744 OA
ENDBRANCH  87  91
ENDBRANCH  61  84
ENDBRANCH  35  36
ENDBRANCH  28  30
ENDBRANCH  27  28
ENDBRANCH  26  27
ENDBRANCH   1  26
TORSDOF 19
