REMARK SMILES COc1ccc([C@@H]2[C@@H](C(=O)c3cccc4c3CCCC4)[C@H](C(=O)OCCOC(=O)c3ccc(-c4c5nc(c(-c6cc(S(=O)(=O)[O-])ccc6F)c6ccc([nH]6)c(-c6cc(S(=O)(=O)[O-])ccc6F)c6nc(c(-c7cc(S(=O)(=O)[O-])ccc7F)c7ccc4[nH]7)C=C6)C=C5)cc3)SC3=NC(=O)S[C@H]32)cc1
REMARK SMILES IDX 26 1 25 2 24 3 22 4 23 5 21 6 7 7 8 8 99 9 94 10 98 11 93 12
REMARK SMILES IDX 95 13 96 14 97 15 6 16 3 17 4 18 101 19 5 20 100 21 2 22
REMARK SMILES IDX 1 23 9 24 10 25 11 26 12 27 16 28 13 29 15 30 17 31 14 32
REMARK SMILES IDX 20 33 18 34 19 35 27 36 28 37 29 38 30 39 31 40 92 41 32 42
REMARK SMILES IDX 91 43 33 44 34 45 35 46 85 47 36 48 90 49 84 50 86 51 37 52
REMARK SMILES IDX 89 53 83 54 82 55 38 57 70 58 50 59 69 60 51 61 54 62 68 63
REMARK SMILES IDX 87 64 52 65 53 66 67 68 88 69 55 70 39 71 40 72 48 73 41 74
REMARK SMILES IDX 47 75 49 76 46 77 42 78 43 79 44 80 45 81 71 82 72 83 80 84
REMARK SMILES IDX 73 85 79 86 81 87 78 88 74 89 75 90 76 91 77 92 56 93 57 94
REMARK SMILES IDX 65 95 58 96 64 97 66 98 63 99 59 100 60 101 61 102 62 103
REMARK H PARENT 86 56 54 67
REMARK Flexibility Score: inf
ROOT
ATOM      1  C   UNL     1       7.621   0.229   8.802  1.00  0.00     0.275 C 
ENDROOT
BRANCH   1   2
ATOM      2  C   UNL     1       7.205  -1.044   8.062  1.00  0.00     0.274 C 
BRANCH   2   3
ATOM      3  O   UNL     1       5.794  -1.048   7.677  1.00  0.00    -0.461 OA
BRANCH   3   4
ATOM      4  C   UNL     1       5.005  -1.772   8.512  1.00  0.00     0.320 C 
ATOM      5  O   UNL     1       5.476  -2.352   9.498  1.00  0.00    -0.251 OA
BRANCH   4   6
ATOM      6  C   UNL     1       3.530  -2.057   8.079  1.00  0.00     0.174 C 
ATOM      7  C   UNL     1       1.747  -1.973   6.115  1.00  0.00     0.052 C 
ATOM      8  C   UNL     1       2.758  -1.167   7.032  1.00  0.00     0.095 C 
ATOM      9  C   UNL     1       2.113  -3.429   5.701  1.00  0.00     0.121 C 
ATOM     10  C   UNL     1       2.408  -4.303   6.861  1.00  0.00     0.093 C 
ATOM     11  S   UNL     1       0.746  -4.378   4.906  1.00  0.00    -0.052 SA
ATOM     12  S   UNL     1       3.768  -3.891   7.783  1.00  0.00    -0.093 SA
ATOM     13  N   UNL     1       1.792  -5.411   7.082  1.00  0.00    -0.200 NA
ATOM     14  C   UNL     1       0.851  -5.646   6.123  1.00  0.00     0.306 C 
ATOM     15  O   UNL     1       0.161  -6.650   6.055  1.00  0.00    -0.259 OA
BRANCH   7  16
ATOM     16  C   UNL     1       1.473  -1.254   4.791  1.00  0.00    -0.042 A 
ATOM     17  C   UNL     1       0.864  -0.165   2.265  1.00  0.00     0.118 A 
ATOM     18  C   UNL     1      -0.144  -0.395   3.196  1.00  0.00     0.047 A 
ATOM     19  C   UNL     1       2.181  -0.486   2.586  1.00  0.00     0.047 A 
ATOM     20  C   UNL     1       0.152  -0.972   4.427  1.00  0.00     0.008 A 
ATOM     21  C   UNL     1       2.487  -1.015   3.847  1.00  0.00     0.008 A 
BRANCH  17  22
ATOM     22  O   UNL     1       0.451   0.413   1.099  1.00  0.00    -0.497 OA
ATOM     23  C   UNL     1       1.163   0.022  -0.066  1.00  0.00     0.278 C 
ENDBRANCH  17  22
ENDBRANCH   7  16
BRANCH   8  24
ATOM     24  C   UNL     1       2.217   0.304   7.657  1.00  0.00     0.168 C 
ATOM     25  O   UNL     1       3.057   1.216   7.664  1.00  0.00    -0.294 OA
BRANCH  24  26
ATOM     26  C   UNL     1       0.771   0.757   8.231  1.00  0.00     0.021 A 
ATOM     27  C   UNL     1      -0.249   0.131   7.542  1.00  0.00     0.012 A 
ATOM     28  C   UNL     1       0.538   0.692   9.614  1.00  0.00    -0.034 A 
ATOM     29  C   UNL     1      -0.972  -0.930   8.138  1.00  0.00     0.001 A 
ATOM     30  C   UNL     1       0.332  -0.737  10.140  1.00  0.00    -0.044 A 
ATOM     31  C   UNL     1       0.371   2.196  10.781  1.00  0.00     0.036 C 
ATOM     32  C   UNL     1      -0.577  -1.471   9.384  1.00  0.00     0.004 A 
ATOM     33  C   UNL     1       0.872  -1.298  11.861  1.00  0.00     0.036 C 
ATOM     34  C   UNL     1       0.659   1.978  12.774  1.00  0.00     0.005 C 
ATOM     35  C   UNL     1       1.285   0.130  13.305  1.00  0.00     0.005 C 
ENDBRANCH  24  26
ENDBRANCH   8  24
ENDBRANCH   4   6
ENDBRANCH   3   4
ENDBRANCH   2   3
ENDBRANCH   1   2
BRANCH   1  36
ATOM     36  O   UNL     1       6.774   0.406   9.944  1.00  0.00    -0.458 OA
BRANCH  36  37
ATOM     37  C   UNL     1       5.844   1.371   9.776  1.00  0.00     0.338 C 
ATOM     38  O   UNL     1       5.850   2.240   8.918  1.00  0.00    -0.246 OA
BRANCH  37  39
ATOM     39  C   UNL     1       4.697   1.162  10.671  1.00  0.00     0.060 A 
ATOM     40  C   UNL     1       4.184  -0.078  10.913  1.00  0.00     0.016 A 
ATOM     41  C   UNL     1       3.914   2.209  11.017  1.00  0.00     0.016 A 
ATOM     42  C   UNL     1       2.785  -0.282  11.099  1.00  0.00     0.010 A 
ATOM     43  C   UNL     1       2.591   1.956  11.464  1.00  0.00     0.010 A 
ATOM     44  C   UNL     1       1.662   0.670  11.450  1.00  0.00    -0.014 A 
BRANCH  44  45
ATOM     45  C   UNL     1      -0.332   0.362  12.028  1.00  0.00     0.031 A 
ATOM     46  C   UNL     1      -1.833   1.212  11.704  1.00  0.00     0.074 A 
ATOM     47  C   UNL     1      -0.970  -0.522  13.175  1.00  0.00     0.049 A 
ATOM     48  N   UNL     1      -2.765   1.634  12.576  1.00  0.00    -0.248 NA
ATOM     49  C   UNL     1      -2.231   1.586  10.332  1.00  0.00     0.031 C 
ATOM     50  C   UNL     1      -0.281  -1.715  13.921  1.00  0.00     0.029 A 
ATOM     51  N   UNL     1      -2.184  -0.577  13.941  1.00  0.00    -0.354 N 
ATOM     52  C   UNL     1      -3.678   2.459  11.883  1.00  0.00     0.074 A 
ATOM     53  C   UNL     1      -3.127   2.542  10.549  1.00  0.00     0.031 C 
ATOM     54  C   UNL     1      -1.017  -2.297  14.836  1.00  0.00     0.029 A 
ATOM     55  C   UNL     1      -2.163  -1.480  15.048  1.00  0.00     0.049 A 
ATOM     56  H   UNL     1      -2.973  -0.032  13.719  1.00  0.00     0.167 HD
ATOM     57  C   UNL     1      -4.875   3.058  12.202  1.00  0.00     0.034 A 
ATOM     58  C   UNL     1      -2.810  -1.747  16.216  1.00  0.00     0.034 A 
ATOM     59  C   UNL     1      -5.748   2.807  13.342  1.00  0.00     0.049 A 
ATOM     60  C   UNL     1      -4.057  -1.060  16.598  1.00  0.00     0.074 A 
ATOM     61  C   UNL     1      -7.014   3.351  13.578  1.00  0.00     0.029 A 
ATOM     62  N   UNL     1      -5.555   1.890  14.357  1.00  0.00    -0.354 N 
ATOM     63  N   UNL     1      -4.662  -0.113  15.950  1.00  0.00    -0.248 NA
ATOM     64  C   UNL     1      -4.736  -1.511  17.823  1.00  0.00     0.031 C 
ATOM     65  C   UNL     1      -7.567   2.788  14.732  1.00  0.00     0.029 A 
ATOM     66  C   UNL     1      -6.672   1.855  15.201  1.00  0.00     0.049 A 
ATOM     67  H   UNL     1      -4.747   1.339  14.471  1.00  0.00     0.167 HD
ATOM     68  C   UNL     1      -5.838   0.094  16.648  1.00  0.00     0.074 A 
ATOM     69  C   UNL     1      -5.860  -0.818  17.765  1.00  0.00     0.031 C 
ATOM     70  C   UNL     1      -6.805   0.977  16.331  1.00  0.00     0.034 A 
BRANCH  57  71
ATOM     71  C   UNL     1      -5.417   4.110  11.225  1.00  0.00     0.023 A 
ATOM     72  C   UNL     1      -5.781   3.792   9.909  1.00  0.00     0.031 A 
ATOM     73  C   UNL     1      -5.589   5.451  11.634  1.00  0.00     0.131 A 
ATOM     74  C   UNL     1      -6.122   4.812   9.009  1.00  0.00     0.055 A 
ATOM     75  C   UNL     1      -6.075   6.438  10.770  1.00  0.00     0.041 A 
ATOM     76  F   UNL     1      -5.305   5.825  12.893  1.00  0.00    -0.206 F 
ATOM     77  C   UNL     1      -6.309   6.128   9.435  1.00  0.00     0.022 A 
BRANCH  74  78
ATOM     78  S   UNL     1      -6.088   4.420   7.240  1.00  0.00     0.124 S 
ATOM     79  O   UNL     1      -4.699   3.995   7.067  1.00  0.00    -0.237 OA
ATOM     80  O   UNL     1      -7.091   3.368   7.128  1.00  0.00    -0.237 OA
ATOM     81  O   UNL     1      -6.431   5.687   6.599  1.00  0.00    -0.744 OA
ENDBRANCH  74  78
ENDBRANCH  57  71
BRANCH  58  82
ATOM     82  C   UNL     1      -2.236  -2.738  17.223  1.00  0.00     0.023 A 
ATOM     83  C   UNL     1      -2.872  -3.960  17.503  1.00  0.00     0.031 A 
ATOM     84  C   UNL     1      -1.055  -2.441  17.938  1.00  0.00     0.131 A 
ATOM     85  C   UNL     1      -2.364  -4.805  18.507  1.00  0.00     0.055 A 
ATOM     86  C   UNL     1      -0.515  -3.320  18.883  1.00  0.00     0.041 A 
ATOM     87  F   UNL     1      -0.388  -1.300  17.701  1.00  0.00    -0.206 F 
ATOM     88  C   UNL     1      -1.181  -4.502  19.185  1.00  0.00     0.022 A 
BRANCH  85  89
ATOM     89  S   UNL     1      -3.341  -6.252  19.005  1.00  0.00     0.124 S 
ATOM     90  O   UNL     1      -4.632  -5.647  19.312  1.00  0.00    -0.237 OA
ATOM     91  O   UNL     1      -3.288  -7.079  17.805  1.00  0.00    -0.237 OA
ATOM     92  O   UNL     1      -2.610  -6.778  20.156  1.00  0.00    -0.744 OA
ENDBRANCH  85  89
ENDBRANCH  58  82
BRANCH  70  93
ATOM     93  C   UNL     1      -8.051   0.932  17.167  1.00  0.00     0.023 A 
ATOM     94  C   UNL     1      -8.033   1.270  18.532  1.00  0.00     0.031 A 
ATOM     95  C   UNL     1      -9.246   0.426  16.627  1.00  0.00     0.131 A 
ATOM     96  C   UNL     1      -9.166   1.040  19.326  1.00  0.00     0.055 A 
ATOM     97  C   UNL     1     -10.390   0.256  17.409  1.00  0.00     0.041 A 
ATOM     98  F   UNL     1      -9.310   0.057  15.337  1.00  0.00    -0.206 F 
ATOM     99  C   UNL     1     -10.350   0.550  18.769  1.00  0.00     0.022 A 
BRANCH  96 100
ATOM    100  S   UNL     1      -9.035   1.287  21.118  1.00  0.00     0.124 S 
ATOM    101  O   UNL     1      -8.023   0.303  21.485  1.00  0.00    -0.237 OA
ATOM    102  O   UNL     1      -8.627   2.685  21.211  1.00  0.00    -0.237 OA
ATOM    103  O   UNL     1     -10.384   1.004  21.603  1.00  0.00    -0.744 OA
ENDBRANCH  96 100
ENDBRANCH  70  93
ENDBRANCH  44  45
ENDBRANCH  37  39
ENDBRANCH  36  37
ENDBRANCH   1  36
TORSDOF 18
