REMARK SMILES C[C@](NC(=O)c1ccc(Br)o1)(C(=O)OCCOC(=O)c1ccc(-c2c3nc(c(-c4cc(S(=O)(=O)[O-])ccc4F)c4ccc([nH]4)c(-c4cc(S(=O)(=O)[O-])ccc4F)c4nc(c(-c5cc(S(=O)(=O)[O-])ccc5F)c5ccc2[nH]5)C=C4)C=C3)cc1)C(F)(F)F
REMARK SMILES IDX 16 1 15 2 14 3 12 4 13 5 2 6 1 7 83 8 84 9 85 10 86 11 3 12
REMARK SMILES IDX 4 13 5 15 6 16 7 17 11 18 8 19 9 20 10 21 17 22 18 23 19 24
REMARK SMILES IDX 20 25 21 26 82 27 22 28 81 29 23 30 24 31 25 32 75 33 26 34
REMARK SMILES IDX 80 35 74 36 76 37 27 38 79 39 73 40 72 41 28 43 60 44 40 45
REMARK SMILES IDX 59 46 41 47 44 48 58 49 77 50 42 51 43 52 57 54 78 55 45 56
REMARK SMILES IDX 29 57 30 58 38 59 31 60 37 61 39 62 36 63 32 64 33 65 34 66
REMARK SMILES IDX 35 67 61 68 62 69 70 70 63 71 69 72 71 73 68 74 64 75 65 76
REMARK SMILES IDX 66 77 67 78 46 79 47 80 55 81 48 82 54 83 56 84 53 85 49 86
REMARK SMILES IDX 50 87 51 88 52 89
REMARK H PARENT 3 14 76 42 44 53
REMARK Flexibility Score: inf
ROOT
ATOM      1  C   UNL     1      -3.445   0.280  -0.012  1.00  0.00     0.275 C 
ENDROOT
BRANCH   1   2
ATOM      2  C   UNL     1      -2.750  -0.701  -0.951  1.00  0.00     0.274 C 
BRANCH   2   3
ATOM      3  O   UNL     1      -1.311  -0.617  -0.847  1.00  0.00    -0.460 OA
BRANCH   3   4
ATOM      4  C   UNL     1      -0.694   0.088  -1.843  1.00  0.00     0.341 C 
ATOM      5  O   UNL     1      -1.304   0.698  -2.713  1.00  0.00    -0.249 OA
BRANCH   4   6
ATOM      6  C   UNL     1       0.837  -0.058  -1.818  1.00  0.00     0.231 C 
ATOM      7  C   UNL     1       1.212  -0.701  -3.160  1.00  0.00     0.058 C 
BRANCH   6   8
ATOM      8  C   UNL     1       1.358   1.383  -1.727  1.00  0.00     0.422 C 
ATOM      9  F   UNL     1       0.989   1.950  -0.556  1.00  0.00    -0.168 F 
ATOM     10  F   UNL     1       2.710   1.422  -1.763  1.00  0.00    -0.168 F 
ATOM     11  F   UNL     1       0.926   2.173  -2.731  1.00  0.00    -0.168 F 
ENDBRANCH   6   8
BRANCH   6  12
ATOM     12  N   UNL     1       1.262  -0.876  -0.636  1.00  0.00    -0.326 N 
ATOM     13  C   UNL     1       2.485  -1.391  -0.284  1.00  0.00     0.288 C 
ATOM     14  H   UNL     1       0.537  -1.079  -0.001  1.00  0.00     0.165 HD
ATOM     15  O   UNL     1       2.631  -1.780   0.873  1.00  0.00    -0.266 OA
BRANCH  13  16
ATOM     16  C   UNL     1       3.505  -1.525  -1.291  1.00  0.00     0.192 A 
ATOM     17  C   UNL     1       4.546  -0.711  -1.692  1.00  0.00     0.057 A 
ATOM     18  O   UNL     1       3.513  -2.677  -2.031  1.00  0.00    -0.444 OA
ATOM     19  C   UNL     1       5.196  -1.381  -2.761  1.00  0.00     0.059 A 
ATOM     20  C   UNL     1       4.545  -2.584  -2.909  1.00  0.00     0.170 A 
ATOM     21  Br  UNL     1       4.989  -3.905  -4.148  1.00  0.00    -0.008 Br
ENDBRANCH  13  16
ENDBRANCH   6  12
ENDBRANCH   4   6
ENDBRANCH   3   4
ENDBRANCH   2   3
ENDBRANCH   1   2
BRANCH   1  22
ATOM     22  O   UNL     1      -3.035   1.622  -0.318  1.00  0.00    -0.458 OA
BRANCH  22  23
ATOM     23  C   UNL     1      -2.513   2.319   0.720  1.00  0.00     0.338 C 
ATOM     24  O   UNL     1      -2.408   1.940   1.873  1.00  0.00    -0.246 OA
BRANCH  23  25
ATOM     25  C   UNL     1      -2.051   3.644   0.265  1.00  0.00     0.060 A 
ATOM     26  C   UNL     1      -1.216   3.752  -0.844  1.00  0.00     0.016 A 
ATOM     27  C   UNL     1      -2.325   4.770   1.038  1.00  0.00     0.016 A 
ATOM     28  C   UNL     1      -0.537   4.943  -1.093  1.00  0.00     0.010 A 
ATOM     29  C   UNL     1      -1.744   5.999   0.703  1.00  0.00     0.010 A 
ATOM     30  C   UNL     1      -0.797   6.092  -0.333  1.00  0.00    -0.014 A 
BRANCH  30  31
ATOM     31  C   UNL     1      -0.044   7.363  -0.567  1.00  0.00     0.031 A 
ATOM     32  C   UNL     1       0.673   8.034   0.581  1.00  0.00     0.074 A 
ATOM     33  C   UNL     1       0.022   7.922  -1.794  1.00  0.00     0.049 A 
ATOM     34  N   UNL     1       1.153   9.249   0.666  1.00  0.00    -0.248 NA
ATOM     35  C   UNL     1       0.849   7.236   1.804  1.00  0.00     0.031 C 
ATOM     36  C   UNL     1      -0.560   7.366  -3.017  1.00  0.00     0.029 A 
ATOM     37  N   UNL     1       0.618   9.086  -2.217  1.00  0.00    -0.354 N 
ATOM     38  C   UNL     1       1.611   9.389   1.974  1.00  0.00     0.074 A 
ATOM     39  C   UNL     1       1.352   8.130   2.642  1.00  0.00     0.031 C 
ATOM     40  C   UNL     1      -0.251   8.157  -4.054  1.00  0.00     0.029 A 
ATOM     41  C   UNL     1       0.448   9.337  -3.560  1.00  0.00     0.049 A 
ATOM     42  H   UNL     1       1.118   9.685  -1.617  1.00  0.00     0.167 HD
ATOM     43  C   UNL     1       2.184  10.470   2.562  1.00  0.00     0.034 A 
ATOM     44  C   UNL     1       0.759  10.415  -4.306  1.00  0.00     0.034 A 
ATOM     45  C   UNL     1       2.503  11.691   1.860  1.00  0.00     0.049 A 
ATOM     46  C   UNL     1       1.379  11.611  -3.634  1.00  0.00     0.074 A 
ATOM     47  C   UNL     1       3.093  12.843   2.353  1.00  0.00     0.029 A 
ATOM     48  N   UNL     1       2.280  11.911   0.507  1.00  0.00    -0.354 N 
ATOM     49  N   UNL     1       1.696  11.775  -2.371  1.00  0.00    -0.248 NA
ATOM     50  C   UNL     1       1.656  12.776  -4.484  1.00  0.00     0.031 C 
ATOM     51  C   UNL     1       3.183  13.774   1.311  1.00  0.00     0.029 A 
ATOM     52  C   UNL     1       2.707  13.183   0.153  1.00  0.00     0.049 A 
ATOM     53  H   UNL     1       1.878  11.259  -0.111  1.00  0.00     0.167 HD
ATOM     54  C   UNL     1       2.210  13.064  -2.276  1.00  0.00     0.074 A 
ATOM     55  C   UNL     1       2.187  13.621  -3.613  1.00  0.00     0.031 C 
ATOM     56  C   UNL     1       2.655  13.731  -1.181  1.00  0.00     0.034 A 
BRANCH  43  57
ATOM     57  C   UNL     1       2.435  10.403   4.050  1.00  0.00     0.023 A 
ATOM     58  C   UNL     1       3.361   9.513   4.621  1.00  0.00     0.031 A 
ATOM     59  C   UNL     1       1.701  11.234   4.919  1.00  0.00     0.131 A 
ATOM     60  C   UNL     1       3.476   9.425   6.018  1.00  0.00     0.055 A 
ATOM     61  C   UNL     1       1.877  11.195   6.303  1.00  0.00     0.041 A 
ATOM     62  F   UNL     1       0.788  12.091   4.434  1.00  0.00    -0.206 F 
ATOM     63  C   UNL     1       2.758  10.276   6.862  1.00  0.00     0.022 A 
BRANCH  60  64
ATOM     64  S   UNL     1       4.477   8.087   6.724  1.00  0.00     0.124 S 
ATOM     65  O   UNL     1       3.817   6.904   6.177  1.00  0.00    -0.237 OA
ATOM     66  O   UNL     1       5.807   8.377   6.201  1.00  0.00    -0.237 OA
ATOM     67  O   UNL     1       4.322   8.266   8.167  1.00  0.00    -0.744 OA
ENDBRANCH  60  64
ENDBRANCH  43  57
BRANCH  44  68
ATOM     68  C   UNL     1       0.405  10.455  -5.754  1.00  0.00     0.023 A 
ATOM     69  C   UNL     1       1.398  10.515  -6.744  1.00  0.00     0.031 A 
ATOM     70  C   UNL     1      -0.941  10.456  -6.166  1.00  0.00     0.131 A 
ATOM     71  C   UNL     1       1.030  10.600  -8.096  1.00  0.00     0.055 A 
ATOM     72  C   UNL     1      -1.300  10.488  -7.513  1.00  0.00     0.041 A 
ATOM     73  F   UNL     1      -1.929  10.403  -5.259  1.00  0.00    -0.206 F 
ATOM     74  C   UNL     1      -0.311  10.570  -8.488  1.00  0.00     0.022 A 
BRANCH  71  75
ATOM     75  S   UNL     1       2.331  10.818  -9.341  1.00  0.00     0.124 S 
ATOM     76  O   UNL     1       2.952  12.064  -8.908  1.00  0.00    -0.237 OA
ATOM     77  O   UNL     1       3.128   9.608  -9.162  1.00  0.00    -0.237 OA
ATOM     78  O   UNL     1       1.591  10.892 -10.598  1.00  0.00    -0.744 OA
ENDBRANCH  71  75
ENDBRANCH  44  68
BRANCH  56  79
ATOM     79  C   UNL     1       3.177  15.126  -1.407  1.00  0.00     0.023 A 
ATOM     80  C   UNL     1       2.317  16.185  -1.745  1.00  0.00     0.031 A 
ATOM     81  C   UNL     1       4.554  15.390  -1.315  1.00  0.00     0.131 A 
ATOM     82  C   UNL     1       2.850  17.451  -2.033  1.00  0.00     0.055 A 
ATOM     83  C   UNL     1       5.074  16.662  -1.554  1.00  0.00     0.041 A 
ATOM     84  F   UNL     1       5.417  14.411  -0.998  1.00  0.00    -0.206 F 
ATOM     85  C   UNL     1       4.221  17.698  -1.927  1.00  0.00     0.022 A 
BRANCH  82  86
ATOM     86  S   UNL     1       1.735  18.751  -2.630  1.00  0.00     0.124 S 
ATOM     87  O   UNL     1       1.187  18.149  -3.842  1.00  0.00    -0.237 OA
ATOM     88  O   UNL     1       0.805  18.902  -1.516  1.00  0.00    -0.237 OA
ATOM     89  O   UNL     1       2.625  19.890  -2.852  1.00  0.00    -0.744 OA
ENDBRANCH  82  86
ENDBRANCH  56  79
ENDBRANCH  30  31
ENDBRANCH  23  25
ENDBRANCH  22  23
ENDBRANCH   1  22
TORSDOF 17
