REMARK SMILES CC[C@@H](C)[C@@H](C(=O)OCCOC(=O)c1ccc(-c2c3nc(c(-c4cc(S(=O)(=O)[O-])ccc4F)c4ccc([nH]4)c(-c4cc(S(=O)(=O)[O-])ccc4F)c4nc(c(-c5cc(S(=O)(=O)[O-])ccc5F)c5ccc2[nH]5)C=C4)C=C3)cc1)N1C(=O)/C(=C/c2ccc(O)cc2)SC1=S
REMARK SMILES IDX 9 1 8 2 6 3 7 4 5 5 3 6 4 7 2 8 1 9 77 10 78 11 90 12 79 13
REMARK SMILES IDX 80 14 89 15 91 16 81 17 82 18 83 19 88 20 84 21 87 22 85 23
REMARK SMILES IDX 86 24 10 26 11 27 12 28 13 29 14 30 15 31 76 32 16 33 75 34
REMARK SMILES IDX 17 35 18 36 19 37 69 38 20 39 74 40 68 41 70 42 21 43 73 44
REMARK SMILES IDX 67 45 66 46 22 48 54 49 34 50 53 51 35 52 38 53 52 54 71 55
REMARK SMILES IDX 36 56 37 57 51 59 72 60 39 61 23 62 24 63 32 64 25 65 31 66
REMARK SMILES IDX 33 67 30 68 26 69 27 70 28 71 29 72 55 73 56 74 64 75 57 76
REMARK SMILES IDX 63 77 65 78 62 79 58 80 59 81 60 82 61 83 40 84 41 85 49 86
REMARK SMILES IDX 42 87 48 88 50 89 47 90 43 91 44 92 45 93 46 94
REMARK H PARENT 86 25 70 47 38 58
REMARK Flexibility Score: inf
ROOT
ATOM      1  C   UNL     1       1.100   4.554   2.154  1.00  0.00     0.274 C 
ENDROOT
BRANCH   1   2
ATOM      2  O   UNL     1       0.785   3.712   1.023  1.00  0.00    -0.461 OA
BRANCH   2   3
ATOM      3  C   UNL     1       0.489   4.315  -0.152  1.00  0.00     0.329 C 
ATOM      4  O   UNL     1       0.465   5.536  -0.271  1.00  0.00    -0.250 OA
BRANCH   3   5
ATOM      5  C   UNL     1       0.048   3.341  -1.282  1.00  0.00     0.204 C 
BRANCH   5   6
ATOM      6  C   UNL     1       0.397   1.820  -1.164  1.00  0.00     0.020 C 
ATOM      7  C   UNL     1      -0.264   1.056  -2.334  1.00  0.00     0.010 C 
BRANCH   6   8
ATOM      8  C   UNL     1       0.014   1.102   0.154  1.00  0.00     0.002 C 
ATOM      9  C   UNL     1       0.523  -0.340   0.204  1.00  0.00     0.004 C 
ENDBRANCH   6   8
ENDBRANCH   5   6
BRANCH   5  10
ATOM     10  N   UNL     1       0.439   3.984  -2.604  1.00  0.00    -0.278 N 
ATOM     11  C   UNL     1      -0.370   5.034  -3.052  1.00  0.00     0.267 C 
ATOM     12  C   UNL     1       1.543   3.725  -3.408  1.00  0.00     0.149 C 
ATOM     13  O   UNL     1      -1.426   5.392  -2.545  1.00  0.00    -0.268 OA
ATOM     14  C   UNL     1       0.209   5.675  -4.266  1.00  0.00     0.081 C 
ATOM     15  S   UNL     1       1.455   4.678  -4.885  1.00  0.00    -0.054 SA
ATOM     16  S   UNL     1       2.852   2.713  -3.207  1.00  0.00    -0.052 S 
ATOM     17  C   UNL     1      -0.163   6.870  -4.751  1.00  0.00     0.029 C 
BRANCH  17  18
ATOM     18  C   UNL     1       0.412   7.471  -5.966  1.00  0.00    -0.024 A 
ATOM     19  C   UNL     1       1.470   8.384  -5.894  1.00  0.00     0.012 A 
ATOM     20  C   UNL     1      -0.060   7.072  -7.224  1.00  0.00     0.012 A 
ATOM     21  C   UNL     1       2.062   8.871  -7.064  1.00  0.00     0.047 A 
ATOM     22  C   UNL     1       0.528   7.563  -8.393  1.00  0.00     0.047 A 
ATOM     23  C   UNL     1       1.591   8.454  -8.302  1.00  0.00     0.115 A 
BRANCH  23  24
ATOM     24  O   UNL     1       2.208   8.944  -9.413  1.00  0.00    -0.508 OA
ATOM     25  H   UNL     1       2.922   9.543  -9.326  1.00  0.00     0.293 HD
ENDBRANCH  23  24
ENDBRANCH  17  18
ENDBRANCH   5  10
ENDBRANCH   3   5
ENDBRANCH   2   3
ENDBRANCH   1   2
BRANCH   1  26
ATOM     26  C   UNL     1       2.602   4.556   2.439  1.00  0.00     0.275 C 
BRANCH  26  27
ATOM     27  O   UNL     1       3.306   5.344   1.465  1.00  0.00    -0.458 OA
BRANCH  27  28
ATOM     28  C   UNL     1       3.750   4.654   0.391  1.00  0.00     0.338 C 
ATOM     29  O   UNL     1       3.662   3.450   0.206  1.00  0.00    -0.246 OA
BRANCH  28  30
ATOM     30  C   UNL     1       4.231   5.604  -0.619  1.00  0.00     0.060 A 
ATOM     31  C   UNL     1       3.329   6.034  -1.589  1.00  0.00     0.016 A 
ATOM     32  C   UNL     1       5.565   5.997  -0.675  1.00  0.00     0.016 A 
ATOM     33  C   UNL     1       3.754   6.809  -2.654  1.00  0.00     0.010 A 
ATOM     34  C   UNL     1       5.986   6.828  -1.722  1.00  0.00     0.010 A 
ATOM     35  C   UNL     1       5.084   7.223  -2.726  1.00  0.00    -0.014 A 
BRANCH  35  36
ATOM     36  C   UNL     1       5.518   8.012  -3.902  1.00  0.00     0.031 A 
ATOM     37  C   UNL     1       6.426   7.378  -4.912  1.00  0.00     0.074 A 
ATOM     38  C   UNL     1       5.017   9.246  -4.107  1.00  0.00     0.049 A 
ATOM     39  N   UNL     1       7.063   7.929  -5.910  1.00  0.00    -0.248 NA
ATOM     40  C   UNL     1       6.653   5.931  -4.774  1.00  0.00     0.031 C 
ATOM     41  C   UNL     1       4.011   9.896  -3.264  1.00  0.00     0.029 A 
ATOM     42  N   UNL     1       5.241  10.153  -5.110  1.00  0.00    -0.354 N 
ATOM     43  C   UNL     1       7.828   6.915  -6.474  1.00  0.00     0.074 A 
ATOM     44  C   UNL     1       7.547   5.708  -5.726  1.00  0.00     0.031 C 
ATOM     45  C   UNL     1       3.651  11.059  -3.829  1.00  0.00     0.029 A 
ATOM     46  C   UNL     1       4.478  11.295  -5.007  1.00  0.00     0.049 A 
ATOM     47  H   UNL     1       5.889  10.003  -5.836  1.00  0.00     0.167 HD
ATOM     48  C   UNL     1       8.711   7.010  -7.498  1.00  0.00     0.034 A 
ATOM     49  C   UNL     1       4.476  12.411  -5.764  1.00  0.00     0.034 A 
ATOM     50  C   UNL     1       8.938   8.233  -8.230  1.00  0.00     0.049 A 
ATOM     51  C   UNL     1       5.494  12.508  -6.875  1.00  0.00     0.074 A 
ATOM     52  C   UNL     1       9.877   8.498  -9.211  1.00  0.00     0.029 A 
ATOM     53  N   UNL     1       8.193   9.396  -8.070  1.00  0.00    -0.354 N 
ATOM     54  N   UNL     1       6.351  11.602  -7.290  1.00  0.00    -0.248 NA
ATOM     55  C   UNL     1       5.580  13.788  -7.589  1.00  0.00     0.031 C 
ATOM     56  C   UNL     1       9.737   9.835  -9.601  1.00  0.00     0.029 A 
ATOM     57  C   UNL     1       8.664  10.385  -8.917  1.00  0.00     0.049 A 
ATOM     58  H   UNL     1       7.440   9.502  -7.444  1.00  0.00     0.167 HD
ATOM     59  C   UNL     1       7.074  12.203  -8.315  1.00  0.00     0.074 A 
ATOM     60  C   UNL     1       6.533  13.538  -8.476  1.00  0.00     0.031 C 
ATOM     61  C   UNL     1       8.103  11.709  -9.048  1.00  0.00     0.034 A 
BRANCH  48  62
ATOM     62  C   UNL     1       9.576   5.806  -7.777  1.00  0.00     0.023 A 
ATOM     63  C   UNL     1       9.060   4.597  -8.274  1.00  0.00     0.031 A 
ATOM     64  C   UNL     1      10.950   5.861  -7.473  1.00  0.00     0.131 A 
ATOM     65  C   UNL     1       9.900   3.477  -8.392  1.00  0.00     0.055 A 
ATOM     66  C   UNL     1      11.794   4.765  -7.662  1.00  0.00     0.041 A 
ATOM     67  F   UNL     1      11.494   6.979  -6.966  1.00  0.00    -0.206 F 
ATOM     68  C   UNL     1      11.267   3.559  -8.111  1.00  0.00     0.022 A 
BRANCH  65  69
ATOM     69  S   UNL     1       9.160   1.867  -8.784  1.00  0.00     0.124 S 
ATOM     70  O   UNL     1       8.228   1.690  -7.674  1.00  0.00    -0.237 OA
ATOM     71  O   UNL     1       8.560   2.105 -10.092  1.00  0.00    -0.237 OA
ATOM     72  O   UNL     1      10.302   0.954  -8.780  1.00  0.00    -0.744 OA
ENDBRANCH  65  69
ENDBRANCH  48  62
BRANCH  49  73
ATOM     73  C   UNL     1       3.545  13.544  -5.472  1.00  0.00     0.023 A 
ATOM     74  C   UNL     1       2.644  14.007  -6.446  1.00  0.00     0.031 A 
ATOM     75  C   UNL     1       3.570  14.217  -4.236  1.00  0.00     0.131 A 
ATOM     76  C   UNL     1       1.837  15.126  -6.183  1.00  0.00     0.055 A 
ATOM     77  C   UNL     1       2.716  15.285  -3.954  1.00  0.00     0.041 A 
ATOM     78  F   UNL     1       4.423  13.838  -3.270  1.00  0.00    -0.206 F 
ATOM     79  C   UNL     1       1.852  15.755  -4.936  1.00  0.00     0.022 A 
BRANCH  76  80
ATOM     80  S   UNL     1       0.846  15.827  -7.532  1.00  0.00     0.124 S 
ATOM     81  O   UNL     1       1.862  16.083  -8.547  1.00  0.00    -0.237 OA
ATOM     82  O   UNL     1      -0.090  14.745  -7.817  1.00  0.00    -0.237 OA
ATOM     83  O   UNL     1       0.251  17.020  -6.933  1.00  0.00    -0.744 OA
ENDBRANCH  76  80
ENDBRANCH  49  73
BRANCH  61  84
ATOM     84  C   UNL     1       8.688  12.612 -10.101  1.00  0.00     0.023 A 
ATOM     85  C   UNL     1       9.465  13.732  -9.758  1.00  0.00     0.031 A 
ATOM     86  C   UNL     1       8.491  12.327 -11.463  1.00  0.00     0.131 A 
ATOM     87  C   UNL     1       9.991  14.549 -10.770  1.00  0.00     0.055 A 
ATOM     88  C   UNL     1       9.053  13.118 -12.464  1.00  0.00     0.041 A 
ATOM     89  F   UNL     1       7.760  11.266 -11.839  1.00  0.00    -0.206 F 
ATOM     90  C   UNL     1       9.802  14.240 -12.120  1.00  0.00     0.022 A 
BRANCH  87  91
ATOM     91  S   UNL     1      10.898  16.048 -10.300  1.00  0.00     0.124 S 
ATOM     92  O   UNL     1       9.871  16.821  -9.609  1.00  0.00    -0.237 OA
ATOM     93  O   UNL     1      11.969  15.519  -9.461  1.00  0.00    -0.237 OA
ATOM     94  O   UNL     1      11.334  16.601 -11.581  1.00  0.00    -0.744 OA
ENDBRANCH  87  91
ENDBRANCH  61  84
ENDBRANCH  35  36
ENDBRANCH  28  30
ENDBRANCH  27  28
ENDBRANCH  26  27
ENDBRANCH   1  26
TORSDOF 19
