REMARK SMILES O=C(OCCOC(=O)c1cc(Br)cc2c1N[C@H](c1cccc([N+](=O)[O-])c1)[C@H]1CC=C[C@H]21)c1ccc(-c2c3nc(c(-c4cc(S(=O)(=O)[O-])ccc4F)c4ccc([nH]4)c(-c4cc(S(=O)(=O)[O-])ccc4F)c4nc(c(-c5cc(S(=O)(=O)[O-])ccc5F)c5ccc2[nH]5)C=C4)C=C3)cc1
REMARK SMILES IDX 4 1 3 2 2 3 1 4 32 5 33 6 94 7 34 8 93 9 35 10 36 11 37 12
REMARK SMILES IDX 87 13 38 14 92 15 86 16 88 17 39 18 91 19 85 20 84 21 40 23
REMARK SMILES IDX 72 24 52 25 71 26 53 27 56 28 70 29 89 30 54 31 55 32 69 34
REMARK SMILES IDX 90 35 57 36 41 37 42 38 50 39 43 40 49 41 51 42 48 43 44 44
REMARK SMILES IDX 45 45 46 46 47 47 73 48 74 49 82 50 75 51 81 52 83 53 80 54
REMARK SMILES IDX 76 55 77 56 78 57 79 58 58 59 59 60 67 61 60 62 66 63 68 64
REMARK SMILES IDX 65 65 61 66 62 67 63 68 64 69 5 70 6 71 7 72 8 73 9 74 10 75
REMARK SMILES IDX 15 76 11 77 14 78 16 79 12 80 13 81 31 82 17 83 27 85 30 86
REMARK SMILES IDX 28 87 29 88 18 89 19 90 26 91 20 92 22 93 21 94 23 95 24 96
REMARK SMILES IDX 25 97
REMARK H PARENT 88 22 56 33 16 84
REMARK Flexibility Score: inf
ROOT
ATOM      1  C   UNL     1       4.655  -0.441  -1.288  1.00  0.00     0.275 C 
ENDROOT
BRANCH   1   2
ATOM      2  O   UNL     1       3.539  -0.988  -0.562  1.00  0.00    -0.458 OA
BRANCH   2   3
ATOM      3  C   UNL     1       3.199  -0.955   0.747  1.00  0.00     0.338 C 
ATOM      4  O   UNL     1       2.238  -1.650   1.087  1.00  0.00    -0.246 OA
BRANCH   3   5
ATOM      5  C   UNL     1       3.813  -0.072   1.808  1.00  0.00     0.060 A 
ATOM      6  C   UNL     1       3.041   0.110   2.972  1.00  0.00     0.016 A 
ATOM      7  C   UNL     1       5.052   0.572   1.781  1.00  0.00     0.016 A 
ATOM      8  C   UNL     1       3.452   0.946   4.024  1.00  0.00     0.010 A 
ATOM      9  C   UNL     1       5.498   1.360   2.872  1.00  0.00     0.010 A 
ATOM     10  C   UNL     1       4.702   1.580   4.004  1.00  0.00    -0.014 A 
BRANCH  10  11
ATOM     11  C   UNL     1       5.182   2.325   5.218  1.00  0.00     0.031 A 
ATOM     12  C   UNL     1       5.505   3.802   5.248  1.00  0.00     0.074 A 
ATOM     13  C   UNL     1       5.365   1.652   6.368  1.00  0.00     0.049 A 
ATOM     14  N   UNL     1       5.667   4.623   6.264  1.00  0.00    -0.248 NA
ATOM     15  C   UNL     1       5.674   4.448   3.954  1.00  0.00     0.031 C 
ATOM     16  C   UNL     1       5.196   0.213   6.545  1.00  0.00     0.029 A 
ATOM     17  N   UNL     1       5.756   2.105   7.603  1.00  0.00    -0.354 N 
ATOM     18  C   UNL     1       5.851   5.893   5.714  1.00  0.00     0.074 A 
ATOM     19  C   UNL     1       5.863   5.714   4.305  1.00  0.00     0.031 C 
ATOM     20  C   UNL     1       5.488  -0.101   7.815  1.00  0.00     0.029 A 
ATOM     21  C   UNL     1       5.898   1.108   8.531  1.00  0.00     0.049 A 
ATOM     22  H   UNL     1       5.918   3.055   7.802  1.00  0.00     0.167 HD
ATOM     23  C   UNL     1       5.999   7.113   6.287  1.00  0.00     0.034 A 
ATOM     24  C   UNL     1       6.325   1.156   9.809  1.00  0.00     0.034 A 
ATOM     25  C   UNL     1       6.171   7.285   7.686  1.00  0.00     0.049 A 
ATOM     26  C   UNL     1       6.588   2.491  10.460  1.00  0.00     0.074 A 
ATOM     27  C   UNL     1       6.338   8.464   8.382  1.00  0.00     0.029 A 
ATOM     28  N   UNL     1       6.255   6.243   8.579  1.00  0.00    -0.354 N 
ATOM     29  N   UNL     1       6.462   3.697   9.957  1.00  0.00    -0.248 NA
ATOM     30  C   UNL     1       7.018   2.479  11.865  1.00  0.00     0.031 C 
ATOM     31  C   UNL     1       6.580   8.128   9.707  1.00  0.00     0.029 A 
ATOM     32  C   UNL     1       6.519   6.746   9.829  1.00  0.00     0.049 A 
ATOM     33  H   UNL     1       6.143   5.290   8.358  1.00  0.00     0.167 HD
ATOM     34  C   UNL     1       6.735   4.580  11.001  1.00  0.00     0.074 A 
ATOM     35  C   UNL     1       7.044   3.774  12.158  1.00  0.00     0.031 C 
ATOM     36  C   UNL     1       6.728   5.936  10.997  1.00  0.00     0.034 A 
BRANCH  23  37
ATOM     37  C   UNL     1       5.899   8.396   5.482  1.00  0.00     0.023 A 
ATOM     38  C   UNL     1       6.996   9.063   4.910  1.00  0.00     0.031 A 
ATOM     39  C   UNL     1       4.668   9.081   5.515  1.00  0.00     0.131 A 
ATOM     40  C   UNL     1       6.809  10.344   4.347  1.00  0.00     0.055 A 
ATOM     41  C   UNL     1       4.471  10.313   4.891  1.00  0.00     0.041 A 
ATOM     42  F   UNL     1       3.633   8.565   6.200  1.00  0.00    -0.206 F 
ATOM     43  C   UNL     1       5.546  10.948   4.293  1.00  0.00     0.022 A 
BRANCH  40  44
ATOM     44  S   UNL     1       8.211  11.376   3.823  1.00  0.00     0.124 S 
ATOM     45  O   UNL     1       8.024  11.416   2.374  1.00  0.00    -0.237 OA
ATOM     46  O   UNL     1       7.949  12.634   4.518  1.00  0.00    -0.237 OA
ATOM     47  O   UNL     1       9.379  10.637   4.284  1.00  0.00    -0.744 OA
ENDBRANCH  40  44
ENDBRANCH  23  37
BRANCH  24  48
ATOM     48  C   UNL     1       6.445  -0.135  10.542  1.00  0.00     0.023 A 
ATOM     49  C   UNL     1       7.316  -1.136  10.071  1.00  0.00     0.031 A 
ATOM     50  C   UNL     1       5.575  -0.451  11.596  1.00  0.00     0.131 A 
ATOM     51  C   UNL     1       7.226  -2.434  10.585  1.00  0.00     0.055 A 
ATOM     52  C   UNL     1       5.546  -1.726  12.161  1.00  0.00     0.041 A 
ATOM     53  F   UNL     1       4.716   0.467  12.064  1.00  0.00    -0.206 F 
ATOM     54  C   UNL     1       6.355  -2.732  11.638  1.00  0.00     0.022 A 
BRANCH  51  55
ATOM     55  S   UNL     1       8.088  -3.810   9.772  1.00  0.00     0.124 S 
ATOM     56  O   UNL     1       9.049  -4.210  10.794  1.00  0.00    -0.237 OA
ATOM     57  O   UNL     1       6.995  -4.749   9.529  1.00  0.00    -0.237 OA
ATOM     58  O   UNL     1       8.655  -3.201   8.573  1.00  0.00    -0.744 OA
ENDBRANCH  51  55
ENDBRANCH  24  48
BRANCH  36  59
ATOM     59  C   UNL     1       7.002   6.711  12.255  1.00  0.00     0.023 A 
ATOM     60  C   UNL     1       6.022   7.612  12.719  1.00  0.00     0.031 A 
ATOM     61  C   UNL     1       8.301   6.801  12.772  1.00  0.00     0.131 A 
ATOM     62  C   UNL     1       6.382   8.627  13.609  1.00  0.00     0.055 A 
ATOM     63  C   UNL     1       8.639   7.775  13.710  1.00  0.00     0.041 A 
ATOM     64  F   UNL     1       9.272   5.989  12.323  1.00  0.00    -0.206 F 
ATOM     65  C   UNL     1       7.685   8.709  14.111  1.00  0.00     0.022 A 
BRANCH  62  66
ATOM     66  S   UNL     1       5.232   9.986  13.972  1.00  0.00     0.124 S 
ATOM     67  O   UNL     1       4.869   9.705  15.358  1.00  0.00    -0.237 OA
ATOM     68  O   UNL     1       6.069  11.167  13.772  1.00  0.00    -0.237 OA
ATOM     69  O   UNL     1       4.162   9.812  12.996  1.00  0.00    -0.744 OA
ENDBRANCH  62  66
ENDBRANCH  36  59
ENDBRANCH  10  11
ENDBRANCH   3   5
ENDBRANCH   2   3
ENDBRANCH   1   2
BRANCH   1  70
ATOM     70  C   UNL     1       4.372   0.935  -1.889  1.00  0.00     0.275 C 
BRANCH  70  71
ATOM     71  O   UNL     1       3.789   1.810  -0.923  1.00  0.00    -0.458 OA
BRANCH  71  72
ATOM     72  C   UNL     1       2.430   1.862  -0.960  1.00  0.00     0.340 C 
ATOM     73  O   UNL     1       1.694   1.354  -1.785  1.00  0.00    -0.246 OA
BRANCH  72  74
ATOM     74  C   UNL     1       1.957   2.519   0.266  1.00  0.00     0.084 A 
ATOM     75  C   UNL     1       0.978   1.825   0.998  1.00  0.00     0.033 A 
ATOM     76  C   UNL     1       2.442   3.775   0.667  1.00  0.00     0.053 A 
ATOM     77  C   UNL     1       0.496   2.364   2.180  1.00  0.00     0.019 A 
ATOM     78  C   UNL     1       1.829   4.347   1.795  1.00  0.00    -0.016 A 
ATOM     79  N   UNL     1       3.401   4.478  -0.064  1.00  0.00    -0.377 N 
ATOM     80  Br  UNL     1      -0.739   1.398   3.234  1.00  0.00    -0.051 Br
ATOM     81  C   UNL     1       0.907   3.627   2.578  1.00  0.00     0.022 A 
ATOM     82  C   UNL     1       2.074   5.803   1.995  1.00  0.00     0.049 C 
ATOM     83  C   UNL     1       3.941   5.815   0.282  1.00  0.00     0.114 C 
ATOM     84  H   UNL     1       3.749   4.050  -0.879  1.00  0.00     0.161 HD
ATOM     85  C   UNL     1       3.546   6.137   1.728  1.00  0.00     0.031 C 
ATOM     86  C   UNL     1       1.879   6.420   3.333  1.00  0.00    -0.023 C 
ATOM     87  C   UNL     1       3.647   7.565   2.266  1.00  0.00     0.034 C 
ATOM     88  C   UNL     1       2.713   7.458   3.443  1.00  0.00    -0.030 C 
BRANCH  83  89
ATOM     89  C   UNL     1       5.443   5.804  -0.093  1.00  0.00    -0.019 A 
ATOM     90  C   UNL     1       5.822   5.661  -1.440  1.00  0.00     0.006 A 
ATOM     91  C   UNL     1       6.495   5.860   0.832  1.00  0.00     0.091 A 
ATOM     92  C   UNL     1       7.169   5.546  -1.826  1.00  0.00     0.007 A 
ATOM     93  C   UNL     1       7.848   5.715   0.463  1.00  0.00     0.269 A 
ATOM     94  C   UNL     1       8.188   5.558  -0.876  1.00  0.00     0.085 A 
BRANCH  93  95
ATOM     95  N   UNL     1       8.906   5.657   1.490  1.00  0.00     0.062 N 
ATOM     96  O   UNL     1      10.079   5.554   1.099  1.00  0.00    -0.258 OA
ATOM     97  O   UNL     1       8.557   5.641   2.675  1.00  0.00    -0.258 OA
ENDBRANCH  93  95
ENDBRANCH  83  89
ENDBRANCH  72  74
ENDBRANCH  71  72
ENDBRANCH  70  71
ENDBRANCH   1  70
TORSDOF 16
