REMARK SMILES CCC[C@]1(C(=O)OCCOC(=O)c2ccc(-c3c4nc(c(-c5cc(S(=O)(=O)[O-])ccc5F)c5ccc([nH]5)c(-c5cc(S(=O)(=O)[O-])ccc5F)c5nc(c(-c6cc(S(=O)(=O)[O-])ccc6F)c6ccc3[nH]6)C=C5)C=C4)cc2)CCN(C(=O)N[C@H]2CCOC2)C1
REMARK SMILES IDX 9 1 8 2 7 3 5 4 6 5 4 6 76 7 87 8 77 9 78 10 3 11 2 12 1 13
REMARK SMILES IDX 79 14 80 15 81 16 82 18 83 19 86 20 84 21 85 22 10 23 11 24
REMARK SMILES IDX 12 25 13 26 14 27 75 28 15 29 74 30 16 31 17 32 18 33 68 34
REMARK SMILES IDX 19 35 73 36 67 37 69 38 20 39 72 40 66 41 65 42 21 44 53 45
REMARK SMILES IDX 33 46 52 47 34 48 37 49 51 50 70 51 35 52 36 53 50 55 71 56
REMARK SMILES IDX 38 57 22 58 23 59 31 60 24 61 30 62 32 63 29 64 25 65 26 66
REMARK SMILES IDX 27 67 28 68 54 69 55 70 63 71 56 72 62 73 64 74 61 75 57 76
REMARK SMILES IDX 58 77 59 78 60 79 39 80 40 81 48 82 41 83 47 84 49 85 46 86
REMARK SMILES IDX 42 87 43 88 44 89 45 90
REMARK H PARENT 81 17 69 43 37 54
REMARK Flexibility Score: inf
ROOT
ATOM      1  C   UNL     1      -2.477 -10.789  -2.390  1.00  0.00     0.275 C 
ENDROOT
BRANCH   1   2
ATOM      2  C   UNL     1      -3.056  -9.395  -2.597  1.00  0.00     0.274 C 
BRANCH   2   3
ATOM      3  O   UNL     1      -2.078  -8.403  -2.225  1.00  0.00    -0.462 OA
BRANCH   3   4
ATOM      4  C   UNL     1      -2.328  -7.643  -1.124  1.00  0.00     0.314 C 
ATOM      5  O   UNL     1      -3.330  -7.755  -0.429  1.00  0.00    -0.252 OA
BRANCH   4   6
ATOM      6  C   UNL     1      -1.267  -6.560  -0.914  1.00  0.00     0.087 C 
ATOM      7  C   UNL     1      -0.007  -6.744  -1.766  1.00  0.00     0.042 C 
ATOM      8  C   UNL     1      -1.867  -5.282  -1.544  1.00  0.00     0.140 C 
ATOM      9  C   UNL     1       0.469  -5.323  -1.980  1.00  0.00     0.122 C 
ATOM     10  N   UNL     1      -0.743  -4.553  -2.134  1.00  0.00    -0.324 N 
BRANCH   6  11
ATOM     11  C   UNL     1      -0.973  -6.313   0.600  1.00  0.00     0.020 C 
BRANCH  11  12
ATOM     12  C   UNL     1       0.213  -7.054   1.240  1.00  0.00    -0.002 C 
ATOM     13  C   UNL     1       1.534  -6.296   1.237  1.00  0.00     0.004 C 
ENDBRANCH  11  12
ENDBRANCH   6  11
BRANCH  10  14
ATOM     14  C   UNL     1      -0.978  -3.386  -2.776  1.00  0.00     0.317 C 
ATOM     15  O   UNL     1      -2.130  -2.965  -2.928  1.00  0.00    -0.249 OA
ATOM     16  N   UNL     1      -0.016  -2.604  -3.290  1.00  0.00    -0.333 N 
ATOM     17  H   UNL     1      -0.415  -1.853  -3.785  1.00  0.00     0.165 HD
BRANCH  16  18
ATOM     18  C   UNL     1       1.442  -2.527  -3.339  1.00  0.00     0.112 C 
ATOM     19  C   UNL     1       2.140  -2.515  -1.999  1.00  0.00     0.056 C 
ATOM     20  C   UNL     1       2.162  -3.562  -4.191  1.00  0.00     0.185 C 
ATOM     21  C   UNL     1       3.356  -3.397  -2.198  1.00  0.00     0.162 C 
ATOM     22  O   UNL     1       3.139  -4.202  -3.361  1.00  0.00    -0.379 OA
ENDBRANCH  16  18
ENDBRANCH  10  14
ENDBRANCH   4   6
ENDBRANCH   3   4
ENDBRANCH   2   3
ENDBRANCH   1   2
BRANCH   1  23
ATOM     23  O   UNL     1      -2.253 -10.989  -0.985  1.00  0.00    -0.458 OA
BRANCH  23  24
ATOM     24  C   UNL     1      -0.968 -11.182  -0.617  1.00  0.00     0.338 C 
ATOM     25  O   UNL     1      -0.002 -11.331  -1.352  1.00  0.00    -0.246 OA
BRANCH  24  26
ATOM     26  C   UNL     1      -0.863 -11.144   0.851  1.00  0.00     0.060 A 
ATOM     27  C   UNL     1      -1.336 -10.034   1.543  1.00  0.00     0.016 A 
ATOM     28  C   UNL     1      -0.142 -12.129   1.524  1.00  0.00     0.016 A 
ATOM     29  C   UNL     1      -0.957  -9.836   2.870  1.00  0.00     0.010 A 
ATOM     30  C   UNL     1       0.130 -11.978   2.890  1.00  0.00     0.010 A 
ATOM     31  C   UNL     1      -0.208 -10.793   3.570  1.00  0.00    -0.014 A 
BRANCH  31  32
ATOM     32  C   UNL     1       0.303 -10.513   4.953  1.00  0.00     0.031 A 
ATOM     33  C   UNL     1       1.770 -10.710   5.274  1.00  0.00     0.074 A 
ATOM     34  C   UNL     1      -0.507 -10.041   5.925  1.00  0.00     0.049 A 
ATOM     35  N   UNL     1       2.366 -10.779   6.439  1.00  0.00    -0.248 NA
ATOM     36  C   UNL     1       2.679 -10.886   4.132  1.00  0.00     0.031 C 
ATOM     37  C   UNL     1      -1.931  -9.734   5.777  1.00  0.00     0.029 A 
ATOM     38  N   UNL     1      -0.240  -9.713   7.234  1.00  0.00    -0.354 N 
ATOM     39  C   UNL     1       3.693 -11.112   6.173  1.00  0.00     0.074 A 
ATOM     40  C   UNL     1       3.812 -11.218   4.734  1.00  0.00     0.031 C 
ATOM     41  C   UNL     1      -2.389  -9.195   6.915  1.00  0.00     0.029 A 
ATOM     42  C   UNL     1      -1.335  -9.238   7.920  1.00  0.00     0.049 A 
ATOM     43  H   UNL     1       0.651  -9.809   7.643  1.00  0.00     0.167 HD
ATOM     44  C   UNL     1       4.709 -11.322   7.049  1.00  0.00     0.034 A 
ATOM     45  C   UNL     1      -1.502  -8.927   9.221  1.00  0.00     0.034 A 
ATOM     46  C   UNL     1       4.601 -11.107   8.474  1.00  0.00     0.049 A 
ATOM     47  C   UNL     1      -0.357  -9.134  10.175  1.00  0.00     0.074 A 
ATOM     48  C   UNL     1       5.571 -11.270   9.450  1.00  0.00     0.029 A 
ATOM     49  N   UNL     1       3.463 -10.648   9.125  1.00  0.00    -0.354 N 
ATOM     50  N   UNL     1       0.851  -9.585   9.928  1.00  0.00    -0.248 NA
ATOM     51  C   UNL     1      -0.608  -8.816  11.586  1.00  0.00     0.031 C 
ATOM     52  C   UNL     1       5.008 -10.952  10.692  1.00  0.00     0.029 A 
ATOM     53  C   UNL     1       3.704 -10.530  10.486  1.00  0.00     0.049 A 
ATOM     54  H   UNL     1       2.608 -10.437   8.684  1.00  0.00     0.167 HD
ATOM     55  C   UNL     1       1.500  -9.615  11.158  1.00  0.00     0.074 A 
ATOM     56  C   UNL     1       0.563  -9.100  12.137  1.00  0.00     0.031 C 
ATOM     57  C   UNL     1       2.753 -10.041  11.455  1.00  0.00     0.034 A 
BRANCH  44  58
ATOM     58  C   UNL     1       6.002 -11.883   6.500  1.00  0.00     0.023 A 
ATOM     59  C   UNL     1       6.821 -11.172   5.607  1.00  0.00     0.031 A 
ATOM     60  C   UNL     1       6.402 -13.183   6.864  1.00  0.00     0.131 A 
ATOM     61  C   UNL     1       7.952 -11.791   5.051  1.00  0.00     0.055 A 
ATOM     62  C   UNL     1       7.572 -13.763   6.370  1.00  0.00     0.041 A 
ATOM     63  F   UNL     1       5.653 -13.920   7.699  1.00  0.00    -0.206 F 
ATOM     64  C   UNL     1       8.347 -13.072   5.444  1.00  0.00     0.022 A 
BRANCH  61  65
ATOM     65  S   UNL     1       8.819 -10.957   3.693  1.00  0.00     0.124 S 
ATOM     66  O   UNL     1       7.747 -10.793   2.714  1.00  0.00    -0.237 OA
ATOM     67  O   UNL     1       9.297  -9.735   4.328  1.00  0.00    -0.237 OA
ATOM     68  O   UNL     1       9.860 -11.911   3.312  1.00  0.00    -0.744 OA
ENDBRANCH  61  65
ENDBRANCH  44  58
BRANCH  45  69
ATOM     69  C   UNL     1      -2.835  -8.477   9.718  1.00  0.00     0.023 A 
ATOM     70  C   UNL     1      -3.021  -7.186  10.235  1.00  0.00     0.031 A 
ATOM     71  C   UNL     1      -3.941  -9.346   9.693  1.00  0.00     0.131 A 
ATOM     72  C   UNL     1      -4.281  -6.808  10.727  1.00  0.00     0.055 A 
ATOM     73  C   UNL     1      -5.204  -8.947  10.132  1.00  0.00     0.041 A 
ATOM     74  F   UNL     1      -3.815 -10.593   9.212  1.00  0.00    -0.206 F 
ATOM     75  C   UNL     1      -5.377  -7.672  10.661  1.00  0.00     0.022 A 
BRANCH  72  76
ATOM     76  S   UNL     1      -4.457  -5.182  11.512  1.00  0.00     0.124 S 
ATOM     77  O   UNL     1      -3.520  -5.286  12.625  1.00  0.00    -0.237 OA
ATOM     78  O   UNL     1      -4.074  -4.279  10.432  1.00  0.00    -0.237 OA
ATOM     79  O   UNL     1      -5.869  -5.137  11.887  1.00  0.00    -0.744 OA
ENDBRANCH  72  76
ENDBRANCH  45  69
BRANCH  57  80
ATOM     80  C   UNL     1       3.176  -9.941  12.898  1.00  0.00     0.023 A 
ATOM     81  C   UNL     1       2.607 -10.762  13.888  1.00  0.00     0.031 A 
ATOM     82  C   UNL     1       4.130  -8.987  13.293  1.00  0.00     0.131 A 
ATOM     83  C   UNL     1       2.953 -10.573  15.234  1.00  0.00     0.055 A 
ATOM     84  C   UNL     1       4.508  -8.838  14.628  1.00  0.00     0.041 A 
ATOM     85  F   UNL     1       4.701  -8.178  12.387  1.00  0.00    -0.206 F 
ATOM     86  C   UNL     1       3.909  -9.624  15.609  1.00  0.00     0.022 A 
BRANCH  83  87
ATOM     87  S   UNL     1       2.067 -11.520  16.503  1.00  0.00     0.124 S 
ATOM     88  O   UNL     1       0.680 -11.147  16.248  1.00  0.00    -0.237 OA
ATOM     89  O   UNL     1       2.429 -12.895  16.176  1.00  0.00    -0.237 OA
ATOM     90  O   UNL     1       2.623 -11.016  17.758  1.00  0.00    -0.744 OA
ENDBRANCH  83  87
ENDBRANCH  57  80
ENDBRANCH  31  32
ENDBRANCH  24  26
ENDBRANCH  23  24
ENDBRANCH   1  23
TORSDOF 18
