REMARK SMILES COc1ccc2c(c1)c(CC(=O)OCCOC(=O)c1ccc(-c3c4nc(c(-c5cc(S(=O)(=O)[O-])ccc5F)c5ccc([nH]5)c(-c5cc(S(=O)(=O)[O-])ccc5F)c5nc(c(-c6cc(S(=O)(=O)[O-])ccc6F)c6ccc3[nH]6)C=C5)C=C4)cc1)c(C)n2Cc1ccn(C(F)F)c(=O)c1
REMARK SMILES IDX 14 1 13 2 11 3 12 4 10 5 9 6 3 7 4 8 8 9 5 10 7 11 6 12
REMARK SMILES IDX 84 13 82 14 83 15 2 16 1 17 85 18 86 19 87 20 95 21 88 22
REMARK SMILES IDX 93 23 89 24 94 25 90 26 91 27 92 28 15 29 16 30 17 31 18 32
REMARK SMILES IDX 19 33 20 34 81 35 21 36 80 37 22 38 23 39 24 40 74 41 25 42
REMARK SMILES IDX 79 43 73 44 75 45 26 46 78 47 72 48 71 49 27 51 59 52 39 53
REMARK SMILES IDX 58 54 40 55 43 56 57 57 76 58 41 59 42 60 56 62 77 63 44 64
REMARK SMILES IDX 28 65 29 66 37 67 30 68 36 69 38 70 35 71 31 72 32 73 33 74
REMARK SMILES IDX 34 75 60 76 61 77 69 78 62 79 68 80 70 81 67 82 63 83 64 84
REMARK SMILES IDX 65 85 66 86 45 87 46 88 54 89 47 90 53 91 55 92 52 93 48 94
REMARK SMILES IDX 49 95 50 96 51 97
REMARK H PARENT 75 50 43 61
REMARK Flexibility Score: inf
ROOT
ATOM      1  C   UNL     1      -1.565   2.085   6.504  1.00  0.00     0.274 C 
ENDROOT
BRANCH   1   2
ATOM      2  O   UNL     1      -1.085   0.729   6.370  1.00  0.00    -0.462 OA
BRANCH   2   3
ATOM      3  C   UNL     1      -1.983  -0.238   6.680  1.00  0.00     0.310 C 
ATOM      4  O   UNL     1      -3.115  -0.007   7.099  1.00  0.00    -0.252 OA
BRANCH   3   5
ATOM      5  C   UNL     1      -1.477  -1.647   6.575  1.00  0.00     0.160 C 
BRANCH   5   6
ATOM      6  C   UNL     1      -0.128  -1.969   6.003  1.00  0.00    -0.008 A 
ATOM      7  C   UNL     1       1.168  -0.644   2.612  1.00  0.00     0.119 A 
ATOM      8  C   UNL     1       2.425  -1.222   2.703  1.00  0.00     0.048 A 
ATOM      9  C   UNL     1       0.278  -0.750   3.693  1.00  0.00     0.057 A 
ATOM     10  C   UNL     1       2.793  -1.958   3.836  1.00  0.00     0.031 A 
ATOM     11  C   UNL     1       0.576  -1.552   4.819  1.00  0.00     0.007 A 
ATOM     12  C   UNL     1       1.841  -2.157   4.854  1.00  0.00     0.049 A 
ATOM     13  N   UNL     1       1.886  -2.902   6.018  1.00  0.00    -0.340 N 
ATOM     14  C   UNL     1       0.603  -3.048   6.489  1.00  0.00     0.020 A 
ATOM     15  C   UNL     1       0.119  -4.151   7.373  1.00  0.00     0.065 C 
BRANCH   7  16
ATOM     16  O   UNL     1       0.714   0.082   1.542  1.00  0.00    -0.497 OA
ATOM     17  C   UNL     1       1.265  -0.237   0.267  1.00  0.00     0.278 C 
ENDBRANCH   7  16
BRANCH  13  18
ATOM     18  C   UNL     1       3.087  -3.465   6.634  1.00  0.00     0.158 C 
BRANCH  18  19
ATOM     19  C   UNL     1       3.489  -2.712   7.890  1.00  0.00    -0.021 A 
ATOM     20  C   UNL     1       2.700  -2.888   9.094  1.00  0.00     0.024 A 
ATOM     21  C   UNL     1       4.550  -1.888   7.940  1.00  0.00     0.077 A 
ATOM     22  C   UNL     1       2.929  -2.150  10.184  1.00  0.00     0.095 A 
ATOM     23  C   UNL     1       4.877  -1.123   9.182  1.00  0.00     0.255 A 
ATOM     24  N   UNL     1       3.981  -1.259  10.229  1.00  0.00    -0.258 N 
ATOM     25  O   UNL     1       5.893  -0.434   9.195  1.00  0.00    -0.269 OA
BRANCH  24  26
ATOM     26  C   UNL     1       4.229  -0.505  11.429  1.00  0.00     0.451 C 
ATOM     27  F   UNL     1       5.354  -0.942  12.048  1.00  0.00    -0.185 F 
ATOM     28  F   UNL     1       4.385   0.816  11.166  1.00  0.00    -0.185 F 
ENDBRANCH  24  26
ENDBRANCH  18  19
ENDBRANCH  13  18
ENDBRANCH   5   6
ENDBRANCH   3   5
ENDBRANCH   2   3
ENDBRANCH   1   2
BRANCH   1  29
ATOM     29  C   UNL     1      -1.982   2.643   5.140  1.00  0.00     0.275 C 
BRANCH  29  30
ATOM     30  O   UNL     1      -3.178   1.971   4.720  1.00  0.00    -0.458 OA
BRANCH  30  31
ATOM     31  C   UNL     1      -3.095   1.191   3.615  1.00  0.00     0.338 C 
ATOM     32  O   UNL     1      -2.291   1.282   2.704  1.00  0.00    -0.246 OA
BRANCH  31  33
ATOM     33  C   UNL     1      -3.962   0.030   3.888  1.00  0.00     0.060 A 
ATOM     34  C   UNL     1      -5.242   0.232   4.404  1.00  0.00     0.016 A 
ATOM     35  C   UNL     1      -3.411  -1.256   3.826  1.00  0.00     0.016 A 
ATOM     36  C   UNL     1      -5.919  -0.843   4.963  1.00  0.00     0.010 A 
ATOM     37  C   UNL     1      -4.079  -2.324   4.416  1.00  0.00     0.010 A 
ATOM     38  C   UNL     1      -5.314  -2.110   5.023  1.00  0.00    -0.014 A 
BRANCH  38  39
ATOM     39  C   UNL     1      -6.173  -3.238   5.362  1.00  0.00     0.031 A 
ATOM     40  C   UNL     1      -6.948  -3.665   4.182  1.00  0.00     0.074 A 
ATOM     41  C   UNL     1      -6.318  -3.925   6.509  1.00  0.00     0.049 A 
ATOM     42  N   UNL     1      -8.114  -3.231   3.843  1.00  0.00    -0.248 NA
ATOM     43  C   UNL     1      -6.274  -4.483   3.166  1.00  0.00     0.031 C 
ATOM     44  C   UNL     1      -5.430  -3.976   7.666  1.00  0.00     0.029 A 
ATOM     45  N   UNL     1      -7.318  -4.805   6.836  1.00  0.00    -0.354 N 
ATOM     46  C   UNL     1      -8.431  -3.935   2.693  1.00  0.00     0.074 A 
ATOM     47  C   UNL     1      -7.187  -4.465   2.194  1.00  0.00     0.031 C 
ATOM     48  C   UNL     1      -5.824  -4.989   8.479  1.00  0.00     0.029 A 
ATOM     49  C   UNL     1      -7.089  -5.528   7.994  1.00  0.00     0.049 A 
ATOM     50  H   UNL     1      -8.132  -4.913   6.292  1.00  0.00     0.167 HD
ATOM     51  C   UNL     1      -9.719  -4.300   2.449  1.00  0.00     0.034 A 
ATOM     52  C   UNL     1      -7.875  -6.506   8.506  1.00  0.00     0.034 A 
ATOM     53  C   UNL     1     -10.625  -3.650   3.365  1.00  0.00     0.049 A 
ATOM     54  C   UNL     1      -9.267  -6.326   8.034  1.00  0.00     0.074 A 
ATOM     55  C   UNL     1     -11.214  -2.415   3.507  1.00  0.00     0.029 A 
ATOM     56  N   UNL     1     -10.744  -4.294   4.568  1.00  0.00    -0.354 N 
ATOM     57  N   UNL     1     -10.043  -5.350   8.412  1.00  0.00    -0.248 NA
ATOM     58  C   UNL     1      -9.764  -7.119   6.912  1.00  0.00     0.031 C 
ATOM     59  C   UNL     1     -11.623  -2.311   4.872  1.00  0.00     0.029 A 
ATOM     60  C   UNL     1     -11.287  -3.488   5.535  1.00  0.00     0.049 A 
ATOM     61  H   UNL     1     -10.470  -5.227   4.721  1.00  0.00     0.167 HD
ATOM     62  C   UNL     1     -10.849  -5.125   7.319  1.00  0.00     0.074 A 
ATOM     63  C   UNL     1     -10.791  -6.352   6.537  1.00  0.00     0.031 C 
ATOM     64  C   UNL     1     -11.179  -3.859   6.935  1.00  0.00     0.034 A 
BRANCH  51  65
ATOM     65  C   UNL     1     -10.111  -5.577   1.739  1.00  0.00     0.023 A 
ATOM     66  C   UNL     1      -9.202  -6.609   1.442  1.00  0.00     0.031 A 
ATOM     67  C   UNL     1     -11.471  -5.889   1.547  1.00  0.00     0.131 A 
ATOM     68  C   UNL     1      -9.622  -7.853   0.960  1.00  0.00     0.055 A 
ATOM     69  C   UNL     1     -11.900  -7.157   1.133  1.00  0.00     0.041 A 
ATOM     70  F   UNL     1     -12.430  -4.987   1.806  1.00  0.00    -0.206 F 
ATOM     71  C   UNL     1     -10.973  -8.149   0.834  1.00  0.00     0.022 A 
BRANCH  68  72
ATOM     72  S   UNL     1      -8.397  -9.113   0.508  1.00  0.00     0.124 S 
ATOM     73  O   UNL     1      -8.789 -10.234   1.355  1.00  0.00    -0.237 OA
ATOM     74  O   UNL     1      -8.657  -9.274  -0.921  1.00  0.00    -0.237 OA
ATOM     75  O   UNL     1      -7.121  -8.482   0.835  1.00  0.00    -0.744 OA
ENDBRANCH  68  72
ENDBRANCH  51  65
BRANCH  52  76
ATOM     76  C   UNL     1      -7.473  -7.762   9.176  1.00  0.00     0.023 A 
ATOM     77  C   UNL     1      -6.278  -8.393   8.793  1.00  0.00     0.031 A 
ATOM     78  C   UNL     1      -8.403  -8.519   9.914  1.00  0.00     0.131 A 
ATOM     79  C   UNL     1      -6.077  -9.751   9.076  1.00  0.00     0.055 A 
ATOM     80  C   UNL     1      -8.193  -9.870  10.207  1.00  0.00     0.041 A 
ATOM     81  F   UNL     1      -9.574  -7.983  10.293  1.00  0.00    -0.206 F 
ATOM     82  C   UNL     1      -7.032 -10.498   9.770  1.00  0.00     0.022 A 
BRANCH  79  83
ATOM     83  S   UNL     1      -4.593 -10.600   8.471  1.00  0.00     0.124 S 
ATOM     84  O   UNL     1      -4.172 -11.363   9.643  1.00  0.00    -0.237 OA
ATOM     85  O   UNL     1      -5.131 -11.387   7.368  1.00  0.00    -0.237 OA
ATOM     86  O   UNL     1      -3.702  -9.504   8.100  1.00  0.00    -0.744 OA
ENDBRANCH  79  83
ENDBRANCH  52  76
BRANCH  64  87
ATOM     87  C   UNL     1     -11.267  -2.786   7.987  1.00  0.00     0.023 A 
ATOM     88  C   UNL     1     -12.467  -2.055   8.050  1.00  0.00     0.031 A 
ATOM     89  C   UNL     1     -10.231  -2.407   8.860  1.00  0.00     0.131 A 
ATOM     90  C   UNL     1     -12.603  -0.978   8.932  1.00  0.00     0.055 A 
ATOM     91  C   UNL     1     -10.396  -1.375   9.793  1.00  0.00     0.041 A 
ATOM     92  F   UNL     1      -9.018  -2.977   8.804  1.00  0.00    -0.206 F 
ATOM     93  C   UNL     1     -11.581  -0.646   9.823  1.00  0.00     0.022 A 
BRANCH  90  94
ATOM     94  S   UNL     1     -14.063   0.090   8.851  1.00  0.00     0.124 S 
ATOM     95  O   UNL     1     -14.725  -0.193  10.121  1.00  0.00    -0.237 OA
ATOM     96  O   UNL     1     -13.471   1.421   8.735  1.00  0.00    -0.237 OA
ATOM     97  O   UNL     1     -14.771  -0.373   7.660  1.00  0.00    -0.744 OA
ENDBRANCH  90  94
ENDBRANCH  64  87
ENDBRANCH  38  39
ENDBRANCH  31  33
ENDBRANCH  30  31
ENDBRANCH  29  30
ENDBRANCH   1  29
TORSDOF 19
