REMARK SMILES COc1cc2c(cc1OC)-c1c(c(C(=O)Nc3ccc(C(=O)OCCOC(=O)c4ccc(-c5c6nc(c(-c7cc(S(=O)(=O)[O-])ccc7F)c7ccc([nH]7)c(-c7cc(S(=O)(=O)[O-])ccc7F)c7nc(c(-c8cc(S(=O)(=O)[O-])ccc8F)c8ccc5[nH]8)C=C7)C=C6)cc4)cc3)nn1-c1ccc(F)cc1)C2
REMARK SMILES IDX 24 1 23 2 21 3 22 4 20 5 17 6 18 7 93 8 19 9 92 10 16 11
REMARK SMILES IDX 14 12 15 13 13 15 3 16 4 17 8 18 5 19 7 20 6 21 103 22 11 23
REMARK SMILES IDX 12 24 95 25 94 26 2 27 1 28 9 29 10 30 96 31 97 32 102 33
REMARK SMILES IDX 98 34 101 35 99 36 100 37 25 38 26 39 27 40 28 41 29 42
REMARK SMILES IDX 30 43 91 44 31 45 90 46 32 47 33 48 34 49 84 50 35 51 89 52
REMARK SMILES IDX 83 53 85 54 36 55 88 56 82 57 81 58 37 60 69 61 49 62 68 63
REMARK SMILES IDX 50 64 53 65 67 66 86 67 51 68 52 69 66 71 87 72 54 73 38 74
REMARK SMILES IDX 39 75 47 76 40 77 46 78 48 79 45 80 41 81 42 82 43 83 44 84
REMARK SMILES IDX 70 85 71 86 79 87 72 88 78 89 80 90 77 91 73 92 74 93 75 94
REMARK SMILES IDX 76 95 55 96 56 97 64 98 57 99 63 100 65 101 62 102 58 103
REMARK SMILES IDX 59 104 60 105 61 106
REMARK H PARENT 16 14 85 59 53 70
REMARK Flexibility Score: inf
ROOT
ATOM      1  C   UNL     1      -4.069   4.758   0.224  1.00  0.00     0.275 C 
ENDROOT
BRANCH   1   2
ATOM      2  O   UNL     1      -3.540   5.573   1.309  1.00  0.00    -0.458 OA
BRANCH   2   3
ATOM      3  C   UNL     1      -4.282   5.644   2.460  1.00  0.00     0.338 C 
ATOM      4  O   UNL     1      -5.377   5.142   2.621  1.00  0.00    -0.246 OA
BRANCH   3   5
ATOM      5  C   UNL     1      -3.444   6.199   3.574  1.00  0.00     0.060 A 
ATOM      6  C   UNL     1      -1.455   6.711   5.496  1.00  0.00     0.041 A 
ATOM      7  C   UNL     1      -2.452   5.785   5.770  1.00  0.00     0.027 A 
ATOM      8  C   UNL     1      -1.593   7.532   4.372  1.00  0.00     0.027 A 
ATOM      9  C   UNL     1      -3.465   5.569   4.824  1.00  0.00     0.018 A 
ATOM     10  C   UNL     1      -2.555   7.251   3.388  1.00  0.00     0.018 A 
BRANCH   6  11
ATOM     11  N   UNL     1      -0.521   7.043   6.471  1.00  0.00    -0.321 N 
ATOM     12  C   UNL     1       0.676   6.470   6.862  1.00  0.00     0.276 C 
ATOM     13  O   UNL     1       1.104   6.907   7.939  1.00  0.00    -0.267 OA
ATOM     14  H   UNL     1      -0.760   7.846   6.987  1.00  0.00     0.170 HD
BRANCH  12  15
ATOM     15  C   UNL     1       1.466   5.463   6.094  1.00  0.00     0.155 A 
ATOM     16  C   UNL     1       2.168   2.295   0.986  1.00  0.00     0.161 A 
ATOM     17  C   UNL     1       1.514   3.486   1.365  1.00  0.00     0.055 A 
ATOM     18  C   UNL     1       3.068   1.656   1.856  1.00  0.00     0.161 A 
ATOM     19  C   UNL     1       1.575   3.927   2.681  1.00  0.00    -0.030 A 
ATOM     20  C   UNL     1       3.217   2.166   3.148  1.00  0.00     0.061 A 
ATOM     21  C   UNL     1       2.474   3.272   3.525  1.00  0.00     0.008 A 
ATOM     22  C   UNL     1       0.748   5.028   3.426  1.00  0.00     0.076 C 
ATOM     23  C   UNL     1       2.397   3.978   4.750  1.00  0.00     0.079 A 
ATOM     24  C   UNL     1       1.417   4.935   4.769  1.00  0.00     0.016 A 
ATOM     25  N   UNL     1       3.210   4.189   5.803  1.00  0.00    -0.232 N 
ATOM     26  N   UNL     1       2.562   4.923   6.731  1.00  0.00    -0.162 NA
BRANCH  16  27
ATOM     27  O   UNL     1       1.855   1.806  -0.259  1.00  0.00    -0.493 OA
ATOM     28  C   UNL     1       0.930   0.715  -0.157  1.00  0.00     0.278 C 
ENDBRANCH  16  27
BRANCH  18  29
ATOM     29  O   UNL     1       3.852   0.561   1.628  1.00  0.00    -0.493 OA
ATOM     30  C   UNL     1       3.989   0.050   0.312  1.00  0.00     0.278 C 
ENDBRANCH  18  29
BRANCH  25  31
ATOM     31  C   UNL     1       4.591   3.886   5.839  1.00  0.00     0.065 A 
ATOM     32  C   UNL     1       5.152   3.255   6.947  1.00  0.00     0.031 A 
ATOM     33  C   UNL     1       5.358   4.105   4.675  1.00  0.00     0.031 A 
ATOM     34  C   UNL     1       6.453   2.747   6.840  1.00  0.00     0.041 A 
ATOM     35  C   UNL     1       6.658   3.620   4.587  1.00  0.00     0.041 A 
ATOM     36  C   UNL     1       7.185   2.922   5.663  1.00  0.00     0.123 A 
ATOM     37  F   UNL     1       8.414   2.397   5.559  1.00  0.00    -0.207 F 
ENDBRANCH  25  31
ENDBRANCH  12  15
ENDBRANCH   6  11
ENDBRANCH   3   5
ENDBRANCH   2   3
ENDBRANCH   1   2
BRANCH   1  38
ATOM     38  C   UNL     1      -2.969   3.999  -0.561  1.00  0.00     0.275 C 
BRANCH  38  39
ATOM     39  O   UNL     1      -2.573   2.797   0.136  1.00  0.00    -0.458 OA
BRANCH  39  40
ATOM     40  C   UNL     1      -1.689   3.094   1.108  1.00  0.00     0.338 C 
ATOM     41  O   UNL     1      -1.110   4.173   1.199  1.00  0.00    -0.246 OA
BRANCH  40  42
ATOM     42  C   UNL     1      -1.921   2.287   2.299  1.00  0.00     0.060 A 
ATOM     43  C   UNL     1      -1.658   0.969   2.652  1.00  0.00     0.016 A 
ATOM     44  C   UNL     1      -2.576   3.082   3.206  1.00  0.00     0.016 A 
ATOM     45  C   UNL     1      -2.134   0.531   3.912  1.00  0.00     0.010 A 
ATOM     46  C   UNL     1      -2.438   2.775   4.515  1.00  0.00     0.010 A 
ATOM     47  C   UNL     1      -2.669   1.468   4.807  1.00  0.00    -0.014 A 
BRANCH  47  48
ATOM     48  C   UNL     1      -3.146   1.289   6.166  1.00  0.00     0.031 A 
ATOM     49  C   UNL     1      -2.154   0.703   7.065  1.00  0.00     0.074 A 
ATOM     50  C   UNL     1      -4.276   1.846   6.665  1.00  0.00     0.049 A 
ATOM     51  N   UNL     1      -1.972  -0.564   7.212  1.00  0.00    -0.248 NA
ATOM     52  C   UNL     1      -1.135   1.545   7.703  1.00  0.00     0.031 C 
ATOM     53  C   UNL     1      -5.244   2.718   5.983  1.00  0.00     0.029 A 
ATOM     54  N   UNL     1      -4.783   1.778   7.933  1.00  0.00    -0.354 N 
ATOM     55  C   UNL     1      -1.062  -0.661   8.246  1.00  0.00     0.074 A 
ATOM     56  C   UNL     1      -0.374   0.607   8.279  1.00  0.00     0.031 C 
ATOM     57  C   UNL     1      -6.106   3.251   6.882  1.00  0.00     0.029 A 
ATOM     58  C   UNL     1      -5.885   2.592   8.157  1.00  0.00     0.049 A 
ATOM     59  H   UNL     1      -4.398   1.200   8.630  1.00  0.00     0.167 HD
ATOM     60  C   UNL     1      -1.235  -1.620   9.199  1.00  0.00     0.034 A 
ATOM     61  C   UNL     1      -6.750   2.570   9.201  1.00  0.00     0.034 A 
ATOM     62  C   UNL     1      -2.380  -2.445   8.874  1.00  0.00     0.049 A 
ATOM     63  C   UNL     1      -6.728   1.202   9.760  1.00  0.00     0.074 A 
ATOM     64  C   UNL     1      -2.657  -3.450   7.974  1.00  0.00     0.029 A 
ATOM     65  N   UNL     1      -3.586  -1.932   9.298  1.00  0.00    -0.354 N 
ATOM     66  N   UNL     1      -7.190   0.164   9.118  1.00  0.00    -0.248 NA
ATOM     67  C   UNL     1      -5.868   0.900  10.900  1.00  0.00     0.031 C 
ATOM     68  C   UNL     1      -4.066  -3.428   7.766  1.00  0.00     0.029 A 
ATOM     69  C   UNL     1      -4.634  -2.441   8.570  1.00  0.00     0.049 A 
ATOM     70  H   UNL     1      -3.684  -1.282  10.031  1.00  0.00     0.167 HD
ATOM     71  C   UNL     1      -6.312  -0.845   9.456  1.00  0.00     0.074 A 
ATOM     72  C   UNL     1      -5.662  -0.401  10.681  1.00  0.00     0.031 C 
ATOM     73  C   UNL     1      -5.937  -1.793   8.552  1.00  0.00     0.034 A 
BRANCH  60  74
ATOM     74  C   UNL     1      -0.699  -1.573  10.605  1.00  0.00     0.023 A 
ATOM     75  C   UNL     1      -0.139  -0.428  11.191  1.00  0.00     0.031 A 
ATOM     76  C   UNL     1      -0.909  -2.668  11.469  1.00  0.00     0.131 A 
ATOM     77  C   UNL     1       0.200  -0.389  12.549  1.00  0.00     0.055 A 
ATOM     78  C   UNL     1      -0.629  -2.611  12.838  1.00  0.00     0.041 A 
ATOM     79  F   UNL     1      -1.428  -3.819  11.013  1.00  0.00    -0.206 F 
ATOM     80  C   UNL     1      -0.071  -1.464  13.387  1.00  0.00     0.022 A 
BRANCH  77  81
ATOM     81  S   UNL     1       0.998   1.082  13.247  1.00  0.00     0.124 S 
ATOM     82  O   UNL     1       0.067   1.452  14.307  1.00  0.00    -0.237 OA
ATOM     83  O   UNL     1       2.279   0.536  13.688  1.00  0.00    -0.237 OA
ATOM     84  O   UNL     1       1.071   1.996  12.113  1.00  0.00    -0.744 OA
ENDBRANCH  77  81
ENDBRANCH  60  74
BRANCH  61  85
ATOM     85  C   UNL     1      -7.198   3.732  10.000  1.00  0.00     0.023 A 
ATOM     86  C   UNL     1      -6.371   4.863  10.122  1.00  0.00     0.031 A 
ATOM     87  C   UNL     1      -8.281   3.617  10.891  1.00  0.00     0.131 A 
ATOM     88  C   UNL     1      -6.588   5.785  11.156  1.00  0.00     0.055 A 
ATOM     89  C   UNL     1      -8.508   4.551  11.908  1.00  0.00     0.041 A 
ATOM     90  F   UNL     1      -9.098   2.554  10.833  1.00  0.00    -0.206 F 
ATOM     91  C   UNL     1      -7.645   5.631  12.058  1.00  0.00     0.022 A 
BRANCH  88  92
ATOM     92  S   UNL     1      -5.439   7.165  11.418  1.00  0.00     0.124 S 
ATOM     93  O   UNL     1      -6.348   8.303  11.537  1.00  0.00    -0.237 OA
ATOM     94  O   UNL     1      -4.773   6.761  12.652  1.00  0.00    -0.237 OA
ATOM     95  O   UNL     1      -4.616   7.155  10.213  1.00  0.00    -0.744 OA
ENDBRANCH  88  92
ENDBRANCH  61  85
BRANCH  73  96
ATOM     96  C   UNL     1      -6.852  -2.088   7.392  1.00  0.00     0.023 A 
ATOM     97  C   UNL     1      -7.270  -3.422   7.249  1.00  0.00     0.031 A 
ATOM     98  C   UNL     1      -7.196  -1.187   6.369  1.00  0.00     0.131 A 
ATOM     99  C   UNL     1      -7.932  -3.840   6.091  1.00  0.00     0.055 A 
ATOM    100  C   UNL     1      -7.922  -1.594   5.242  1.00  0.00     0.041 A 
ATOM    101  F   UNL     1      -6.792   0.088   6.392  1.00  0.00    -0.206 F 
ATOM    102  C   UNL     1      -8.274  -2.931   5.089  1.00  0.00     0.022 A 
BRANCH  99 103
ATOM    103  S   UNL     1      -8.220  -5.603   5.800  1.00  0.00     0.124 S 
ATOM    104  O   UNL     1      -9.678  -5.678   5.769  1.00  0.00    -0.237 OA
ATOM    105  O   UNL     1      -7.554  -5.817   4.517  1.00  0.00    -0.237 OA
ATOM    106  O   UNL     1      -7.585  -6.258   6.940  1.00  0.00    -0.744 OA
ENDBRANCH  99 103
ENDBRANCH  73  96
ENDBRANCH  47  48
ENDBRANCH  40  42
ENDBRANCH  39  40
ENDBRANCH  38  39
ENDBRANCH   1  38
TORSDOF 19
