REMARK SMILES Cc1c(NCc2ccccn2)cccc1C(=O)N1CCOC[C@@H]1CC(=O)OCCOC(=O)c1ccc(-c2c3nc(c(-c4cc(S(=O)(=O)[O-])ccc4F)c4ccc([nH]4)c(-c4cc(S(=O)(=O)[O-])ccc4F)c4nc(c(-c5cc(S(=O)(=O)[O-])ccc5F)c5ccc2[nH]5)C=C4)C=C3)cc1
REMARK SMILES IDX 27 1 25 2 26 3 24 4 23 5 18 6 19 7 20 8 22 9 21 10 16 11
REMARK SMILES IDX 17 12 15 13 1 14 2 15 3 16 12 17 14 18 13 19 4 20 5 22 6 23
REMARK SMILES IDX 7 24 11 25 8 26 10 27 9 28 28 29 29 30 30 31 31 32 32 33
REMARK SMILES IDX 33 34 34 35 95 36 35 37 94 38 36 39 37 40 38 41 88 42 39 43
REMARK SMILES IDX 93 44 87 45 89 46 40 47 92 48 86 49 85 50 41 52 73 53 53 54
REMARK SMILES IDX 72 55 54 56 57 57 71 58 90 59 55 60 56 61 70 63 91 64 58 65
REMARK SMILES IDX 42 66 43 67 51 68 44 69 50 70 52 71 49 72 45 73 46 74 47 75
REMARK SMILES IDX 48 76 74 77 75 78 83 79 76 80 82 81 84 82 81 83 77 84 78 85
REMARK SMILES IDX 79 86 80 87 59 88 60 89 68 90 61 91 67 92 69 93 66 94 62 95
REMARK SMILES IDX 63 96 64 97 65 98
REMARK H PARENT 4 21 89 51 57 62
REMARK Flexibility Score: inf
ROOT
ATOM      1  O   UNL     1       2.010   1.102   1.544  1.00  0.00    -0.462 OA
ENDROOT
BRANCH   1   2
ATOM      2  C   UNL     1       1.260   2.143   1.106  1.00  0.00     0.308 C 
ATOM      3  O   UNL     1       0.048   2.163   1.100  1.00  0.00    -0.252 OA
BRANCH   2   4
ATOM      4  C   UNL     1       2.116   3.284   0.612  1.00  0.00     0.150 C 
BRANCH   4   5
ATOM      5  C   UNL     1       3.231   2.866  -0.341  1.00  0.00     0.122 C 
ATOM      6  N   UNL     1       2.854   1.852  -1.351  1.00  0.00    -0.330 N 
ATOM      7  C   UNL     1       3.957   1.534  -2.251  1.00  0.00     0.148 C 
ATOM      8  C   UNL     1       5.213   1.141  -1.462  1.00  0.00     0.181 C 
ATOM      9  C   UNL     1       4.503   2.398   0.412  1.00  0.00     0.185 C 
ATOM     10  O   UNL     1       5.576   2.164  -0.524  1.00  0.00    -0.377 OA
BRANCH   6  11
ATOM     11  C   UNL     1       1.568   1.828  -1.879  1.00  0.00     0.254 C 
ATOM     12  O   UNL     1       1.124   2.798  -2.488  1.00  0.00    -0.269 OA
BRANCH  11  13
ATOM     13  C   UNL     1       0.679   0.638  -1.535  1.00  0.00     0.045 A 
ATOM     14  C   UNL     1       2.560  -0.955  -0.839  1.00  0.00     0.047 C 
ATOM     15  C   UNL     1       1.100  -0.637  -1.050  1.00  0.00    -0.015 A 
ATOM     16  C   UNL     1       0.123  -1.607  -0.653  1.00  0.00     0.038 A 
ATOM     17  C   UNL     1      -1.234  -1.263  -0.710  1.00  0.00     0.026 A 
ATOM     18  C   UNL     1      -0.699   0.924  -1.568  1.00  0.00     0.014 A 
ATOM     19  C   UNL     1      -1.643  -0.006  -1.141  1.00  0.00     0.003 A 
BRANCH  16  20
ATOM     20  N   UNL     1       0.513  -2.834  -0.123  1.00  0.00    -0.379 N 
ATOM     21  H   UNL     1       1.354  -2.861   0.389  1.00  0.00     0.160 HD
BRANCH  20  22
ATOM     22  C   UNL     1      -0.226  -4.080  -0.267  1.00  0.00     0.169 C 
BRANCH  22  23
ATOM     23  C   UNL     1       0.207  -4.843  -1.508  1.00  0.00     0.059 A 
ATOM     24  C   UNL     1       0.643  -4.181  -2.659  1.00  0.00     0.026 A 
ATOM     25  N   UNL     1       0.137  -6.198  -1.450  1.00  0.00    -0.259 NA
ATOM     26  C   UNL     1       1.033  -4.917  -3.770  1.00  0.00     0.004 A 
ATOM     27  C   UNL     1       0.508  -6.887  -2.550  1.00  0.00     0.111 A 
ATOM     28  C   UNL     1       0.960  -6.299  -3.719  1.00  0.00     0.020 A 
ENDBRANCH  22  23
ENDBRANCH  20  22
ENDBRANCH  16  20
ENDBRANCH  11  13
ENDBRANCH   6  11
ENDBRANCH   4   5
ENDBRANCH   2   4
ENDBRANCH   1   2
BRANCH   1  29
ATOM     29  C   UNL     1       1.287   0.009   2.114  1.00  0.00     0.274 C 
BRANCH  29  30
ATOM     30  C   UNL     1       2.180  -0.815   3.038  1.00  0.00     0.275 C 
BRANCH  30  31
ATOM     31  O   UNL     1       3.403  -0.174   3.521  1.00  0.00    -0.458 OA
BRANCH  31  32
ATOM     32  C   UNL     1       3.609   1.097   3.986  1.00  0.00     0.338 C 
ATOM     33  O   UNL     1       4.723   1.611   3.946  1.00  0.00    -0.246 OA
BRANCH  32  34
ATOM     34  C   UNL     1       2.432   1.932   4.310  1.00  0.00     0.060 A 
ATOM     35  C   UNL     1       2.405   3.313   4.023  1.00  0.00     0.016 A 
ATOM     36  C   UNL     1       1.277   1.292   4.677  1.00  0.00     0.016 A 
ATOM     37  C   UNL     1       1.180   3.996   3.955  1.00  0.00     0.010 A 
ATOM     38  C   UNL     1       0.104   1.863   4.276  1.00  0.00     0.010 A 
ATOM     39  C   UNL     1       0.017   3.239   4.027  1.00  0.00    -0.014 A 
BRANCH  39  40
ATOM     40  C   UNL     1      -1.363   3.709   4.143  1.00  0.00     0.031 A 
ATOM     41  C   UNL     1      -2.103   4.414   3.082  1.00  0.00     0.074 A 
ATOM     42  C   UNL     1      -1.931   3.260   5.295  1.00  0.00     0.049 A 
ATOM     43  N   UNL     1      -3.198   5.046   3.311  1.00  0.00    -0.248 NA
ATOM     44  C   UNL     1      -1.731   4.482   1.672  1.00  0.00     0.031 C 
ATOM     45  C   UNL     1      -3.285   3.217   5.801  1.00  0.00     0.029 A 
ATOM     46  N   UNL     1      -1.189   2.781   6.387  1.00  0.00    -0.354 N 
ATOM     47  C   UNL     1      -3.822   5.303   2.107  1.00  0.00     0.074 A 
ATOM     48  C   UNL     1      -2.834   4.996   1.107  1.00  0.00     0.031 C 
ATOM     49  C   UNL     1      -3.223   3.092   7.149  1.00  0.00     0.029 A 
ATOM     50  C   UNL     1      -1.819   3.164   7.554  1.00  0.00     0.049 A 
ATOM     51  H   UNL     1      -0.357   2.257   6.329  1.00  0.00     0.167 HD
ATOM     52  C   UNL     1      -5.149   5.616   2.137  1.00  0.00     0.034 A 
ATOM     53  C   UNL     1      -1.150   4.156   8.218  1.00  0.00     0.034 A 
ATOM     54  C   UNL     1      -5.586   5.744   3.532  1.00  0.00     0.049 A 
ATOM     55  C   UNL     1      -1.864   5.482   8.009  1.00  0.00     0.074 A 
ATOM     56  C   UNL     1      -6.210   4.892   4.426  1.00  0.00     0.029 A 
ATOM     57  N   UNL     1      -5.001   6.735   4.299  1.00  0.00    -0.354 N 
ATOM     58  N   UNL     1      -2.896   5.645   7.223  1.00  0.00    -0.248 NA
ATOM     59  C   UNL     1      -1.448   6.730   8.634  1.00  0.00     0.031 C 
ATOM     60  C   UNL     1      -5.886   5.338   5.750  1.00  0.00     0.029 A 
ATOM     61  C   UNL     1      -5.103   6.476   5.653  1.00  0.00     0.049 A 
ATOM     62  H   UNL     1      -4.562   7.533   3.925  1.00  0.00     0.167 HD
ATOM     63  C   UNL     1      -3.306   6.942   7.235  1.00  0.00     0.074 A 
ATOM     64  C   UNL     1      -2.325   7.595   8.097  1.00  0.00     0.031 C 
ATOM     65  C   UNL     1      -4.418   7.384   6.564  1.00  0.00     0.034 A 
BRANCH  52  66
ATOM     66  C   UNL     1      -6.120   5.591   0.977  1.00  0.00     0.023 A 
ATOM     67  C   UNL     1      -7.489   5.402   1.270  1.00  0.00     0.031 A 
ATOM     68  C   UNL     1      -5.813   5.709  -0.392  1.00  0.00     0.131 A 
ATOM     69  C   UNL     1      -8.460   5.273   0.262  1.00  0.00     0.055 A 
ATOM     70  C   UNL     1      -6.779   5.560  -1.404  1.00  0.00     0.041 A 
ATOM     71  F   UNL     1      -4.580   6.013  -0.817  1.00  0.00    -0.206 F 
ATOM     72  C   UNL     1      -8.110   5.332  -1.081  1.00  0.00     0.022 A 
BRANCH  69  73
ATOM     73  S   UNL     1     -10.190   5.025   0.749  1.00  0.00     0.124 S 
ATOM     74  O   UNL     1     -10.128   3.757   1.469  1.00  0.00    -0.237 OA
ATOM     75  O   UNL     1     -10.459   6.211   1.555  1.00  0.00    -0.237 OA
ATOM     76  O   UNL     1     -10.899   4.975  -0.528  1.00  0.00    -0.744 OA
ENDBRANCH  69  73
ENDBRANCH  52  66
BRANCH  53  77
ATOM     77  C   UNL     1       0.366   3.929   8.221  1.00  0.00     0.023 A 
ATOM     78  C   UNL     1       0.842   2.623   8.534  1.00  0.00     0.031 A 
ATOM     79  C   UNL     1       1.292   4.791   7.612  1.00  0.00     0.131 A 
ATOM     80  C   UNL     1       2.109   2.177   8.107  1.00  0.00     0.055 A 
ATOM     81  C   UNL     1       2.594   4.371   7.275  1.00  0.00     0.041 A 
ATOM     82  F   UNL     1       0.939   6.027   7.231  1.00  0.00    -0.206 F 
ATOM     83  C   UNL     1       2.997   3.052   7.487  1.00  0.00     0.022 A 
BRANCH  80  84
ATOM     84  S   UNL     1       2.438   0.380   8.070  1.00  0.00     0.124 S 
ATOM     85  O   UNL     1       2.854   0.109   9.440  1.00  0.00    -0.237 OA
ATOM     86  O   UNL     1       1.144  -0.172   7.670  1.00  0.00    -0.237 OA
ATOM     87  O   UNL     1       3.478   0.241   7.053  1.00  0.00    -0.744 OA
ENDBRANCH  80  84
ENDBRANCH  53  77
BRANCH  65  88
ATOM     88  C   UNL     1      -4.927   8.790   6.719  1.00  0.00     0.023 A 
ATOM     89  C   UNL     1      -4.749   9.467   7.927  1.00  0.00     0.031 A 
ATOM     90  C   UNL     1      -5.639   9.485   5.716  1.00  0.00     0.131 A 
ATOM     91  C   UNL     1      -5.062  10.823   8.039  1.00  0.00     0.055 A 
ATOM     92  C   UNL     1      -6.066  10.803   5.875  1.00  0.00     0.041 A 
ATOM     93  F   UNL     1      -5.928   8.944   4.526  1.00  0.00    -0.206 F 
ATOM     94  C   UNL     1      -5.739  11.497   7.029  1.00  0.00     0.022 A 
BRANCH  91  95
ATOM     95  S   UNL     1      -4.428  11.699   9.482  1.00  0.00     0.124 S 
ATOM     96  O   UNL     1      -4.900  10.875  10.590  1.00  0.00    -0.237 OA
ATOM     97  O   UNL     1      -2.988  11.660   9.236  1.00  0.00    -0.237 OA
ATOM     98  O   UNL     1      -5.043  13.019   9.377  1.00  0.00    -0.744 OA
ENDBRANCH  91  95
ENDBRANCH  65  88
ENDBRANCH  39  40
ENDBRANCH  32  34
ENDBRANCH  31  32
ENDBRANCH  30  31
ENDBRANCH  29  30
ENDBRANCH   1  29
TORSDOF 20
