REMARK SMILES O=C(OCCOC(=O)c1cccc(S(=O)(=O)NC[C@@H]2COc3ccccc3O2)c1)c1ccc(-c2c3nc(c(-c4cc(S(=O)(=O)[O-])ccc4F)c4ccc([nH]4)c(-c4cc(S(=O)(=O)[O-])ccc4F)c4nc(c(-c5cc(S(=O)(=O)[O-])ccc5F)c5ccc2[nH]5)C=C4)C=C3)cc1
REMARK SMILES IDX 5 1 4 2 3 3 2 4 1 5 30 6 31 7 92 8 32 9 91 10 33 11 34 12
REMARK SMILES IDX 35 13 85 14 36 15 90 16 84 17 86 18 37 19 89 20 83 21 82 22
REMARK SMILES IDX 38 24 70 25 50 26 69 27 51 28 54 29 68 30 87 31 52 32 53 33
REMARK SMILES IDX 67 35 88 36 55 37 39 38 40 39 48 40 41 41 47 42 49 43 46 44
REMARK SMILES IDX 42 45 43 46 44 47 45 48 71 49 72 50 80 51 73 52 79 53 81 54
REMARK SMILES IDX 78 55 74 56 75 57 76 58 77 59 56 60 57 61 65 62 58 63 64 64
REMARK SMILES IDX 66 65 63 66 59 67 60 68 61 69 62 70 6 71 7 72 8 73 9 74
REMARK SMILES IDX 10 75 29 76 11 77 13 78 12 79 14 80 15 81 16 82 17 83 18 85
REMARK SMILES IDX 19 86 20 87 28 88 21 89 27 90 22 91 26 92 23 93 25 94 24 95
REMARK H PARENT 86 23 54 34 17 84
REMARK Flexibility Score: inf
ROOT
ATOM      1  C   UNL     1       3.968   1.431   1.377  1.00  0.00     0.275 C 
ENDROOT
BRANCH   1   2
ATOM      2  C   UNL     1       4.140   1.404  -0.144  1.00  0.00     0.275 C 
BRANCH   2   3
ATOM      3  O   UNL     1       3.126   0.696  -0.883  1.00  0.00    -0.458 OA
BRANCH   3   4
ATOM      4  C   UNL     1       2.977  -0.634  -1.104  1.00  0.00     0.338 C 
ATOM      5  O   UNL     1       2.058  -1.022  -1.822  1.00  0.00    -0.246 OA
BRANCH   4   6
ATOM      6  C   UNL     1       3.794  -1.664  -0.395  1.00  0.00     0.060 A 
ATOM      7  C   UNL     1       5.153  -1.541  -0.104  1.00  0.00     0.016 A 
ATOM      8  C   UNL     1       3.136  -2.851  -0.024  1.00  0.00     0.016 A 
ATOM      9  C   UNL     1       5.818  -2.528   0.628  1.00  0.00     0.010 A 
ATOM     10  C   UNL     1       3.801  -3.848   0.700  1.00  0.00     0.010 A 
ATOM     11  C   UNL     1       5.150  -3.686   1.036  1.00  0.00    -0.014 A 
BRANCH  11  12
ATOM     12  C   UNL     1       5.921  -4.777   1.675  1.00  0.00     0.031 A 
ATOM     13  C   UNL     1       6.396  -5.917   0.827  1.00  0.00     0.074 A 
ATOM     14  C   UNL     1       6.289  -4.705   2.968  1.00  0.00     0.049 A 
ATOM     15  N   UNL     1       7.153  -6.926   1.161  1.00  0.00    -0.248 NA
ATOM     16  C   UNL     1       6.027  -5.879  -0.597  1.00  0.00     0.031 C 
ATOM     17  C   UNL     1       6.027  -3.576   3.857  1.00  0.00     0.029 A 
ATOM     18  N   UNL     1       6.943  -5.609   3.768  1.00  0.00    -0.354 N 
ATOM     19  C   UNL     1       7.441  -7.583  -0.025  1.00  0.00     0.074 A 
ATOM     20  C   UNL     1       6.685  -6.926  -1.070  1.00  0.00     0.031 C 
ATOM     21  C   UNL     1       6.416  -3.901   5.103  1.00  0.00     0.029 A 
ATOM     22  C   UNL     1       6.938  -5.256   5.099  1.00  0.00     0.049 A 
ATOM     23  H   UNL     1       7.372  -6.426   3.425  1.00  0.00     0.167 HD
ATOM     24  C   UNL     1       8.310  -8.602  -0.227  1.00  0.00     0.034 A 
ATOM     25  C   UNL     1       7.281  -5.962   6.193  1.00  0.00     0.034 A 
ATOM     26  C   UNL     1       8.992  -9.291   0.839  1.00  0.00     0.049 A 
ATOM     27  C   UNL     1       7.985  -7.270   5.985  1.00  0.00     0.074 A 
ATOM     28  C   UNL     1       9.864 -10.362   0.761  1.00  0.00     0.029 A 
ATOM     29  N   UNL     1       8.850  -8.995   2.191  1.00  0.00    -0.354 N 
ATOM     30  N   UNL     1       8.282  -7.870   4.856  1.00  0.00    -0.248 NA
ATOM     31  C   UNL     1       8.474  -7.952   7.187  1.00  0.00     0.031 C 
ATOM     32  C   UNL     1      10.196 -10.753   2.065  1.00  0.00     0.029 A 
ATOM     33  C   UNL     1       9.584  -9.887   2.958  1.00  0.00     0.049 A 
ATOM     34  H   UNL     1       8.307  -8.257   2.552  1.00  0.00     0.167 HD
ATOM     35  C   UNL     1       9.061  -8.964   5.207  1.00  0.00     0.074 A 
ATOM     36  C   UNL     1       9.168  -8.946   6.654  1.00  0.00     0.031 C 
ATOM     37  C   UNL     1       9.664  -9.874   4.400  1.00  0.00     0.034 A 
BRANCH  24  38
ATOM     38  C   UNL     1       8.531  -9.019  -1.656  1.00  0.00     0.023 A 
ATOM     39  C   UNL     1       9.152  -8.152  -2.575  1.00  0.00     0.031 A 
ATOM     40  C   UNL     1       8.066 -10.257  -2.124  1.00  0.00     0.131 A 
ATOM     41  C   UNL     1       9.234  -8.508  -3.929  1.00  0.00     0.055 A 
ATOM     42  C   UNL     1       8.208 -10.634  -3.461  1.00  0.00     0.041 A 
ATOM     43  F   UNL     1       7.441 -11.109  -1.296  1.00  0.00    -0.206 F 
ATOM     44  C   UNL     1       8.783  -9.753  -4.374  1.00  0.00     0.022 A 
BRANCH  41  45
ATOM     45  S   UNL     1       9.824  -7.274  -5.121  1.00  0.00     0.124 S 
ATOM     46  O   UNL     1       8.818  -6.224  -4.985  1.00  0.00    -0.237 OA
ATOM     47  O   UNL     1      11.153  -6.953  -4.614  1.00  0.00    -0.237 OA
ATOM     48  O   UNL     1       9.800  -7.990  -6.395  1.00  0.00    -0.744 OA
ENDBRANCH  41  45
ENDBRANCH  24  38
BRANCH  25  49
ATOM     49  C   UNL     1       6.961  -5.473   7.565  1.00  0.00     0.023 A 
ATOM     50  C   UNL     1       7.960  -5.039   8.449  1.00  0.00     0.031 A 
ATOM     51  C   UNL     1       5.637  -5.521   8.041  1.00  0.00     0.131 A 
ATOM     52  C   UNL     1       7.624  -4.706   9.773  1.00  0.00     0.055 A 
ATOM     53  C   UNL     1       5.303  -5.149   9.345  1.00  0.00     0.041 A 
ATOM     54  F   UNL     1       4.647  -5.967   7.254  1.00  0.00    -0.206 F 
ATOM     55  C   UNL     1       6.302  -4.748  10.224  1.00  0.00     0.022 A 
BRANCH  52  56
ATOM     56  S   UNL     1       8.959  -4.306  10.936  1.00  0.00     0.124 S 
ATOM     57  O   UNL     1       9.822  -5.476  10.818  1.00  0.00    -0.237 OA
ATOM     58  O   UNL     1       9.481  -3.064  10.375  1.00  0.00    -0.237 OA
ATOM     59  O   UNL     1       8.267  -4.167  12.215  1.00  0.00    -0.744 OA
ENDBRANCH  52  56
ENDBRANCH  25  49
BRANCH  37  60
ATOM     60  C   UNL     1      10.540 -10.888   5.087  1.00  0.00     0.023 A 
ATOM     61  C   UNL     1      10.005 -11.846   5.963  1.00  0.00     0.031 A 
ATOM     62  C   UNL     1      11.935 -10.842   4.921  1.00  0.00     0.131 A 
ATOM     63  C   UNL     1      10.866 -12.663   6.708  1.00  0.00     0.055 A 
ATOM     64  C   UNL     1      12.783 -11.709   5.609  1.00  0.00     0.041 A 
ATOM     65  F   UNL     1      12.498  -9.940   4.101  1.00  0.00    -0.206 F 
ATOM     66  C   UNL     1      12.250 -12.614   6.524  1.00  0.00     0.022 A 
BRANCH  63  67
ATOM     67  S   UNL     1      10.156 -13.698   8.016  1.00  0.00     0.124 S 
ATOM     68  O   UNL     1       9.541 -12.702   8.887  1.00  0.00    -0.237 OA
ATOM     69  O   UNL     1       9.233 -14.552   7.274  1.00  0.00    -0.237 OA
ATOM     70  O   UNL     1      11.318 -14.384   8.578  1.00  0.00    -0.744 OA
ENDBRANCH  63  67
ENDBRANCH  37  60
ENDBRANCH  11  12
ENDBRANCH   4   6
ENDBRANCH   3   4
ENDBRANCH   2   3
ENDBRANCH   1   2
BRANCH   1  71
ATOM     71  O   UNL     1       3.458   0.209   1.931  1.00  0.00    -0.458 OA
BRANCH  71  72
ATOM     72  C   UNL     1       2.105   0.162   2.023  1.00  0.00     0.338 C 
ATOM     73  O   UNL     1       1.331   1.057   1.726  1.00  0.00    -0.246 OA
BRANCH  72  74
ATOM     74  C   UNL     1       1.644  -1.157   2.514  1.00  0.00     0.061 A 
ATOM     75  C   UNL     1       0.475  -1.688   1.964  1.00  0.00     0.016 A 
ATOM     76  C   UNL     1       2.294  -1.832   3.550  1.00  0.00     0.037 A 
ATOM     77  C   UNL     1      -0.048  -2.881   2.461  1.00  0.00     0.002 A 
ATOM     78  C   UNL     1       1.694  -2.944   4.139  1.00  0.00     0.083 A 
ATOM     79  C   UNL     1       0.541  -3.491   3.569  1.00  0.00     0.022 A 
BRANCH  78  80
ATOM     80  S   UNL     1       2.372  -3.715   5.595  1.00  0.00     0.240 S 
ATOM     81  O   UNL     1       1.258  -4.365   6.267  1.00  0.00    -0.207 OA
ATOM     82  O   UNL     1       3.521  -4.451   5.173  1.00  0.00    -0.207 OA
BRANCH  80  83
ATOM     83  N   UNL     1       2.828  -2.489   6.666  1.00  0.00    -0.207 NA
ATOM     84  H   UNL     1       3.021  -2.953   7.554  1.00  0.00     0.141 HD
BRANCH  83  85
ATOM     85  C   UNL     1       3.973  -1.576   6.427  1.00  0.00     0.147 C 
BRANCH  85  86
ATOM     86  C   UNL     1       3.445  -0.141   6.208  1.00  0.00     0.226 C 
ATOM     87  C   UNL     1       4.309   0.667   5.234  1.00  0.00     0.276 C 
ATOM     88  O   UNL     1       3.233   0.531   7.463  1.00  0.00    -0.482 OA
ATOM     89  O   UNL     1       5.539   1.073   5.819  1.00  0.00    -0.486 OA
ATOM     90  C   UNL     1       4.127   1.533   7.728  1.00  0.00     0.161 A 
ATOM     91  C   UNL     1       5.254   1.793   6.946  1.00  0.00     0.161 A 
ATOM     92  C   UNL     1       3.861   2.334   8.834  1.00  0.00     0.050 A 
ATOM     93  C   UNL     1       6.127   2.827   7.272  1.00  0.00     0.050 A 
ATOM     94  C   UNL     1       4.713   3.397   9.146  1.00  0.00     0.004 A 
ATOM     95  C   UNL     1       5.847   3.640   8.368  1.00  0.00     0.004 A 
ENDBRANCH  85  86
ENDBRANCH  83  85
ENDBRANCH  80  83
ENDBRANCH  78  80
ENDBRANCH  72  74
ENDBRANCH  71  72
ENDBRANCH   1  71
TORSDOF 18
