REMARK SMILES O=C1C[C@H](c2cn[nH]c2C(=O)OCCOC(=O)c2ccc(-c3c4nc(c(-c5cc(S(=O)(=O)[O-])ccc5F)c5ccc([nH]5)c(-c5cc(S(=O)(=O)[O-])ccc5F)c5nc(c(-c6cc(S(=O)(=O)[O-])ccc6F)c6ccc3[nH]6)C=C5)C=C4)cc2)c2c(-c3cccs3)n[nH]c2N1
REMARK SMILES IDX 14 1 13 2 12 3 10 4 11 5 9 6 5 7 6 8 7 9 8 10 4 12 1 13 2 14
REMARK SMILES IDX 3 15 91 16 90 17 81 19 89 20 82 21 88 22 83 24 84 25 87 26
REMARK SMILES IDX 85 27 86 28 15 29 16 30 17 31 18 32 19 33 80 34 20 35 79 36
REMARK SMILES IDX 21 37 22 38 23 39 73 40 24 41 78 42 72 43 74 44 25 45 77 46
REMARK SMILES IDX 71 47 70 48 26 50 58 51 38 52 57 53 39 54 42 55 56 56 75 57
REMARK SMILES IDX 40 58 41 59 55 61 76 62 43 63 27 64 28 65 36 66 29 67 35 68
REMARK SMILES IDX 37 69 34 70 30 71 31 72 32 73 33 74 59 75 60 76 68 77 61 78
REMARK SMILES IDX 67 79 69 80 66 81 62 82 63 83 64 84 65 85 44 86 45 87 53 88
REMARK SMILES IDX 46 89 52 90 54 91 51 92 47 93 48 94 49 95 50 96
REMARK H PARENT 8 11 91 18 89 23 74 49 42 60
REMARK Flexibility Score: inf
ROOT
ATOM      1  C   UNL     1       5.782  -2.891  -2.097  1.00  0.00     0.275 C 
ENDROOT
BRANCH   1   2
ATOM      2  C   UNL     1       6.840  -1.898  -1.682  1.00  0.00     0.275 C 
BRANCH   2   3
ATOM      3  O   UNL     1       6.205  -0.619  -1.527  1.00  0.00    -0.457 OA
BRANCH   3   4
ATOM      4  C   UNL     1       6.349   0.299  -2.499  1.00  0.00     0.356 C 
ATOM      5  O   UNL     1       7.080   0.166  -3.478  1.00  0.00    -0.244 OA
BRANCH   4   6
ATOM      6  C   UNL     1       5.524   1.458  -2.270  1.00  0.00     0.147 A 
ATOM      7  C   UNL     1       4.691   1.965  -1.266  1.00  0.00     0.013 A 
ATOM      8  C   UNL     1       4.284   3.228  -1.801  1.00  0.00     0.140 A 
ATOM      9  N   UNL     1       4.765   3.480  -3.012  1.00  0.00    -0.183 NA
ATOM     10  N   UNL     1       5.448   2.369  -3.297  1.00  0.00    -0.271 N 
ATOM     11  H   UNL     1       5.865   2.213  -4.176  1.00  0.00     0.190 HD
BRANCH   7  12
ATOM     12  C   UNL     1       4.229   1.523   0.115  1.00  0.00     0.069 C 
ATOM     13  O   UNL     1       0.973  -0.291  -0.180  1.00  0.00    -0.275 OA
ATOM     14  C   UNL     1       2.150  -0.073   0.110  1.00  0.00     0.226 C 
ATOM     15  C   UNL     1       2.690   1.352   0.195  1.00  0.00     0.114 C 
ATOM     16  N   UNL     1       2.950  -1.104   0.540  1.00  0.00    -0.311 N 
ATOM     17  C   UNL     1       4.245  -0.848   0.886  1.00  0.00     0.132 A 
ATOM     18  H   UNL     1       2.592  -2.019   0.597  1.00  0.00     0.171 HD
ATOM     19  C   UNL     1       4.893   0.349   0.735  1.00  0.00     0.031 A 
ATOM     20  N   UNL     1       5.157  -1.737   1.360  1.00  0.00    -0.262 N 
ATOM     21  C   UNL     1       6.222   0.091   1.160  1.00  0.00     0.108 A 
ATOM     22  N   UNL     1       6.386  -1.196   1.519  1.00  0.00    -0.173 NA
ATOM     23  H   UNL     1       4.945  -2.676   1.566  1.00  0.00     0.192 HD
BRANCH  21  24
ATOM     24  C   UNL     1       7.363   1.046   0.994  1.00  0.00     0.055 A 
ATOM     25  C   UNL     1       8.454   0.802   0.185  1.00  0.00     0.022 A 
ATOM     26  S   UNL     1       7.396   2.618   1.651  1.00  0.00    -0.142 S 
ATOM     27  C   UNL     1       9.270   1.960   0.024  1.00  0.00     0.012 A 
ATOM     28  C   UNL     1       8.842   2.999   0.820  1.00  0.00     0.065 A 
ENDBRANCH  21  24
ENDBRANCH   7  12
ENDBRANCH   4   6
ENDBRANCH   3   4
ENDBRANCH   2   3
ENDBRANCH   1   2
BRANCH   1  29
ATOM     29  O   UNL     1       5.558  -2.713  -3.483  1.00  0.00    -0.458 OA
BRANCH  29  30
ATOM     30  C   UNL     1       4.588  -1.855  -3.861  1.00  0.00     0.338 C 
ATOM     31  O   UNL     1       3.963  -1.075  -3.170  1.00  0.00    -0.246 OA
BRANCH  30  32
ATOM     32  C   UNL     1       4.319  -2.154  -5.266  1.00  0.00     0.060 A 
ATOM     33  C   UNL     1       3.411  -1.357  -5.964  1.00  0.00     0.016 A 
ATOM     34  C   UNL     1       4.804  -3.369  -5.781  1.00  0.00     0.016 A 
ATOM     35  C   UNL     1       2.852  -1.881  -7.110  1.00  0.00     0.010 A 
ATOM     36  C   UNL     1       4.230  -3.896  -6.897  1.00  0.00     0.010 A 
ATOM     37  C   UNL     1       3.207  -3.180  -7.498  1.00  0.00    -0.014 A 
BRANCH  37  38
ATOM     38  C   UNL     1       2.628  -3.762  -8.680  1.00  0.00     0.031 A 
ATOM     39  C   UNL     1       3.174  -3.136  -9.898  1.00  0.00     0.074 A 
ATOM     40  C   UNL     1       1.839  -4.851  -8.645  1.00  0.00     0.049 A 
ATOM     41  N   UNL     1       2.599  -2.229 -10.611  1.00  0.00    -0.248 NA
ATOM     42  C   UNL     1       4.606  -3.313 -10.202  1.00  0.00     0.031 C 
ATOM     43  C   UNL     1       1.485  -5.697  -7.504  1.00  0.00     0.029 A 
ATOM     44  N   UNL     1       1.243  -5.484  -9.684  1.00  0.00    -0.354 N 
ATOM     45  C   UNL     1       3.492  -1.957 -11.633  1.00  0.00     0.074 A 
ATOM     46  C   UNL     1       4.773  -2.412 -11.171  1.00  0.00     0.031 C 
ATOM     47  C   UNL     1       0.918  -6.843  -7.955  1.00  0.00     0.029 A 
ATOM     48  C   UNL     1       0.747  -6.752  -9.397  1.00  0.00     0.049 A 
ATOM     49  H   UNL     1       1.165  -5.076 -10.576  1.00  0.00     0.167 HD
ATOM     50  C   UNL     1       3.033  -1.687 -12.884  1.00  0.00     0.034 A 
ATOM     51  C   UNL     1       0.280  -7.657 -10.303  1.00  0.00     0.034 A 
ATOM     52  C   UNL     1       1.617  -1.379 -12.853  1.00  0.00     0.049 A 
ATOM     53  C   UNL     1      -0.101  -6.875 -11.514  1.00  0.00     0.074 A 
ATOM     54  C   UNL     1       0.854  -0.430 -12.197  1.00  0.00     0.029 A 
ATOM     55  N   UNL     1       0.736  -2.377 -13.216  1.00  0.00    -0.354 N 
ATOM     56  N   UNL     1      -1.073  -6.003 -11.516  1.00  0.00    -0.248 NA
ATOM     57  C   UNL     1       0.917  -6.660 -12.535  1.00  0.00     0.031 C 
ATOM     58  C   UNL     1      -0.315  -1.128 -11.769  1.00  0.00     0.029 A 
ATOM     59  C   UNL     1      -0.262  -2.431 -12.272  1.00  0.00     0.049 A 
ATOM     60  H   UNL     1       0.810  -2.950 -14.013  1.00  0.00     0.167 HD
ATOM     61  C   UNL     1      -0.577  -4.907 -12.208  1.00  0.00     0.074 A 
ATOM     62  C   UNL     1       0.621  -5.404 -12.888  1.00  0.00     0.031 C 
ATOM     63  C   UNL     1      -1.000  -3.637 -11.926  1.00  0.00     0.034 A 
BRANCH  50  64
ATOM     64  C   UNL     1       3.744  -2.095 -14.150  1.00  0.00     0.023 A 
ATOM     65  C   UNL     1       3.163  -1.686 -15.361  1.00  0.00     0.031 A 
ATOM     66  C   UNL     1       4.769  -3.065 -14.255  1.00  0.00     0.131 A 
ATOM     67  C   UNL     1       3.525  -2.293 -16.574  1.00  0.00     0.055 A 
ATOM     68  C   UNL     1       5.176  -3.615 -15.472  1.00  0.00     0.041 A 
ATOM     69  F   UNL     1       5.370  -3.614 -13.193  1.00  0.00    -0.206 F 
ATOM     70  C   UNL     1       4.531  -3.253 -16.639  1.00  0.00     0.022 A 
BRANCH  67  71
ATOM     71  S   UNL     1       2.532  -1.927 -18.039  1.00  0.00     0.124 S 
ATOM     72  O   UNL     1       1.196  -2.300 -17.588  1.00  0.00    -0.237 OA
ATOM     73  O   UNL     1       2.778  -0.499 -18.218  1.00  0.00    -0.237 OA
ATOM     74  O   UNL     1       3.111  -2.792 -19.064  1.00  0.00    -0.744 OA
ENDBRANCH  67  71
ENDBRANCH  50  64
BRANCH  51  75
ATOM     75  C   UNL     1       0.514  -9.133 -10.318  1.00  0.00     0.023 A 
ATOM     76  C   UNL     1      -0.240 -10.030 -11.111  1.00  0.00     0.031 A 
ATOM     77  C   UNL     1       1.685  -9.657  -9.722  1.00  0.00     0.131 A 
ATOM     78  C   UNL     1       0.188 -11.372 -11.281  1.00  0.00     0.055 A 
ATOM     79  C   UNL     1       2.103 -10.979  -9.897  1.00  0.00     0.041 A 
ATOM     80  F   UNL     1       2.515  -8.874  -9.015  1.00  0.00    -0.206 F 
ATOM     81  C   UNL     1       1.361 -11.840 -10.687  1.00  0.00     0.022 A 
BRANCH  78  82
ATOM     82  S   UNL     1      -0.737 -12.525 -12.354  1.00  0.00     0.124 S 
ATOM     83  O   UNL     1      -1.982 -12.706 -11.616  1.00  0.00    -0.237 OA
ATOM     84  O   UNL     1      -0.827 -11.786 -13.608  1.00  0.00    -0.237 OA
ATOM     85  O   UNL     1       0.122 -13.710 -12.405  1.00  0.00    -0.744 OA
ENDBRANCH  78  82
ENDBRANCH  51  75
BRANCH  63  86
ATOM     86  C   UNL     1      -2.229  -3.465 -11.045  1.00  0.00     0.023 A 
ATOM     87  C   UNL     1      -2.376  -3.963  -9.727  1.00  0.00     0.031 A 
ATOM     88  C   UNL     1      -3.261  -2.653 -11.547  1.00  0.00     0.131 A 
ATOM     89  C   UNL     1      -3.531  -3.651  -8.978  1.00  0.00     0.055 A 
ATOM     90  C   UNL     1      -4.387  -2.325 -10.794  1.00  0.00     0.041 A 
ATOM     91  F   UNL     1      -3.176  -2.131 -12.782  1.00  0.00    -0.206 F 
ATOM     92  C   UNL     1      -4.530  -2.828  -9.508  1.00  0.00     0.022 A 
BRANCH  89  93
ATOM     93  S   UNL     1      -3.778  -4.332  -7.303  1.00  0.00     0.124 S 
ATOM     94  O   UNL     1      -3.466  -5.747  -7.460  1.00  0.00    -0.237 OA
ATOM     95  O   UNL     1      -2.835  -3.555  -6.503  1.00  0.00    -0.237 OA
ATOM     96  O   UNL     1      -5.188  -4.047  -7.025  1.00  0.00    -0.744 OA
ENDBRANCH  89  93
ENDBRANCH  63  86
ENDBRANCH  37  38
ENDBRANCH  30  32
ENDBRANCH  29  30
ENDBRANCH   1  29
TORSDOF 16
