REMARK SMILES O=C(C[C@H]1C(=O)N[NH+]=C2c3ccc(F)cc3N=CN21)OCCOC(=O)c1ccc(-c2c3nc(c(-c4cc(S(=O)(=O)[O-])ccc4F)c4ccc([nH]4)c(-c4cc(S(=O)(=O)[O-])ccc4F)c4nc(c(-c5cc(S(=O)(=O)[O-])ccc5F)c5ccc2[nH]5)C=C4)C=C3)cc1
REMARK SMILES IDX 22 1 21 2 20 3 2 4 1 5 3 6 4 7 5 8 19 9 6 10 7 11 9 12 18 13
REMARK SMILES IDX 8 14 10 16 17 17 11 19 16 20 12 21 15 22 13 23 14 24 23 25
REMARK SMILES IDX 24 26 25 27 26 28 27 29 88 30 28 31 87 32 29 33 30 34 31 35
REMARK SMILES IDX 81 36 32 37 86 38 80 39 82 40 33 41 85 42 79 43 78 44 34 46
REMARK SMILES IDX 66 47 46 48 65 49 47 50 50 51 64 52 83 53 48 54 49 55 63 57
REMARK SMILES IDX 84 58 51 59 35 60 36 61 44 62 37 63 43 64 45 65 42 66 38 67
REMARK SMILES IDX 39 68 40 69 41 70 67 71 68 72 76 73 69 74 75 75 77 76 74 77
REMARK SMILES IDX 70 78 71 79 72 80 73 81 52 82 53 83 61 84 54 85 60 86 62 87
REMARK SMILES IDX 59 88 55 89 56 90 57 91 58 92
REMARK H PARENT 7 15 8 18 82 45 50 56
REMARK Flexibility Score: inf
ROOT
ATOM      1  C   UNL     1       4.417   0.232  -1.857  1.00  0.00     0.275 C 
ENDROOT
BRANCH   1   2
ATOM      2  C   UNL     1       4.658  -0.863  -0.812  1.00  0.00     0.274 C 
BRANCH   2   3
ATOM      3  O   UNL     1       3.469  -1.189  -0.062  1.00  0.00    -0.462 OA
BRANCH   3   4
ATOM      4  C   UNL     1       3.152  -0.667   1.148  1.00  0.00     0.310 C 
ATOM      5  O   UNL     1       2.212  -1.115   1.798  1.00  0.00    -0.252 OA
BRANCH   4   6
ATOM      6  C   UNL     1       3.882   0.566   1.603  1.00  0.00     0.183 C 
BRANCH   6   7
ATOM      7  C   UNL     1       4.238   0.572   3.086  1.00  0.00     0.286 C 
ATOM      8  C   UNL     1       5.121  -0.638   3.375  1.00  0.00     0.300 C 
ATOM      9  N   UNL     1       4.918   1.848   3.394  1.00  0.00    -0.202 N 
ATOM     10  O   UNL     1       4.704  -1.795   3.341  1.00  0.00    -0.267 OA
ATOM     11  N   UNL     1       6.454  -0.413   3.577  1.00  0.00    -0.193 N 
ATOM     12  C   UNL     1       6.264   1.839   3.722  1.00  0.00     0.309 C 
ATOM     13  C   UNL     1       4.232   3.035   3.256  1.00  0.00     0.317 C 
ATOM     14  N   UNL     1       7.032   0.792   3.778  1.00  0.00    -0.169 N 
ATOM     15  H   UNL     1       7.046  -1.200   3.577  1.00  0.00     0.216 HD
ATOM     16  C   UNL     1       6.857   3.171   4.051  1.00  0.00     0.092 A 
ATOM     17  N   UNL     1       4.710   4.224   3.420  1.00  0.00    -0.216 NA
ATOM     18  H   UNL     1       7.996   0.874   3.960  1.00  0.00     0.340 HD
ATOM     19  C   UNL     1       8.141   3.280   4.596  1.00  0.00     0.022 A 
ATOM     20  C   UNL     1       6.039   4.305   3.880  1.00  0.00     0.085 A 
ATOM     21  C   UNL     1       8.612   4.532   4.984  1.00  0.00     0.040 A 
ATOM     22  C   UNL     1       6.540   5.556   4.243  1.00  0.00     0.068 A 
ATOM     23  C   UNL     1       7.811   5.657   4.800  1.00  0.00     0.125 A 
ATOM     24  F   UNL     1       8.272   6.853   5.187  1.00  0.00    -0.207 F 
ENDBRANCH   6   7
ENDBRANCH   4   6
ENDBRANCH   3   4
ENDBRANCH   2   3
ENDBRANCH   1   2
BRANCH   1  25
ATOM     25  O   UNL     1       3.975   1.463  -1.253  1.00  0.00    -0.458 OA
BRANCH  25  26
ATOM     26  C   UNL     1       2.652   1.756  -1.386  1.00  0.00     0.338 C 
ATOM     27  O   UNL     1       1.829   1.093  -1.996  1.00  0.00    -0.246 OA
BRANCH  26  28
ATOM     28  C   UNL     1       2.307   2.916  -0.523  1.00  0.00     0.060 A 
ATOM     29  C   UNL     1       3.218   3.943  -0.263  1.00  0.00     0.016 A 
ATOM     30  C   UNL     1       1.052   2.928   0.104  1.00  0.00     0.016 A 
ATOM     31  C   UNL     1       2.877   4.965   0.631  1.00  0.00     0.010 A 
ATOM     32  C   UNL     1       0.710   3.961   0.989  1.00  0.00     0.010 A 
ATOM     33  C   UNL     1       1.621   4.989   1.268  1.00  0.00    -0.014 A 
BRANCH  33  34
ATOM     34  C   UNL     1       1.237   6.159   2.108  1.00  0.00     0.031 A 
ATOM     35  C   UNL     1       1.118   6.087   3.605  1.00  0.00     0.074 A 
ATOM     36  C   UNL     1       0.988   7.328   1.488  1.00  0.00     0.049 A 
ATOM     37  N   UNL     1       0.958   7.064   4.463  1.00  0.00    -0.248 NA
ATOM     38  C   UNL     1       1.175   4.756   4.221  1.00  0.00     0.031 C 
ATOM     39  C   UNL     1       1.003   7.518   0.039  1.00  0.00     0.029 A 
ATOM     40  N   UNL     1       0.679   8.569   1.988  1.00  0.00    -0.354 N 
ATOM     41  C   UNL     1       0.951   6.476   5.723  1.00  0.00     0.074 A 
ATOM     42  C   UNL     1       1.064   5.047   5.512  1.00  0.00     0.031 C 
ATOM     43  C   UNL     1       0.744   8.803  -0.234  1.00  0.00     0.029 A 
ATOM     44  C   UNL     1       0.514   9.526   1.016  1.00  0.00     0.049 A 
ATOM     45  H   UNL     1       0.585   8.755   2.951  1.00  0.00     0.167 HD
ATOM     46  C   UNL     1       0.870   7.070   6.940  1.00  0.00     0.034 A 
ATOM     47  C   UNL     1       0.216  10.838   1.107  1.00  0.00     0.034 A 
ATOM     48  C   UNL     1       0.683   8.488   7.140  1.00  0.00     0.049 A 
ATOM     49  C   UNL     1       0.091  11.476   2.465  1.00  0.00     0.074 A 
ATOM     50  C   UNL     1       0.626   9.183   8.337  1.00  0.00     0.029 A 
ATOM     51  N   UNL     1       0.492   9.424   6.133  1.00  0.00    -0.354 N 
ATOM     52  N   UNL     1       0.227  10.927   3.649  1.00  0.00    -0.248 NA
ATOM     53  C   UNL     1      -0.207  12.914   2.503  1.00  0.00     0.031 C 
ATOM     54  C   UNL     1       0.326  10.519   8.058  1.00  0.00     0.029 A 
ATOM     55  C   UNL     1       0.274  10.680   6.683  1.00  0.00     0.049 A 
ATOM     56  H   UNL     1       0.509   9.226   5.169  1.00  0.00     0.167 HD
ATOM     57  C   UNL     1       0.034  11.951   4.572  1.00  0.00     0.074 A 
ATOM     58  C   UNL     1      -0.183  13.162   3.807  1.00  0.00     0.031 C 
ATOM     59  C   UNL     1       0.029  11.888   5.929  1.00  0.00     0.034 A 
BRANCH  46  60
ATOM     60  C   UNL     1       1.006   6.207   8.174  1.00  0.00     0.023 A 
ATOM     61  C   UNL     1      -0.042   6.122   9.111  1.00  0.00     0.031 A 
ATOM     62  C   UNL     1       2.230   5.589   8.492  1.00  0.00     0.131 A 
ATOM     63  C   UNL     1       0.166   5.467  10.333  1.00  0.00     0.055 A 
ATOM     64  C   UNL     1       2.420   4.905   9.694  1.00  0.00     0.041 A 
ATOM     65  F   UNL     1       3.264   5.645   7.636  1.00  0.00    -0.206 F 
ATOM     66  C   UNL     1       1.389   4.854  10.626  1.00  0.00     0.022 A 
BRANCH  63  67
ATOM     67  S   UNL     1      -1.111   5.445  11.622  1.00  0.00     0.124 S 
ATOM     68  O   UNL     1      -1.358   4.012  11.772  1.00  0.00    -0.237 OA
ATOM     69  O   UNL     1      -0.424   6.079  12.744  1.00  0.00    -0.237 OA
ATOM     70  O   UNL     1      -2.209   6.208  11.041  1.00  0.00    -0.744 OA
ENDBRANCH  63  67
ENDBRANCH  46  60
BRANCH  47  71
ATOM     71  C   UNL     1       0.093  11.624  -0.154  1.00  0.00     0.023 A 
ATOM     72  C   UNL     1      -0.894  11.300  -1.103  1.00  0.00     0.031 A 
ATOM     73  C   UNL     1       1.049  12.594  -0.494  1.00  0.00     0.131 A 
ATOM     74  C   UNL     1      -0.845  11.874  -2.379  1.00  0.00     0.055 A 
ATOM     75  C   UNL     1       1.045  13.223  -1.740  1.00  0.00     0.041 A 
ATOM     76  F   UNL     1       2.018  12.922   0.374  1.00  0.00    -0.206 F 
ATOM     77  C   UNL     1       0.108  12.846  -2.698  1.00  0.00     0.022 A 
BRANCH  74  78
ATOM     78  S   UNL     1      -1.907  11.255  -3.714  1.00  0.00     0.124 S 
ATOM     79  O   UNL     1      -2.634  12.457  -4.107  1.00  0.00    -0.237 OA
ATOM     80  O   UNL     1      -0.919  10.770  -4.676  1.00  0.00    -0.237 OA
ATOM     81  O   UNL     1      -2.704  10.218  -3.068  1.00  0.00    -0.744 OA
ENDBRANCH  74  78
ENDBRANCH  47  71
BRANCH  59  82
ATOM     82  C   UNL     1      -0.264  13.154   6.706  1.00  0.00     0.023 A 
ATOM     83  C   UNL     1       0.689  13.687   7.596  1.00  0.00     0.031 A 
ATOM     84  C   UNL     1      -1.530  13.766   6.650  1.00  0.00     0.131 A 
ATOM     85  C   UNL     1       0.353  14.779   8.409  1.00  0.00     0.055 A 
ATOM     86  C   UNL     1      -1.843  14.883   7.427  1.00  0.00     0.041 A 
ATOM     87  F   UNL     1      -2.480  13.292   5.828  1.00  0.00    -0.206 F 
ATOM     88  C   UNL     1      -0.904  15.386   8.321  1.00  0.00     0.022 A 
BRANCH  85  89
ATOM     89  S   UNL     1       1.502  15.405   9.667  1.00  0.00     0.124 S 
ATOM     90  O   UNL     1       1.748  16.767   9.198  1.00  0.00    -0.237 OA
ATOM     91  O   UNL     1       0.708  15.302  10.889  1.00  0.00    -0.237 OA
ATOM     92  O   UNL     1       2.643  14.501   9.583  1.00  0.00    -0.744 OA
ENDBRANCH  85  89
ENDBRANCH  59  82
ENDBRANCH  33  34
ENDBRANCH  26  28
ENDBRANCH  25  26
ENDBRANCH   1  25
TORSDOF 15
