REMARK SMILES CCOc1ccc(-c2csc3ncn([C@H](C)C(=O)OCCOC(=O)c4ccc(-c5c6nc(c(-c7cc(S(=O)(=O)[O-])ccc7F)c7ccc([nH]7)c(-c7cc(S(=O)(=O)[O-])ccc7F)c7nc(c(-c8cc(S(=O)(=O)[O-])ccc8F)c8ccc5[nH]8)C=C7)C=C6)cc4)c(=O)c23)cc1
REMARK SMILES IDX 20 1 19 2 17 3 18 4 15 5 16 6 14 7 8 8 9 9 90 10 10 11 11 12
REMARK SMILES IDX 88 13 12 14 89 15 13 16 7 17 4 18 5 19 92 20 6 21 91 22 3 23
REMARK SMILES IDX 2 24 1 25 21 26 22 27 23 28 24 29 25 30 26 31 87 32 27 33
REMARK SMILES IDX 86 34 28 35 29 36 30 37 80 38 31 39 85 40 79 41 81 42 32 43
REMARK SMILES IDX 84 44 78 45 77 46 33 48 65 49 45 50 64 51 46 52 49 53 63 54
REMARK SMILES IDX 82 55 47 56 48 57 62 59 83 60 50 61 34 62 35 63 43 64 36 65
REMARK SMILES IDX 42 66 44 67 41 68 37 69 38 70 39 71 40 72 66 73 67 74 75 75
REMARK SMILES IDX 68 76 74 77 76 78 73 79 69 80 70 81 71 82 72 83 51 84 52 85
REMARK SMILES IDX 60 86 53 87 59 88 61 89 58 90 54 91 55 92 56 93 57 94
REMARK H PARENT 81 47 49 58
REMARK Flexibility Score: inf
ROOT
ATOM      1  C   UNL     1       5.451   5.044   1.827  1.00  0.00     0.274 C 
ENDROOT
BRANCH   1   2
ATOM      2  O   UNL     1       6.030   5.192   0.516  1.00  0.00    -0.461 OA
BRANCH   2   3
ATOM      3  C   UNL     1       6.976   6.169   0.394  1.00  0.00     0.329 C 
ATOM      4  O   UNL     1       7.155   7.053   1.226  1.00  0.00    -0.250 OA
BRANCH   3   5
ATOM      5  C   UNL     1       7.659   6.152  -0.979  1.00  0.00     0.198 C 
ATOM      6  C   UNL     1       7.895   4.814  -1.674  1.00  0.00     0.044 C 
BRANCH   5   7
ATOM      7  N   UNL     1       6.854   7.072  -1.773  1.00  0.00    -0.284 N 
ATOM      8  C   UNL     1       6.462  10.641  -2.913  1.00  0.00     0.007 A 
ATOM      9  C   UNL     1       5.340  11.070  -3.597  1.00  0.00     0.076 A 
ATOM     10  C   UNL     1       6.365   9.246  -2.602  1.00  0.00     0.085 A 
ATOM     11  S   UNL     1       4.196   9.825  -3.842  1.00  0.00    -0.123 S 
ATOM     12  C   UNL     1       5.184   8.688  -3.047  1.00  0.00     0.131 A 
ATOM     13  C   UNL     1       7.288   8.388  -1.887  1.00  0.00     0.263 A 
ATOM     14  N   UNL     1       4.781   7.403  -2.898  1.00  0.00    -0.227 NA
ATOM     15  O   UNL     1       8.357   8.790  -1.433  1.00  0.00    -0.268 OA
ATOM     16  C   UNL     1       5.628   6.658  -2.267  1.00  0.00     0.204 A 
BRANCH   8  17
ATOM     17  C   UNL     1       7.528  11.578  -2.582  1.00  0.00    -0.016 A 
ATOM     18  C   UNL     1       9.537  13.427  -1.962  1.00  0.00     0.119 A 
ATOM     19  C   UNL     1       9.859  12.258  -2.648  1.00  0.00     0.047 A 
ATOM     20  C   UNL     1       8.217  13.687  -1.605  1.00  0.00     0.047 A 
ATOM     21  C   UNL     1       8.855  11.333  -2.957  1.00  0.00     0.012 A 
ATOM     22  C   UNL     1       7.220  12.757  -1.894  1.00  0.00     0.012 A 
BRANCH  18  23
ATOM     23  O   UNL     1      10.519  14.358  -1.770  1.00  0.00    -0.494 OA
BRANCH  23  24
ATOM     24  C   UNL     1      10.866  14.543  -0.391  1.00  0.00     0.226 C 
ATOM     25  C   UNL     1      10.040  15.644   0.257  1.00  0.00     0.049 C 
ENDBRANCH  23  24
ENDBRANCH  18  23
ENDBRANCH   8  17
ENDBRANCH   5   7
ENDBRANCH   3   5
ENDBRANCH   2   3
ENDBRANCH   1   2
BRANCH   1  26
ATOM     26  C   UNL     1       6.236   4.042   2.663  1.00  0.00     0.275 C 
BRANCH  26  27
ATOM     27  O   UNL     1       7.544   4.528   2.967  1.00  0.00    -0.458 OA
BRANCH  27  28
ATOM     28  C   UNL     1       8.474   4.194   2.044  1.00  0.00     0.338 C 
ATOM     29  O   UNL     1       8.263   3.778   0.917  1.00  0.00    -0.246 OA
BRANCH  28  30
ATOM     30  C   UNL     1       9.809   4.186   2.624  1.00  0.00     0.060 A 
ATOM     31  C   UNL     1      10.880   3.992   1.742  1.00  0.00     0.016 A 
ATOM     32  C   UNL     1       9.911   3.969   4.000  1.00  0.00     0.016 A 
ATOM     33  C   UNL     1      12.015   3.381   2.222  1.00  0.00     0.010 A 
ATOM     34  C   UNL     1      11.025   3.324   4.465  1.00  0.00     0.010 A 
ATOM     35  C   UNL     1      12.029   2.979   3.558  1.00  0.00    -0.014 A 
BRANCH  35  36
ATOM     36  C   UNL     1      13.189   2.279   4.062  1.00  0.00     0.031 A 
ATOM     37  C   UNL     1      14.309   3.194   4.360  1.00  0.00     0.074 A 
ATOM     38  C   UNL     1      13.138   0.978   4.397  1.00  0.00     0.049 A 
ATOM     39  N   UNL     1      15.457   3.267   3.775  1.00  0.00    -0.248 NA
ATOM     40  C   UNL     1      14.039   4.308   5.288  1.00  0.00     0.031 C 
ATOM     41  C   UNL     1      11.959   0.105   4.396  1.00  0.00     0.029 A 
ATOM     42  N   UNL     1      14.106   0.193   4.939  1.00  0.00    -0.354 N 
ATOM     43  C   UNL     1      16.138   4.274   4.448  1.00  0.00     0.074 A 
ATOM     44  C   UNL     1      15.144   5.034   5.146  1.00  0.00     0.031 C 
ATOM     45  C   UNL     1      12.231  -1.007   5.116  1.00  0.00     0.029 A 
ATOM     46  C   UNL     1      13.629  -0.979   5.516  1.00  0.00     0.049 A 
ATOM     47  H   UNL     1      15.061   0.433   4.925  1.00  0.00     0.167 HD
ATOM     48  C   UNL     1      17.481   4.199   4.641  1.00  0.00     0.034 A 
ATOM     49  C   UNL     1      14.320  -1.823   6.325  1.00  0.00     0.034 A 
ATOM     50  C   UNL     1      18.075   3.252   3.724  1.00  0.00     0.049 A 
ATOM     51  C   UNL     1      15.760  -1.570   6.083  1.00  0.00     0.074 A 
ATOM     52  C   UNL     1      18.194   3.165   2.352  1.00  0.00     0.029 A 
ATOM     53  N   UNL     1      18.319   1.990   4.215  1.00  0.00    -0.354 N 
ATOM     54  N   UNL     1      16.346  -1.801   4.941  1.00  0.00    -0.248 NA
ATOM     55  C   UNL     1      16.479  -0.662   6.966  1.00  0.00     0.031 C 
ATOM     56  C   UNL     1      18.121   1.773   2.051  1.00  0.00     0.029 A 
ATOM     57  C   UNL     1      18.013   1.063   3.249  1.00  0.00     0.049 A 
ATOM     58  H   UNL     1      18.658   1.784   5.116  1.00  0.00     0.167 HD
ATOM     59  C   UNL     1      17.245  -0.759   4.781  1.00  0.00     0.074 A 
ATOM     60  C   UNL     1      17.396  -0.190   6.115  1.00  0.00     0.031 C 
ATOM     61  C   UNL     1      17.546  -0.284   3.536  1.00  0.00     0.034 A 
BRANCH  48  62
ATOM     62  C   UNL     1      18.179   4.638   5.916  1.00  0.00     0.023 A 
ATOM     63  C   UNL     1      19.572   4.449   5.973  1.00  0.00     0.031 A 
ATOM     64  C   UNL     1      17.559   4.957   7.150  1.00  0.00     0.131 A 
ATOM     65  C   UNL     1      20.258   4.476   7.199  1.00  0.00     0.055 A 
ATOM     66  C   UNL     1      18.258   5.047   8.357  1.00  0.00     0.041 A 
ATOM     67  F   UNL     1      16.239   5.111   7.294  1.00  0.00    -0.206 F 
ATOM     68  C   UNL     1      19.610   4.774   8.394  1.00  0.00     0.022 A 
BRANCH  65  69
ATOM     69  S   UNL     1      21.986   3.942   7.228  1.00  0.00     0.124 S 
ATOM     70  O   UNL     1      21.901   2.634   6.589  1.00  0.00    -0.237 OA
ATOM     71  O   UNL     1      22.637   4.997   6.458  1.00  0.00    -0.237 OA
ATOM     72  O   UNL     1      22.309   3.921   8.653  1.00  0.00    -0.744 OA
ENDBRANCH  65  69
ENDBRANCH  48  62
BRANCH  49  73
ATOM     73  C   UNL     1      13.803  -2.584   7.493  1.00  0.00     0.023 A 
ATOM     74  C   UNL     1      14.466  -3.712   8.018  1.00  0.00     0.031 A 
ATOM     75  C   UNL     1      12.752  -2.046   8.269  1.00  0.00     0.131 A 
ATOM     76  C   UNL     1      14.076  -4.249   9.267  1.00  0.00     0.055 A 
ATOM     77  C   UNL     1      12.367  -2.583   9.499  1.00  0.00     0.041 A 
ATOM     78  F   UNL     1      12.120  -0.921   7.899  1.00  0.00    -0.206 F 
ATOM     79  C   UNL     1      13.036  -3.684  10.009  1.00  0.00     0.022 A 
BRANCH  76  80
ATOM     80  S   UNL     1      14.990  -5.647   9.994  1.00  0.00     0.124 S 
ATOM     81  O   UNL     1      14.649  -6.743   9.094  1.00  0.00    -0.237 OA
ATOM     82  O   UNL     1      16.370  -5.176   9.948  1.00  0.00    -0.237 OA
ATOM     83  O   UNL     1      14.427  -5.760  11.340  1.00  0.00    -0.744 OA
ENDBRANCH  76  80
ENDBRANCH  49  73
BRANCH  61  84
ATOM     84  C   UNL     1      17.195  -1.164   2.352  1.00  0.00     0.023 A 
ATOM     85  C   UNL     1      15.885  -1.562   1.995  1.00  0.00     0.031 A 
ATOM     86  C   UNL     1      18.247  -1.544   1.502  1.00  0.00     0.131 A 
ATOM     87  C   UNL     1      15.674  -2.323   0.828  1.00  0.00     0.055 A 
ATOM     88  C   UNL     1      18.031  -2.279   0.337  1.00  0.00     0.041 A 
ATOM     89  F   UNL     1      19.509  -1.174   1.774  1.00  0.00    -0.206 F 
ATOM     90  C   UNL     1      16.743  -2.677  -0.001  1.00  0.00     0.022 A 
BRANCH  87  91
ATOM     91  S   UNL     1      13.998  -2.878   0.371  1.00  0.00     0.124 S 
ATOM     92  O   UNL     1      13.499  -3.501   1.591  1.00  0.00    -0.237 OA
ATOM     93  O   UNL     1      13.347  -1.632  -0.024  1.00  0.00    -0.237 OA
ATOM     94  O   UNL     1      14.237  -3.811  -0.733  1.00  0.00    -0.744 OA
ENDBRANCH  87  91
ENDBRANCH  61  84
ENDBRANCH  35  36
ENDBRANCH  28  30
ENDBRANCH  27  28
ENDBRANCH  26  27
ENDBRANCH   1  26
TORSDOF 18
