REMARK SMILES C[NH+](C)[C@H]1CCN(C(=O)C(=O)c2ccccc2)C[C@H]1CCC(=O)OCCOC(=O)c1ccc(-c2c3nc(c(-c4cc(S(=O)(=O)[O-])ccc4F)c4ccc([nH]4)c(-c4cc(S(=O)(=O)[O-])ccc4F)c4nc(c(-c5cc(S(=O)(=O)[O-])ccc5F)c5ccc2[nH]5)C=C4)C=C3)cc1
REMARK SMILES IDX 25 1 24 2 22 3 23 4 21 5 20 6 19 7 4 8 5 9 6 10 18 11 7 12
REMARK SMILES IDX 2 13 1 14 3 15 8 17 9 18 10 19 11 20 12 21 13 22 17 23 14 24
REMARK SMILES IDX 16 25 15 26 26 27 27 28 28 29 29 30 30 31 31 32 92 33 32 34
REMARK SMILES IDX 91 35 33 36 34 37 35 38 85 39 36 40 90 41 84 42 86 43 37 44
REMARK SMILES IDX 89 45 83 46 82 47 38 49 70 50 50 51 69 52 51 53 54 54 68 55
REMARK SMILES IDX 87 56 52 57 53 58 67 60 88 61 55 62 39 63 40 64 48 65 41 66
REMARK SMILES IDX 47 67 49 68 46 69 42 70 43 71 44 72 45 73 71 74 72 75 80 76
REMARK SMILES IDX 73 77 79 78 81 79 78 80 74 81 75 82 76 83 77 84 56 85 57 86
REMARK SMILES IDX 65 87 58 88 64 89 66 90 63 91 59 92 60 93 61 94 62 95
REMARK H PARENT 2 16 86 48 54 59
REMARK Flexibility Score: inf
ROOT
ATOM      1  C   UNL     1       2.728  -2.263   2.739  1.00  0.00     0.274 C 
ENDROOT
BRANCH   1   2
ATOM      2  O   UNL     1       2.613  -0.830   2.826  1.00  0.00    -0.462 OA
BRANCH   2   3
ATOM      3  C   UNL     1       1.853  -0.323   3.830  1.00  0.00     0.305 C 
ATOM      4  O   UNL     1       1.258  -1.004   4.657  1.00  0.00    -0.252 OA
BRANCH   3   5
ATOM      5  C   UNL     1       1.839   1.193   3.866  1.00  0.00     0.123 C 
BRANCH   5   6
ATOM      6  C   UNL     1       2.605   1.935   2.769  1.00  0.00     0.023 C 
BRANCH   6   7
ATOM      7  C   UNL     1       2.132   1.777   1.296  1.00  0.00     0.067 C 
ATOM      8  C   UNL     1       0.632   2.114   1.015  1.00  0.00     0.190 C 
ATOM      9  C   UNL     1       0.419   3.629   1.207  1.00  0.00     0.087 C 
ATOM     10  C   UNL     1       1.353   4.431   0.311  1.00  0.00     0.126 C 
ATOM     11  C   UNL     1       3.056   2.641   0.402  1.00  0.00     0.129 C 
ATOM     12  N   UNL     1       2.749   4.070   0.492  1.00  0.00    -0.335 N 
BRANCH   8  13
ATOM     13  N   UNL     1      -0.267   1.249   1.812  1.00  0.00    -0.337 N 
ATOM     14  C   UNL     1      -0.436  -0.087   1.241  1.00  0.00     0.332 C 
ATOM     15  C   UNL     1      -1.569   1.811   2.158  1.00  0.00     0.332 C 
ATOM     16  H   UNL     1       0.243   1.178   2.693  1.00  0.00     0.347 HD
ENDBRANCH   8  13
BRANCH  12  17
ATOM     17  C   UNL     1       3.694   5.107   0.491  1.00  0.00     0.294 C 
ATOM     18  O   UNL     1       3.374   6.294   0.510  1.00  0.00    -0.265 OA
BRANCH  17  19
ATOM     19  C   UNL     1       5.186   4.781   0.387  1.00  0.00     0.250 C 
ATOM     20  O   UNL     1       5.552   3.910  -0.398  1.00  0.00    -0.283 OA
BRANCH  19  21
ATOM     21  C   UNL     1       6.184   5.618   1.120  1.00  0.00     0.028 A 
ATOM     22  C   UNL     1       7.519   5.585   0.689  1.00  0.00     0.012 A 
ATOM     23  C   UNL     1       5.834   6.455   2.188  1.00  0.00     0.012 A 
ATOM     24  C   UNL     1       8.481   6.398   1.293  1.00  0.00     0.001 A 
ATOM     25  C   UNL     1       6.801   7.268   2.790  1.00  0.00     0.001 A 
ATOM     26  C   UNL     1       8.120   7.243   2.340  1.00  0.00     0.000 A 
ENDBRANCH  19  21
ENDBRANCH  17  19
ENDBRANCH  12  17
ENDBRANCH   6   7
ENDBRANCH   5   6
ENDBRANCH   3   5
ENDBRANCH   2   3
ENDBRANCH   1   2
BRANCH   1  27
ATOM     27  C   UNL     1       4.201  -2.672   2.703  1.00  0.00     0.275 C 
BRANCH  27  28
ATOM     28  O   UNL     1       4.841  -2.326   3.944  1.00  0.00    -0.458 OA
BRANCH  28  29
ATOM     29  C   UNL     1       5.450  -1.119   3.945  1.00  0.00     0.338 C 
ATOM     30  O   UNL     1       5.622  -0.373   2.989  1.00  0.00    -0.246 OA
BRANCH  29  31
ATOM     31  C   UNL     1       5.725  -0.724   5.330  1.00  0.00     0.060 A 
ATOM     32  C   UNL     1       4.938   0.293   5.872  1.00  0.00     0.016 A 
ATOM     33  C   UNL     1       6.779  -1.271   6.058  1.00  0.00     0.016 A 
ATOM     34  C   UNL     1       5.205   0.789   7.141  1.00  0.00     0.010 A 
ATOM     35  C   UNL     1       7.048  -0.773   7.338  1.00  0.00     0.010 A 
ATOM     36  C   UNL     1       6.276   0.273   7.877  1.00  0.00    -0.014 A 
BRANCH  36  37
ATOM     37  C   UNL     1       6.651   0.920   9.158  1.00  0.00     0.031 A 
ATOM     38  C   UNL     1       7.891   1.768   9.210  1.00  0.00     0.074 A 
ATOM     39  C   UNL     1       5.864   0.791  10.242  1.00  0.00     0.049 A 
ATOM     40  N   UNL     1       8.473   2.328  10.237  1.00  0.00    -0.248 NA
ATOM     41  C   UNL     1       8.568   2.009   7.926  1.00  0.00     0.031 C 
ATOM     42  C   UNL     1       4.599   0.054  10.283  1.00  0.00     0.029 A 
ATOM     43  N   UNL     1       6.009   1.278  11.515  1.00  0.00    -0.354 N 
ATOM     44  C   UNL     1       9.607   2.956   9.733  1.00  0.00     0.074 A 
ATOM     45  C   UNL     1       9.634   2.696   8.309  1.00  0.00     0.031 C 
ATOM     46  C   UNL     1       4.084   0.140  11.520  1.00  0.00     0.029 A 
ATOM     47  C   UNL     1       5.007   0.885  12.372  1.00  0.00     0.049 A 
ATOM     48  H   UNL     1       6.758   1.854  11.790  1.00  0.00     0.167 HD
ATOM     49  C   UNL     1      10.540   3.679  10.403  1.00  0.00     0.034 A 
ATOM     50  C   UNL     1       4.871   1.074  13.699  1.00  0.00     0.034 A 
ATOM     51  C   UNL     1      10.480   3.936  11.822  1.00  0.00     0.049 A 
ATOM     52  C   UNL     1       5.939   1.850  14.429  1.00  0.00     0.074 A 
ATOM     53  C   UNL     1      11.375   4.632  12.615  1.00  0.00     0.029 A 
ATOM     54  N   UNL     1       9.457   3.509  12.662  1.00  0.00    -0.354 N 
ATOM     55  N   UNL     1       7.041   2.386  13.956  1.00  0.00    -0.248 NA
ATOM     56  C   UNL     1       5.743   2.047  15.870  1.00  0.00     0.031 C 
ATOM     57  C   UNL     1      10.921   4.583  13.939  1.00  0.00     0.029 A 
ATOM     58  C   UNL     1       9.707   3.915  13.964  1.00  0.00     0.049 A 
ATOM     59  H   UNL     1       8.670   2.993  12.375  1.00  0.00     0.167 HD
ATOM     60  C   UNL     1       7.658   3.003  15.040  1.00  0.00     0.074 A 
ATOM     61  C   UNL     1       6.794   2.790  16.183  1.00  0.00     0.031 C 
ATOM     62  C   UNL     1       8.834   3.682  15.091  1.00  0.00     0.034 A 
BRANCH  49  63
ATOM     63  C   UNL     1      11.731   4.167   9.614  1.00  0.00     0.023 A 
ATOM     64  C   UNL     1      11.607   5.113   8.580  1.00  0.00     0.031 A 
ATOM     65  C   UNL     1      13.007   3.634   9.869  1.00  0.00     0.131 A 
ATOM     66  C   UNL     1      12.725   5.442   7.796  1.00  0.00     0.055 A 
ATOM     67  C   UNL     1      14.129   4.023   9.135  1.00  0.00     0.041 A 
ATOM     68  F   UNL     1      13.182   2.709  10.826  1.00  0.00    -0.206 F 
ATOM     69  C   UNL     1      13.989   4.921   8.082  1.00  0.00     0.022 A 
BRANCH  66  70
ATOM     70  S   UNL     1      12.480   6.456   6.311  1.00  0.00     0.124 S 
ATOM     71  O   UNL     1      11.573   5.622   5.527  1.00  0.00    -0.237 OA
ATOM     72  O   UNL     1      11.909   7.683   6.854  1.00  0.00    -0.237 OA
ATOM     73  O   UNL     1      13.827   6.588   5.758  1.00  0.00    -0.744 OA
ENDBRANCH  66  70
ENDBRANCH  49  63
BRANCH  50  74
ATOM     74  C   UNL     1       3.720   0.477  14.435  1.00  0.00     0.023 A 
ATOM     75  C   UNL     1       2.768   1.282  15.080  1.00  0.00     0.031 A 
ATOM     76  C   UNL     1       3.583  -0.920  14.543  1.00  0.00     0.131 A 
ATOM     77  C   UNL     1       1.746   0.686  15.837  1.00  0.00     0.055 A 
ATOM     78  C   UNL     1       2.535  -1.507  15.253  1.00  0.00     0.041 A 
ATOM     79  F   UNL     1       4.467  -1.736  13.947  1.00  0.00    -0.206 F 
ATOM     80  C   UNL     1       1.616  -0.702  15.916  1.00  0.00     0.022 A 
BRANCH  77  81
ATOM     81  S   UNL     1       0.631   1.756  16.788  1.00  0.00     0.124 S 
ATOM     82  O   UNL     1       1.569   2.492  17.628  1.00  0.00    -0.237 OA
ATOM     83  O   UNL     1      -0.024   2.523  15.735  1.00  0.00    -0.237 OA
ATOM     84  O   UNL     1      -0.229   0.809  17.494  1.00  0.00    -0.744 OA
ENDBRANCH  77  81
ENDBRANCH  50  74
BRANCH  62  85
ATOM     85  C   UNL     1       9.212   4.277  16.424  1.00  0.00     0.023 A 
ATOM     86  C   UNL     1       9.543   3.469  17.526  1.00  0.00     0.031 A 
ATOM     87  C   UNL     1       9.203   5.671  16.602  1.00  0.00     0.131 A 
ATOM     88  C   UNL     1       9.787   4.060  18.775  1.00  0.00     0.055 A 
ATOM     89  C   UNL     1       9.504   6.256  17.832  1.00  0.00     0.041 A 
ATOM     90  F   UNL     1       8.893   6.488  15.582  1.00  0.00    -0.206 F 
ATOM     91  C   UNL     1       9.783   5.449  18.932  1.00  0.00     0.022 A 
BRANCH  88  92
ATOM     92  S   UNL     1      10.002   2.984  20.220  1.00  0.00     0.124 S 
ATOM     93  O   UNL     1       8.775   2.193  20.196  1.00  0.00    -0.237 OA
ATOM     94  O   UNL     1      11.230   2.266  19.893  1.00  0.00    -0.237 OA
ATOM     95  O   UNL     1      10.111   3.924  21.334  1.00  0.00    -0.744 OA
ENDBRANCH  88  92
ENDBRANCH  62  85
ENDBRANCH  36  37
ENDBRANCH  29  31
ENDBRANCH  28  29
ENDBRANCH  27  28
ENDBRANCH   1  27
TORSDOF 20
