REMARK SMILES CC(C)[C@@H](C(=O)OCCOC(=O)c1ccc(-c2c3nc(c(-c4cc(S(=O)(=O)[O-])ccc4F)c4ccc([nH]4)c(-c4cc(S(=O)(=O)[O-])ccc4F)c4nc(c(-c5cc(S(=O)(=O)[O-])ccc5F)c5ccc2[nH]5)C=C4)C=C3)cc1)N1C(=O)/C(=C\c2ccc([N+](=O)[O-])cc2)SC1=S
REMARK SMILES IDX 8 1 7 2 5 3 6 4 4 5 2 6 1 7 3 8 76 9 77 10 91 11 78 12 79 13
REMARK SMILES IDX 90 14 92 15 80 16 81 17 82 18 89 19 83 20 88 21 84 22 85 23
REMARK SMILES IDX 86 24 87 25 9 26 10 27 11 28 12 29 13 30 14 31 75 32 15 33
REMARK SMILES IDX 74 34 16 35 17 36 18 37 68 38 19 39 73 40 67 41 69 42 20 43
REMARK SMILES IDX 72 44 66 45 65 46 21 48 53 49 33 50 52 51 34 52 37 53 51 54
REMARK SMILES IDX 70 55 35 56 36 57 50 59 71 60 38 61 22 62 23 63 31 64 24 65
REMARK SMILES IDX 30 66 32 67 29 68 25 69 26 70 27 71 28 72 54 73 55 74 63 75
REMARK SMILES IDX 56 76 62 77 64 78 61 79 57 80 58 81 59 82 60 83 39 84 40 85
REMARK SMILES IDX 48 86 41 87 47 88 49 89 46 90 42 91 43 92 44 93 45 94
REMARK H PARENT 69 47 37 58
REMARK Flexibility Score: inf
ROOT
ATOM      1  C   UNL     1      -1.398   2.667  -0.946  1.00  0.00     0.274 C 
ENDROOT
BRANCH   1   2
ATOM      2  O   UNL     1      -0.793   1.390  -0.648  1.00  0.00    -0.461 OA
BRANCH   2   3
ATOM      3  C   UNL     1      -1.557   0.285  -0.850  1.00  0.00     0.329 C 
ATOM      4  O   UNL     1      -2.705   0.393  -1.254  1.00  0.00    -0.250 OA
BRANCH   3   5
ATOM      5  C   UNL     1      -0.870  -1.064  -0.418  1.00  0.00     0.204 C 
BRANCH   5   6
ATOM      6  C   UNL     1       0.719  -0.869  -0.590  1.00  0.00     0.017 C 
ATOM      7  C   UNL     1       1.319   0.062   0.494  1.00  0.00     0.010 C 
ATOM      8  C   UNL     1       1.620  -2.110  -0.596  1.00  0.00     0.010 C 
ENDBRANCH   5   6
BRANCH   5   9
ATOM      9  N   UNL     1      -1.417  -2.238  -1.207  1.00  0.00    -0.278 N 
ATOM     10  C   UNL     1      -0.951  -3.517  -0.954  1.00  0.00     0.267 C 
ATOM     11  C   UNL     1      -2.695  -2.439  -1.669  1.00  0.00     0.149 C 
ATOM     12  O   UNL     1      -0.388  -3.867   0.074  1.00  0.00    -0.268 OA
ATOM     13  C   UNL     1      -1.419  -4.467  -2.025  1.00  0.00     0.081 C 
ATOM     14  S   UNL     1      -2.572  -3.624  -2.980  1.00  0.00    -0.054 SA
ATOM     15  S   UNL     1      -4.169  -2.087  -0.961  1.00  0.00    -0.052 S 
ATOM     16  C   UNL     1      -1.211  -5.784  -2.153  1.00  0.00     0.029 C 
BRANCH  16  17
ATOM     17  C   UNL     1      -0.599  -6.574  -1.091  1.00  0.00    -0.024 A 
ATOM     18  C   UNL     1       0.717  -7.030  -1.171  1.00  0.00     0.015 A 
ATOM     19  C   UNL     1      -1.363  -6.811   0.063  1.00  0.00     0.015 A 
ATOM     20  C   UNL     1       1.293  -7.669  -0.068  1.00  0.00     0.086 A 
ATOM     21  C   UNL     1      -0.794  -7.433   1.169  1.00  0.00     0.086 A 
ATOM     22  C   UNL     1       0.541  -7.842   1.105  1.00  0.00     0.269 A 
BRANCH  22  23
ATOM     23  N   UNL     1       1.166  -8.428   2.295  1.00  0.00     0.062 N 
ATOM     24  O   UNL     1       2.302  -8.908   2.176  1.00  0.00    -0.258 OA
ATOM     25  O   UNL     1       0.525  -8.403   3.357  1.00  0.00    -0.258 OA
ENDBRANCH  22  23
ENDBRANCH  16  17
ENDBRANCH   5   9
ENDBRANCH   3   5
ENDBRANCH   2   3
ENDBRANCH   1   2
BRANCH   1  26
ATOM     26  C   UNL     1      -1.041   3.140  -2.354  1.00  0.00     0.275 C 
BRANCH  26  27
ATOM     27  O   UNL     1      -1.685   2.315  -3.341  1.00  0.00    -0.458 OA
BRANCH  27  28
ATOM     28  C   UNL     1      -0.869   1.567  -4.116  1.00  0.00     0.338 C 
ATOM     29  O   UNL     1       0.356   1.536  -4.078  1.00  0.00    -0.246 OA
BRANCH  28  30
ATOM     30  C   UNL     1      -1.663   0.738  -5.038  1.00  0.00     0.060 A 
ATOM     31  C   UNL     1      -2.606  -0.149  -4.529  1.00  0.00     0.016 A 
ATOM     32  C   UNL     1      -1.382   0.739  -6.403  1.00  0.00     0.016 A 
ATOM     33  C   UNL     1      -3.190  -1.102  -5.362  1.00  0.00     0.010 A 
ATOM     34  C   UNL     1      -2.049  -0.159  -7.251  1.00  0.00     0.010 A 
ATOM     35  C   UNL     1      -2.928  -1.131  -6.737  1.00  0.00    -0.014 A 
BRANCH  35  36
ATOM     36  C   UNL     1      -3.489  -2.210  -7.616  1.00  0.00     0.031 A 
ATOM     37  C   UNL     1      -2.561  -2.982  -8.526  1.00  0.00     0.074 A 
ATOM     38  C   UNL     1      -4.795  -2.553  -7.601  1.00  0.00     0.049 A 
ATOM     39  N   UNL     1      -2.836  -3.688  -9.593  1.00  0.00    -0.248 NA
ATOM     40  C   UNL     1      -1.128  -2.933  -8.195  1.00  0.00     0.031 C 
ATOM     41  C   UNL     1      -5.814  -2.010  -6.702  1.00  0.00     0.029 A 
ATOM     42  N   UNL     1      -5.492  -3.461  -8.368  1.00  0.00    -0.354 N 
ATOM     43  C   UNL     1      -1.607  -4.083 -10.117  1.00  0.00     0.074 A 
ATOM     44  C   UNL     1      -0.588  -3.554  -9.234  1.00  0.00     0.031 C 
ATOM     45  C   UNL     1      -6.981  -2.633  -6.924  1.00  0.00     0.029 A 
ATOM     46  C   UNL     1      -6.840  -3.502  -8.085  1.00  0.00     0.049 A 
ATOM     47  H   UNL     1      -5.068  -4.026  -9.053  1.00  0.00     0.167 HD
ATOM     48  C   UNL     1      -1.360  -4.801 -11.242  1.00  0.00     0.034 A 
ATOM     49  C   UNL     1      -7.868  -4.093  -8.731  1.00  0.00     0.034 A 
ATOM     50  C   UNL     1      -2.397  -5.383 -12.062  1.00  0.00     0.049 A 
ATOM     51  C   UNL     1      -7.590  -4.830 -10.014  1.00  0.00     0.074 A 
ATOM     52  C   UNL     1      -2.271  -6.100 -13.240  1.00  0.00     0.029 A 
ATOM     53  N   UNL     1      -3.754  -5.341 -11.770  1.00  0.00    -0.354 N 
ATOM     54  N   UNL     1      -6.440  -5.042 -10.611  1.00  0.00    -0.248 NA
ATOM     55  C   UNL     1      -8.750  -5.373 -10.734  1.00  0.00     0.031 C 
ATOM     56  C   UNL     1      -3.552  -6.448 -13.684  1.00  0.00     0.029 A 
ATOM     57  C   UNL     1      -4.474  -6.006 -12.750  1.00  0.00     0.049 A 
ATOM     58  H   UNL     1      -4.148  -4.902 -10.981  1.00  0.00     0.167 HD
ATOM     59  C   UNL     1      -6.740  -5.745 -11.774  1.00  0.00     0.074 A 
ATOM     60  C   UNL     1      -8.175  -5.939 -11.785  1.00  0.00     0.031 C 
ATOM     61  C   UNL     1      -5.905  -6.185 -12.748  1.00  0.00     0.034 A 
BRANCH  48  62
ATOM     62  C   UNL     1       0.075  -4.915 -11.698  1.00  0.00     0.023 A 
ATOM     63  C   UNL     1       1.051  -5.613 -10.968  1.00  0.00     0.031 A 
ATOM     64  C   UNL     1       0.477  -4.275 -12.887  1.00  0.00     0.131 A 
ATOM     65  C   UNL     1       2.389  -5.598 -11.397  1.00  0.00     0.055 A 
ATOM     66  C   UNL     1       1.793  -4.330 -13.350  1.00  0.00     0.041 A 
ATOM     67  F   UNL     1      -0.405  -3.573 -13.616  1.00  0.00    -0.206 F 
ATOM     68  C   UNL     1       2.761  -4.982 -12.595  1.00  0.00     0.022 A 
BRANCH  65  69
ATOM     69  S   UNL     1       3.662  -6.271 -10.294  1.00  0.00     0.124 S 
ATOM     70  O   UNL     1       3.463  -5.471  -9.088  1.00  0.00    -0.237 OA
ATOM     71  O   UNL     1       3.284  -7.676 -10.197  1.00  0.00    -0.237 OA
ATOM     72  O   UNL     1       4.910  -6.008 -11.008  1.00  0.00    -0.744 OA
ENDBRANCH  65  69
ENDBRANCH  48  62
BRANCH  49  73
ATOM     73  C   UNL     1      -9.269  -3.900  -8.249  1.00  0.00     0.023 A 
ATOM     74  C   UNL     1     -10.057  -4.986  -7.835  1.00  0.00     0.031 A 
ATOM     75  C   UNL     1      -9.852  -2.618  -8.220  1.00  0.00     0.131 A 
ATOM     76  C   UNL     1     -11.384  -4.771  -7.427  1.00  0.00     0.055 A 
ATOM     77  C   UNL     1     -11.148  -2.402  -7.754  1.00  0.00     0.041 A 
ATOM     78  F   UNL     1      -9.153  -1.544  -8.623  1.00  0.00    -0.206 F 
ATOM     79  C   UNL     1     -11.927  -3.485  -7.362  1.00  0.00     0.022 A 
BRANCH  76  80
ATOM     80  S   UNL     1     -12.427  -6.208  -7.054  1.00  0.00     0.124 S 
ATOM     81  O   UNL     1     -12.388  -6.938  -8.316  1.00  0.00    -0.237 OA
ATOM     82  O   UNL     1     -11.716  -6.819  -5.936  1.00  0.00    -0.237 OA
ATOM     83  O   UNL     1     -13.719  -5.613  -6.718  1.00  0.00    -0.744 OA
ENDBRANCH  76  80
ENDBRANCH  49  73
BRANCH  61  84
ATOM     84  C   UNL     1      -6.524  -6.963 -13.878  1.00  0.00     0.023 A 
ATOM     85  C   UNL     1      -7.305  -6.337 -14.864  1.00  0.00     0.031 A 
ATOM     86  C   UNL     1      -6.323  -8.351 -13.967  1.00  0.00     0.131 A 
ATOM     87  C   UNL     1      -7.889  -7.107 -15.881  1.00  0.00     0.055 A 
ATOM     88  C   UNL     1      -6.871  -9.105 -15.005  1.00  0.00     0.041 A 
ATOM     89  F   UNL     1      -5.584  -8.994 -13.049  1.00  0.00    -0.206 F 
ATOM     90  C   UNL     1      -7.665  -8.485 -15.965  1.00  0.00     0.022 A 
BRANCH  87  91
ATOM     91  S   UNL     1      -8.988  -6.293 -17.073  1.00  0.00     0.124 S 
ATOM     92  O   UNL     1     -10.075  -5.830 -16.216  1.00  0.00    -0.237 OA
ATOM     93  O   UNL     1      -8.130  -5.254 -17.634  1.00  0.00    -0.237 OA
ATOM     94  O   UNL     1      -9.344  -7.367 -18.000  1.00  0.00    -0.744 OA
ENDBRANCH  87  91
ENDBRANCH  61  84
ENDBRANCH  35  36
ENDBRANCH  28  30
ENDBRANCH  27  28
ENDBRANCH  26  27
ENDBRANCH   1  26
TORSDOF 18
