REMARK SMILES O=C(CN(C(=O)[C@H]1CC[C@H]2CCCC[C@H]2[NH2+]1)C1CC1)OCCOC(=O)c1ccc(-c2c3nc(c(-c4cc(S(=O)(=O)[O-])ccc4F)c4ccc([nH]4)c(-c4cc(S(=O)(=O)[O-])ccc4F)c4nc(c(-c5cc(S(=O)(=O)[O-])ccc5F)c5ccc2[nH]5)C=C4)C=C3)cc1
REMARK SMILES IDX 21 1 20 2 2 3 1 4 3 5 4 6 5 7 6 8 7 9 8 10 16 11 9 12 15 13
REMARK SMILES IDX 10 16 14 17 11 18 13 19 12 20 17 21 18 22 19 23 22 24 23 25
REMARK SMILES IDX 24 26 25 27 26 28 27 29 88 30 28 31 87 32 29 33 30 34 31 35
REMARK SMILES IDX 81 36 32 37 86 38 80 39 82 40 33 41 85 42 79 43 78 44 34 46
REMARK SMILES IDX 66 47 46 48 65 49 47 50 50 51 64 52 83 53 48 54 49 55 63 57
REMARK SMILES IDX 84 58 51 59 35 60 36 61 44 62 37 63 43 64 45 65 42 66 38 67
REMARK SMILES IDX 39 68 40 69 41 70 67 71 68 72 76 73 69 74 75 75 77 76 74 77
REMARK SMILES IDX 70 78 71 79 72 80 73 81 52 82 53 83 61 84 54 85 60 86 62 87
REMARK SMILES IDX 59 88 55 89 56 90 57 91 58 92
REMARK H PARENT 16 14 16 15 82 45 50 56
REMARK Flexibility Score: inf
ROOT
ATOM      1  C   UNL     1       8.951   2.508  -2.223  1.00  0.00     0.274 C 
ENDROOT
BRANCH   1   2
ATOM      2  O   UNL     1       8.617   3.318  -3.366  1.00  0.00    -0.461 OA
BRANCH   2   3
ATOM      3  C   UNL     1       7.483   3.209  -4.100  1.00  0.00     0.325 C 
ATOM      4  O   UNL     1       7.412   3.809  -5.172  1.00  0.00    -0.250 OA
BRANCH   3   5
ATOM      5  C   UNL     1       6.328   2.333  -3.591  1.00  0.00     0.242 C 
BRANCH   5   6
ATOM      6  N   UNL     1       6.227   1.008  -4.190  1.00  0.00    -0.323 N 
BRANCH   6   7
ATOM      7  C   UNL     1       6.131  -0.187  -3.475  1.00  0.00     0.281 C 
ATOM      8  O   UNL     1       6.435  -1.257  -4.018  1.00  0.00    -0.268 OA
BRANCH   7   9
ATOM      9  C   UNL     1       5.577  -0.163  -2.000  1.00  0.00     0.273 C 
ATOM     10  C   UNL     1       4.833  -1.495  -1.751  1.00  0.00     0.076 C 
ATOM     11  N   UNL     1       6.695   0.063  -1.048  1.00  0.00    -0.333 N 
ATOM     12  C   UNL     1       4.561  -1.786  -0.280  1.00  0.00     0.016 C 
ATOM     13  C   UNL     1       6.369  -0.209   0.361  1.00  0.00     0.186 C 
ATOM     14  H   UNL     1       6.985   1.038  -1.124  1.00  0.00     0.347 HD
ATOM     15  H   UNL     1       7.429  -0.597  -1.305  1.00  0.00     0.347 HD
ATOM     16  C   UNL     1       5.825  -1.627   0.565  1.00  0.00     0.048 C 
ATOM     17  C   UNL     1       7.626  -0.020   1.226  1.00  0.00     0.065 C 
ATOM     18  C   UNL     1       6.893  -2.698   0.259  1.00  0.00     0.010 C 
ATOM     19  C   UNL     1       8.715  -1.038   0.896  1.00  0.00     0.006 C 
ATOM     20  C   UNL     1       8.196  -2.467   1.028  1.00  0.00     0.001 C 
ENDBRANCH   7   9
ENDBRANCH   6   7
BRANCH   6  21
ATOM     21  C   UNL     1       6.308   0.956  -5.636  1.00  0.00     0.086 C 
ATOM     22  C   UNL     1       5.173   0.406  -6.464  1.00  0.00     0.027 C 
ATOM     23  C   UNL     1       5.474   1.870  -6.506  1.00  0.00     0.027 C 
ENDBRANCH   6  21
ENDBRANCH   5   6
ENDBRANCH   3   5
ENDBRANCH   2   3
ENDBRANCH   1   2
BRANCH   1  24
ATOM     24  C   UNL     1       8.625   3.241  -0.918  1.00  0.00     0.275 C 
BRANCH  24  25
ATOM     25  O   UNL     1       7.205   3.487  -0.820  1.00  0.00    -0.458 OA
BRANCH  25  26
ATOM     26  C   UNL     1       6.817   4.761  -1.104  1.00  0.00     0.338 C 
ATOM     27  O   UNL     1       7.557   5.723  -1.226  1.00  0.00    -0.246 OA
BRANCH  26  28
ATOM     28  C   UNL     1       5.382   4.781  -1.490  1.00  0.00     0.060 A 
ATOM     29  C   UNL     1       5.015   5.606  -2.562  1.00  0.00     0.016 A 
ATOM     30  C   UNL     1       4.414   3.980  -0.872  1.00  0.00     0.016 A 
ATOM     31  C   UNL     1       3.687   5.655  -2.999  1.00  0.00     0.010 A 
ATOM     32  C   UNL     1       3.080   4.035  -1.308  1.00  0.00     0.010 A 
ATOM     33  C   UNL     1       2.702   4.890  -2.361  1.00  0.00    -0.014 A 
BRANCH  33  34
ATOM     34  C   UNL     1       1.267   5.105  -2.697  1.00  0.00     0.031 A 
ATOM     35  C   UNL     1       0.466   6.077  -1.870  1.00  0.00     0.074 A 
ATOM     36  C   UNL     1       0.678   4.478  -3.734  1.00  0.00     0.049 A 
ATOM     37  N   UNL     1      -0.787   6.434  -1.990  1.00  0.00    -0.248 NA
ATOM     38  C   UNL     1       1.177   6.732  -0.761  1.00  0.00     0.031 C 
ATOM     39  C   UNL     1       1.334   3.539  -4.641  1.00  0.00     0.029 A 
ATOM     40  N   UNL     1      -0.618   4.536  -4.193  1.00  0.00    -0.354 N 
ATOM     41  C   UNL     1      -1.015   7.362  -0.980  1.00  0.00     0.074 A 
ATOM     42  C   UNL     1       0.221   7.483  -0.235  1.00  0.00     0.031 C 
ATOM     43  C   UNL     1       0.432   3.095  -5.536  1.00  0.00     0.029 A 
ATOM     44  C   UNL     1      -0.872   3.696  -5.253  1.00  0.00     0.049 A 
ATOM     45  H   UNL     1      -1.302   5.124  -3.798  1.00  0.00     0.167 HD
ATOM     46  C   UNL     1      -2.144   8.059  -0.701  1.00  0.00     0.034 A 
ATOM     47  C   UNL     1      -2.024   3.425  -5.905  1.00  0.00     0.034 A 
ATOM     48  C   UNL     1      -3.379   7.938  -1.433  1.00  0.00     0.049 A 
ATOM     49  C   UNL     1      -3.300   4.133  -5.501  1.00  0.00     0.074 A 
ATOM     50  C   UNL     1      -4.551   8.655  -1.265  1.00  0.00     0.029 A 
ATOM     51  N   UNL     1      -3.615   7.026  -2.450  1.00  0.00    -0.354 N 
ATOM     52  N   UNL     1      -3.479   5.056  -4.585  1.00  0.00    -0.248 NA
ATOM     53  C   UNL     1      -4.528   3.763  -6.222  1.00  0.00     0.031 C 
ATOM     54  C   UNL     1      -5.519   8.122  -2.123  1.00  0.00     0.029 A 
ATOM     55  C   UNL     1      -4.931   7.121  -2.877  1.00  0.00     0.049 A 
ATOM     56  H   UNL     1      -2.947   6.402  -2.816  1.00  0.00     0.167 HD
ATOM     57  C   UNL     1      -4.831   5.394  -4.645  1.00  0.00     0.074 A 
ATOM     58  C   UNL     1      -5.420   4.585  -5.688  1.00  0.00     0.031 C 
ATOM     59  C   UNL     1      -5.521   6.302  -3.908  1.00  0.00     0.034 A 
BRANCH  46  60
ATOM     60  C   UNL     1      -2.107   8.988   0.484  1.00  0.00     0.023 A 
ATOM     61  C   UNL     1      -1.322  10.153   0.485  1.00  0.00     0.031 A 
ATOM     62  C   UNL     1      -2.866   8.695   1.630  1.00  0.00     0.131 A 
ATOM     63  C   UNL     1      -1.271  10.955   1.634  1.00  0.00     0.055 A 
ATOM     64  C   UNL     1      -2.862   9.533   2.745  1.00  0.00     0.041 A 
ATOM     65  F   UNL     1      -3.615   7.583   1.687  1.00  0.00    -0.206 F 
ATOM     66  C   UNL     1      -2.052  10.666   2.756  1.00  0.00     0.022 A 
BRANCH  63  67
ATOM     67  S   UNL     1      -0.078  12.320   1.685  1.00  0.00     0.124 S 
ATOM     68  O   UNL     1       1.186  11.615   1.483  1.00  0.00    -0.237 OA
ATOM     69  O   UNL     1      -0.521  13.168   0.585  1.00  0.00    -0.237 OA
ATOM     70  O   UNL     1      -0.260  12.884   3.021  1.00  0.00    -0.744 OA
ENDBRANCH  63  67
ENDBRANCH  46  60
BRANCH  47  71
ATOM     71  C   UNL     1      -2.068   2.381  -6.971  1.00  0.00     0.023 A 
ATOM     72  C   UNL     1      -2.421   2.700  -8.293  1.00  0.00     0.031 A 
ATOM     73  C   UNL     1      -1.860   1.027  -6.653  1.00  0.00     0.131 A 
ATOM     74  C   UNL     1      -2.612   1.673  -9.232  1.00  0.00     0.055 A 
ATOM     75  C   UNL     1      -1.998   0.015  -7.604  1.00  0.00     0.041 A 
ATOM     76  F   UNL     1      -1.530   0.666  -5.402  1.00  0.00    -0.206 F 
ATOM     77  C   UNL     1      -2.392   0.334  -8.899  1.00  0.00     0.022 A 
BRANCH  74  78
ATOM     78  S   UNL     1      -3.265   2.103 -10.870  1.00  0.00     0.124 S 
ATOM     79  O   UNL     1      -4.516   2.769 -10.525  1.00  0.00    -0.237 OA
ATOM     80  O   UNL     1      -2.208   2.956 -11.402  1.00  0.00    -0.237 OA
ATOM     81  O   UNL     1      -3.410   0.807 -11.530  1.00  0.00    -0.744 OA
ENDBRANCH  74  78
ENDBRANCH  47  71
BRANCH  59  82
ATOM     82  C   UNL     1      -6.983   6.496  -4.226  1.00  0.00     0.023 A 
ATOM     83  C   UNL     1      -7.942   5.510  -3.936  1.00  0.00     0.031 A 
ATOM     84  C   UNL     1      -7.426   7.697  -4.810  1.00  0.00     0.131 A 
ATOM     85  C   UNL     1      -9.291   5.728  -4.261  1.00  0.00     0.055 A 
ATOM     86  C   UNL     1      -8.775   7.927  -5.088  1.00  0.00     0.041 A 
ATOM     87  F   UNL     1      -6.554   8.673  -5.108  1.00  0.00    -0.206 F 
ATOM     88  C   UNL     1      -9.715   6.937  -4.820  1.00  0.00     0.022 A 
BRANCH  85  89
ATOM     89  S   UNL     1     -10.487   4.391  -3.986  1.00  0.00     0.124 S 
ATOM     90  O   UNL     1      -9.985   3.347  -4.875  1.00  0.00    -0.237 OA
ATOM     91  O   UNL     1     -10.346   4.132  -2.557  1.00  0.00    -0.237 OA
ATOM     92  O   UNL     1     -11.763   4.983  -4.384  1.00  0.00    -0.744 OA
ENDBRANCH  85  89
ENDBRANCH  59  82
ENDBRANCH  33  34
ENDBRANCH  26  28
ENDBRANCH  25  26
ENDBRANCH  24  25
ENDBRANCH   1  24
TORSDOF 18
