REMARK SMILES C/C(=N\NC(N)=S)c1nnn(-c2ccc(C(=O)OCCOC(=O)c3ccc(-c4c5nc(c(-c6cc(S(=O)(=O)[O-])ccc6F)c6ccc([nH]6)c(-c6cc(S(=O)(=O)[O-])ccc6F)c6nc(c(-c7cc(S(=O)(=O)[O-])ccc7F)c7ccc4[nH]7)C=C6)C=C5)cc3)cc2)c1C
REMARK SMILES IDX 19 1 18 2 16 3 17 4 15 5 12 6 13 7 88 8 14 9 87 10 11 11
REMARK SMILES IDX 8 12 9 13 89 14 10 15 90 16 2 17 1 18 3 19 4 20 5 22 7 23
REMARK SMILES IDX 6 24 20 27 21 28 22 29 23 30 24 31 25 32 86 33 26 34 85 35
REMARK SMILES IDX 27 36 28 37 29 38 79 39 30 40 84 41 78 42 80 43 31 44 83 45
REMARK SMILES IDX 77 46 76 47 32 49 64 50 44 51 63 52 45 53 48 54 62 55 81 56
REMARK SMILES IDX 46 57 47 58 61 60 82 61 49 62 33 63 34 64 42 65 35 66 41 67
REMARK SMILES IDX 43 68 40 69 36 70 37 71 38 72 39 73 65 74 66 75 74 76 67 77
REMARK SMILES IDX 73 78 75 79 72 80 68 81 69 82 70 83 71 84 50 85 51 86 59 87
REMARK SMILES IDX 52 88 58 89 60 90 57 91 53 92 54 93 55 94 56 95
REMARK H PARENT 4 21 6 25 6 26 80 48 48 59
REMARK Flexibility Score: inf
ROOT
ATOM      1  C   UNL     1       9.107   7.176   1.466  1.00  0.00     0.275 C 
ENDROOT
BRANCH   1   2
ATOM      2  O   UNL     1       7.884   6.520   1.092  1.00  0.00    -0.458 OA
BRANCH   2   3
ATOM      3  C   UNL     1       7.003   6.256   2.092  1.00  0.00     0.338 C 
ATOM      4  O   UNL     1       7.229   6.321   3.292  1.00  0.00    -0.246 OA
BRANCH   3   5
ATOM      5  C   UNL     1       5.669   5.924   1.527  1.00  0.00     0.060 A 
ATOM      6  C   UNL     1       3.227   4.997   0.594  1.00  0.00     0.067 A 
ATOM      7  C   UNL     1       3.305   5.496   1.897  1.00  0.00     0.029 A 
ATOM      8  C   UNL     1       4.308   5.106  -0.287  1.00  0.00     0.029 A 
ATOM      9  C   UNL     1       4.543   5.939   2.369  1.00  0.00     0.018 A 
ATOM     10  C   UNL     1       5.527   5.579   0.179  1.00  0.00     0.018 A 
BRANCH   6  11
ATOM     11  N   UNL     1       2.139   4.181   0.231  1.00  0.00    -0.217 N 
ATOM     12  C   UNL     1       0.912   2.440  -0.221  1.00  0.00     0.132 A 
ATOM     13  N   UNL     1       0.096   3.457   0.198  1.00  0.00    -0.128 NA
ATOM     14  C   UNL     1       2.226   2.858  -0.183  1.00  0.00     0.071 A 
ATOM     15  N   UNL     1       0.861   4.483   0.545  1.00  0.00    -0.061 NA
ATOM     16  C   UNL     1       3.487   2.086  -0.300  1.00  0.00     0.069 C 
BRANCH  12  17
ATOM     17  C   UNL     1       0.425   1.087  -0.396  1.00  0.00     0.087 C 
ATOM     18  C   UNL     1       0.416   0.228   0.841  1.00  0.00     0.071 C 
ATOM     19  N   UNL     1       0.029   0.778  -1.596  1.00  0.00    -0.176 NA
BRANCH  19  20
ATOM     20  N   UNL     1      -0.535  -0.431  -1.871  1.00  0.00    -0.254 N 
ATOM     21  H   UNL     1      -1.486  -0.414  -2.123  1.00  0.00     0.193 HD
BRANCH  20  22
ATOM     22  C   UNL     1       0.056  -1.678  -1.842  1.00  0.00     0.184 C 
ATOM     23  S   UNL     1       1.593  -2.116  -1.382  1.00  0.00    -0.040 S 
BRANCH  22  24
ATOM     24  N   UNL     1      -0.801  -2.659  -2.263  1.00  0.00    -0.375 N 
ATOM     25  H   UNL     1      -1.717  -2.428  -2.541  1.00  0.00     0.159 HD
ATOM     26  H   UNL     1      -0.502  -3.597  -2.288  1.00  0.00     0.159 HD
ENDBRANCH  22  24
ENDBRANCH  20  22
ENDBRANCH  19  20
ENDBRANCH  12  17
ENDBRANCH   6  11
ENDBRANCH   3   5
ENDBRANCH   2   3
ENDBRANCH   1   2
BRANCH   1  27
ATOM     27  C   UNL     1       8.946   8.691   1.439  1.00  0.00     0.275 C 
BRANCH  27  28
ATOM     28  O   UNL     1       8.113   9.118   2.513  1.00  0.00    -0.458 OA
BRANCH  28  29
ATOM     29  C   UNL     1       6.798   9.215   2.208  1.00  0.00     0.338 C 
ATOM     30  O   UNL     1       6.251   8.838   1.186  1.00  0.00    -0.246 OA
BRANCH  29  31
ATOM     31  C   UNL     1       6.124  10.008   3.236  1.00  0.00     0.060 A 
ATOM     32  C   UNL     1       4.735  10.143   3.123  1.00  0.00     0.016 A 
ATOM     33  C   UNL     1       6.901  10.861   4.028  1.00  0.00     0.016 A 
ATOM     34  C   UNL     1       4.152  11.288   3.617  1.00  0.00     0.010 A 
ATOM     35  C   UNL     1       6.325  12.013   4.490  1.00  0.00     0.010 A 
ATOM     36  C   UNL     1       4.982  12.248   4.194  1.00  0.00    -0.014 A 
BRANCH  36  37
ATOM     37  C   UNL     1       4.436  13.552   4.495  1.00  0.00     0.031 A 
ATOM     38  C   UNL     1       3.699  13.603   5.774  1.00  0.00     0.074 A 
ATOM     39  C   UNL     1       4.784  14.621   3.753  1.00  0.00     0.049 A 
ATOM     40  N   UNL     1       2.459  13.894   5.975  1.00  0.00    -0.248 NA
ATOM     41  C   UNL     1       4.396  13.095   6.970  1.00  0.00     0.031 C 
ATOM     42  C   UNL     1       5.774  14.672   2.670  1.00  0.00     0.029 A 
ATOM     43  N   UNL     1       4.449  15.925   3.921  1.00  0.00    -0.354 N 
ATOM     44  C   UNL     1       2.286  13.829   7.353  1.00  0.00     0.074 A 
ATOM     45  C   UNL     1       3.413  13.105   7.867  1.00  0.00     0.031 C 
ATOM     46  C   UNL     1       6.144  15.957   2.473  1.00  0.00     0.029 A 
ATOM     47  C   UNL     1       5.340  16.814   3.330  1.00  0.00     0.049 A 
ATOM     48  H   UNL     1       3.650  16.215   4.417  1.00  0.00     0.167 HD
ATOM     49  C   UNL     1       1.379  14.615   7.992  1.00  0.00     0.034 A 
ATOM     50  C   UNL     1       5.484  18.133   3.627  1.00  0.00     0.034 A 
ATOM     51  C   UNL     1       0.401  15.136   7.064  1.00  0.00     0.049 A 
ATOM     52  C   UNL     1       4.247  18.555   4.339  1.00  0.00     0.074 A 
ATOM     53  C   UNL     1      -0.497  14.557   6.188  1.00  0.00     0.029 A 
ATOM     54  N   UNL     1       0.521  16.447   6.657  1.00  0.00    -0.354 N 
ATOM     55  N   UNL     1       3.065  18.572   3.783  1.00  0.00    -0.248 NA
ATOM     56  C   UNL     1       4.234  18.477   5.795  1.00  0.00     0.031 C 
ATOM     57  C   UNL     1      -0.472  15.390   5.031  1.00  0.00     0.029 A 
ATOM     58  C   UNL     1       0.379  16.466   5.290  1.00  0.00     0.049 A 
ATOM     59  H   UNL     1       0.679  17.227   7.238  1.00  0.00     0.167 HD
ATOM     60  C   UNL     1       2.200  18.078   4.749  1.00  0.00     0.074 A 
ATOM     61  C   UNL     1       2.957  18.136   5.998  1.00  0.00     0.031 C 
ATOM     62  C   UNL     1       1.067  17.391   4.407  1.00  0.00     0.034 A 
BRANCH  49  63
ATOM     63  C   UNL     1       1.589  15.202   9.370  1.00  0.00     0.023 A 
ATOM     64  C   UNL     1       0.544  15.983   9.892  1.00  0.00     0.031 A 
ATOM     65  C   UNL     1       2.820  15.283  10.066  1.00  0.00     0.131 A 
ATOM     66  C   UNL     1       0.766  16.861  10.966  1.00  0.00     0.055 A 
ATOM     67  C   UNL     1       3.014  16.100  11.182  1.00  0.00     0.041 A 
ATOM     68  F   UNL     1       3.933  14.661   9.662  1.00  0.00    -0.206 F 
ATOM     69  C   UNL     1       1.994  16.924  11.617  1.00  0.00     0.022 A 
BRANCH  66  70
ATOM     70  S   UNL     1      -0.525  18.064  11.363  1.00  0.00     0.124 S 
ATOM     71  O   UNL     1      -0.795  18.651  10.055  1.00  0.00    -0.237 OA
ATOM     72  O   UNL     1      -1.569  17.207  11.915  1.00  0.00    -0.237 OA
ATOM     73  O   UNL     1       0.126  18.953  12.322  1.00  0.00    -0.744 OA
ENDBRANCH  66  70
ENDBRANCH  49  63
BRANCH  50  74
ATOM     74  C   UNL     1       6.772  18.882   3.669  1.00  0.00     0.023 A 
ATOM     75  C   UNL     1       6.851  20.285   3.558  1.00  0.00     0.031 A 
ATOM     76  C   UNL     1       7.965  18.209   4.028  1.00  0.00     0.131 A 
ATOM     77  C   UNL     1       8.083  20.948   3.782  1.00  0.00     0.055 A 
ATOM     78  C   UNL     1       9.180  18.866   4.232  1.00  0.00     0.041 A 
ATOM     79  F   UNL     1       7.973  16.890   4.274  1.00  0.00    -0.206 F 
ATOM     80  C   UNL     1       9.243  20.243   4.114  1.00  0.00     0.022 A 
BRANCH  77  81
ATOM     81  S   UNL     1       8.177  22.767   3.728  1.00  0.00     0.124 S 
ATOM     82  O   UNL     1       7.929  23.050   2.319  1.00  0.00    -0.237 OA
ATOM     83  O   UNL     1       7.129  23.162   4.663  1.00  0.00    -0.237 OA
ATOM     84  O   UNL     1       9.539  23.054   4.181  1.00  0.00    -0.744 OA
ENDBRANCH  77  81
ENDBRANCH  50  74
BRANCH  62  85
ATOM     85  C   UNL     1       0.627  17.400   2.955  1.00  0.00     0.023 A 
ATOM     86  C   UNL     1       1.410  16.931   1.875  1.00  0.00     0.031 A 
ATOM     87  C   UNL     1      -0.702  17.769   2.683  1.00  0.00     0.131 A 
ATOM     88  C   UNL     1       0.857  16.854   0.582  1.00  0.00     0.055 A 
ATOM     89  C   UNL     1      -1.252  17.672   1.405  1.00  0.00     0.041 A 
ATOM     90  F   UNL     1      -1.508  18.191   3.671  1.00  0.00    -0.206 F 
ATOM     91  C   UNL     1      -0.473  17.219   0.347  1.00  0.00     0.022 A 
BRANCH  88  92
ATOM     92  S   UNL     1       1.862  16.285  -0.828  1.00  0.00     0.124 S 
ATOM     93  O   UNL     1       3.103  17.037  -0.689  1.00  0.00    -0.237 OA
ATOM     94  O   UNL     1       1.953  14.847  -0.591  1.00  0.00    -0.237 OA
ATOM     95  O   UNL     1       1.054  16.657  -1.992  1.00  0.00    -0.744 OA
ENDBRANCH  88  92
ENDBRANCH  62  85
ENDBRANCH  36  37
ENDBRANCH  29  31
ENDBRANCH  28  29
ENDBRANCH  27  28
ENDBRANCH   1  27
TORSDOF 19
