REMARK SMILES Cc1cc2c(=O)c3ccccc3oc2c(C(=O)OCCOC(=O)c2ccc(-c3c4nc(c(-c5cc(S(=O)(=O)[O-])ccc5F)c5ccc([nH]5)c(-c5cc(S(=O)(=O)[O-])ccc5F)c5nc(c(-c6cc(S(=O)(=O)[O-])ccc6F)c6ccc3[nH]6)C=C5)C=C4)cc2)c1C
REMARK SMILES IDX 21 1 20 2 19 3 18 4 16 5 17 6 15 7 1 8 2 9 3 10 87 11 4 12
REMARK SMILES IDX 88 13 5 14 14 15 6 16 7 17 13 18 8 19 12 20 9 21 11 22 10 23
REMARK SMILES IDX 22 24 23 25 24 26 25 27 86 28 26 29 85 30 27 31 28 32 29 33
REMARK SMILES IDX 79 34 30 35 84 36 78 37 80 38 31 39 83 40 77 41 76 42 32 44
REMARK SMILES IDX 64 45 44 46 63 47 45 48 48 49 62 50 81 51 46 52 47 53 61 55
REMARK SMILES IDX 82 56 49 57 33 58 34 59 42 60 35 61 41 62 43 63 40 64 36 65
REMARK SMILES IDX 37 66 38 67 39 68 65 69 66 70 74 71 67 72 73 73 75 74 72 75
REMARK SMILES IDX 68 76 69 77 70 78 71 79 50 80 51 81 59 82 52 83 58 84 60 85
REMARK SMILES IDX 57 86 53 87 54 88 55 89 56 90
REMARK H PARENT 80 43 48 54
REMARK Flexibility Score: inf
ROOT
ATOM      1  O   UNL     1      -0.296  -2.451   7.099  1.00  0.00    -0.458 OA
ENDROOT
BRANCH   1   2
ATOM      2  C   UNL     1      -0.425  -3.477   6.102  1.00  0.00     0.275 C 
BRANCH   2   3
ATOM      3  C   UNL     1      -1.380  -3.017   4.997  1.00  0.00     0.275 C 
BRANCH   3   4
ATOM      4  O   UNL     1      -0.753  -2.015   4.168  1.00  0.00    -0.458 OA
BRANCH   4   5
ATOM      5  C   UNL     1      -1.417  -0.852   3.942  1.00  0.00     0.342 C 
ATOM      6  O   UNL     1      -2.465  -0.528   4.472  1.00  0.00    -0.246 OA
BRANCH   5   7
ATOM      7  C   UNL     1      -0.673  -0.011   2.942  1.00  0.00     0.106 A 
ATOM      8  C   UNL     1       1.304  -0.219  -0.387  1.00  0.00     0.044 C 
ATOM      9  C   UNL     1       0.651   0.253   0.885  1.00  0.00    -0.046 A 
ATOM     10  C   UNL     1       0.794   1.611   1.186  1.00  0.00     0.019 A 
ATOM     11  C   UNL     1      -0.032  -0.590   1.797  1.00  0.00    -0.030 A 
ATOM     12  C   UNL     1       0.180   2.161   2.307  1.00  0.00     0.067 A 
ATOM     13  C   UNL     1      -0.048  -2.084   1.570  1.00  0.00     0.046 C 
ATOM     14  C   UNL     1       0.432   3.573   2.628  1.00  0.00     0.200 A 
ATOM     15  C   UNL     1      -0.623   1.389   3.143  1.00  0.00     0.153 A 
ATOM     16  O   UNL     1       1.155   4.270   1.927  1.00  0.00    -0.288 OA
ATOM     17  C   UNL     1      -0.220   4.098   3.825  1.00  0.00     0.065 A 
ATOM     18  O   UNL     1      -1.378   1.971   4.142  1.00  0.00    -0.455 OA
ATOM     19  C   UNL     1       0.097   5.369   4.316  1.00  0.00     0.016 A 
ATOM     20  C   UNL     1      -1.174   3.300   4.444  1.00  0.00     0.138 A 
ATOM     21  C   UNL     1      -0.588   5.864   5.423  1.00  0.00     0.001 A 
ATOM     22  C   UNL     1      -1.925   3.842   5.487  1.00  0.00     0.048 A 
ATOM     23  C   UNL     1      -1.622   5.116   5.985  1.00  0.00     0.004 A 
ENDBRANCH   5   7
ENDBRANCH   4   5
ENDBRANCH   3   4
ENDBRANCH   2   3
ENDBRANCH   1   2
BRANCH   1  24
ATOM     24  C   UNL     1       0.670  -1.536   6.849  1.00  0.00     0.338 C 
ATOM     25  O   UNL     1       1.538  -1.598   5.993  1.00  0.00    -0.246 OA
BRANCH  24  26
ATOM     26  C   UNL     1       0.362  -0.324   7.628  1.00  0.00     0.060 A 
ATOM     27  C   UNL     1       0.100  -0.356   9.001  1.00  0.00     0.016 A 
ATOM     28  C   UNL     1       0.321   0.881   6.931  1.00  0.00     0.016 A 
ATOM     29  C   UNL     1      -0.263   0.825   9.662  1.00  0.00     0.010 A 
ATOM     30  C   UNL     1      -0.027   2.050   7.597  1.00  0.00     0.010 A 
ATOM     31  C   UNL     1      -0.367   2.032   8.953  1.00  0.00    -0.014 A 
BRANCH  31  32
ATOM     32  C   UNL     1      -0.666   3.318   9.629  1.00  0.00     0.031 A 
ATOM     33  C   UNL     1      -2.030   3.948   9.597  1.00  0.00     0.074 A 
ATOM     34  C   UNL     1       0.367   3.990  10.165  1.00  0.00     0.049 A 
ATOM     35  N   UNL     1      -2.437   5.065  10.145  1.00  0.00    -0.248 NA
ATOM     36  C   UNL     1      -3.056   3.271   8.793  1.00  0.00     0.031 C 
ATOM     37  C   UNL     1       1.759   3.546  10.108  1.00  0.00     0.029 A 
ATOM     38  N   UNL     1       0.415   5.177  10.846  1.00  0.00    -0.354 N 
ATOM     39  C   UNL     1      -3.756   5.246   9.733  1.00  0.00     0.074 A 
ATOM     40  C   UNL     1      -4.056   4.146   8.839  1.00  0.00     0.031 C 
ATOM     41  C   UNL     1       2.522   4.428  10.767  1.00  0.00     0.029 A 
ATOM     42  C   UNL     1       1.673   5.494  11.296  1.00  0.00     0.049 A 
ATOM     43  H   UNL     1      -0.374   5.746  10.997  1.00  0.00     0.167 HD
ATOM     44  C   UNL     1      -4.625   6.226  10.094  1.00  0.00     0.034 A 
ATOM     45  C   UNL     1       2.089   6.500  12.090  1.00  0.00     0.034 A 
ATOM     46  C   UNL     1      -4.299   7.258  11.058  1.00  0.00     0.049 A 
ATOM     47  C   UNL     1       1.065   7.450  12.649  1.00  0.00     0.074 A 
ATOM     48  C   UNL     1      -5.146   8.190  11.636  1.00  0.00     0.029 A 
ATOM     49  N   UNL     1      -3.041   7.487  11.601  1.00  0.00    -0.354 N 
ATOM     50  N   UNL     1      -0.222   7.517  12.400  1.00  0.00    -0.248 NA
ATOM     51  C   UNL     1       1.537   8.435  13.630  1.00  0.00     0.031 C 
ATOM     52  C   UNL     1      -4.394   9.016  12.473  1.00  0.00     0.029 A 
ATOM     53  C   UNL     1      -3.089   8.552  12.490  1.00  0.00     0.049 A 
ATOM     54  H   UNL     1      -2.232   6.968  11.386  1.00  0.00     0.167 HD
ATOM     55  C   UNL     1      -0.715   8.544  13.199  1.00  0.00     0.074 A 
ATOM     56  C   UNL     1       0.404   9.030  13.980  1.00  0.00     0.031 C 
ATOM     57  C   UNL     1      -1.974   9.048  13.265  1.00  0.00     0.034 A 
BRANCH  44  58
ATOM     58  C   UNL     1      -6.043   6.226   9.543  1.00  0.00     0.023 A 
ATOM     59  C   UNL     1      -6.573   7.389   8.939  1.00  0.00     0.031 A 
ATOM     60  C   UNL     1      -6.930   5.163   9.794  1.00  0.00     0.131 A 
ATOM     61  C   UNL     1      -7.947   7.475   8.663  1.00  0.00     0.055 A 
ATOM     62  C   UNL     1      -8.283   5.229   9.454  1.00  0.00     0.041 A 
ATOM     63  F   UNL     1      -6.501   4.042  10.396  1.00  0.00    -0.206 F 
ATOM     64  C   UNL     1      -8.801   6.396   8.904  1.00  0.00     0.022 A 
BRANCH  61  65
ATOM     65  S   UNL     1      -8.707   9.025   8.094  1.00  0.00     0.124 S 
ATOM     66  O   UNL     1      -9.320   8.614   6.833  1.00  0.00    -0.237 OA
ATOM     67  O   UNL     1      -9.645   9.317   9.175  1.00  0.00    -0.237 OA
ATOM     68  O   UNL     1      -7.581   9.943   7.968  1.00  0.00    -0.744 OA
ENDBRANCH  61  65
ENDBRANCH  44  58
BRANCH  45  69
ATOM     69  C   UNL     1       3.515   6.514  12.519  1.00  0.00     0.023 A 
ATOM     70  C   UNL     1       4.553   6.678  11.586  1.00  0.00     0.031 A 
ATOM     71  C   UNL     1       3.855   6.187  13.843  1.00  0.00     0.131 A 
ATOM     72  C   UNL     1       5.876   6.435  11.975  1.00  0.00     0.055 A 
ATOM     73  C   UNL     1       5.181   6.026  14.244  1.00  0.00     0.041 A 
ATOM     74  F   UNL     1       2.894   5.989  14.759  1.00  0.00    -0.206 F 
ATOM     75  C   UNL     1       6.198   6.130  13.302  1.00  0.00     0.022 A 
BRANCH  72  76
ATOM     76  S   UNL     1       7.202   6.336  10.741  1.00  0.00     0.124 S 
ATOM     77  O   UNL     1       8.109   7.390  11.183  1.00  0.00    -0.237 OA
ATOM     78  O   UNL     1       7.682   4.969  10.931  1.00  0.00    -0.237 OA
ATOM     79  O   UNL     1       6.515   6.581   9.477  1.00  0.00    -0.744 OA
ENDBRANCH  72  76
ENDBRANCH  45  69
BRANCH  57  80
ATOM     80  C   UNL     1      -2.231  10.216  14.193  1.00  0.00     0.023 A 
ATOM     81  C   UNL     1      -3.178  10.113  15.231  1.00  0.00     0.031 A 
ATOM     82  C   UNL     1      -1.622  11.467  13.980  1.00  0.00     0.131 A 
ATOM     83  C   UNL     1      -3.502  11.241  15.998  1.00  0.00     0.055 A 
ATOM     84  C   UNL     1      -1.906  12.573  14.783  1.00  0.00     0.041 A 
ATOM     85  F   UNL     1      -0.727  11.630  12.991  1.00  0.00    -0.206 F 
ATOM     86  C   UNL     1      -2.860  12.465  15.789  1.00  0.00     0.022 A 
BRANCH  83  87
ATOM     87  S   UNL     1      -4.827  11.189  17.236  1.00  0.00     0.124 S 
ATOM     88  O   UNL     1      -4.101  11.488  18.468  1.00  0.00    -0.237 OA
ATOM     89  O   UNL     1      -5.724  12.244  16.771  1.00  0.00    -0.237 OA
ATOM     90  O   UNL     1      -5.351   9.831  17.137  1.00  0.00    -0.744 OA
ENDBRANCH  83  87
ENDBRANCH  57  80
ENDBRANCH  31  32
ENDBRANCH  24  26
ENDBRANCH   1  24
TORSDOF 14
