REMARK SMILES O=C(OCCOC(=O)c1ccc(-c2c3nc(c(-c4cc(S(=O)(=O)[O-])ccc4F)c4ccc([nH]4)c(-c4cc(S(=O)(=O)[O-])ccc4F)c4nc(c(-c5cc(S(=O)(=O)[O-])ccc5F)c5ccc2[nH]5)C=C4)C=C3)cc1)C1=Cc2c(Cl)cc(Cl)cc2O[C@@H]1C(F)(F)F
REMARK SMILES IDX 5 1 4 2 3 3 2 4 1 5 72 6 73 7 83 8 74 9 82 10 75 11 81 12
REMARK SMILES IDX 76 13 77 14 80 15 78 16 79 17 84 18 85 19 86 20 87 21 6 22
REMARK SMILES IDX 7 23 8 24 9 25 10 26 71 27 11 28 70 29 12 30 13 31 14 32
REMARK SMILES IDX 64 33 15 34 69 35 63 36 65 37 16 38 68 39 62 40 61 41 17 43
REMARK SMILES IDX 49 44 29 45 48 46 30 47 33 48 47 49 66 50 31 51 32 52 46 54
REMARK SMILES IDX 67 55 34 56 18 57 19 58 27 59 20 60 26 61 28 62 25 63 21 64
REMARK SMILES IDX 22 65 23 66 24 67 50 68 51 69 59 70 52 71 58 72 60 73 57 74
REMARK SMILES IDX 53 75 54 76 55 77 56 78 35 79 36 80 44 81 37 82 43 83 45 84
REMARK SMILES IDX 42 85 38 86 39 87 40 88 41 89
REMARK H PARENT 65 42 33 53
REMARK Flexibility Score: inf
ROOT
ATOM      1  C   UNL     1       4.700   0.641  -0.665  1.00  0.00     0.275 C 
ENDROOT
BRANCH   1   2
ATOM      2  C   UNL     1       3.891  -0.147   1.180  1.00  0.00     0.275 C 
BRANCH   2   3
ATOM      3  O   UNL     1       2.985   0.594   2.187  1.00  0.00    -0.459 OA
BRANCH   3   4
ATOM      4  C   UNL     1       3.189   1.917   2.191  1.00  0.00     0.338 C 
ATOM      5  O   UNL     1       2.561   2.783   2.743  1.00  0.00    -0.246 OA
BRANCH   4   6
ATOM      6  C   UNL     1       4.063   1.925   1.037  1.00  0.00     0.087 C 
ATOM      7  C   UNL     1       5.424   1.518   1.331  1.00  0.00     0.029 C 
ATOM      8  C   UNL     1       2.833   1.000  -0.111  1.00  0.00     0.316 C 
ATOM      9  C   UNL     1       6.111  -0.071   0.849  1.00  0.00     0.036 A 
ATOM     10  O   UNL     1       3.501  -0.762  -0.572  1.00  0.00    -0.475 OA
ATOM     11  C   UNL     1       7.340  -0.448   1.326  1.00  0.00     0.053 A 
ATOM     12  C   UNL     1       5.165  -1.267   0.013  1.00  0.00     0.130 A 
ATOM     13  Cl  UNL     1       8.393   0.608   2.171  1.00  0.00    -0.083 Cl
ATOM     14  C   UNL     1       7.683  -1.791   1.123  1.00  0.00     0.042 A 
ATOM     15  C   UNL     1       5.572  -2.562  -0.147  1.00  0.00     0.067 A 
ATOM     16  C   UNL     1       6.845  -2.781   0.448  1.00  0.00     0.046 A 
ATOM     17  Cl  UNL     1       7.495  -4.392   0.424  1.00  0.00    -0.084 Cl
BRANCH   8  18
ATOM     18  C   UNL     1       2.514   2.355  -0.918  1.00  0.00     0.430 C 
ATOM     19  F   UNL     1       1.256   2.373  -1.361  1.00  0.00    -0.167 F 
ATOM     20  F   UNL     1       2.538   3.413  -0.046  1.00  0.00    -0.167 F 
ATOM     21  F   UNL     1       3.378   2.753  -1.870  1.00  0.00    -0.167 F 
ENDBRANCH   8  18
ENDBRANCH   4   6
ENDBRANCH   3   4
ENDBRANCH   2   3
ENDBRANCH   1   2
BRANCH   1  22
ATOM     22  O   UNL     1       3.840   0.628  -2.202  1.00  0.00    -0.458 OA
BRANCH  22  23
ATOM     23  C   UNL     1       2.881  -0.054  -2.930  1.00  0.00     0.338 C 
ATOM     24  O   UNL     1       2.441  -1.177  -2.757  1.00  0.00    -0.246 OA
BRANCH  23  25
ATOM     25  C   UNL     1       2.153   0.973  -3.757  1.00  0.00     0.060 A 
ATOM     26  C   UNL     1       0.808   1.272  -3.465  1.00  0.00     0.016 A 
ATOM     27  C   UNL     1       2.893   1.869  -4.524  1.00  0.00     0.016 A 
ATOM     28  C   UNL     1       0.317   2.583  -3.683  1.00  0.00     0.010 A 
ATOM     29  C   UNL     1       2.395   3.158  -4.753  1.00  0.00     0.010 A 
ATOM     30  C   UNL     1       1.152   3.567  -4.236  1.00  0.00    -0.014 A 
BRANCH  30  31
ATOM     31  C   UNL     1       0.711   4.979  -4.467  1.00  0.00     0.031 A 
ATOM     32  C   UNL     1       0.064   5.249  -5.791  1.00  0.00     0.074 A 
ATOM     33  C   UNL     1       0.971   6.011  -3.627  1.00  0.00     0.049 A 
ATOM     34  N   UNL     1      -0.247   6.384  -6.354  1.00  0.00    -0.248 NA
ATOM     35  C   UNL     1      -0.231   4.060  -6.606  1.00  0.00     0.031 C 
ATOM     36  C   UNL     1       1.581   5.909  -2.303  1.00  0.00     0.029 A 
ATOM     37  N   UNL     1       0.772   7.373  -3.776  1.00  0.00    -0.354 N 
ATOM     38  C   UNL     1      -0.762   6.046  -7.597  1.00  0.00     0.074 A 
ATOM     39  C   UNL     1      -0.673   4.608  -7.723  1.00  0.00     0.031 C 
ATOM     40  C   UNL     1       1.722   7.141  -1.773  1.00  0.00     0.029 A 
ATOM     41  C   UNL     1       1.245   8.143  -2.726  1.00  0.00     0.049 A 
ATOM     42  H   UNL     1       0.332   7.763  -4.565  1.00  0.00     0.167 HD
ATOM     43  C   UNL     1      -1.276   6.855  -8.550  1.00  0.00     0.034 A 
ATOM     44  C   UNL     1       1.304   9.489  -2.566  1.00  0.00     0.034 A 
ATOM     45  C   UNL     1      -1.343   8.284  -8.438  1.00  0.00     0.049 A 
ATOM     46  C   UNL     1       0.796  10.377  -3.693  1.00  0.00     0.074 A 
ATOM     47  C   UNL     1      -1.865   9.191  -9.341  1.00  0.00     0.029 A 
ATOM     48  N   UNL     1      -0.855   9.018  -7.366  1.00  0.00    -0.354 N 
ATOM     49  N   UNL     1       0.246  10.033  -4.837  1.00  0.00    -0.248 NA
ATOM     50  C   UNL     1       0.918  11.835  -3.513  1.00  0.00     0.031 C 
ATOM     51  C   UNL     1      -1.625  10.476  -8.851  1.00  0.00     0.029 A 
ATOM     52  C   UNL     1      -1.029  10.370  -7.604  1.00  0.00     0.049 A 
ATOM     53  H   UNL     1      -0.446   8.634  -6.556  1.00  0.00     0.167 HD
ATOM     54  C   UNL     1      -0.075  11.228  -5.483  1.00  0.00     0.074 A 
ATOM     55  C   UNL     1       0.320  12.300  -4.599  1.00  0.00     0.031 C 
ATOM     56  C   UNL     1      -0.642  11.425  -6.700  1.00  0.00     0.034 A 
BRANCH  43  57
ATOM     57  C   UNL     1      -1.754   6.189  -9.809  1.00  0.00     0.023 A 
ATOM     58  C   UNL     1      -2.837   5.293  -9.790  1.00  0.00     0.031 A 
ATOM     59  C   UNL     1      -1.075   6.390 -11.021  1.00  0.00     0.131 A 
ATOM     60  C   UNL     1      -3.154   4.564 -10.943  1.00  0.00     0.055 A 
ATOM     61  C   UNL     1      -1.454   5.727 -12.188  1.00  0.00     0.041 A 
ATOM     62  F   UNL     1      -0.013   7.208 -11.082  1.00  0.00    -0.206 F 
ATOM     63  C   UNL     1      -2.489   4.797 -12.149  1.00  0.00     0.022 A 
BRANCH  60  64
ATOM     64  S   UNL     1      -4.343   3.204 -10.802  1.00  0.00     0.124 S 
ATOM     65  O   UNL     1      -3.649   2.302  -9.884  1.00  0.00    -0.237 OA
ATOM     66  O   UNL     1      -5.526   3.869 -10.268  1.00  0.00    -0.237 OA
ATOM     67  O   UNL     1      -4.466   2.714 -12.173  1.00  0.00    -0.744 OA
ENDBRANCH  60  64
ENDBRANCH  43  57
BRANCH  44  68
ATOM     68  C   UNL     1       1.907  10.142  -1.348  1.00  0.00     0.023 A 
ATOM     69  C   UNL     1       1.172  11.058  -0.566  1.00  0.00     0.031 A 
ATOM     70  C   UNL     1       3.273   9.996  -1.045  1.00  0.00     0.131 A 
ATOM     71  C   UNL     1       1.817  11.844   0.410  1.00  0.00     0.055 A 
ATOM     72  C   UNL     1       3.896  10.730  -0.027  1.00  0.00     0.041 A 
ATOM     73  F   UNL     1       4.042   9.159  -1.759  1.00  0.00    -0.206 F 
ATOM     74  C   UNL     1       3.173  11.676   0.692  1.00  0.00     0.022 A 
BRANCH  71  75
ATOM     75  S   UNL     1       0.900  13.205   1.196  1.00  0.00     0.124 S 
ATOM     76  O   UNL     1       0.475  13.983   0.038  1.00  0.00    -0.237 OA
ATOM     77  O   UNL     1      -0.152  12.490   1.910  1.00  0.00    -0.237 OA
ATOM     78  O   UNL     1       1.901  13.847   2.046  1.00  0.00    -0.744 OA
ENDBRANCH  71  75
ENDBRANCH  44  68
BRANCH  56  79
ATOM     79  C   UNL     1      -0.920  12.847  -7.127  1.00  0.00     0.023 A 
ATOM     80  C   UNL     1       0.116  13.755  -7.402  1.00  0.00     0.031 A 
ATOM     81  C   UNL     1      -2.246  13.281  -7.306  1.00  0.00     0.131 A 
ATOM     82  C   UNL     1      -0.191  15.063  -7.806  1.00  0.00     0.055 A 
ATOM     83  C   UNL     1      -2.544  14.563  -7.769  1.00  0.00     0.041 A 
ATOM     84  F   UNL     1      -3.276  12.455  -7.059  1.00  0.00    -0.206 F 
ATOM     85  C   UNL     1      -1.514  15.465  -8.013  1.00  0.00     0.022 A 
BRANCH  82  86
ATOM     86  S   UNL     1       1.160  16.258  -7.995  1.00  0.00     0.124 S 
ATOM     87  O   UNL     1       1.738  16.278  -6.656  1.00  0.00    -0.237 OA
ATOM     88  O   UNL     1       1.979  15.643  -9.034  1.00  0.00    -0.237 OA
ATOM     89  O   UNL     1       0.477  17.488  -8.394  1.00  0.00    -0.744 OA
ENDBRANCH  82  86
ENDBRANCH  56  79
ENDBRANCH  30  31
ENDBRANCH  23  25
ENDBRANCH  22  23
ENDBRANCH   1  22
TORSDOF 15
