REMARK SMILES O=C(OCCOC(=O)c1ccc(NCCCO)c(F)c1F)c1ccc(-c2c3nc(c(-c4cc(S(=O)(=O)[O-])ccc4F)c4ccc([nH]4)c(-c4cc(S(=O)(=O)[O-])ccc4F)c4nc(c(-c5cc(S(=O)(=O)[O-])ccc5F)c5ccc2[nH]5)C=C4)C=C3)cc1
REMARK SMILES IDX 5 1 4 2 3 3 2 4 1 5 22 6 23 7 84 8 24 9 83 10 25 11 26 12
REMARK SMILES IDX 27 13 77 14 28 15 82 16 76 17 78 18 29 19 81 20 75 21 74 22
REMARK SMILES IDX 30 24 62 25 42 26 61 27 43 28 46 29 60 30 79 31 44 32 45 33
REMARK SMILES IDX 59 35 80 36 47 37 31 38 32 39 40 40 33 41 39 42 41 43 38 44
REMARK SMILES IDX 34 45 35 46 36 47 37 48 63 49 64 50 72 51 65 52 71 53 73 54
REMARK SMILES IDX 70 55 66 56 67 57 68 58 69 59 48 60 49 61 57 62 50 63 56 64
REMARK SMILES IDX 58 65 55 66 51 67 52 68 53 69 54 70 6 71 7 72 8 73 9 74
REMARK SMILES IDX 10 75 20 76 11 77 18 78 21 79 12 80 19 81 13 82 14 84 15 85
REMARK SMILES IDX 16 86 17 87
REMARK H PARENT 78 23 46 34 13 83 17 88
REMARK Flexibility Score: inf
ROOT
ATOM      1  C   UNL     1       4.104  -2.153  -0.436  1.00  0.00     0.275 C 
ENDROOT
BRANCH   1   2
ATOM      2  C   UNL     1       4.311  -1.256   0.789  1.00  0.00     0.275 C 
BRANCH   2   3
ATOM      3  O   UNL     1       3.202  -0.389   1.071  1.00  0.00    -0.458 OA
BRANCH   3   4
ATOM      4  C   UNL     1       3.013   0.899   0.693  1.00  0.00     0.338 C 
ATOM      5  O   UNL     1       2.203   1.582   1.319  1.00  0.00    -0.246 OA
BRANCH   4   6
ATOM      6  C   UNL     1       3.614   1.487  -0.551  1.00  0.00     0.060 A 
ATOM      7  C   UNL     1       4.843   1.139  -1.121  1.00  0.00     0.016 A 
ATOM      8  C   UNL     1       2.860   2.486  -1.192  1.00  0.00     0.016 A 
ATOM      9  C   UNL     1       5.281   1.708  -2.321  1.00  0.00     0.010 A 
ATOM     10  C   UNL     1       3.293   3.064  -2.391  1.00  0.00     0.010 A 
ATOM     11  C   UNL     1       4.516   2.680  -2.958  1.00  0.00    -0.014 A 
BRANCH  11  12
ATOM     12  C   UNL     1       5.109   3.476  -4.056  1.00  0.00     0.031 A 
ATOM     13  C   UNL     1       5.621   4.840  -3.704  1.00  0.00     0.074 A 
ATOM     14  C   UNL     1       5.237   2.997  -5.307  1.00  0.00     0.049 A 
ATOM     15  N   UNL     1       6.081   5.781  -4.481  1.00  0.00    -0.248 NA
ATOM     16  C   UNL     1       5.636   5.173  -2.270  1.00  0.00     0.031 C 
ATOM     17  C   UNL     1       4.934   1.633  -5.728  1.00  0.00     0.029 A 
ATOM     18  N   UNL     1       5.629   3.617  -6.467  1.00  0.00    -0.354 N 
ATOM     19  C   UNL     1       6.470   6.807  -3.627  1.00  0.00     0.074 A 
ATOM     20  C   UNL     1       6.112   6.405  -2.286  1.00  0.00     0.031 C 
ATOM     21  C   UNL     1       5.040   1.546  -7.066  1.00  0.00     0.029 A 
ATOM     22  C   UNL     1       5.417   2.852  -7.593  1.00  0.00     0.049 A 
ATOM     23  H   UNL     1       6.022   4.519  -6.493  1.00  0.00     0.167 HD
ATOM     24  C   UNL     1       7.101   7.963  -3.939  1.00  0.00     0.034 A 
ATOM     25  C   UNL     1       5.467   3.194  -8.895  1.00  0.00     0.034 A 
ATOM     26  C   UNL     1       7.391   8.349  -5.295  1.00  0.00     0.049 A 
ATOM     27  C   UNL     1       5.906   4.585  -9.247  1.00  0.00     0.074 A 
ATOM     28  C   UNL     1       8.008   9.495  -5.759  1.00  0.00     0.029 A 
ATOM     29  N   UNL     1       7.046   7.599  -6.416  1.00  0.00    -0.354 N 
ATOM     30  N   UNL     1       6.244   5.565  -8.441  1.00  0.00    -0.248 NA
ATOM     31  C   UNL     1       5.997   4.909 -10.674  1.00  0.00     0.031 C 
ATOM     32  C   UNL     1       7.952   9.479  -7.157  1.00  0.00     0.029 A 
ATOM     33  C   UNL     1       7.391   8.279  -7.570  1.00  0.00     0.049 A 
ATOM     34  H   UNL     1       6.619   6.712  -6.391  1.00  0.00     0.167 HD
ATOM     35  C   UNL     1       6.662   6.602  -9.265  1.00  0.00     0.074 A 
ATOM     36  C   UNL     1       6.479   6.144 -10.630  1.00  0.00     0.031 C 
ATOM     37  C   UNL     1       7.195   7.801  -8.920  1.00  0.00     0.034 A 
BRANCH  24  38
ATOM     38  C   UNL     1       7.427   8.886  -2.791  1.00  0.00     0.023 A 
ATOM     39  C   UNL     1       8.260   8.476  -1.732  1.00  0.00     0.031 A 
ATOM     40  C   UNL     1       6.802  10.139  -2.686  1.00  0.00     0.131 A 
ATOM     41  C   UNL     1       8.342   9.251  -0.566  1.00  0.00     0.055 A 
ATOM     42  C   UNL     1       6.971  10.954  -1.565  1.00  0.00     0.041 A 
ATOM     43  F   UNL     1       5.976  10.574  -3.650  1.00  0.00    -0.206 F 
ATOM     44  C   UNL     1       7.723  10.500  -0.484  1.00  0.00     0.022 A 
BRANCH  41  45
ATOM     45  S   UNL     1       9.081   8.504   0.916  1.00  0.00     0.124 S 
ATOM     46  O   UNL     1       8.268   7.301   1.076  1.00  0.00    -0.237 OA
ATOM     47  O   UNL     1      10.463   8.289   0.505  1.00  0.00    -0.237 OA
ATOM     48  O   UNL     1       8.885   9.521   1.946  1.00  0.00    -0.744 OA
ENDBRANCH  41  45
ENDBRANCH  24  38
BRANCH  25  49
ATOM     49  C   UNL     1       4.958   2.266  -9.941  1.00  0.00     0.023 A 
ATOM     50  C   UNL     1       5.789   1.539 -10.801  1.00  0.00     0.031 A 
ATOM     51  C   UNL     1       3.569   2.147 -10.109  1.00  0.00     0.131 A 
ATOM     52  C   UNL     1       5.212   0.712 -11.784  1.00  0.00     0.055 A 
ATOM     53  C   UNL     1       3.000   1.282 -11.043  1.00  0.00     0.041 A 
ATOM     54  F   UNL     1       2.748   2.906  -9.370  1.00  0.00    -0.206 F 
ATOM     55  C   UNL     1       3.827   0.553 -11.888  1.00  0.00     0.022 A 
BRANCH  52  56
ATOM     56  S   UNL     1       6.293  -0.103 -12.993  1.00  0.00     0.124 S 
ATOM     57  O   UNL     1       6.860   1.041 -13.697  1.00  0.00    -0.237 OA
ATOM     58  O   UNL     1       7.207  -0.846 -12.131  1.00  0.00    -0.237 OA
ATOM     59  O   UNL     1       5.372  -0.926 -13.773  1.00  0.00    -0.744 OA
ENDBRANCH  52  56
ENDBRANCH  25  49
BRANCH  37  60
ATOM     60  C   UNL     1       7.720   8.660 -10.036  1.00  0.00     0.023 A 
ATOM     61  C   UNL     1       6.874   9.309 -10.947  1.00  0.00     0.031 A 
ATOM     62  C   UNL     1       9.109   8.854 -10.156  1.00  0.00     0.131 A 
ATOM     63  C   UNL     1       7.430  10.103 -11.960  1.00  0.00     0.055 A 
ATOM     64  C   UNL     1       9.651   9.694 -11.125  1.00  0.00     0.041 A 
ATOM     65  F   UNL     1       9.958   8.243  -9.313  1.00  0.00    -0.206 F 
ATOM     66  C   UNL     1       8.810  10.319 -12.039  1.00  0.00     0.022 A 
BRANCH  63  67
ATOM     67  S   UNL     1       6.331  10.802 -13.220  1.00  0.00     0.124 S 
ATOM     68  O   UNL     1       5.781   9.599 -13.837  1.00  0.00    -0.237 OA
ATOM     69  O   UNL     1       5.400  11.591 -12.421  1.00  0.00    -0.237 OA
ATOM     70  O   UNL     1       7.233  11.578 -14.068  1.00  0.00    -0.744 OA
ENDBRANCH  63  67
ENDBRANCH  37  60
ENDBRANCH  11  12
ENDBRANCH   4   6
ENDBRANCH   3   4
ENDBRANCH   2   3
ENDBRANCH   1   2
BRANCH   1  71
ATOM     71  O   UNL     1       3.560  -1.459  -1.570  1.00  0.00    -0.458 OA
BRANCH  71  72
ATOM     72  C   UNL     1       2.208  -1.541  -1.716  1.00  0.00     0.341 C 
ATOM     73  O   UNL     1       1.441  -2.199  -1.046  1.00  0.00    -0.246 OA
BRANCH  72  74
ATOM     74  C   UNL     1       1.792  -0.639  -2.803  1.00  0.00     0.099 A 
ATOM     75  C   UNL     1       2.357  -0.721  -4.076  1.00  0.00     0.021 A 
ATOM     76  C   UNL     1       0.826   0.323  -2.543  1.00  0.00     0.175 A 
ATOM     77  C   UNL     1       1.969   0.191  -5.071  1.00  0.00     0.030 A 
ATOM     78  C   UNL     1       0.493   1.256  -3.522  1.00  0.00     0.182 A 
ATOM     79  F   UNL     1       0.265   0.423  -1.329  1.00  0.00    -0.203 F 
ATOM     80  C   UNL     1       1.081   1.239  -4.798  1.00  0.00     0.073 A 
ATOM     81  F   UNL     1      -0.382   2.231  -3.223  1.00  0.00    -0.201 F 
BRANCH  80  82
ATOM     82  N   UNL     1       0.749   2.230  -5.704  1.00  0.00    -0.383 N 
ATOM     83  H   UNL     1       0.086   2.895  -5.408  1.00  0.00     0.160 HD
BRANCH  82  84
ATOM     84  C   UNL     1       1.280   2.390  -7.047  1.00  0.00     0.115 C 
BRANCH  84  85
ATOM     85  C   UNL     1       0.227   1.978  -8.076  1.00  0.00     0.049 C 
BRANCH  85  86
ATOM     86  C   UNL     1      -0.823   3.055  -8.323  1.00  0.00     0.158 C 
BRANCH  86  87
ATOM     87  O   UNL     1      -0.311   4.134  -9.092  1.00  0.00    -0.396 OA
ATOM     88  H   UNL     1       0.421   4.554  -8.613  1.00  0.00     0.210 HD
ENDBRANCH  86  87
ENDBRANCH  85  86
ENDBRANCH  84  85
ENDBRANCH  82  84
ENDBRANCH  80  82
ENDBRANCH  72  74
ENDBRANCH  71  72
ENDBRANCH   1  71
TORSDOF 19
