REMARK SMILES O=C1NC(=O)/C(=C/c2ccc(OCc3cn(-c4ccc(C(=O)OCCOC(=O)c5ccc(-c6c7nc(c(-c8cc(S(=O)(=O)[O-])ccc8F)c8ccc([nH]8)c(-c8cc(S(=O)(=O)[O-])ccc8F)c8nc(c(-c9cc(S(=O)(=O)[O-])ccc9F)c9ccc6[nH]9)C=C8)C=C7)cc5)cc4)nn3)cc2)S1
REMARK SMILES IDX 24 1 23 2 21 3 22 4 20 5 17 6 18 7 93 8 19 9 92 10 16 11
REMARK SMILES IDX 14 12 15 13 95 14 94 15 13 16 12 17 11 18 8 19 9 20 97 21
REMARK SMILES IDX 10 22 96 23 7 24 1 25 2 26 3 27 98 28 4 29 6 31 5 32 25 33
REMARK SMILES IDX 26 34 27 35 28 36 29 37 30 38 91 39 31 40 90 41 32 42 33 43
REMARK SMILES IDX 34 44 84 45 35 46 89 47 83 48 85 49 36 50 88 51 82 52 81 53
REMARK SMILES IDX 37 55 69 56 49 57 68 58 50 59 53 60 67 61 86 62 51 63 52 64
REMARK SMILES IDX 66 66 87 67 54 68 38 69 39 70 47 71 40 72 46 73 48 74 45 75
REMARK SMILES IDX 41 76 42 77 43 78 44 79 70 80 71 81 79 82 72 83 78 84 80 85
REMARK SMILES IDX 77 86 73 87 74 88 75 89 76 90 55 91 56 92 64 93 57 94 63 95
REMARK SMILES IDX 65 96 62 97 58 98 59 99 60 100 61 101
REMARK H PARENT 3 30 85 54 53 65
REMARK Flexibility Score: inf
ROOT
ATOM      1  C   UNL     1      -9.581  10.113  -0.153  1.00  0.00     0.275 C 
ENDROOT
BRANCH   1   2
ATOM      2  O   UNL     1      -8.175   9.833  -0.119  1.00  0.00    -0.458 OA
BRANCH   2   3
ATOM      3  C   UNL     1      -7.703   9.449   1.093  1.00  0.00     0.338 C 
ATOM      4  O   UNL     1      -8.304   9.491   2.155  1.00  0.00    -0.246 OA
BRANCH   3   5
ATOM      5  C   UNL     1      -6.342   8.885   0.960  1.00  0.00     0.060 A 
ATOM      6  C   UNL     1      -3.740   7.890   0.920  1.00  0.00     0.066 A 
ATOM      7  C   UNL     1      -4.677   7.356   1.816  1.00  0.00     0.029 A 
ATOM      8  C   UNL     1      -4.123   8.867  -0.009  1.00  0.00     0.029 A 
ATOM      9  C   UNL     1      -5.967   7.877   1.855  1.00  0.00     0.018 A 
ATOM     10  C   UNL     1      -5.436   9.346  -0.003  1.00  0.00     0.018 A 
BRANCH   6  11
ATOM     11  N   UNL     1      -2.396   7.475   1.024  1.00  0.00    -0.220 N 
ATOM     12  C   UNL     1      -0.218   7.406   1.171  1.00  0.00     0.120 A 
ATOM     13  C   UNL     1      -1.256   8.176   0.688  1.00  0.00     0.144 A 
ATOM     14  N   UNL     1      -0.743   6.281   1.746  1.00  0.00    -0.131 NA
ATOM     15  N   UNL     1      -2.058   6.335   1.661  1.00  0.00    -0.062 NA
BRANCH  12  16
ATOM     16  C   UNL     1       1.246   7.680   1.264  1.00  0.00     0.289 C 
BRANCH  16  17
ATOM     17  O   UNL     1       2.066   7.010   0.292  1.00  0.00    -0.487 OA
BRANCH  17  18
ATOM     18  C   UNL     1       2.165   5.646   0.359  1.00  0.00     0.119 A 
ATOM     19  C   UNL     1       2.192   2.844   0.132  1.00  0.00    -0.024 A 
ATOM     20  C   UNL     1       2.702   3.637  -0.898  1.00  0.00     0.012 A 
ATOM     21  C   UNL     1       1.756   3.457   1.308  1.00  0.00     0.012 A 
ATOM     22  C   UNL     1       2.682   5.033  -0.784  1.00  0.00     0.047 A 
ATOM     23  C   UNL     1       1.771   4.848   1.431  1.00  0.00     0.047 A 
BRANCH  19  24
ATOM     24  C   UNL     1       2.129   1.386  -0.004  1.00  0.00     0.029 C 
ATOM     25  O   UNL     1      -2.443  -0.713   0.056  1.00  0.00    -0.261 OA
ATOM     26  C   UNL     1      -1.267  -0.430   0.006  1.00  0.00     0.290 C 
ATOM     27  N   UNL     1      -0.237  -1.318  -0.050  1.00  0.00    -0.282 N 
ATOM     28  S   UNL     1      -0.631   1.203   0.010  1.00  0.00    -0.022 SA
ATOM     29  C   UNL     1       1.033  -0.829  -0.079  1.00  0.00     0.265 C 
ATOM     30  H   UNL     1      -0.406  -2.288  -0.069  1.00  0.00     0.174 HD
ATOM     31  C   UNL     1       1.005   0.657  -0.030  1.00  0.00     0.083 C 
ATOM     32  O   UNL     1       2.047  -1.511  -0.118  1.00  0.00    -0.268 OA
ENDBRANCH  19  24
ENDBRANCH  17  18
ENDBRANCH  16  17
ENDBRANCH  12  16
ENDBRANCH   6  11
ENDBRANCH   3   5
ENDBRANCH   2   3
ENDBRANCH   1   2
BRANCH   1  33
ATOM     33  C   UNL     1     -10.388   8.865  -0.487  1.00  0.00     0.275 C 
BRANCH  33  34
ATOM     34  O   UNL     1     -10.412   7.910   0.579  1.00  0.00    -0.458 OA
BRANCH  34  35
ATOM     35  C   UNL     1      -9.514   6.904   0.453  1.00  0.00     0.338 C 
ATOM     36  O   UNL     1      -8.446   6.946  -0.135  1.00  0.00    -0.246 OA
BRANCH  35  37
ATOM     37  C   UNL     1     -10.111   5.648   0.930  1.00  0.00     0.060 A 
ATOM     38  C   UNL     1      -9.273   4.549   1.141  1.00  0.00     0.016 A 
ATOM     39  C   UNL     1     -11.506   5.509   0.936  1.00  0.00     0.016 A 
ATOM     40  C   UNL     1      -9.841   3.290   1.261  1.00  0.00     0.010 A 
ATOM     41  C   UNL     1     -12.068   4.251   1.036  1.00  0.00     0.010 A 
ATOM     42  C   UNL     1     -11.234   3.141   1.152  1.00  0.00    -0.014 A 
BRANCH  42  43
ATOM     43  C   UNL     1     -11.827   1.838   1.438  1.00  0.00     0.031 A 
ATOM     44  C   UNL     1     -11.609   1.453   2.855  1.00  0.00     0.074 A 
ATOM     45  C   UNL     1     -12.606   1.136   0.585  1.00  0.00     0.049 A 
ATOM     46  N   UNL     1     -10.855   0.502   3.293  1.00  0.00    -0.248 NA
ATOM     47  C   UNL     1     -12.091   2.361   3.915  1.00  0.00     0.031 C 
ATOM     48  C   UNL     1     -13.050   1.537  -0.751  1.00  0.00     0.029 A 
ATOM     49  N   UNL     1     -13.247  -0.060   0.760  1.00  0.00    -0.354 N 
ATOM     50  C   UNL     1     -11.017   0.511   4.673  1.00  0.00     0.074 A 
ATOM     51  C   UNL     1     -11.560   1.799   5.001  1.00  0.00     0.031 C 
ATOM     52  C   UNL     1     -14.053   0.724  -1.159  1.00  0.00     0.029 A 
ATOM     53  C   UNL     1     -14.256  -0.327  -0.172  1.00  0.00     0.049 A 
ATOM     54  H   UNL     1     -13.016  -0.684   1.486  1.00  0.00     0.167 HD
ATOM     55  C   UNL     1     -11.005  -0.660   5.365  1.00  0.00     0.034 A 
ATOM     56  C   UNL     1     -15.212  -1.305  -0.123  1.00  0.00     0.034 A 
ATOM     57  C   UNL     1     -10.341  -1.698   4.601  1.00  0.00     0.049 A 
ATOM     58  C   UNL     1     -14.696  -2.362   0.780  1.00  0.00     0.074 A 
ATOM     59  C   UNL     1      -9.099  -1.807   4.000  1.00  0.00     0.029 A 
ATOM     60  N   UNL     1     -11.120  -2.669   4.013  1.00  0.00    -0.354 N 
ATOM     61  N   UNL     1     -13.661  -3.099   0.493  1.00  0.00    -0.248 NA
ATOM     62  C   UNL     1     -15.004  -2.252   2.198  1.00  0.00     0.031 C 
ATOM     63  C   UNL     1      -9.346  -2.470   2.761  1.00  0.00     0.029 A 
ATOM     64  C   UNL     1     -10.693  -2.832   2.717  1.00  0.00     0.049 A 
ATOM     65  H   UNL     1     -11.854  -3.161   4.445  1.00  0.00     0.167 HD
ATOM     66  C   UNL     1     -12.922  -3.139   1.664  1.00  0.00     0.074 A 
ATOM     67  C   UNL     1     -13.844  -2.681   2.705  1.00  0.00     0.031 C 
ATOM     68  C   UNL     1     -11.560  -3.255   1.632  1.00  0.00     0.034 A 
BRANCH  55  69
ATOM     69  C   UNL     1     -11.976  -0.972   6.488  1.00  0.00     0.023 A 
ATOM     70  C   UNL     1     -11.882  -2.250   7.068  1.00  0.00     0.031 A 
ATOM     71  C   UNL     1     -13.151  -0.245   6.796  1.00  0.00     0.131 A 
ATOM     72  C   UNL     1     -12.960  -2.795   7.786  1.00  0.00     0.055 A 
ATOM     73  C   UNL     1     -14.190  -0.768   7.569  1.00  0.00     0.041 A 
ATOM     74  F   UNL     1     -13.415   0.970   6.304  1.00  0.00    -0.206 F 
ATOM     75  C   UNL     1     -14.116  -2.064   8.039  1.00  0.00     0.022 A 
BRANCH  72  76
ATOM     76  S   UNL     1     -12.894  -4.551   8.218  1.00  0.00     0.124 S 
ATOM     77  O   UNL     1     -12.718  -5.162   6.906  1.00  0.00    -0.237 OA
ATOM     78  O   UNL     1     -11.741  -4.595   9.111  1.00  0.00    -0.237 OA
ATOM     79  O   UNL     1     -14.186  -4.790   8.856  1.00  0.00    -0.744 OA
ENDBRANCH  72  76
ENDBRANCH  55  69
BRANCH  56  80
ATOM     80  C   UNL     1     -16.656  -1.232  -0.531  1.00  0.00     0.023 A 
ATOM     81  C   UNL     1     -17.499  -2.369  -0.654  1.00  0.00     0.031 A 
ATOM     82  C   UNL     1     -17.304   0.022  -0.543  1.00  0.00     0.131 A 
ATOM     83  C   UNL     1     -18.908  -2.215  -0.772  1.00  0.00     0.055 A 
ATOM     84  C   UNL     1     -18.690   0.166  -0.652  1.00  0.00     0.041 A 
ATOM     85  F   UNL     1     -16.620   1.161  -0.354  1.00  0.00    -0.206 F 
ATOM     86  C   UNL     1     -19.499  -0.951  -0.755  1.00  0.00     0.022 A 
BRANCH  83  87
ATOM     87  S   UNL     1     -20.028  -3.661  -0.862  1.00  0.00     0.124 S 
ATOM     88  O   UNL     1     -19.732  -4.206  -2.181  1.00  0.00    -0.237 OA
ATOM     89  O   UNL     1     -19.609  -4.461   0.283  1.00  0.00    -0.237 OA
ATOM     90  O   UNL     1     -21.361  -3.069  -0.732  1.00  0.00    -0.744 OA
ENDBRANCH  83  87
ENDBRANCH  56  80
BRANCH  68  91
ATOM     91  C   UNL     1     -10.901  -3.693   0.335  1.00  0.00     0.023 A 
ATOM     92  C   UNL     1     -11.090  -3.095  -0.934  1.00  0.00     0.031 A 
ATOM     93  C   UNL     1      -9.976  -4.750   0.418  1.00  0.00     0.131 A 
ATOM     94  C   UNL     1     -10.389  -3.582  -2.058  1.00  0.00     0.055 A 
ATOM     95  C   UNL     1      -9.263  -5.208  -0.688  1.00  0.00     0.041 A 
ATOM     96  F   UNL     1      -9.733  -5.354   1.593  1.00  0.00    -0.206 F 
ATOM     97  C   UNL     1      -9.476  -4.633  -1.933  1.00  0.00     0.022 A 
BRANCH  94  98
ATOM     98  S   UNL     1     -10.693  -2.903  -3.723  1.00  0.00     0.124 S 
ATOM     99  O   UNL     1     -12.143  -2.769  -3.784  1.00  0.00    -0.237 OA
ATOM    100  O   UNL     1      -9.938  -1.653  -3.697  1.00  0.00    -0.237 OA
ATOM    101  O   UNL     1     -10.139  -3.927  -4.612  1.00  0.00    -0.744 OA
ENDBRANCH  94  98
ENDBRANCH  68  91
ENDBRANCH  42  43
ENDBRANCH  35  37
ENDBRANCH  34  35
ENDBRANCH  33  34
ENDBRANCH   1  33
TORSDOF 19
