REMARK SMILES CCCc1nnc(SCC(=O)OCCOC(=O)c2ccc(-c3c4nc(c(-c5cc(S(=O)(=O)[O-])ccc5F)c5ccc([nH]5)c(-c5cc(S(=O)(=O)[O-])ccc5F)c5nc(c(-c6cc(S(=O)(=O)[O-])ccc6F)c6ccc3[nH]6)C=C5)C=C4)cc2)n1C[C@H]1CCCO1
REMARK SMILES IDX 13 1 12 2 10 3 11 4 9 5 8 6 7 7 4 8 5 9 81 10 6 11 3 12 2 13
REMARK SMILES IDX 1 14 82 15 83 16 84 17 87 18 85 19 86 20 14 21 15 22 16 23
REMARK SMILES IDX 17 24 18 25 19 26 80 27 20 28 79 29 21 30 22 31 23 32 73 33
REMARK SMILES IDX 24 34 78 35 72 36 74 37 25 38 77 39 71 40 70 41 26 43 58 44
REMARK SMILES IDX 38 45 57 46 39 47 42 48 56 49 75 50 40 51 41 52 55 54 76 55
REMARK SMILES IDX 43 56 27 57 28 58 36 59 29 60 35 61 37 62 34 63 30 64 31 65
REMARK SMILES IDX 32 66 33 67 59 68 60 69 68 70 61 71 67 72 69 73 66 74 62 75
REMARK SMILES IDX 63 76 64 77 65 78 44 79 45 80 53 81 46 82 52 83 54 84 51 85
REMARK SMILES IDX 47 86 48 87 49 88 50 89
REMARK H PARENT 74 42 42 53
REMARK Flexibility Score: inf
ROOT
ATOM      1  C   UNL     1       2.559   7.783  -7.762  1.00  0.00     0.274 C 
ENDROOT
BRANCH   1   2
ATOM      2  O   UNL     1       1.631   6.911  -8.444  1.00  0.00    -0.461 OA
BRANCH   2   3
ATOM      3  C   UNL     1       1.797   5.571  -8.289  1.00  0.00     0.316 C 
ATOM      4  O   UNL     1       2.697   5.053  -7.629  1.00  0.00    -0.251 OA
BRANCH   3   5
ATOM      5  C   UNL     1       0.866   4.733  -9.140  1.00  0.00     0.200 C 
BRANCH   5   6
ATOM      6  S   UNL     1      -0.740   5.416  -9.487  1.00  0.00    -0.074 SA
BRANCH   6   7
ATOM      7  C   UNL     1      -1.923   4.819  -8.371  1.00  0.00     0.191 A 
ATOM      8  C   UNL     1      -3.013   4.890  -6.492  1.00  0.00     0.133 A 
ATOM      9  N   UNL     1      -3.893   4.980  -7.469  1.00  0.00    -0.134 NA
ATOM     10  N   UNL     1      -1.813   4.470  -7.049  1.00  0.00    -0.303 N 
ATOM     11  N   UNL     1      -3.204   4.933  -8.652  1.00  0.00    -0.123 NA
BRANCH   8  12
ATOM     12  C   UNL     1      -3.241   5.309  -5.072  1.00  0.00     0.077 C 
BRANCH  12  13
ATOM     13  C   UNL     1      -3.381   6.838  -4.954  1.00  0.00     0.005 C 
ATOM     14  C   UNL     1      -4.829   7.277  -4.801  1.00  0.00     0.004 C 
ENDBRANCH  12  13
ENDBRANCH   8  12
BRANCH  10  15
ATOM     15  C   UNL     1      -0.738   3.837  -6.335  1.00  0.00     0.158 C 
BRANCH  15  16
ATOM     16  C   UNL     1      -0.773   2.307  -6.189  1.00  0.00     0.138 C 
ATOM     17  C   UNL     1      -0.489   1.499  -7.444  1.00  0.00     0.036 C 
ATOM     18  O   UNL     1       0.293   1.919  -5.286  1.00  0.00    -0.376 OA
ATOM     19  C   UNL     1       1.008   1.260  -7.443  1.00  0.00     0.031 C 
ATOM     20  C   UNL     1       1.471   1.681  -6.065  1.00  0.00     0.160 C 
ENDBRANCH  15  16
ENDBRANCH  10  15
ENDBRANCH   6   7
ENDBRANCH   5   6
ENDBRANCH   3   5
ENDBRANCH   2   3
ENDBRANCH   1   2
BRANCH   1  21
ATOM     21  C   UNL     1       1.892   8.577  -6.636  1.00  0.00     0.275 C 
BRANCH  21  22
ATOM     22  O   UNL     1       2.051   7.989  -5.333  1.00  0.00    -0.458 OA
BRANCH  22  23
ATOM     23  C   UNL     1       1.198   6.970  -5.106  1.00  0.00     0.338 C 
ATOM     24  O   UNL     1       0.590   6.342  -5.952  1.00  0.00    -0.246 OA
BRANCH  23  25
ATOM     25  C   UNL     1       0.856   6.826  -3.683  1.00  0.00     0.060 A 
ATOM     26  C   UNL     1       0.314   5.599  -3.308  1.00  0.00     0.016 A 
ATOM     27  C   UNL     1       0.638   7.969  -2.915  1.00  0.00     0.016 A 
ATOM     28  C   UNL     1      -0.704   5.585  -2.374  1.00  0.00     0.010 A 
ATOM     29  C   UNL     1      -0.302   7.918  -1.894  1.00  0.00     0.010 A 
ATOM     30  C   UNL     1      -1.083   6.768  -1.725  1.00  0.00    -0.014 A 
BRANCH  30  31
ATOM     31  C   UNL     1      -2.278   6.733  -0.853  1.00  0.00     0.031 A 
ATOM     32  C   UNL     1      -2.363   5.564   0.077  1.00  0.00     0.074 A 
ATOM     33  C   UNL     1      -3.191   7.732  -0.808  1.00  0.00     0.049 A 
ATOM     34  N   UNL     1      -3.385   4.826   0.377  1.00  0.00    -0.248 NA
ATOM     35  C   UNL     1      -1.092   5.080   0.652  1.00  0.00     0.031 C 
ATOM     36  C   UNL     1      -3.160   8.983  -1.575  1.00  0.00     0.029 A 
ATOM     37  N   UNL     1      -4.255   7.921   0.039  1.00  0.00    -0.354 N 
ATOM     38  C   UNL     1      -2.922   3.927   1.336  1.00  0.00     0.074 A 
ATOM     39  C   UNL     1      -1.490   3.989   1.297  1.00  0.00     0.031 C 
ATOM     40  C   UNL     1      -3.946   9.893  -0.972  1.00  0.00     0.029 A 
ATOM     41  C   UNL     1      -4.607   9.265   0.159  1.00  0.00     0.049 A 
ATOM     42  H   UNL     1      -4.718   7.191   0.509  1.00  0.00     0.167 HD
ATOM     43  C   UNL     1      -3.730   3.410   2.299  1.00  0.00     0.034 A 
ATOM     44  C   UNL     1      -5.278   9.879   1.167  1.00  0.00     0.034 A 
ATOM     45  C   UNL     1      -5.097   3.304   1.853  1.00  0.00     0.049 A 
ATOM     46  C   UNL     1      -6.043   8.854   1.908  1.00  0.00     0.074 A 
ATOM     47  C   UNL     1      -5.721   2.667   0.796  1.00  0.00     0.029 A 
ATOM     48  N   UNL     1      -6.048   4.141   2.388  1.00  0.00    -0.354 N 
ATOM     49  N   UNL     1      -7.073   8.219   1.423  1.00  0.00    -0.248 NA
ATOM     50  C   UNL     1      -5.434   8.241   3.079  1.00  0.00     0.031 C 
ATOM     51  C   UNL     1      -6.853   3.469   0.477  1.00  0.00     0.029 A 
ATOM     52  C   UNL     1      -6.875   4.540   1.369  1.00  0.00     0.049 A 
ATOM     53  H   UNL     1      -6.121   4.406   3.334  1.00  0.00     0.167 HD
ATOM     54  C   UNL     1      -6.989   6.942   1.954  1.00  0.00     0.074 A 
ATOM     55  C   UNL     1      -6.046   7.054   3.059  1.00  0.00     0.031 C 
ATOM     56  C   UNL     1      -7.470   5.860   1.273  1.00  0.00     0.034 A 
BRANCH  43  57
ATOM     57  C   UNL     1      -3.317   3.378   3.764  1.00  0.00     0.023 A 
ATOM     58  C   UNL     1      -4.259   2.903   4.694  1.00  0.00     0.031 A 
ATOM     59  C   UNL     1      -2.196   4.044   4.326  1.00  0.00     0.131 A 
ATOM     60  C   UNL     1      -4.137   3.202   6.064  1.00  0.00     0.055 A 
ATOM     61  C   UNL     1      -2.045   4.273   5.695  1.00  0.00     0.041 A 
ATOM     62  F   UNL     1      -1.219   4.588   3.594  1.00  0.00    -0.206 F 
ATOM     63  C   UNL     1      -3.038   3.887   6.571  1.00  0.00     0.022 A 
BRANCH  60  64
ATOM     64  S   UNL     1      -5.550   2.863   7.143  1.00  0.00     0.124 S 
ATOM     65  O   UNL     1      -6.645   3.454   6.382  1.00  0.00    -0.237 OA
ATOM     66  O   UNL     1      -5.522   1.406   7.215  1.00  0.00    -0.237 OA
ATOM     67  O   UNL     1      -5.202   3.558   8.380  1.00  0.00    -0.744 OA
ENDBRANCH  60  64
ENDBRANCH  43  57
BRANCH  44  68
ATOM     68  C   UNL     1      -5.041  11.270   1.649  1.00  0.00     0.023 A 
ATOM     69  C   UNL     1      -6.003  12.015   2.357  1.00  0.00     0.031 A 
ATOM     70  C   UNL     1      -3.748  11.840   1.553  1.00  0.00     0.131 A 
ATOM     71  C   UNL     1      -5.667  13.284   2.888  1.00  0.00     0.055 A 
ATOM     72  C   UNL     1      -3.433  13.107   2.042  1.00  0.00     0.041 A 
ATOM     73  F   UNL     1      -2.717  11.149   1.040  1.00  0.00    -0.206 F 
ATOM     74  C   UNL     1      -4.395  13.838   2.714  1.00  0.00     0.022 A 
BRANCH  71  75
ATOM     75  S   UNL     1      -6.859  14.197   3.919  1.00  0.00     0.124 S 
ATOM     76  O   UNL     1      -7.879  14.582   2.952  1.00  0.00    -0.237 OA
ATOM     77  O   UNL     1      -7.243  13.197   4.909  1.00  0.00    -0.237 OA
ATOM     78  O   UNL     1      -6.067  15.307   4.452  1.00  0.00    -0.744 OA
ENDBRANCH  71  75
ENDBRANCH  44  68
BRANCH  56  79
ATOM     79  C   UNL     1      -8.477   6.082   0.167  1.00  0.00     0.023 A 
ATOM     80  C   UNL     1      -8.261   6.899  -0.962  1.00  0.00     0.031 A 
ATOM     81  C   UNL     1      -9.669   5.335   0.214  1.00  0.00     0.131 A 
ATOM     82  C   UNL     1      -9.227   6.955  -1.984  1.00  0.00     0.055 A 
ATOM     83  C   UNL     1     -10.614   5.377  -0.810  1.00  0.00     0.041 A 
ATOM     84  F   UNL     1      -9.920   4.516   1.250  1.00  0.00    -0.206 F 
ATOM     85  C   UNL     1     -10.398   6.194  -1.913  1.00  0.00     0.022 A 
BRANCH  82  86
ATOM     86  S   UNL     1      -8.984   8.036  -3.428  1.00  0.00     0.124 S 
ATOM     87  O   UNL     1      -8.477   9.275  -2.850  1.00  0.00    -0.237 OA
ATOM     88  O   UNL     1      -8.036   7.267  -4.228  1.00  0.00    -0.237 OA
ATOM     89  O   UNL     1     -10.326   8.135  -4.005  1.00  0.00    -0.744 OA
ENDBRANCH  82  86
ENDBRANCH  56  79
ENDBRANCH  30  31
ENDBRANCH  23  25
ENDBRANCH  22  23
ENDBRANCH  21  22
ENDBRANCH   1  21
TORSDOF 20
