REMARK SMILES O=C(OCCOC(=O)c1ccc(-c2c3nc(c(-c4cc(S(=O)(=O)[O-])ccc4F)c4ccc([nH]4)c(-c4cc(S(=O)(=O)[O-])ccc4F)c4nc(c(-c5cc(S(=O)(=O)[O-])ccc5F)c5ccc2[nH]5)C=C4)C=C3)cc1)C1=C[C@H]2C(=N1)C=CC(Cl)=C2Cl
REMARK SMILES IDX 6 1 5 2 4 3 3 4 2 5 1 6 72 7 73 8 76 9 74 10 75 11 81 12
REMARK SMILES IDX 77 13 79 14 82 15 78 16 80 17 7 18 8 19 9 20 10 21 71 22
REMARK SMILES IDX 11 23 70 24 12 25 13 26 14 27 64 28 15 29 69 30 63 31 65 32
REMARK SMILES IDX 16 33 68 34 62 35 61 36 17 38 49 39 29 40 48 41 30 42 33 43
REMARK SMILES IDX 47 44 66 45 31 46 32 47 46 49 67 50 34 51 18 52 19 53 27 54
REMARK SMILES IDX 20 55 26 56 28 57 25 58 21 59 22 60 23 61 24 62 50 63 51 64
REMARK SMILES IDX 59 65 52 66 58 67 60 68 57 69 53 70 54 71 55 72 56 73 35 74
REMARK SMILES IDX 36 75 44 76 37 77 43 78 45 79 42 80 38 81 39 82 40 83 41 84
REMARK H PARENT 65 37 33 48
REMARK Flexibility Score: inf
ROOT
ATOM      1  O   UNL     1       4.079   0.766   2.187  1.00  0.00    -0.458 OA
ENDROOT
BRANCH   1   2
ATOM      2  C   UNL     1       4.714   1.487   1.120  1.00  0.00     0.275 C 
BRANCH   2   3
ATOM      3  C   UNL     1       4.806   0.626  -0.141  1.00  0.00     0.275 C 
BRANCH   3   4
ATOM      4  O   UNL     1       3.492   0.344  -0.655  1.00  0.00    -0.457 OA
BRANCH   4   5
ATOM      5  C   UNL     1       2.805  -0.808  -0.486  1.00  0.00     0.356 C 
ATOM      6  O   UNL     1       1.667  -0.917  -0.940  1.00  0.00    -0.244 OA
BRANCH   5   7
ATOM      7  C   UNL     1       3.452  -1.979   0.165  1.00  0.00     0.145 C 
ATOM      8  C   UNL     1       3.188  -3.198  -0.322  1.00  0.00     0.024 C 
ATOM      9  N   UNL     1       4.123  -2.002   1.371  1.00  0.00    -0.245 NA
ATOM     10  C   UNL     1       3.765  -4.224   0.575  1.00  0.00     0.107 C 
ATOM     11  C   UNL     1       4.169  -3.264   1.681  1.00  0.00     0.054 C 
ATOM     12  C   UNL     1       2.902  -5.303   1.132  1.00  0.00     0.050 C 
ATOM     13  C   UNL     1       4.547  -3.830   2.994  1.00  0.00     0.026 C 
ATOM     14  C   UNL     1       3.171  -5.772   2.364  1.00  0.00     0.056 C 
ATOM     15  Cl  UNL     1       1.757  -6.022   0.057  1.00  0.00    -0.086 Cl
ATOM     16  C   UNL     1       4.048  -5.046   3.274  1.00  0.00     0.023 C 
ATOM     17  Cl  UNL     1       2.606  -7.307   2.903  1.00  0.00    -0.083 Cl
ENDBRANCH   5   7
ENDBRANCH   4   5
ENDBRANCH   3   4
ENDBRANCH   2   3
ENDBRANCH   1   2
BRANCH   1  18
ATOM     18  C   UNL     1       2.732   0.920   2.290  1.00  0.00     0.338 C 
ATOM     19  O   UNL     1       2.058   1.748   1.697  1.00  0.00    -0.246 OA
BRANCH  18  20
ATOM     20  C   UNL     1       2.160  -0.164   3.130  1.00  0.00     0.060 A 
ATOM     21  C   UNL     1       0.837  -0.569   2.903  1.00  0.00     0.016 A 
ATOM     22  C   UNL     1       2.916  -0.807   4.115  1.00  0.00     0.016 A 
ATOM     23  C   UNL     1       0.260  -1.581   3.683  1.00  0.00     0.010 A 
ATOM     24  C   UNL     1       2.350  -1.840   4.867  1.00  0.00     0.010 A 
ATOM     25  C   UNL     1       1.005  -2.212   4.687  1.00  0.00    -0.014 A 
BRANCH  25  26
ATOM     26  C   UNL     1       0.371  -3.138   5.667  1.00  0.00     0.031 A 
ATOM     27  C   UNL     1       0.166  -2.659   7.081  1.00  0.00     0.074 A 
ATOM     28  C   UNL     1       0.005  -4.393   5.341  1.00  0.00     0.049 A 
ATOM     29  N   UNL     1      -0.363  -3.286   8.100  1.00  0.00    -0.248 NA
ATOM     30  C   UNL     1       0.613  -1.290   7.384  1.00  0.00     0.031 C 
ATOM     31  C   UNL     1       0.079  -4.983   4.008  1.00  0.00     0.029 A 
ATOM     32  N   UNL     1      -0.476  -5.415   6.128  1.00  0.00    -0.354 N 
ATOM     33  C   UNL     1      -0.372  -2.367   9.143  1.00  0.00     0.074 A 
ATOM     34  C   UNL     1       0.329  -1.192   8.672  1.00  0.00     0.031 C 
ATOM     35  C   UNL     1      -0.280  -6.279   4.082  1.00  0.00     0.029 A 
ATOM     36  C   UNL     1      -0.589  -6.616   5.466  1.00  0.00     0.049 A 
ATOM     37  H   UNL     1      -0.716  -5.297   7.075  1.00  0.00     0.167 HD
ATOM     38  C   UNL     1      -0.969  -2.463  10.356  1.00  0.00     0.034 A 
ATOM     39  C   UNL     1      -0.899  -7.848   5.922  1.00  0.00     0.034 A 
ATOM     40  C   UNL     1      -1.633  -3.650  10.832  1.00  0.00     0.049 A 
ATOM     41  C   UNL     1      -1.383  -8.000   7.339  1.00  0.00     0.074 A 
ATOM     42  C   UNL     1      -2.310  -3.844  12.024  1.00  0.00     0.029 A 
ATOM     43  N   UNL     1      -1.681  -4.860  10.149  1.00  0.00    -0.354 N 
ATOM     44  N   UNL     1      -1.491  -7.090   8.278  1.00  0.00    -0.248 NA
ATOM     45  C   UNL     1      -1.873  -9.329   7.727  1.00  0.00     0.031 C 
ATOM     46  C   UNL     1      -2.691  -5.189  12.098  1.00  0.00     0.029 A 
ATOM     47  C   UNL     1      -2.334  -5.814  10.915  1.00  0.00     0.049 A 
ATOM     48  H   UNL     1      -1.306  -5.016   9.253  1.00  0.00     0.167 HD
ATOM     49  C   UNL     1      -2.159  -7.712   9.330  1.00  0.00     0.074 A 
ATOM     50  C   UNL     1      -2.393  -9.081   8.919  1.00  0.00     0.031 C 
ATOM     51  C   UNL     1      -2.578  -7.179  10.506  1.00  0.00     0.034 A 
BRANCH  38  52
ATOM     52  C   UNL     1      -0.913  -1.239  11.238  1.00  0.00     0.023 A 
ATOM     53  C   UNL     1      -1.486  -0.020  10.826  1.00  0.00     0.031 A 
ATOM     54  C   UNL     1      -0.234  -1.264  12.466  1.00  0.00     0.131 A 
ATOM     55  C   UNL     1      -1.285   1.141  11.585  1.00  0.00     0.055 A 
ATOM     56  C   UNL     1      -0.115  -0.123  13.262  1.00  0.00     0.041 A 
ATOM     57  F   UNL     1       0.352  -2.391  12.901  1.00  0.00    -0.206 F 
ATOM     58  C   UNL     1      -0.625   1.093  12.814  1.00  0.00     0.022 A 
BRANCH  55  59
ATOM     59  S   UNL     1      -1.743   2.739  10.858  1.00  0.00     0.124 S 
ATOM     60  O   UNL     1      -0.927   2.754   9.646  1.00  0.00    -0.237 OA
ATOM     61  O   UNL     1      -3.180   2.595  10.660  1.00  0.00    -0.237 OA
ATOM     62  O   UNL     1      -1.345   3.706  11.879  1.00  0.00    -0.744 OA
ENDBRANCH  55  59
ENDBRANCH  38  52
BRANCH  39  63
ATOM     63  C   UNL     1      -0.802  -9.042   5.035  1.00  0.00     0.023 A 
ATOM     64  C   UNL     1      -1.947  -9.718   4.588  1.00  0.00     0.031 A 
ATOM     65  C   UNL     1       0.453  -9.582   4.703  1.00  0.00     0.131 A 
ATOM     66  C   UNL     1      -1.816 -10.915   3.866  1.00  0.00     0.055 A 
ATOM     67  C   UNL     1       0.579 -10.737   3.926  1.00  0.00     0.041 A 
ATOM     68  F   UNL     1       1.577  -9.012   5.164  1.00  0.00    -0.206 F 
ATOM     69  C   UNL     1      -0.562 -11.419   3.514  1.00  0.00     0.022 A 
BRANCH  66  70
ATOM     70  S   UNL     1      -3.314 -11.866   3.486  1.00  0.00     0.124 S 
ATOM     71  O   UNL     1      -3.866 -12.093   4.817  1.00  0.00    -0.237 OA
ATOM     72  O   UNL     1      -4.052 -10.939   2.635  1.00  0.00    -0.237 OA
ATOM     73  O   UNL     1      -2.801 -13.056   2.812  1.00  0.00    -0.744 OA
ENDBRANCH  66  70
ENDBRANCH  39  63
BRANCH  51  74
ATOM     74  C   UNL     1      -3.428  -8.055  11.396  1.00  0.00     0.023 A 
ATOM     75  C   UNL     1      -2.942  -9.243  11.968  1.00  0.00     0.031 A 
ATOM     76  C   UNL     1      -4.769  -7.705  11.646  1.00  0.00     0.131 A 
ATOM     77  C   UNL     1      -3.808 -10.074  12.695  1.00  0.00     0.055 A 
ATOM     78  C   UNL     1      -5.603  -8.496  12.435  1.00  0.00     0.041 A 
ATOM     79  F   UNL     1      -5.293  -6.585  11.121  1.00  0.00    -0.206 F 
ATOM     80  C   UNL     1      -5.130  -9.698  12.950  1.00  0.00     0.022 A 
BRANCH  77  81
ATOM     81  S   UNL     1      -3.219 -11.715  13.195  1.00  0.00     0.124 S 
ATOM     82  O   UNL     1      -2.832 -12.301  11.916  1.00  0.00    -0.237 OA
ATOM     83  O   UNL     1      -2.124 -11.389  14.103  1.00  0.00    -0.237 OA
ATOM     84  O   UNL     1      -4.389 -12.322  13.828  1.00  0.00    -0.744 OA
ENDBRANCH  77  81
ENDBRANCH  51  74
ENDBRANCH  25  26
ENDBRANCH  18  20
ENDBRANCH   1  18
TORSDOF 14
