REMARK SMILES NC(=O)CC[N@@H+]1[C@@H](C(=O)OCCOC(=O)c2ccc(-c3c4nc(c(-c5cc(S(=O)(=O)[O-])ccc5F)c5ccc([nH]5)c(-c5cc(S(=O)(=O)[O-])ccc5F)c5nc(c(-c6cc(S(=O)(=O)[O-])ccc6F)c6ccc3[nH]6)C=C5)C=C4)cc2)CC[C@@H]2CCCC[C@H]21
REMARK SMILES IDX 11 1 10 2 8 3 9 4 7 5 6 6 86 7 79 9 81 10 85 11 80 12 82 13
REMARK SMILES IDX 84 14 83 15 5 16 4 17 2 18 1 19 3 22 12 23 13 24 14 25 15 26
REMARK SMILES IDX 16 27 17 28 78 29 18 30 77 31 19 32 20 33 21 34 71 35 22 36
REMARK SMILES IDX 76 37 70 38 72 39 23 40 75 41 69 42 68 43 24 45 56 46 36 47
REMARK SMILES IDX 55 48 37 49 40 50 54 51 73 52 38 53 39 54 53 56 74 57 41 58
REMARK SMILES IDX 25 59 26 60 34 61 27 62 33 63 35 64 32 65 28 66 29 67 30 68
REMARK SMILES IDX 31 69 57 70 58 71 66 72 59 73 65 74 67 75 64 76 60 77 61 78
REMARK SMILES IDX 62 79 63 80 42 81 43 82 51 83 44 84 50 85 52 86 49 87 45 88
REMARK SMILES IDX 46 89 47 90 48 91
REMARK H PARENT 6 8 1 20 1 21 72 44 40 55
REMARK Flexibility Score: inf
ROOT
ATOM      1  C   UNL     1       2.131  -0.558  -3.158  1.00  0.00     0.274 C 
ENDROOT
BRANCH   1   2
ATOM      2  O   UNL     1       2.834  -0.196  -1.950  1.00  0.00    -0.458 OA
BRANCH   2   3
ATOM      3  C   UNL     1       2.078   0.410  -0.994  1.00  0.00     0.365 C 
ATOM      4  O   UNL     1       0.882   0.638  -1.144  1.00  0.00    -0.245 OA
BRANCH   3   5
ATOM      5  C   UNL     1       2.814   0.705   0.326  1.00  0.00     0.295 C 
ATOM      6  N   UNL     1       3.322   2.106   0.529  1.00  0.00    -0.320 N 
ATOM      7  C   UNL     1       3.949   2.204   1.908  1.00  0.00     0.187 C 
ATOM      8  H   UNL     1       3.964   2.230  -0.254  1.00  0.00     0.349 HD
ATOM      9  C   UNL     1       3.956  -0.317   0.494  1.00  0.00     0.078 C 
ATOM     10  C   UNL     1       5.024   1.125   2.202  1.00  0.00     0.048 C 
ATOM     11  C   UNL     1       4.591   3.587   2.211  1.00  0.00     0.065 C 
ATOM     12  C   UNL     1       4.514  -0.277   1.901  1.00  0.00     0.016 C 
ATOM     13  C   UNL     1       5.478   1.200   3.671  1.00  0.00     0.010 C 
ATOM     14  C   UNL     1       5.064   3.683   3.661  1.00  0.00     0.006 C 
ATOM     15  C   UNL     1       6.037   2.572   4.024  1.00  0.00     0.001 C 
BRANCH   6  16
ATOM     16  C   UNL     1       2.347   3.236   0.421  1.00  0.00     0.273 C 
BRANCH  16  17
ATOM     17  C   UNL     1       1.200   3.358  -0.581  1.00  0.00     0.161 C 
BRANCH  17  18
ATOM     18  C   UNL     1      -0.196   3.080  -0.042  1.00  0.00     0.223 C 
ATOM     19  N   UNL     1      -0.328   2.310   1.071  1.00  0.00    -0.369 N 
ATOM     20  H   UNL     1      -1.223   2.119   1.435  1.00  0.00     0.159 HD
ATOM     21  H   UNL     1       0.472   1.944   1.514  1.00  0.00     0.159 HD
ATOM     22  O   UNL     1      -1.198   3.541  -0.586  1.00  0.00    -0.275 OA
ENDBRANCH  17  18
ENDBRANCH  16  17
ENDBRANCH   6  16
ENDBRANCH   3   5
ENDBRANCH   2   3
ENDBRANCH   1   2
BRANCH   1  23
ATOM     23  C   UNL     1       1.438  -1.932  -3.098  1.00  0.00     0.275 C 
BRANCH  23  24
ATOM     24  O   UNL     1       0.260  -1.954  -2.266  1.00  0.00    -0.458 OA
BRANCH  24  25
ATOM     25  C   UNL     1       0.478  -2.329  -0.982  1.00  0.00     0.338 C 
ATOM     26  O   UNL     1       1.551  -2.656  -0.500  1.00  0.00    -0.246 OA
BRANCH  25  27
ATOM     27  C   UNL     1      -0.731  -2.158  -0.152  1.00  0.00     0.060 A 
ATOM     28  C   UNL     1      -0.611  -1.357   0.988  1.00  0.00     0.016 A 
ATOM     29  C   UNL     1      -1.915  -2.857  -0.393  1.00  0.00     0.016 A 
ATOM     30  C   UNL     1      -1.658  -1.260   1.899  1.00  0.00     0.010 A 
ATOM     31  C   UNL     1      -2.970  -2.764   0.529  1.00  0.00     0.010 A 
ATOM     32  C   UNL     1      -2.842  -1.978   1.690  1.00  0.00    -0.014 A 
BRANCH  32  33
ATOM     33  C   UNL     1      -3.883  -1.964   2.751  1.00  0.00     0.031 A 
ATOM     34  C   UNL     1      -4.020  -3.143   3.674  1.00  0.00     0.074 A 
ATOM     35  C   UNL     1      -4.626  -0.861   2.959  1.00  0.00     0.049 A 
ATOM     36  N   UNL     1      -4.872  -3.344   4.647  1.00  0.00    -0.248 NA
ATOM     37  C   UNL     1      -3.059  -4.237   3.478  1.00  0.00     0.031 C 
ATOM     38  C   UNL     1      -4.519   0.382   2.194  1.00  0.00     0.029 A 
ATOM     39  N   UNL     1      -5.601  -0.599   3.889  1.00  0.00    -0.354 N 
ATOM     40  C   UNL     1      -4.559  -4.591   5.177  1.00  0.00     0.074 A 
ATOM     41  C   UNL     1      -3.451  -5.107   4.397  1.00  0.00     0.031 C 
ATOM     42  C   UNL     1      -5.378   1.282   2.702  1.00  0.00     0.029 A 
ATOM     43  C   UNL     1      -6.139   0.663   3.785  1.00  0.00     0.049 A 
ATOM     44  H   UNL     1      -5.888  -1.253   4.567  1.00  0.00     0.167 HD
ATOM     45  C   UNL     1      -5.138  -5.244   6.217  1.00  0.00     0.034 A 
ATOM     46  C   UNL     1      -7.152   1.240   4.463  1.00  0.00     0.034 A 
ATOM     47  C   UNL     1      -6.253  -4.727   6.974  1.00  0.00     0.049 A 
ATOM     48  C   UNL     1      -7.867   0.445   5.528  1.00  0.00     0.074 A 
ATOM     49  C   UNL     1      -6.951  -5.326   8.009  1.00  0.00     0.029 A 
ATOM     50  N   UNL     1      -6.842  -3.484   6.772  1.00  0.00    -0.354 N 
ATOM     51  N   UNL     1      -7.609  -0.763   5.972  1.00  0.00    -0.248 NA
ATOM     52  C   UNL     1      -9.021   1.088   6.171  1.00  0.00     0.031 C 
ATOM     53  C   UNL     1      -7.994  -4.473   8.392  1.00  0.00     0.029 A 
ATOM     54  C   UNL     1      -7.910  -3.312   7.641  1.00  0.00     0.049 A 
ATOM     55  H   UNL     1      -6.545  -2.822   6.107  1.00  0.00     0.167 HD
ATOM     56  C   UNL     1      -8.559  -1.017   6.957  1.00  0.00     0.074 A 
ATOM     57  C   UNL     1      -9.384   0.170   7.055  1.00  0.00     0.031 C 
ATOM     58  C   UNL     1      -8.736  -2.130   7.714  1.00  0.00     0.034 A 
BRANCH  45  59
ATOM     59  C   UNL     1      -4.612  -6.623   6.532  1.00  0.00     0.023 A 
ATOM     60  C   UNL     1      -3.300  -6.828   6.997  1.00  0.00     0.031 A 
ATOM     61  C   UNL     1      -5.411  -7.756   6.295  1.00  0.00     0.131 A 
ATOM     62  C   UNL     1      -2.802  -8.133   7.131  1.00  0.00     0.055 A 
ATOM     63  C   UNL     1      -4.934  -9.051   6.505  1.00  0.00     0.041 A 
ATOM     64  F   UNL     1      -6.663  -7.623   5.828  1.00  0.00    -0.206 F 
ATOM     65  C   UNL     1      -3.616  -9.246   6.908  1.00  0.00     0.022 A 
BRANCH  62  66
ATOM     66  S   UNL     1      -1.027  -8.357   7.436  1.00  0.00     0.124 S 
ATOM     67  O   UNL     1      -0.439  -7.625   6.316  1.00  0.00    -0.237 OA
ATOM     68  O   UNL     1      -0.856  -7.756   8.753  1.00  0.00    -0.237 OA
ATOM     69  O   UNL     1      -0.850  -9.807   7.382  1.00  0.00    -0.744 OA
ENDBRANCH  62  66
ENDBRANCH  45  59
BRANCH  46  70
ATOM     70  C   UNL     1      -7.606   2.619   4.118  1.00  0.00     0.023 A 
ATOM     71  C   UNL     1      -7.535   3.664   5.053  1.00  0.00     0.031 A 
ATOM     72  C   UNL     1      -8.174   2.896   2.861  1.00  0.00     0.131 A 
ATOM     73  C   UNL     1      -8.055   4.928   4.729  1.00  0.00     0.055 A 
ATOM     74  C   UNL     1      -8.640   4.167   2.525  1.00  0.00     0.041 A 
ATOM     75  F   UNL     1      -8.278   1.929   1.935  1.00  0.00    -0.206 F 
ATOM     76  C   UNL     1      -8.593   5.190   3.466  1.00  0.00     0.022 A 
BRANCH  73  77
ATOM     77  S   UNL     1      -8.095   6.208   6.013  1.00  0.00     0.124 S 
ATOM     78  O   UNL     1      -8.907   5.571   7.044  1.00  0.00    -0.237 OA
ATOM     79  O   UNL     1      -6.679   6.373   6.323  1.00  0.00    -0.237 OA
ATOM     80  O   UNL     1      -8.720   7.346   5.341  1.00  0.00    -0.744 OA
ENDBRANCH  73  77
ENDBRANCH  46  70
BRANCH  58  81
ATOM     81  C   UNL     1      -9.848  -2.091   8.733  1.00  0.00     0.023 A 
ATOM     82  C   UNL     1     -11.201  -2.089   8.350  1.00  0.00     0.031 A 
ATOM     83  C   UNL     1      -9.547  -2.032  10.105  1.00  0.00     0.131 A 
ATOM     84  C   UNL     1     -12.203  -1.979   9.327  1.00  0.00     0.055 A 
ATOM     85  C   UNL     1     -10.549  -1.972  11.075  1.00  0.00     0.041 A 
ATOM     86  F   UNL     1      -8.271  -2.030  10.525  1.00  0.00    -0.206 F 
ATOM     87  C   UNL     1     -11.885  -1.933  10.687  1.00  0.00     0.022 A 
BRANCH  84  88
ATOM     88  S   UNL     1     -13.930  -1.819   8.794  1.00  0.00     0.124 S 
ATOM     89  O   UNL     1     -13.890  -0.601   7.991  1.00  0.00    -0.237 OA
ATOM     90  O   UNL     1     -14.146  -3.061   8.058  1.00  0.00    -0.237 OA
ATOM     91  O   UNL     1     -14.669  -1.709  10.050  1.00  0.00    -0.744 OA
ENDBRANCH  84  88
ENDBRANCH  58  81
ENDBRANCH  32  33
ENDBRANCH  25  27
ENDBRANCH  24  25
ENDBRANCH  23  24
ENDBRANCH   1  23
TORSDOF 17
