REMARK SMILES CC(=O)[NH+]1CCC2(CC1)C[C@H](C(=O)OCCOC(=O)c1ccc(-c3c4nc(c(-c5cc(S(=O)(=O)[O-])ccc5F)c5ccc([nH]5)c(-c5cc(S(=O)(=O)[O-])ccc5F)c5nc(c(-c6cc(S(=O)(=O)[O-])ccc6F)c6ccc3[nH]6)C=C5)C=C4)cc1)[N@H+](Cc1ncc[nH]1)C2
REMARK SMILES IDX 16 1 15 2 14 3 12 4 13 5 11 6 4 7 5 8 9 9 6 11 8 12 7 13
REMARK SMILES IDX 10 14 90 15 83 16 2 18 1 19 3 20 84 21 85 22 86 23 89 24
REMARK SMILES IDX 87 25 88 26 17 28 18 29 19 30 20 31 21 32 82 33 22 34 81 35
REMARK SMILES IDX 23 36 24 37 25 38 75 39 26 40 80 41 74 42 76 43 27 44 79 45
REMARK SMILES IDX 73 46 72 47 28 49 60 50 40 51 59 52 41 53 44 54 58 55 77 56
REMARK SMILES IDX 42 57 43 58 57 60 78 61 45 62 29 63 30 64 38 65 31 66 37 67
REMARK SMILES IDX 39 68 36 69 32 70 33 71 34 72 35 73 61 74 62 75 70 76 63 77
REMARK SMILES IDX 69 78 71 79 68 80 64 81 65 82 66 83 67 84 46 85 47 86 55 87
REMARK SMILES IDX 48 88 54 89 56 90 53 91 49 92 50 93 51 94 52 95
REMARK H PARENT 4 10 83 17 89 27 76 48 44 59
REMARK Flexibility Score: inf
ROOT
ATOM      1  C   UNL     1       0.865  -3.092  10.298  1.00  0.00     0.275 C 
ENDROOT
BRANCH   1   2
ATOM      2  C   UNL     1      -0.246  -2.727   9.300  1.00  0.00     0.274 C 
BRANCH   2   3
ATOM      3  O   UNL     1       0.261  -2.139   8.088  1.00  0.00    -0.458 OA
BRANCH   3   4
ATOM      4  C   UNL     1       0.341  -0.776   8.121  1.00  0.00     0.365 C 
ATOM      5  O   UNL     1       0.020  -0.110   9.103  1.00  0.00    -0.245 OA
BRANCH   4   6
ATOM      6  C   UNL     1       1.075  -0.211   6.892  1.00  0.00     0.296 C 
ATOM      7  N   UNL     1       1.173   1.202   1.698  1.00  0.00    -0.272 N 
ATOM      8  C   UNL     1       0.112   1.674   2.563  1.00  0.00     0.270 C 
ATOM      9  C   UNL     1       2.451   0.979   2.377  1.00  0.00     0.270 C 
ATOM     10  H   UNL     1       1.480   0.437   1.159  1.00  0.00     0.356 HD
ATOM     11  C   UNL     1      -0.133   0.602   3.621  1.00  0.00     0.075 C 
ATOM     12  C   UNL     1       2.287  -0.028   3.525  1.00  0.00     0.075 C 
ATOM     13  C   UNL     1       1.119   0.329   4.489  1.00  0.00     0.036 C 
ATOM     14  C   UNL     1       0.854  -0.819   5.506  1.00  0.00     0.091 C 
ATOM     15  C   UNL     1       1.472   1.535   5.385  1.00  0.00     0.270 C 
ATOM     16  N   UNL     1       0.942   1.257   6.716  1.00  0.00    -0.316 N 
ATOM     17  H   UNL     1       1.482   1.732   7.439  1.00  0.00     0.349 HD
BRANCH   7  18
ATOM     18  C   UNL     1       0.841   0.832   0.406  1.00  0.00     0.308 C 
ATOM     19  C   UNL     1       1.827  -0.017  -0.345  1.00  0.00     0.164 C 
ATOM     20  O   UNL     1      -0.240   1.116  -0.115  1.00  0.00    -0.231 OA
ENDBRANCH   7  18
BRANCH  16  21
ATOM     21  C   UNL     1      -0.349   1.886   7.050  1.00  0.00     0.339 C 
BRANCH  21  22
ATOM     22  C   UNL     1      -1.613   1.241   6.549  1.00  0.00     0.161 A 
ATOM     23  N   UNL     1      -1.955  -0.035   6.586  1.00  0.00    -0.236 NA
ATOM     24  N   UNL     1      -2.614   1.974   5.948  1.00  0.00    -0.344 N 
ATOM     25  C   UNL     1      -3.149  -0.136   5.926  1.00  0.00     0.131 A 
ATOM     26  C   UNL     1      -3.570   1.100   5.504  1.00  0.00     0.104 A 
ATOM     27  H   UNL     1      -2.637   2.953   5.854  1.00  0.00     0.167 HD
ENDBRANCH  21  22
ENDBRANCH  16  21
ENDBRANCH   4   6
ENDBRANCH   3   4
ENDBRANCH   2   3
ENDBRANCH   1   2
BRANCH   1  28
ATOM     28  O   UNL     1       1.571  -1.949  10.824  1.00  0.00    -0.458 OA
BRANCH  28  29
ATOM     29  C   UNL     1       2.639  -1.556  10.085  1.00  0.00     0.338 C 
ATOM     30  O   UNL     1       3.052  -2.094   9.070  1.00  0.00    -0.246 OA
BRANCH  29  31
ATOM     31  C   UNL     1       3.205  -0.289  10.592  1.00  0.00     0.060 A 
ATOM     32  C   UNL     1       3.396   0.747   9.672  1.00  0.00     0.016 A 
ATOM     33  C   UNL     1       3.663  -0.151  11.903  1.00  0.00     0.016 A 
ATOM     34  C   UNL     1       4.071   1.905  10.038  1.00  0.00     0.010 A 
ATOM     35  C   UNL     1       4.343   1.018  12.274  1.00  0.00     0.010 A 
ATOM     36  C   UNL     1       4.574   2.040  11.334  1.00  0.00    -0.014 A 
BRANCH  36  37
ATOM     37  C   UNL     1       5.433   3.209  11.643  1.00  0.00     0.031 A 
ATOM     38  C   UNL     1       6.923   3.027  11.724  1.00  0.00     0.074 A 
ATOM     39  C   UNL     1       4.890   4.435  11.761  1.00  0.00     0.049 A 
ATOM     40  N   UNL     1       7.853   3.902  12.007  1.00  0.00    -0.248 NA
ATOM     41  C   UNL     1       7.431   1.675  11.447  1.00  0.00     0.031 C 
ATOM     42  C   UNL     1       3.466   4.742  11.624  1.00  0.00     0.029 A 
ATOM     43  N   UNL     1       5.472   5.651  12.013  1.00  0.00    -0.354 N 
ATOM     44  C   UNL     1       9.056   3.206  11.959  1.00  0.00     0.074 A 
ATOM     45  C   UNL     1       8.732   1.830  11.644  1.00  0.00     0.031 C 
ATOM     46  C   UNL     1       3.286   6.062  11.790  1.00  0.00     0.029 A 
ATOM     47  C   UNL     1       4.571   6.686  12.093  1.00  0.00     0.049 A 
ATOM     48  H   UNL     1       6.443   5.771  12.125  1.00  0.00     0.167 HD
ATOM     49  C   UNL     1      10.314   3.674  12.158  1.00  0.00     0.034 A 
ATOM     50  C   UNL     1       4.759   7.984  12.405  1.00  0.00     0.034 A 
ATOM     51  C   UNL     1      10.617   5.051  12.469  1.00  0.00     0.049 A 
ATOM     52  C   UNL     1       6.158   8.466  12.699  1.00  0.00     0.074 A 
ATOM     53  C   UNL     1      11.851   5.633  12.700  1.00  0.00     0.029 A 
ATOM     54  N   UNL     1       9.673   6.062  12.599  1.00  0.00    -0.354 N 
ATOM     55  N   UNL     1       7.285   7.791  12.685  1.00  0.00    -0.248 NA
ATOM     56  C   UNL     1       6.309   9.884  13.047  1.00  0.00     0.031 C 
ATOM     57  C   UNL     1      11.649   6.979  13.029  1.00  0.00     0.029 A 
ATOM     58  C   UNL     1      10.294   7.257  12.933  1.00  0.00     0.049 A 
ATOM     59  H   UNL     1       8.703   5.948  12.473  1.00  0.00     0.167 HD
ATOM     60  C   UNL     1       8.281   8.711  12.999  1.00  0.00     0.074 A 
ATOM     61  C   UNL     1       7.623   9.989  13.180  1.00  0.00     0.031 C 
ATOM     62  C   UNL     1       9.620   8.520  13.123  1.00  0.00     0.034 A 
BRANCH  49  63
ATOM     63  C   UNL     1      11.439   2.669  12.110  1.00  0.00     0.023 A 
ATOM     64  C   UNL     1      11.778   1.984  10.929  1.00  0.00     0.031 A 
ATOM     65  C   UNL     1      12.154   2.357  13.280  1.00  0.00     0.131 A 
ATOM     66  C   UNL     1      12.752   0.974  10.961  1.00  0.00     0.055 A 
ATOM     67  C   UNL     1      13.175   1.405  13.289  1.00  0.00     0.041 A 
ATOM     68  F   UNL     1      11.860   2.961  14.442  1.00  0.00    -0.206 F 
ATOM     69  C   UNL     1      13.469   0.696  12.128  1.00  0.00     0.022 A 
BRANCH  66  70
ATOM     70  S   UNL     1      12.973  -0.069   9.493  1.00  0.00     0.124 S 
ATOM     71  O   UNL     1      11.635  -0.633   9.328  1.00  0.00    -0.237 OA
ATOM     72  O   UNL     1      13.390   0.894   8.481  1.00  0.00    -0.237 OA
ATOM     73  O   UNL     1      13.998  -1.027   9.904  1.00  0.00    -0.744 OA
ENDBRANCH  66  70
ENDBRANCH  49  63
BRANCH  50  74
ATOM     74  C   UNL     1       3.597   8.912  12.509  1.00  0.00     0.023 A 
ATOM     75  C   UNL     1       3.460  10.011  11.647  1.00  0.00     0.031 A 
ATOM     76  C   UNL     1       2.627   8.735  13.513  1.00  0.00     0.131 A 
ATOM     77  C   UNL     1       2.401  10.915  11.831  1.00  0.00     0.055 A 
ATOM     78  C   UNL     1       1.548   9.608  13.660  1.00  0.00     0.041 A 
ATOM     79  F   UNL     1       2.711   7.700  14.364  1.00  0.00    -0.206 F 
ATOM     80  C   UNL     1       1.438  10.714  12.823  1.00  0.00     0.022 A 
BRANCH  77  81
ATOM     81  S   UNL     1       2.341  12.406  10.799  1.00  0.00     0.124 S 
ATOM     82  O   UNL     1       3.623  13.031  11.104  1.00  0.00    -0.237 OA
ATOM     83  O   UNL     1       2.204  11.842   9.460  1.00  0.00    -0.237 OA
ATOM     84  O   UNL     1       1.165  13.117  11.296  1.00  0.00    -0.744 OA
ENDBRANCH  77  81
ENDBRANCH  50  74
BRANCH  62  85
ATOM     85  C   UNL     1      10.456   9.739  13.425  1.00  0.00     0.023 A 
ATOM     86  C   UNL     1      10.371  10.408  14.659  1.00  0.00     0.031 A 
ATOM     87  C   UNL     1      11.334  10.251  12.453  1.00  0.00     0.131 A 
ATOM     88  C   UNL     1      11.107  11.584  14.868  1.00  0.00     0.055 A 
ATOM     89  C   UNL     1      12.106  11.390  12.687  1.00  0.00     0.041 A 
ATOM     90  F   UNL     1      11.453   9.653  11.257  1.00  0.00    -0.206 F 
ATOM     91  C   UNL     1      11.984  12.071  13.895  1.00  0.00     0.022 A 
BRANCH  88  92
ATOM     92  S   UNL     1      10.830  12.527  16.393  1.00  0.00     0.124 S 
ATOM     93  O   UNL     1       9.397  12.796  16.328  1.00  0.00    -0.237 OA
ATOM     94  O   UNL     1      11.256  11.585  17.423  1.00  0.00    -0.237 OA
ATOM     95  O   UNL     1      11.689  13.699  16.233  1.00  0.00    -0.744 OA
ENDBRANCH  88  92
ENDBRANCH  62  85
ENDBRANCH  36  37
ENDBRANCH  29  31
ENDBRANCH  28  29
ENDBRANCH   1  28
TORSDOF 17
