REMARK SMILES COc1cccc(Cn2c(=O)c(=O)n(CC(=O)OCCOC(=O)c3ccc(-c4c5nc(c(-c6cc(S(=O)(=O)[O-])ccc6F)c6ccc([nH]6)c(-c6cc(S(=O)(=O)[O-])ccc6F)c6nc(c(-c7cc(S(=O)(=O)[O-])ccc7F)c7ccc4[nH]7)C=C6)C=C5)cc3)c3ccccc32)c1
REMARK SMILES IDX 19 1 18 2 16 3 17 4 15 5 14 6 9 7 10 8 92 9 11 10 12 11
REMARK SMILES IDX 87 12 91 13 13 14 88 15 90 16 89 17 8 18 7 19 3 20 4 21
REMARK SMILES IDX 93 22 5 23 6 24 2 25 1 26 20 27 21 28 22 29 23 30 24 31
REMARK SMILES IDX 25 32 86 33 26 34 85 35 27 36 28 37 29 38 79 39 30 40 84 41
REMARK SMILES IDX 78 42 80 43 31 44 83 45 77 46 76 47 32 49 64 50 44 51 63 52
REMARK SMILES IDX 45 53 48 54 62 55 81 56 46 57 47 58 61 60 82 61 49 62 33 63
REMARK SMILES IDX 34 64 42 65 35 66 41 67 43 68 40 69 36 70 37 71 38 72 39 73
REMARK SMILES IDX 65 74 66 75 74 76 67 77 73 78 75 79 72 80 68 81 69 82 70 83
REMARK SMILES IDX 71 84 50 85 51 86 59 87 52 88 58 89 60 90 57 91 53 92 54 93
REMARK SMILES IDX 55 94 56 95
REMARK H PARENT 80 48 48 59
REMARK Flexibility Score: inf
ROOT
ATOM      1  C   UNL     1       0.635   3.913   7.469  1.00  0.00     0.274 C 
ENDROOT
BRANCH   1   2
ATOM      2  O   UNL     1       1.540   2.893   7.035  1.00  0.00    -0.461 OA
BRANCH   2   3
ATOM      3  C   UNL     1       2.369   3.295   6.037  1.00  0.00     0.326 C 
ATOM      4  O   UNL     1       2.202   4.290   5.339  1.00  0.00    -0.250 OA
BRANCH   3   5
ATOM      5  C   UNL     1       3.700   2.572   6.110  1.00  0.00     0.248 C 
BRANCH   5   6
ATOM      6  N   UNL     1       3.672   1.153   6.360  1.00  0.00    -0.291 N 
ATOM      7  N   UNL     1       4.913  -0.927   4.949  1.00  0.00    -0.298 N 
ATOM      8  C   UNL     1       4.096  -0.003   4.327  1.00  0.00     0.317 A 
ATOM      9  C   UNL     1       5.477  -0.525   6.193  1.00  0.00     0.068 A 
ATOM     10  O   UNL     1       4.168   0.400   3.175  1.00  0.00    -0.263 OA
ATOM     11  C   UNL     1       3.054   0.533   5.289  1.00  0.00     0.317 A 
ATOM     12  C   UNL     1       4.878   0.571   6.875  1.00  0.00     0.069 A 
ATOM     13  C   UNL     1       6.692  -1.031   6.660  1.00  0.00     0.028 A 
ATOM     14  O   UNL     1       1.866   0.579   5.010  1.00  0.00    -0.263 OA
ATOM     15  C   UNL     1       5.465   1.087   8.037  1.00  0.00     0.028 A 
ATOM     16  C   UNL     1       7.303  -0.455   7.785  1.00  0.00     0.002 A 
ATOM     17  C   UNL     1       6.685   0.585   8.480  1.00  0.00     0.002 A 
BRANCH   7  18
ATOM     18  C   UNL     1       5.056  -2.223   4.304  1.00  0.00     0.162 C 
BRANCH  18  19
ATOM     19  C   UNL     1       3.654  -2.674   3.843  1.00  0.00    -0.024 A 
ATOM     20  C   UNL     1       1.757  -2.023   2.446  1.00  0.00     0.119 A 
ATOM     21  C   UNL     1       0.895  -2.543   3.412  1.00  0.00     0.046 A 
ATOM     22  C   UNL     1       3.134  -2.166   2.625  1.00  0.00     0.052 A 
ATOM     23  C   UNL     1       1.393  -3.184   4.547  1.00  0.00     0.004 A 
ATOM     24  C   UNL     1       2.768  -3.232   4.777  1.00  0.00     0.006 A 
BRANCH  20  25
ATOM     25  O   UNL     1       1.124  -1.316   1.462  1.00  0.00    -0.497 OA
ATOM     26  C   UNL     1       1.894  -0.762   0.404  1.00  0.00     0.278 C 
ENDBRANCH  20  25
ENDBRANCH  18  19
ENDBRANCH   7  18
ENDBRANCH   5   6
ENDBRANCH   3   5
ENDBRANCH   2   3
ENDBRANCH   1   2
BRANCH   1  27
ATOM     27  C   UNL     1       1.337   4.776   8.525  1.00  0.00     0.275 C 
BRANCH  27  28
ATOM     28  O   UNL     1       2.420   5.551   7.953  1.00  0.00    -0.458 OA
BRANCH  28  29
ATOM     29  C   UNL     1       3.671   5.198   8.331  1.00  0.00     0.338 C 
ATOM     30  O   UNL     1       3.976   4.302   9.103  1.00  0.00    -0.246 OA
BRANCH  29  31
ATOM     31  C   UNL     1       4.695   6.005   7.640  1.00  0.00     0.060 A 
ATOM     32  C   UNL     1       5.199   5.611   6.396  1.00  0.00     0.016 A 
ATOM     33  C   UNL     1       5.294   7.059   8.325  1.00  0.00     0.016 A 
ATOM     34  C   UNL     1       6.337   6.212   5.866  1.00  0.00     0.010 A 
ATOM     35  C   UNL     1       6.382   7.723   7.749  1.00  0.00     0.010 A 
ATOM     36  C   UNL     1       6.925   7.294   6.524  1.00  0.00    -0.014 A 
BRANCH  36  37
ATOM     37  C   UNL     1       8.092   7.999   5.939  1.00  0.00     0.031 A 
ATOM     38  C   UNL     1       9.390   8.047   6.692  1.00  0.00     0.074 A 
ATOM     39  C   UNL     1       7.964   8.641   4.762  1.00  0.00     0.049 A 
ATOM     40  N   UNL     1      10.425   8.826   6.514  1.00  0.00    -0.248 NA
ATOM     41  C   UNL     1       9.530   7.099   7.806  1.00  0.00     0.031 C 
ATOM     42  C   UNL     1       6.778   8.609   3.903  1.00  0.00     0.029 A 
ATOM     43  N   UNL     1       8.832   9.470   4.097  1.00  0.00    -0.354 N 
ATOM     44  C   UNL     1      11.324   8.498   7.524  1.00  0.00     0.074 A 
ATOM     45  C   UNL     1      10.702   7.454   8.313  1.00  0.00     0.031 C 
ATOM     46  C   UNL     1       6.989   9.388   2.832  1.00  0.00     0.029 A 
ATOM     47  C   UNL     1       8.282  10.044   2.975  1.00  0.00     0.049 A 
ATOM     48  H   UNL     1       9.756   9.636   4.393  1.00  0.00     0.167 HD
ATOM     49  C   UNL     1      12.548   9.032   7.766  1.00  0.00     0.034 A 
ATOM     50  C   UNL     1       8.734  11.039   2.188  1.00  0.00     0.034 A 
ATOM     51  C   UNL     1      13.140  10.068   6.952  1.00  0.00     0.049 A 
ATOM     52  C   UNL     1      10.055  11.677   2.521  1.00  0.00     0.074 A 
ATOM     53  C   UNL     1      14.369  10.689   7.096  1.00  0.00     0.029 A 
ATOM     54  N   UNL     1      12.540  10.641   5.835  1.00  0.00    -0.354 N 
ATOM     55  N   UNL     1      10.872  11.412   3.514  1.00  0.00    -0.248 NA
ATOM     56  C   UNL     1      10.508  12.753   1.633  1.00  0.00     0.031 C 
ATOM     57  C   UNL     1      14.484  11.675   6.108  1.00  0.00     0.029 A 
ATOM     58  C   UNL     1      13.360  11.622   5.299  1.00  0.00     0.049 A 
ATOM     59  H   UNL     1      11.659  10.386   5.476  1.00  0.00     0.167 HD
ATOM     60  C   UNL     1      11.951  12.275   3.356  1.00  0.00     0.074 A 
ATOM     61  C   UNL     1      11.682  13.059   2.167  1.00  0.00     0.031 C 
ATOM     62  C   UNL     1      13.066  12.404   4.120  1.00  0.00     0.034 A 
BRANCH  49  63
ATOM     63  C   UNL     1      13.283   8.552   8.997  1.00  0.00     0.023 A 
ATOM     64  C   UNL     1      13.698   7.218   9.147  1.00  0.00     0.031 A 
ATOM     65  C   UNL     1      13.529   9.439  10.062  1.00  0.00     0.131 A 
ATOM     66  C   UNL     1      14.263   6.791  10.360  1.00  0.00     0.055 A 
ATOM     67  C   UNL     1      14.167   9.027  11.234  1.00  0.00     0.041 A 
ATOM     68  F   UNL     1      13.136  10.720   9.990  1.00  0.00    -0.206 F 
ATOM     69  C   UNL     1      14.523   7.691  11.396  1.00  0.00     0.022 A 
BRANCH  66  70
ATOM     70  S   UNL     1      14.509   5.012  10.625  1.00  0.00     0.124 S 
ATOM     71  O   UNL     1      13.157   4.493  10.429  1.00  0.00    -0.237 OA
ATOM     72  O   UNL     1      15.480   4.671   9.592  1.00  0.00    -0.237 OA
ATOM     73  O   UNL     1      15.004   4.934  11.998  1.00  0.00    -0.744 OA
ENDBRANCH  66  70
ENDBRANCH  49  63
BRANCH  50  74
ATOM     74  C   UNL     1       7.900  11.533   1.058  1.00  0.00     0.023 A 
ATOM     75  C   UNL     1       8.316  11.366  -0.271  1.00  0.00     0.031 A 
ATOM     76  C   UNL     1       6.673  12.181   1.292  1.00  0.00     0.131 A 
ATOM     77  C   UNL     1       7.523  11.863  -1.317  1.00  0.00     0.055 A 
ATOM     78  C   UNL     1       5.865  12.629   0.246  1.00  0.00     0.041 A 
ATOM     79  F   UNL     1       6.228  12.363   2.546  1.00  0.00    -0.206 F 
ATOM     80  C   UNL     1       6.294  12.479  -1.069  1.00  0.00     0.022 A 
BRANCH  77  81
ATOM     81  S   UNL     1       8.154  11.743  -3.012  1.00  0.00     0.124 S 
ATOM     82  O   UNL     1       9.401  12.494  -2.920  1.00  0.00    -0.237 OA
ATOM     83  O   UNL     1       8.285  10.300  -3.186  1.00  0.00    -0.237 OA
ATOM     84  O   UNL     1       7.104  12.372  -3.811  1.00  0.00    -0.744 OA
ENDBRANCH  77  81
ENDBRANCH  50  74
BRANCH  62  85
ATOM     85  C   UNL     1      14.093  13.401   3.648  1.00  0.00     0.023 A 
ATOM     86  C   UNL     1      13.851  14.785   3.680  1.00  0.00     0.031 A 
ATOM     87  C   UNL     1      15.321  12.952   3.131  1.00  0.00     0.131 A 
ATOM     88  C   UNL     1      14.803  15.670   3.151  1.00  0.00     0.055 A 
ATOM     89  C   UNL     1      16.286  13.841   2.657  1.00  0.00     0.041 A 
ATOM     90  F   UNL     1      15.600  11.640   3.075  1.00  0.00    -0.206 F 
ATOM     91  C   UNL     1      16.024  15.208   2.653  1.00  0.00     0.022 A 
BRANCH  88  92
ATOM     92  S   UNL     1      14.386  17.432   3.038  1.00  0.00     0.124 S 
ATOM     93  O   UNL     1      13.198  17.409   2.189  1.00  0.00    -0.237 OA
ATOM     94  O   UNL     1      14.165  17.791   4.435  1.00  0.00    -0.237 OA
ATOM     95  O   UNL     1      15.573  18.027   2.427  1.00  0.00    -0.744 OA
ENDBRANCH  88  92
ENDBRANCH  62  85
ENDBRANCH  36  37
ENDBRANCH  29  31
ENDBRANCH  28  29
ENDBRANCH  27  28
ENDBRANCH   1  27
TORSDOF 18
