REMARK SMILES Cc1ccc([C@@]23C[C@@H]4C[C@@H](C[C@@](C(=O)N5CCC(C(=O)OCCOC(=O)c6ccc(-c7c8nc(c(-c9cc(S(=O)(=O)[O-])ccc9F)c9ccc([nH]9)c(-c9cc(S(=O)(=O)[O-])ccc9F)c9nc(c(-c%10cc(S(=O)(=O)[O-])ccc%10F)c%10ccc7[nH]%10)C=C9)C=C8)cc6)CC5)(C4)C2)C3)cc1
REMARK SMILES IDX 23 1 22 2 21 3 19 4 20 5 18 6 13 7 14 8 15 9 16 10 91 11
REMARK SMILES IDX 17 12 90 13 12 14 6 15 7 16 93 17 94 18 8 19 10 20 9 21
REMARK SMILES IDX 92 22 11 23 5 24 1 25 2 26 3 27 96 28 4 29 95 30 24 31 25 32
REMARK SMILES IDX 26 33 27 34 28 35 89 36 29 37 88 38 30 39 31 40 32 41 82 42
REMARK SMILES IDX 33 43 87 44 81 45 83 46 34 47 86 48 80 49 79 50 35 52 67 53
REMARK SMILES IDX 47 54 66 55 48 56 51 57 65 58 84 59 49 60 50 61 64 63 85 64
REMARK SMILES IDX 52 65 36 66 37 67 45 68 38 69 44 70 46 71 43 72 39 73 40 74
REMARK SMILES IDX 41 75 42 76 68 77 69 78 77 79 70 80 76 81 78 82 75 83 71 84
REMARK SMILES IDX 72 85 73 86 74 87 53 88 54 89 62 90 55 91 61 92 63 93 60 94
REMARK SMILES IDX 56 95 57 96 58 97 59 98
REMARK H PARENT 83 51 51 62
REMARK Flexibility Score: inf
ROOT
ATOM      1  C   UNL     1      -8.796  -2.680  -7.434  1.00  0.00     0.275 C 
ENDROOT
BRANCH   1   2
ATOM      2  C   UNL     1      -9.073  -2.740  -5.926  1.00  0.00     0.274 C 
BRANCH   2   3
ATOM      3  O   UNL     1      -7.865  -2.802  -5.178  1.00  0.00    -0.462 OA
BRANCH   3   4
ATOM      4  C   UNL     1      -8.044  -3.080  -3.859  1.00  0.00     0.309 C 
ATOM      5  O   UNL     1      -9.111  -2.961  -3.269  1.00  0.00    -0.252 OA
BRANCH   4   6
ATOM      6  C   UNL     1      -6.726  -3.487  -3.242  1.00  0.00     0.103 C 
ATOM      7  C   UNL     1      -5.700  -2.005   0.014  1.00  0.00     0.228 C 
ATOM      8  O   UNL     1      -6.480  -2.451   0.859  1.00  0.00    -0.274 OA
ATOM      9  N   UNL     1      -5.188  -2.820  -1.000  1.00  0.00    -0.342 N 
ATOM     10  C   UNL     1      -5.655  -4.194  -1.042  1.00  0.00     0.120 C 
ATOM     11  C   UNL     1      -4.673  -2.391  -2.298  1.00  0.00     0.120 C 
ATOM     12  C   UNL     1      -6.914  -4.211  -1.892  1.00  0.00     0.037 C 
ATOM     13  C   UNL     1      -5.852  -2.239  -3.235  1.00  0.00     0.037 C 
BRANCH   7  14
ATOM     14  C   UNL     1      -5.218  -0.551   0.124  1.00  0.00     0.051 C 
ATOM     15  C   UNL     1      -3.026   0.760   0.308  1.00  0.00    -0.003 C 
ATOM     16  C   UNL     1      -3.522   1.583  -0.920  1.00  0.00     0.015 C 
ATOM     17  C   UNL     1      -3.695  -0.621   0.251  1.00  0.00     0.028 C 
ATOM     18  C   UNL     1      -3.552   1.444   1.597  1.00  0.00     0.015 C 
ATOM     19  C   UNL     1      -5.056   1.744  -0.914  1.00  0.00    -0.009 C 
ATOM     20  C   UNL     1      -5.097   1.532   1.579  1.00  0.00    -0.009 C 
ATOM     21  C   UNL     1      -5.527   2.397   0.386  1.00  0.00     0.007 C 
ATOM     22  C   UNL     1      -5.688   0.359  -1.027  1.00  0.00     0.020 C 
ATOM     23  C   UNL     1      -5.718   0.123   1.433  1.00  0.00     0.020 C 
BRANCH  15  24
ATOM     24  C   UNL     1      -1.495   0.602   0.290  1.00  0.00    -0.042 A 
ATOM     25  C   UNL     1       2.807   0.134  -0.035  1.00  0.00     0.044 C 
ATOM     26  C   UNL     1       1.327   0.316   0.094  1.00  0.00    -0.051 A 
ATOM     27  C   UNL     1       0.513  -0.808   0.190  1.00  0.00     0.004 A 
ATOM     28  C   UNL     1       0.733   1.581   0.112  1.00  0.00     0.004 A 
ATOM     29  C   UNL     1      -0.869  -0.664   0.297  1.00  0.00     0.004 A 
ATOM     30  C   UNL     1      -0.658   1.722   0.212  1.00  0.00     0.004 A 
ENDBRANCH  15  24
ENDBRANCH   7  14
ENDBRANCH   4   6
ENDBRANCH   3   4
ENDBRANCH   2   3
ENDBRANCH   1   2
BRANCH   1  31
ATOM     31  O   UNL     1      -7.613  -3.296  -8.030  1.00  0.00    -0.458 OA
BRANCH  31  32
ATOM     32  C   UNL     1      -6.677  -4.059  -7.403  1.00  0.00     0.338 C 
ATOM     33  O   UNL     1      -5.497  -3.733  -7.380  1.00  0.00    -0.246 OA
BRANCH  32  34
ATOM     34  C   UNL     1      -7.187  -5.241  -6.665  1.00  0.00     0.060 A 
ATOM     35  C   UNL     1      -6.403  -5.813  -5.651  1.00  0.00     0.016 A 
ATOM     36  C   UNL     1      -8.512  -5.619  -6.812  1.00  0.00     0.016 A 
ATOM     37  C   UNL     1      -7.011  -6.571  -4.644  1.00  0.00     0.010 A 
ATOM     38  C   UNL     1      -9.135  -6.259  -5.764  1.00  0.00     0.010 A 
ATOM     39  C   UNL     1      -8.400  -6.707  -4.657  1.00  0.00    -0.014 A 
BRANCH  39  40
ATOM     40  C   UNL     1      -9.154  -7.565  -3.748  1.00  0.00     0.031 A 
ATOM     41  C   UNL     1      -9.515  -7.217  -2.358  1.00  0.00     0.074 A 
ATOM     42  C   UNL     1      -9.552  -8.713  -4.332  1.00  0.00     0.049 A 
ATOM     43  N   UNL     1      -9.513  -8.049  -1.369  1.00  0.00    -0.248 NA
ATOM     44  C   UNL     1      -9.898  -5.867  -1.953  1.00  0.00     0.031 C 
ATOM     45  C   UNL     1     -10.448  -9.743  -3.855  1.00  0.00     0.029 A 
ATOM     46  N   UNL     1      -9.013  -9.255  -5.502  1.00  0.00    -0.354 N 
ATOM     47  C   UNL     1     -10.184  -7.431  -0.325  1.00  0.00     0.074 A 
ATOM     48  C   UNL     1     -10.228  -6.033  -0.665  1.00  0.00     0.031 C 
ATOM     49  C   UNL     1     -10.140 -10.885  -4.502  1.00  0.00     0.029 A 
ATOM     50  C   UNL     1      -8.934 -10.621  -5.285  1.00  0.00     0.049 A 
ATOM     51  H   UNL     1      -8.745  -8.767  -6.313  1.00  0.00     0.167 HD
ATOM     52  C   UNL     1     -10.882  -8.166   0.589  1.00  0.00     0.034 A 
ATOM     53  C   UNL     1      -7.729 -11.254  -5.163  1.00  0.00     0.034 A 
ATOM     54  C   UNL     1     -10.894  -9.562   0.194  1.00  0.00     0.049 A 
ATOM     55  C   UNL     1      -7.678 -11.978  -3.842  1.00  0.00     0.074 A 
ATOM     56  C   UNL     1     -11.822 -10.281  -0.541  1.00  0.00     0.029 A 
ATOM     57  N   UNL     1      -9.733 -10.313   0.236  1.00  0.00    -0.354 N 
ATOM     58  N   UNL     1      -8.213 -11.527  -2.739  1.00  0.00    -0.248 NA
ATOM     59  C   UNL     1      -7.108 -13.309  -3.706  1.00  0.00     0.031 C 
ATOM     60  C   UNL     1     -11.184 -11.453  -1.005  1.00  0.00     0.029 A 
ATOM     61  C   UNL     1      -9.884 -11.450  -0.528  1.00  0.00     0.049 A 
ATOM     62  H   UNL     1      -8.921 -10.071   0.737  1.00  0.00     0.167 HD
ATOM     63  C   UNL     1      -8.188 -12.531  -1.800  1.00  0.00     0.074 A 
ATOM     64  C   UNL     1      -7.452 -13.608  -2.442  1.00  0.00     0.031 C 
ATOM     65  C   UNL     1      -8.830 -12.438  -0.596  1.00  0.00     0.034 A 
BRANCH  52  66
ATOM     66  C   UNL     1     -11.873  -7.614   1.591  1.00  0.00     0.023 A 
ATOM     67  C   UNL     1     -13.030  -8.364   1.904  1.00  0.00     0.031 A 
ATOM     68  C   UNL     1     -11.738  -6.394   2.276  1.00  0.00     0.131 A 
ATOM     69  C   UNL     1     -14.023  -7.877   2.771  1.00  0.00     0.055 A 
ATOM     70  C   UNL     1     -12.736  -5.896   3.132  1.00  0.00     0.041 A 
ATOM     71  F   UNL     1     -10.624  -5.655   2.161  1.00  0.00    -0.206 F 
ATOM     72  C   UNL     1     -13.893  -6.631   3.373  1.00  0.00     0.022 A 
BRANCH  69  73
ATOM     73  S   UNL     1     -15.489  -8.902   3.083  1.00  0.00     0.124 S 
ATOM     74  O   UNL     1     -16.054  -9.050   1.745  1.00  0.00    -0.237 OA
ATOM     75  O   UNL     1     -14.911 -10.104   3.674  1.00  0.00    -0.237 OA
ATOM     76  O   UNL     1     -16.285  -8.088   4.000  1.00  0.00    -0.744 OA
ENDBRANCH  69  73
ENDBRANCH  52  66
BRANCH  53  77
ATOM     77  C   UNL     1      -6.553 -10.594  -5.827  1.00  0.00     0.023 A 
ATOM     78  C   UNL     1      -6.681 -10.201  -7.181  1.00  0.00     0.031 A 
ATOM     79  C   UNL     1      -5.457 -10.081  -5.116  1.00  0.00     0.131 A 
ATOM     80  C   UNL     1      -5.842  -9.215  -7.727  1.00  0.00     0.055 A 
ATOM     81  C   UNL     1      -4.573  -9.153  -5.692  1.00  0.00     0.041 A 
ATOM     82  F   UNL     1      -5.270 -10.389  -3.825  1.00  0.00    -0.206 F 
ATOM     83  C   UNL     1      -4.784  -8.688  -6.990  1.00  0.00     0.022 A 
BRANCH  80  84
ATOM     84  S   UNL     1      -6.328  -8.429  -9.297  1.00  0.00     0.124 S 
ATOM     85  O   UNL     1      -5.782  -9.354 -10.283  1.00  0.00    -0.237 OA
ATOM     86  O   UNL     1      -7.784  -8.389  -9.194  1.00  0.00    -0.237 OA
ATOM     87  O   UNL     1      -5.684  -7.120  -9.231  1.00  0.00    -0.744 OA
ENDBRANCH  80  84
ENDBRANCH  53  77
BRANCH  65  88
ATOM     88  C   UNL     1      -8.648 -13.350   0.594  1.00  0.00     0.023 A 
ATOM     89  C   UNL     1      -7.598 -14.265   0.685  1.00  0.00     0.031 A 
ATOM     90  C   UNL     1      -9.481 -13.256   1.740  1.00  0.00     0.131 A 
ATOM     91  C   UNL     1      -7.460 -15.102   1.802  1.00  0.00     0.055 A 
ATOM     92  C   UNL     1      -9.282 -14.020   2.892  1.00  0.00     0.041 A 
ATOM     93  F   UNL     1     -10.515 -12.405   1.807  1.00  0.00    -0.206 F 
ATOM     94  C   UNL     1      -8.274 -14.968   2.922  1.00  0.00     0.022 A 
BRANCH  91  95
ATOM     95  S   UNL     1      -6.231 -16.424   1.704  1.00  0.00     0.124 S 
ATOM     96  O   UNL     1      -6.739 -17.217   0.587  1.00  0.00    -0.237 OA
ATOM     97  O   UNL     1      -4.998 -15.687   1.444  1.00  0.00    -0.237 OA
ATOM     98  O   UNL     1      -6.311 -17.067   3.012  1.00  0.00    -0.744 OA
ENDBRANCH  91  95
ENDBRANCH  65  88
ENDBRANCH  39  40
ENDBRANCH  32  34
ENDBRANCH  31  32
ENDBRANCH   1  31
TORSDOF 16
