REMARK SMILES Cn1cc(C[C@@H](NC(=O)OCC2c3ccccc3-c3ccccc32)C(=O)OCCOC(=O)c2ccc(-c3c4nc(c(-c5cc(S(=O)(=O)[O-])ccc5F)c5ccc([nH]5)c(-c5cc(S(=O)(=O)[O-])ccc5F)c5nc(c(-c6cc(S(=O)(=O)[O-])ccc6F)c6ccc3[nH]6)C=C5)C=C4)cc2)c2ccccc21
REMARK SMILES IDX 28 1 27 2 25 3 26 4 6 5 5 6 4 7 1 8 2 9 3 10 101 11 96 12
REMARK SMILES IDX 100 13 97 14 99 15 98 16 7 17 8 18 9 20 10 21 11 22 12 23
REMARK SMILES IDX 13 24 24 25 14 26 18 27 19 28 23 29 15 30 17 31 20 32 22 33
REMARK SMILES IDX 16 34 21 35 29 36 30 37 31 38 32 39 33 40 34 41 95 42 35 43
REMARK SMILES IDX 94 44 36 45 37 46 38 47 88 48 39 49 93 50 87 51 89 52 40 53
REMARK SMILES IDX 92 54 86 55 85 56 41 58 73 59 53 60 72 61 54 62 57 63 71 64
REMARK SMILES IDX 90 65 55 66 56 67 70 69 91 70 58 71 42 72 43 73 51 74 44 75
REMARK SMILES IDX 50 76 52 77 49 78 45 79 46 80 47 81 48 82 74 83 75 84 83 85
REMARK SMILES IDX 76 86 82 87 84 88 81 89 77 90 78 91 79 92 80 93 59 94 60 95
REMARK SMILES IDX 68 96 61 97 67 98 69 99 66 100 62 101 63 102 64 103 65 104
REMARK H PARENT 7 19 89 57 57 68
REMARK Flexibility Score: inf
ROOT
ATOM      1  C   UNL     1       0.185  -7.531   0.229  1.00  0.00     0.274 C 
ENDROOT
BRANCH   1   2
ATOM      2  O   UNL     1       0.105  -6.104   0.068  1.00  0.00    -0.461 OA
BRANCH   2   3
ATOM      3  C   UNL     1      -0.026  -5.388   1.224  1.00  0.00     0.329 C 
ATOM      4  O   UNL     1      -0.023  -5.881   2.347  1.00  0.00    -0.250 OA
BRANCH   3   5
ATOM      5  C   UNL     1      -0.331  -3.911   0.950  1.00  0.00     0.200 C 
BRANCH   5   6
ATOM      6  C   UNL     1       0.303  -3.341  -0.338  1.00  0.00     0.075 C 
BRANCH   6   7
ATOM      7  C   UNL     1       0.483  -1.837  -0.279  1.00  0.00    -0.020 A 
ATOM      8  C   UNL     1       2.433   1.204   0.142  1.00  0.00     0.149 C 
ATOM      9  N   UNL     1       1.426   0.175  -0.007  1.00  0.00    -0.350 N 
ATOM     10  C   UNL     1       1.677  -1.172  -0.061  1.00  0.00     0.090 A 
ATOM     11  C   UNL     1       0.074   0.410  -0.131  1.00  0.00     0.048 A 
ATOM     12  C   UNL     1      -0.529  -0.824  -0.394  1.00  0.00     0.003 A 
ATOM     13  C   UNL     1      -0.664   1.603  -0.041  1.00  0.00     0.027 A 
ATOM     14  C   UNL     1      -1.916  -0.842  -0.656  1.00  0.00     0.010 A 
ATOM     15  C   UNL     1      -2.047   1.538  -0.232  1.00  0.00     0.002 A 
ATOM     16  C   UNL     1      -2.665   0.335  -0.550  1.00  0.00     0.001 A 
ENDBRANCH   6   7
ENDBRANCH   5   6
BRANCH   5  17
ATOM     17  N   UNL     1      -1.752  -3.586   1.068  1.00  0.00    -0.308 N 
ATOM     18  C   UNL     1      -2.799  -4.338   0.642  1.00  0.00     0.407 C 
ATOM     19  H   UNL     1      -1.973  -2.731   1.503  1.00  0.00     0.168 HD
ATOM     20  O   UNL     1      -3.814  -3.826   0.174  1.00  0.00    -0.225 OA
BRANCH  18  21
ATOM     21  O   UNL     1      -2.668  -5.650   0.953  1.00  0.00    -0.449 OA
BRANCH  21  22
ATOM     22  C   UNL     1      -3.901  -6.367   1.145  1.00  0.00     0.248 C 
BRANCH  22  23
ATOM     23  C   UNL     1      -4.404  -6.355   2.609  1.00  0.00     0.088 C 
ATOM     24  C   UNL     1      -3.715  -7.367   3.526  1.00  0.00    -0.029 A 
ATOM     25  C   UNL     1      -4.200  -5.055   3.383  1.00  0.00    -0.029 A 
ATOM     26  C   UNL     1      -3.672  -8.751   3.417  1.00  0.00     0.005 A 
ATOM     27  C   UNL     1      -3.177  -6.712   4.655  1.00  0.00    -0.014 A 
ATOM     28  C   UNL     1      -3.425  -5.292   4.539  1.00  0.00    -0.014 A 
ATOM     29  C   UNL     1      -4.650  -3.778   3.082  1.00  0.00     0.005 A 
ATOM     30  C   UNL     1      -3.087  -9.479   4.457  1.00  0.00     0.000 A 
ATOM     31  C   UNL     1      -2.596  -7.435   5.685  1.00  0.00     0.009 A 
ATOM     32  C   UNL     1      -3.032  -4.244   5.356  1.00  0.00     0.009 A 
ATOM     33  C   UNL     1      -4.237  -2.719   3.893  1.00  0.00     0.000 A 
ATOM     34  C   UNL     1      -2.558  -8.828   5.583  1.00  0.00     0.001 A 
ATOM     35  C   UNL     1      -3.427  -2.948   5.015  1.00  0.00     0.001 A 
ENDBRANCH  22  23
ENDBRANCH  21  22
ENDBRANCH  18  21
ENDBRANCH   5  17
ENDBRANCH   3   5
ENDBRANCH   2   3
ENDBRANCH   1   2
BRANCH   1  36
ATOM     36  C   UNL     1       1.630  -8.041   0.227  1.00  0.00     0.275 C 
BRANCH  36  37
ATOM     37  O   UNL     1       2.359  -7.607   1.387  1.00  0.00    -0.458 OA
BRANCH  37  38
ATOM     38  C   UNL     1       2.943  -6.391   1.260  1.00  0.00     0.338 C 
ATOM     39  O   UNL     1       2.981  -5.701   0.253  1.00  0.00    -0.246 OA
BRANCH  38  40
ATOM     40  C   UNL     1       3.393  -5.905   2.574  1.00  0.00     0.060 A 
ATOM     41  C   UNL     1       2.971  -4.631   2.968  1.00  0.00     0.016 A 
ATOM     42  C   UNL     1       4.269  -6.643   3.371  1.00  0.00     0.016 A 
ATOM     43  C   UNL     1       3.432  -4.078   4.156  1.00  0.00     0.010 A 
ATOM     44  C   UNL     1       4.748  -6.079   4.556  1.00  0.00     0.010 A 
ATOM     45  C   UNL     1       4.349  -4.785   4.939  1.00  0.00    -0.014 A 
BRANCH  45  46
ATOM     46  C   UNL     1       5.000  -4.095   6.075  1.00  0.00     0.031 A 
ATOM     47  C   UNL     1       6.384  -3.542   5.883  1.00  0.00     0.074 A 
ATOM     48  C   UNL     1       4.340  -3.917   7.232  1.00  0.00     0.049 A 
ATOM     49  N   UNL     1       7.172  -2.956   6.745  1.00  0.00    -0.248 NA
ATOM     50  C   UNL     1       6.953  -3.671   4.533  1.00  0.00     0.031 C 
ATOM     51  C   UNL     1       2.967  -4.350   7.495  1.00  0.00     0.029 A 
ATOM     52  N   UNL     1       4.735  -3.321   8.402  1.00  0.00    -0.354 N 
ATOM     53  C   UNL     1       8.338  -2.659   6.047  1.00  0.00     0.074 A 
ATOM     54  C   UNL     1       8.161  -3.156   4.699  1.00  0.00     0.031 C 
ATOM     55  C   UNL     1       2.637  -4.009   8.752  1.00  0.00     0.029 A 
ATOM     56  C   UNL     1       3.786  -3.377   9.395  1.00  0.00     0.049 A 
ATOM     57  H   UNL     1       5.614  -2.893   8.519  1.00  0.00     0.167 HD
ATOM     58  C   UNL     1       9.451  -2.027   6.494  1.00  0.00     0.034 A 
ATOM     59  C   UNL     1       3.854  -2.988  10.684  1.00  0.00     0.034 A 
ATOM     60  C   UNL     1       9.605  -1.549   7.847  1.00  0.00     0.049 A 
ATOM     61  C   UNL     1       5.130  -2.351  11.179  1.00  0.00     0.074 A 
ATOM     62  C   UNL     1      10.694  -0.919   8.424  1.00  0.00     0.029 A 
ATOM     63  N   UNL     1       8.637  -1.654   8.840  1.00  0.00    -0.354 N 
ATOM     64  N   UNL     1       6.243  -2.107  10.523  1.00  0.00    -0.248 NA
ATOM     65  C   UNL     1       5.156  -1.931  12.585  1.00  0.00     0.031 C 
ATOM     66  C   UNL     1      10.407  -0.697   9.776  1.00  0.00     0.029 A 
ATOM     67  C   UNL     1       9.110  -1.118  10.028  1.00  0.00     0.049 A 
ATOM     68  H   UNL     1       7.745  -2.051   8.717  1.00  0.00     0.167 HD
ATOM     69  C   UNL     1       7.088  -1.474  11.431  1.00  0.00     0.074 A 
ATOM     70  C   UNL     1       6.349  -1.363  12.673  1.00  0.00     0.031 C 
ATOM     71  C   UNL     1       8.357  -1.023  11.257  1.00  0.00     0.034 A 
BRANCH  58  72
ATOM     72  C   UNL     1      10.600  -1.887   5.525  1.00  0.00     0.023 A 
ATOM     73  C   UNL     1      10.495  -1.118   4.352  1.00  0.00     0.031 A 
ATOM     74  C   UNL     1      11.803  -2.581   5.750  1.00  0.00     0.131 A 
ATOM     75  C   UNL     1      11.541  -1.120   3.416  1.00  0.00     0.055 A 
ATOM     76  C   UNL     1      12.871  -2.515   4.853  1.00  0.00     0.041 A 
ATOM     77  F   UNL     1      11.953  -3.353   6.838  1.00  0.00    -0.206 F 
ATOM     78  C   UNL     1      12.738  -1.794   3.670  1.00  0.00     0.022 A 
BRANCH  75  79
ATOM     79  S   UNL     1      11.259  -0.352   1.797  1.00  0.00     0.124 S 
ATOM     80  O   UNL     1      10.118  -1.117   1.300  1.00  0.00    -0.237 OA
ATOM     81  O   UNL     1      10.991   1.038   2.148  1.00  0.00    -0.237 OA
ATOM     82  O   UNL     1      12.514  -0.584   1.084  1.00  0.00    -0.744 OA
ENDBRANCH  75  79
ENDBRANCH  58  72
BRANCH  59  83
ATOM     83  C   UNL     1       2.708  -3.224  11.608  1.00  0.00     0.023 A 
ATOM     84  C   UNL     1       2.025  -2.157  12.210  1.00  0.00     0.031 A 
ATOM     85  C   UNL     1       2.313  -4.532  11.942  1.00  0.00     0.131 A 
ATOM     86  C   UNL     1       1.014  -2.415  13.150  1.00  0.00     0.055 A 
ATOM     87  C   UNL     1       1.272  -4.784  12.837  1.00  0.00     0.041 A 
ATOM     88  F   UNL     1       2.934  -5.590  11.396  1.00  0.00    -0.206 F 
ATOM     89  C   UNL     1       0.624  -3.721  13.457  1.00  0.00     0.022 A 
BRANCH  86  90
ATOM     90  S   UNL     1       0.272  -1.016  14.035  1.00  0.00     0.124 S 
ATOM     91  O   UNL     1       1.440  -0.405  14.659  1.00  0.00    -0.237 OA
ATOM     92  O   UNL     1      -0.343  -0.263  12.947  1.00  0.00    -0.237 OA
ATOM     93  O   UNL     1      -0.666  -1.655  14.956  1.00  0.00    -0.744 OA
ENDBRANCH  86  90
ENDBRANCH  59  83
BRANCH  71  94
ATOM     94  C   UNL     1       8.995  -0.317  12.430  1.00  0.00     0.023 A 
ATOM     95  C   UNL     1       9.306  -0.992  13.623  1.00  0.00     0.031 A 
ATOM     96  C   UNL     1       9.267   1.061  12.358  1.00  0.00     0.131 A 
ATOM     97  C   UNL     1       9.808  -0.275  14.720  1.00  0.00     0.055 A 
ATOM     98  C   UNL     1       9.826   1.756  13.430  1.00  0.00     0.041 A 
ATOM     99  F   UNL     1       8.989   1.755  11.243  1.00  0.00    -0.206 F 
ATOM    100  C   UNL     1      10.084   1.092  14.626  1.00  0.00     0.022 A 
BRANCH  97 101
ATOM    101  S   UNL     1       9.992  -1.130  16.309  1.00  0.00     0.124 S 
ATOM    102  O   UNL     1       8.643  -1.639  16.538  1.00  0.00    -0.237 OA
ATOM    103  O   UNL     1      11.009  -2.132  16.007  1.00  0.00    -0.237 OA
ATOM    104  O   UNL     1      10.418  -0.071  17.221  1.00  0.00    -0.744 OA
ENDBRANCH  97 101
ENDBRANCH  71  94
ENDBRANCH  45  46
ENDBRANCH  38  40
ENDBRANCH  37  38
ENDBRANCH  36  37
ENDBRANCH   1  36
TORSDOF 20
