REMARK SMILES Cc1cc(C[N@@H+]2C[C@H](C)[C@H](C(=O)OCCOC(=O)c3ccc(-c4c5nc(c(-c6cc(S(=O)(=O)[O-])ccc6F)c6ccc([nH]6)c(-c6cc(S(=O)(=O)[O-])ccc6F)c6nc(c(-c7cc(S(=O)(=O)[O-])ccc7F)c7ccc4[nH]7)C=C6)C=C5)cc3)C2)ccc1Br
REMARK SMILES IDX 15 1 14 2 13 3 11 4 12 5 10 6 6 7 7 8 82 9 8 11 9 12 5 13
REMARK SMILES IDX 4 14 1 15 2 16 3 17 85 18 84 19 86 20 83 21 16 22 17 23
REMARK SMILES IDX 18 24 19 25 20 26 81 27 21 28 80 29 22 30 23 31 24 32 74 33
REMARK SMILES IDX 25 34 79 35 73 36 75 37 26 38 78 39 72 40 71 41 27 43 59 44
REMARK SMILES IDX 39 45 58 46 40 47 43 48 57 49 76 50 41 51 42 52 56 54 77 55
REMARK SMILES IDX 44 56 28 57 29 58 37 59 30 60 36 61 38 62 35 63 31 64 32 65
REMARK SMILES IDX 33 66 34 67 60 68 61 69 69 70 62 71 68 72 70 73 67 74 63 75
REMARK SMILES IDX 64 76 65 77 66 78 45 79 46 80 54 81 47 82 53 83 55 84 52 85
REMARK SMILES IDX 48 86 49 87 50 88 51 89
REMARK H PARENT 6 10 75 42 43 53
REMARK Flexibility Score: inf
ROOT
ATOM      1  C   UNL     1       0.930   0.870  -6.006  1.00  0.00     0.275 C 
ENDROOT
BRANCH   1   2
ATOM      2  C   UNL     1       1.450  -0.306  -5.179  1.00  0.00     0.274 C 
BRANCH   2   3
ATOM      3  O   UNL     1       2.218   0.171  -4.059  1.00  0.00    -0.462 OA
BRANCH   3   4
ATOM      4  C   UNL     1       3.563   0.202  -4.210  1.00  0.00     0.315 C 
ATOM      5  O   UNL     1       4.163  -0.296  -5.157  1.00  0.00    -0.252 OA
BRANCH   4   6
ATOM      6  C   UNL     1       4.285   0.874  -3.062  1.00  0.00     0.162 C 
ATOM      7  N   UNL     1       4.830   0.782  -0.765  1.00  0.00    -0.330 N 
ATOM      8  C   UNL     1       4.513   2.172  -1.101  1.00  0.00     0.266 C 
ATOM      9  C   UNL     1       4.501  -0.081  -1.902  1.00  0.00     0.278 C 
ATOM     10  H   UNL     1       5.839   0.725  -0.626  1.00  0.00     0.348 HD
ATOM     11  C   UNL     1       3.710   2.136  -2.407  1.00  0.00     0.061 C 
ATOM     12  C   UNL     1       2.210   2.147  -2.119  1.00  0.00     0.015 C 
BRANCH   7  13
ATOM     13  C   UNL     1       4.419   0.317   0.558  1.00  0.00     0.299 C 
BRANCH  13  14
ATOM     14  C   UNL     1       2.927   0.146   0.768  1.00  0.00     0.007 A 
ATOM     15  C   UNL     1       0.301  -2.512   0.025  1.00  0.00     0.045 C 
ATOM     16  C   UNL     1       0.906  -1.214   0.478  1.00  0.00    -0.036 A 
ATOM     17  C   UNL     1       2.303  -1.072   0.451  1.00  0.00     0.014 A 
ATOM     18  C   UNL     1       0.132  -0.110   0.863  1.00  0.00     0.020 A 
ATOM     19  C   UNL     1       0.743   1.089   1.242  1.00  0.00     0.016 A 
ATOM     20  Br  UNL     1      -1.767  -0.164   0.859  1.00  0.00    -0.051 Br
ATOM     21  C   UNL     1       2.132   1.214   1.201  1.00  0.00     0.011 A 
ENDBRANCH  13  14
ENDBRANCH   7  13
ENDBRANCH   4   6
ENDBRANCH   3   4
ENDBRANCH   2   3
ENDBRANCH   1   2
BRANCH   1  22
ATOM     22  O   UNL     1       2.025   1.561  -6.633  1.00  0.00    -0.458 OA
BRANCH  22  23
ATOM     23  C   UNL     1       2.287   2.802  -6.161  1.00  0.00     0.338 C 
ATOM     24  O   UNL     1       1.668   3.426  -5.318  1.00  0.00    -0.246 OA
BRANCH  23  25
ATOM     25  C   UNL     1       3.515   3.302  -6.791  1.00  0.00     0.060 A 
ATOM     26  C   UNL     1       4.729   3.157  -6.117  1.00  0.00     0.016 A 
ATOM     27  C   UNL     1       3.446   3.997  -7.997  1.00  0.00     0.016 A 
ATOM     28  C   UNL     1       5.888   3.723  -6.640  1.00  0.00     0.010 A 
ATOM     29  C   UNL     1       4.612   4.548  -8.531  1.00  0.00     0.010 A 
ATOM     30  C   UNL     1       5.837   4.429  -7.847  1.00  0.00    -0.014 A 
BRANCH  30  31
ATOM     31  C   UNL     1       7.044   5.113  -8.367  1.00  0.00     0.031 A 
ATOM     32  C   UNL     1       7.123   6.611  -8.304  1.00  0.00     0.074 A 
ATOM     33  C   UNL     1       8.055   4.396  -8.890  1.00  0.00     0.049 A 
ATOM     34  N   UNL     1       7.997   7.420  -8.841  1.00  0.00    -0.248 NA
ATOM     35  C   UNL     1       6.065   7.284  -7.537  1.00  0.00     0.031 C 
ATOM     36  C   UNL     1       8.118   2.935  -8.937  1.00  0.00     0.029 A 
ATOM     37  N   UNL     1       9.219   4.802  -9.491  1.00  0.00    -0.354 N 
ATOM     38  C   UNL     1       7.585   8.703  -8.498  1.00  0.00     0.074 A 
ATOM     39  C   UNL     1       6.368   8.559  -7.726  1.00  0.00     0.031 C 
ATOM     40  C   UNL     1       9.261   2.567  -9.539  1.00  0.00     0.029 A 
ATOM     41  C   UNL     1       9.977   3.762  -9.976  1.00  0.00     0.049 A 
ATOM     42  H   UNL     1       9.486   5.746  -9.568  1.00  0.00     0.167 HD
ATOM     43  C   UNL     1       8.171   9.888  -8.802  1.00  0.00     0.034 A 
ATOM     44  C   UNL     1      11.097   3.776 -10.724  1.00  0.00     0.034 A 
ATOM     45  C   UNL     1       9.382  10.004  -9.579  1.00  0.00     0.049 A 
ATOM     46  C   UNL     1      11.679   5.105 -11.134  1.00  0.00     0.074 A 
ATOM     47  C   UNL     1      10.058  11.148  -9.966  1.00  0.00     0.029 A 
ATOM     48  N   UNL     1      10.099   8.929 -10.092  1.00  0.00    -0.354 N 
ATOM     49  N   UNL     1      11.253   6.315 -10.854  1.00  0.00    -0.248 NA
ATOM     50  C   UNL     1      12.887   5.069 -11.969  1.00  0.00     0.031 C 
ATOM     51  C   UNL     1      11.149  10.768 -10.757  1.00  0.00     0.029 A 
ATOM     52  C   UNL     1      11.194   9.384 -10.810  1.00  0.00     0.049 A 
ATOM     53  H   UNL     1       9.864   7.982  -9.964  1.00  0.00     0.167 HD
ATOM     54  C   UNL     1      12.157   7.185 -11.455  1.00  0.00     0.074 A 
ATOM     55  C   UNL     1      13.154   6.360 -12.109  1.00  0.00     0.031 C 
ATOM     56  C   UNL     1      12.170   8.542 -11.462  1.00  0.00     0.034 A 
BRANCH  43  57
ATOM     57  C   UNL     1       7.463  11.141  -8.345  1.00  0.00     0.023 A 
ATOM     58  C   UNL     1       7.291  11.440  -6.982  1.00  0.00     0.031 A 
ATOM     59  C   UNL     1       6.897  12.017  -9.288  1.00  0.00     0.131 A 
ATOM     60  C   UNL     1       6.505  12.539  -6.601  1.00  0.00     0.055 A 
ATOM     61  C   UNL     1       6.183  13.153  -8.902  1.00  0.00     0.041 A 
ATOM     62  F   UNL     1       7.008  11.771 -10.603  1.00  0.00    -0.206 F 
ATOM     63  C   UNL     1       5.968  13.410  -7.551  1.00  0.00     0.022 A 
BRANCH  60  64
ATOM     64  S   UNL     1       6.062  12.722  -4.851  1.00  0.00     0.124 S 
ATOM     65  O   UNL     1       5.395  11.450  -4.579  1.00  0.00    -0.237 OA
ATOM     66  O   UNL     1       7.360  12.911  -4.215  1.00  0.00    -0.237 OA
ATOM     67  O   UNL     1       5.184  13.890  -4.839  1.00  0.00    -0.744 OA
ENDBRANCH  60  64
ENDBRANCH  43  57
BRANCH  44  68
ATOM     68  C   UNL     1      11.711   2.499 -11.184  1.00  0.00     0.023 A 
ATOM     69  C   UNL     1      12.985   2.110 -10.745  1.00  0.00     0.031 A 
ATOM     70  C   UNL     1      11.042   1.664 -12.097  1.00  0.00     0.131 A 
ATOM     71  C   UNL     1      13.566   0.933 -11.245  1.00  0.00     0.055 A 
ATOM     72  C   UNL     1      11.604   0.472 -12.555  1.00  0.00     0.041 A 
ATOM     73  F   UNL     1       9.821   1.992 -12.549  1.00  0.00    -0.206 F 
ATOM     74  C   UNL     1      12.879   0.106 -12.136  1.00  0.00     0.022 A 
BRANCH  71  75
ATOM     75  S   UNL     1      15.268   0.532 -10.763  1.00  0.00     0.124 S 
ATOM     76  O   UNL     1      15.996   1.702 -11.241  1.00  0.00    -0.237 OA
ATOM     77  O   UNL     1      15.149   0.397  -9.315  1.00  0.00    -0.237 OA
ATOM     78  O   UNL     1      15.541  -0.711 -11.482  1.00  0.00    -0.744 OA
ENDBRANCH  71  75
ENDBRANCH  44  68
BRANCH  56  79
ATOM     79  C   UNL     1      13.332   9.207 -12.154  1.00  0.00     0.023 A 
ATOM     80  C   UNL     1      13.470   9.187 -13.552  1.00  0.00     0.031 A 
ATOM     81  C   UNL     1      14.320   9.859 -11.396  1.00  0.00     0.131 A 
ATOM     82  C   UNL     1      14.599   9.771 -14.148  1.00  0.00     0.055 A 
ATOM     83  C   UNL     1      15.415  10.479 -11.997  1.00  0.00     0.041 A 
ATOM     84  F   UNL     1      14.233   9.904 -10.056  1.00  0.00    -0.206 F 
ATOM     85  C   UNL     1      15.565  10.428 -13.380  1.00  0.00     0.022 A 
BRANCH  82  86
ATOM     86  S   UNL     1      14.826   9.603 -15.940  1.00  0.00     0.124 S 
ATOM     87  O   UNL     1      14.903   8.155 -16.102  1.00  0.00    -0.237 OA
ATOM     88  O   UNL     1      13.625  10.241 -16.469  1.00  0.00    -0.237 OA
ATOM     89  O   UNL     1      16.073  10.322 -16.197  1.00  0.00    -0.744 OA
ENDBRANCH  82  86
ENDBRANCH  56  79
ENDBRANCH  30  31
ENDBRANCH  23  25
ENDBRANCH  22  23
ENDBRANCH   1  22
TORSDOF 16
