REMARK SMILES Cc1c(C(=O)OCCOC(=O)c2ccc(-c3c4nc(c(-c5cc(S(=O)(=O)[O-])ccc5F)c5ccc([nH]5)c(-c5cc(S(=O)(=O)[O-])ccc5F)c5nc(c(-c6cc(S(=O)(=O)[O-])ccc6F)c6ccc3[nH]6)C=C5)C=C4)cc2)sc2ncnc(NCc3cn4c(n3)SCC4)c12
REMARK SMILES IDX 7 1 6 2 4 3 5 4 3 5 1 6 2 7 91 8 75 9 76 10 80 11 77 12
REMARK SMILES IDX 79 13 78 14 81 15 82 17 83 18 84 19 87 20 85 21 86 22 90 23
REMARK SMILES IDX 88 24 89 25 8 26 9 27 10 28 11 29 12 30 13 31 74 32 14 33
REMARK SMILES IDX 73 34 15 35 16 36 17 37 67 38 18 39 72 40 66 41 68 42 19 43
REMARK SMILES IDX 71 44 65 45 64 46 20 48 52 49 32 50 51 51 33 52 36 53 50 54
REMARK SMILES IDX 69 55 34 56 35 57 49 59 70 60 37 61 21 62 22 63 30 64 23 65
REMARK SMILES IDX 29 66 31 67 28 68 24 69 25 70 26 71 27 72 53 73 54 74 62 75
REMARK SMILES IDX 55 76 61 77 63 78 60 79 56 80 57 81 58 82 59 83 38 84 39 85
REMARK SMILES IDX 47 86 40 87 46 88 48 89 45 90 41 91 42 92 43 93 44 94
REMARK H PARENT 81 16 68 47 36 58
REMARK Flexibility Score: inf
ROOT
ATOM      1  C   UNL     1      -4.406  -0.754   0.053  1.00  0.00     0.275 C 
ENDROOT
BRANCH   1   2
ATOM      2  O   UNL     1      -3.288  -1.653  -0.058  1.00  0.00    -0.458 OA
BRANCH   2   3
ATOM      3  C   UNL     1      -2.186  -1.149  -0.690  1.00  0.00     0.348 C 
ATOM      4  O   UNL     1      -2.184  -0.082  -1.301  1.00  0.00    -0.245 OA
BRANCH   3   5
ATOM      5  C   UNL     1      -1.009  -1.990  -0.508  1.00  0.00     0.118 A 
ATOM      6  C   UNL     1       0.657  -0.115  -0.350  1.00  0.00     0.047 C 
ATOM      7  C   UNL     1       0.320  -1.565  -0.441  1.00  0.00    -0.012 A 
ATOM      8  C   UNL     1       1.264  -2.683  -0.434  1.00  0.00     0.058 A 
ATOM      9  S   UNL     1      -1.146  -3.672  -0.331  1.00  0.00    -0.108 S 
ATOM     10  C   UNL     1       0.542  -3.869  -0.297  1.00  0.00     0.129 A 
ATOM     11  C   UNL     1       2.677  -2.860  -0.527  1.00  0.00     0.138 A 
ATOM     12  N   UNL     1       1.022  -5.119  -0.182  1.00  0.00    -0.225 NA
ATOM     13  N   UNL     1       3.171  -4.123  -0.411  1.00  0.00    -0.219 NA
ATOM     14  C   UNL     1       2.346  -5.152  -0.211  1.00  0.00     0.225 A 
BRANCH  11  15
ATOM     15  N   UNL     1       3.698  -1.989  -0.811  1.00  0.00    -0.364 N 
ATOM     16  H   UNL     1       4.512  -2.424  -1.153  1.00  0.00     0.162 HD
BRANCH  15  17
ATOM     17  C   UNL     1       3.802  -0.555  -0.702  1.00  0.00     0.172 C 
BRANCH  17  18
ATOM     18  C   UNL     1       3.988   0.020   0.672  1.00  0.00     0.079 A 
ATOM     19  C   UNL     1       4.494   1.264   1.039  1.00  0.00     0.113 A 
ATOM     20  N   UNL     1       3.723  -0.754   1.795  1.00  0.00    -0.226 NA
ATOM     21  N   UNL     1       4.568   1.201   2.391  1.00  0.00    -0.325 N 
ATOM     22  C   UNL     1       4.108  -0.012   2.792  1.00  0.00     0.168 A 
ATOM     23  C   UNL     1       5.244   1.999   3.394  1.00  0.00     0.135 C 
ATOM     24  S   UNL     1       4.489  -0.364   4.428  1.00  0.00    -0.086 SA
ATOM     25  C   UNL     1       5.730   0.994   4.445  1.00  0.00     0.100 C 
ENDBRANCH  17  18
ENDBRANCH  15  17
ENDBRANCH  11  15
ENDBRANCH   3   5
ENDBRANCH   2   3
ENDBRANCH   1   2
BRANCH   1  26
ATOM     26  C   UNL     1      -4.418  -0.001   1.381  1.00  0.00     0.275 C 
BRANCH  26  27
ATOM     27  O   UNL     1      -3.396   0.996   1.477  1.00  0.00    -0.458 OA
BRANCH  27  28
ATOM     28  C   UNL     1      -2.248   0.532   2.021  1.00  0.00     0.338 C 
ATOM     29  O   UNL     1      -1.881  -0.629   2.066  1.00  0.00    -0.246 OA
BRANCH  28  30
ATOM     30  C   UNL     1      -1.547   1.592   2.742  1.00  0.00     0.060 A 
ATOM     31  C   UNL     1      -0.201   1.370   3.050  1.00  0.00     0.016 A 
ATOM     32  C   UNL     1      -2.283   2.625   3.336  1.00  0.00     0.016 A 
ATOM     33  C   UNL     1       0.380   2.110   4.056  1.00  0.00     0.010 A 
ATOM     34  C   UNL     1      -1.699   3.365   4.341  1.00  0.00     0.010 A 
ATOM     35  C   UNL     1      -0.394   3.055   4.736  1.00  0.00    -0.014 A 
BRANCH  35  36
ATOM     36  C   UNL     1       0.249   3.805   5.804  1.00  0.00     0.031 A 
ATOM     37  C   UNL     1       1.349   4.688   5.315  1.00  0.00     0.074 A 
ATOM     38  C   UNL     1      -0.241   3.785   7.061  1.00  0.00     0.049 A 
ATOM     39  N   UNL     1       2.578   4.761   5.712  1.00  0.00    -0.248 NA
ATOM     40  C   UNL     1       1.072   5.495   4.107  1.00  0.00     0.031 C 
ATOM     41  C   UNL     1      -1.470   3.134   7.530  1.00  0.00     0.029 A 
ATOM     42  N   UNL     1       0.174   4.459   8.167  1.00  0.00    -0.354 N 
ATOM     43  C   UNL     1       3.154   5.787   4.965  1.00  0.00     0.074 A 
ATOM     44  C   UNL     1       2.253   6.066   3.882  1.00  0.00     0.031 C 
ATOM     45  C   UNL     1      -1.831   3.668   8.718  1.00  0.00     0.029 A 
ATOM     46  C   UNL     1      -0.810   4.610   9.143  1.00  0.00     0.049 A 
ATOM     47  H   UNL     1       1.088   4.810   8.269  1.00  0.00     0.167 HD
ATOM     48  C   UNL     1       4.210   6.507   5.425  1.00  0.00     0.034 A 
ATOM     49  C   UNL     1      -0.825   5.529  10.147  1.00  0.00     0.034 A 
ATOM     50  C   UNL     1       4.942   5.792   6.435  1.00  0.00     0.049 A 
ATOM     51  C   UNL     1       0.580   5.995  10.305  1.00  0.00     0.074 A 
ATOM     52  C   UNL     1       5.639   4.601   6.457  1.00  0.00     0.029 A 
ATOM     53  N   UNL     1       4.717   6.114   7.752  1.00  0.00    -0.354 N 
ATOM     54  N   UNL     1       1.570   5.221  10.666  1.00  0.00    -0.248 NA
ATOM     55  C   UNL     1       0.966   7.202   9.588  1.00  0.00     0.031 C 
ATOM     56  C   UNL     1       5.331   4.023   7.721  1.00  0.00     0.029 A 
ATOM     57  C   UNL     1       4.543   4.933   8.430  1.00  0.00     0.049 A 
ATOM     58  H   UNL     1       4.686   7.020   8.136  1.00  0.00     0.167 HD
ATOM     59  C   UNL     1       2.644   5.621   9.884  1.00  0.00     0.074 A 
ATOM     60  C   UNL     1       2.229   6.889   9.287  1.00  0.00     0.031 C 
ATOM     61  C   UNL     1       3.658   4.764   9.566  1.00  0.00     0.034 A 
BRANCH  48  62
ATOM     62  C   UNL     1       4.359   7.991   5.202  1.00  0.00     0.023 A 
ATOM     63  C   UNL     1       5.556   8.607   5.602  1.00  0.00     0.031 A 
ATOM     64  C   UNL     1       3.288   8.861   4.882  1.00  0.00     0.131 A 
ATOM     65  C   UNL     1       5.636  10.006   5.723  1.00  0.00     0.055 A 
ATOM     66  C   UNL     1       3.393  10.251   4.943  1.00  0.00     0.041 A 
ATOM     67  F   UNL     1       2.059   8.416   4.591  1.00  0.00    -0.206 F 
ATOM     68  C   UNL     1       4.565  10.833   5.389  1.00  0.00     0.022 A 
BRANCH  65  69
ATOM     69  S   UNL     1       7.126  10.724   6.460  1.00  0.00     0.124 S 
ATOM     70  O   UNL     1       7.152  10.075   7.766  1.00  0.00    -0.237 OA
ATOM     71  O   UNL     1       8.157  10.311   5.514  1.00  0.00    -0.237 OA
ATOM     72  O   UNL     1       6.838  12.156   6.479  1.00  0.00    -0.744 OA
ENDBRANCH  65  69
ENDBRANCH  48  62
BRANCH  49  73
ATOM     73  C   UNL     1      -2.010   6.294  10.657  1.00  0.00     0.023 A 
ATOM     74  C   UNL     1      -1.947   7.086  11.826  1.00  0.00     0.031 A 
ATOM     75  C   UNL     1      -3.172   6.452   9.864  1.00  0.00     0.131 A 
ATOM     76  C   UNL     1      -3.003   7.973  12.154  1.00  0.00     0.055 A 
ATOM     77  C   UNL     1      -4.217   7.318  10.200  1.00  0.00     0.041 A 
ATOM     78  F   UNL     1      -3.304   5.838   8.679  1.00  0.00    -0.206 F 
ATOM     79  C   UNL     1      -4.132   8.092  11.343  1.00  0.00     0.022 A 
BRANCH  76  80
ATOM     80  S   UNL     1      -2.869   9.089  13.590  1.00  0.00     0.124 S 
ATOM     81  O   UNL     1      -3.166   8.191  14.700  1.00  0.00    -0.237 OA
ATOM     82  O   UNL     1      -1.496   9.569  13.492  1.00  0.00    -0.237 OA
ATOM     83  O   UNL     1      -3.891  10.103  13.326  1.00  0.00    -0.744 OA
ENDBRANCH  76  80
ENDBRANCH  49  73
BRANCH  61  84
ATOM     84  C   UNL     1       3.779   3.448  10.302  1.00  0.00     0.023 A 
ATOM     85  C   UNL     1       2.873   2.369  10.191  1.00  0.00     0.031 A 
ATOM     86  C   UNL     1       4.990   3.224  10.980  1.00  0.00     0.131 A 
ATOM     87  C   UNL     1       3.212   1.115  10.744  1.00  0.00     0.055 A 
ATOM     88  C   UNL     1       5.330   1.978  11.502  1.00  0.00     0.041 A 
ATOM     89  F   UNL     1       5.901   4.207  11.082  1.00  0.00    -0.206 F 
ATOM     90  C   UNL     1       4.442   0.917  11.382  1.00  0.00     0.022 A 
BRANCH  87  91
ATOM     91  S   UNL     1       2.079  -0.307  10.592  1.00  0.00     0.124 S 
ATOM     92  O   UNL     1       0.903   0.133  11.334  1.00  0.00    -0.237 OA
ATOM     93  O   UNL     1       1.919  -0.438   9.148  1.00  0.00    -0.237 OA
ATOM     94  O   UNL     1       2.820  -1.403  11.222  1.00  0.00    -0.744 OA
ENDBRANCH  87  91
ENDBRANCH  61  84
ENDBRANCH  35  36
ENDBRANCH  28  30
ENDBRANCH  27  28
ENDBRANCH  26  27
ENDBRANCH   1  26
TORSDOF 17
