REMARK SMILES [NH3+]CCOCC(=O)Nc1ccc(C(=O)OCCOC(=O)c2ccc(-c3c4nc(c(-c5cc(S(=O)(=O)[O-])ccc5F)c5ccc([nH]5)c(-c5cc(S(=O)(=O)[O-])ccc5F)c5nc(c(-c6cc(S(=O)(=O)[O-])ccc6F)c6ccc3[nH]6)C=C5)C=C4)cc2)c(Cl)c1
REMARK SMILES IDX 15 1 13 2 14 3 12 4 9 5 10 6 86 7 11 8 84 9 85 10 8 11 6 12
REMARK SMILES IDX 7 13 5 15 4 16 3 17 2 18 1 19 16 23 17 24 18 25 19 26 20 27
REMARK SMILES IDX 21 28 22 29 83 30 23 31 82 32 24 33 25 34 26 35 76 36 27 37
REMARK SMILES IDX 81 38 75 39 77 40 28 41 80 42 74 43 73 44 29 46 61 47 41 48
REMARK SMILES IDX 60 49 42 50 45 51 59 52 78 53 43 54 44 55 58 57 79 58 46 59
REMARK SMILES IDX 30 60 31 61 39 62 32 63 38 64 40 65 37 66 33 67 34 68 35 69
REMARK SMILES IDX 36 70 62 71 63 72 71 73 64 74 70 75 72 76 69 77 65 78 66 79
REMARK SMILES IDX 67 80 68 81 47 82 48 83 56 84 49 85 55 86 57 87 54 88 50 89
REMARK SMILES IDX 51 90 52 91 53 92
REMARK H PARENT 8 14 1 20 1 21 1 22 77 45 45 56
REMARK Flexibility Score: inf
ROOT
ATOM      1  O   UNL     1       0.619   9.377   0.668  1.00  0.00    -0.458 OA
ENDROOT
BRANCH   1   2
ATOM      2  C   UNL     1       1.397   8.723   1.562  1.00  0.00     0.339 C 
ATOM      3  O   UNL     1       1.542   8.992   2.745  1.00  0.00    -0.246 OA
BRANCH   2   4
ATOM      4  C   UNL     1       1.948   7.502   0.946  1.00  0.00     0.078 A 
ATOM      5  C   UNL     1       2.760   5.055  -0.167  1.00  0.00     0.042 A 
ATOM      6  C   UNL     1       2.116   5.086   1.068  1.00  0.00     0.027 A 
ATOM      7  C   UNL     1       3.090   6.261  -0.794  1.00  0.00     0.047 A 
ATOM      8  C   UNL     1       1.739   6.303   1.637  1.00  0.00     0.019 A 
ATOM      9  C   UNL     1       2.661   7.484  -0.255  1.00  0.00     0.057 A 
ATOM     10  Cl  UNL     1       3.105   8.928  -1.095  1.00  0.00    -0.083 Cl
BRANCH   5  11
ATOM     11  N   UNL     1       3.174   3.853  -0.757  1.00  0.00    -0.324 N 
ATOM     12  C   UNL     1       2.562   2.623  -0.741  1.00  0.00     0.250 C 
ATOM     13  O   UNL     1       3.220   1.626  -1.052  1.00  0.00    -0.272 OA
ATOM     14  H   UNL     1       4.023   3.897  -1.252  1.00  0.00     0.170 HD
BRANCH  12  15
ATOM     15  C   UNL     1       1.043   2.528  -0.482  1.00  0.00     0.260 C 
BRANCH  15  16
ATOM     16  O   UNL     1       0.560   2.430   0.840  1.00  0.00    -0.366 OA
BRANCH  16  17
ATOM     17  C   UNL     1       1.059   1.332   1.604  1.00  0.00     0.222 C 
BRANCH  17  18
ATOM     18  C   UNL     1       0.498  -0.043   1.202  1.00  0.00     0.287 C 
BRANCH  18  19
ATOM     19  N   UNL     1       1.167  -0.661   0.054  1.00  0.00    -0.356 N 
ATOM     20  H   UNL     1       0.736  -1.565  -0.144  1.00  0.00     0.344 HD
ATOM     21  H   UNL     1       2.155  -0.796   0.268  1.00  0.00     0.344 HD
ATOM     22  H   UNL     1       1.075  -0.055  -0.761  1.00  0.00     0.344 HD
ENDBRANCH  18  19
ENDBRANCH  17  18
ENDBRANCH  16  17
ENDBRANCH  15  16
ENDBRANCH  12  15
ENDBRANCH   5  11
ENDBRANCH   2   4
ENDBRANCH   1   2
BRANCH   1  23
ATOM     23  C   UNL     1      -0.110  10.516   1.161  1.00  0.00     0.275 C 
BRANCH  23  24
ATOM     24  C   UNL     1      -1.590  10.403   0.792  1.00  0.00     0.275 C 
BRANCH  24  25
ATOM     25  O   UNL     1      -2.209   9.303   1.488  1.00  0.00    -0.458 OA
BRANCH  25  26
ATOM     26  C   UNL     1      -2.353   8.177   0.753  1.00  0.00     0.338 C 
ATOM     27  O   UNL     1      -2.053   8.016  -0.420  1.00  0.00    -0.246 OA
BRANCH  26  28
ATOM     28  C   UNL     1      -2.830   7.078   1.606  1.00  0.00     0.060 A 
ATOM     29  C   UNL     1      -1.902   6.105   1.974  1.00  0.00     0.016 A 
ATOM     30  C   UNL     1      -4.181   6.912   1.905  1.00  0.00     0.016 A 
ATOM     31  C   UNL     1      -2.317   4.936   2.607  1.00  0.00     0.010 A 
ATOM     32  C   UNL     1      -4.599   5.743   2.558  1.00  0.00     0.010 A 
ATOM     33  C   UNL     1      -3.675   4.729   2.882  1.00  0.00    -0.014 A 
BRANCH  33  34
ATOM     34  C   UNL     1      -4.131   3.396   3.367  1.00  0.00     0.031 A 
ATOM     35  C   UNL     1      -4.934   2.512   2.447  1.00  0.00     0.074 A 
ATOM     36  C   UNL     1      -3.783   2.943   4.587  1.00  0.00     0.049 A 
ATOM     37  N   UNL     1      -5.527   1.372   2.695  1.00  0.00    -0.248 NA
ATOM     38  C   UNL     1      -5.098   2.987   1.065  1.00  0.00     0.031 C 
ATOM     39  C   UNL     1      -2.958   3.667   5.554  1.00  0.00     0.029 A 
ATOM     40  N   UNL     1      -4.074   1.758   5.218  1.00  0.00    -0.354 N 
ATOM     41  C   UNL     1      -6.178   1.018   1.516  1.00  0.00     0.074 A 
ATOM     42  C   UNL     1      -5.912   2.072   0.560  1.00  0.00     0.031 C 
ATOM     43  C   UNL     1      -2.793   2.903   6.647  1.00  0.00     0.029 A 
ATOM     44  C   UNL     1      -3.546   1.662   6.485  1.00  0.00     0.049 A 
ATOM     45  H   UNL     1      -4.610   1.044   4.802  1.00  0.00     0.167 HD
ATOM     46  C   UNL     1      -6.927  -0.084   1.256  1.00  0.00     0.034 A 
ATOM     47  C   UNL     1      -3.678   0.698   7.419  1.00  0.00     0.034 A 
ATOM     48  C   UNL     1      -7.149  -1.151   2.202  1.00  0.00     0.049 A 
ATOM     49  C   UNL     1      -4.521  -0.515   7.112  1.00  0.00     0.074 A 
ATOM     50  C   UNL     1      -7.899  -2.304   2.045  1.00  0.00     0.029 A 
ATOM     51  N   UNL     1      -6.607  -1.204   3.480  1.00  0.00    -0.354 N 
ATOM     52  N   UNL     1      -5.194  -0.798   6.021  1.00  0.00    -0.248 NA
ATOM     53  C   UNL     1      -4.624  -1.534   8.165  1.00  0.00     0.031 C 
ATOM     54  C   UNL     1      -7.845  -3.033   3.240  1.00  0.00     0.029 A 
ATOM     55  C   UNL     1      -7.011  -2.365   4.122  1.00  0.00     0.049 A 
ATOM     56  H   UNL     1      -6.020  -0.518   3.872  1.00  0.00     0.167 HD
ATOM     57  C   UNL     1      -5.787  -2.036   6.254  1.00  0.00     0.074 A 
ATOM     58  C   UNL     1      -5.376  -2.453   7.578  1.00  0.00     0.031 C 
ATOM     59  C   UNL     1      -6.600  -2.763   5.446  1.00  0.00     0.034 A 
BRANCH  46  60
ATOM     60  C   UNL     1      -7.612  -0.149  -0.087  1.00  0.00     0.023 A 
ATOM     61  C   UNL     1      -6.891  -0.252  -1.289  1.00  0.00     0.031 A 
ATOM     62  C   UNL     1      -9.014  -0.059  -0.165  1.00  0.00     0.131 A 
ATOM     63  C   UNL     1      -7.568  -0.185  -2.517  1.00  0.00     0.055 A 
ATOM     64  C   UNL     1      -9.687  -0.073  -1.388  1.00  0.00     0.041 A 
ATOM     65  F   UNL     1      -9.753   0.063   0.949  1.00  0.00    -0.206 F 
ATOM     66  C   UNL     1      -8.962  -0.120  -2.575  1.00  0.00     0.022 A 
BRANCH  63  67
ATOM     67  S   UNL     1      -6.591  -0.035  -4.039  1.00  0.00     0.124 S 
ATOM     68  O   UNL     1      -5.843   1.196  -3.789  1.00  0.00    -0.237 OA
ATOM     69  O   UNL     1      -5.811  -1.267  -4.037  1.00  0.00    -0.237 OA
ATOM     70  O   UNL     1      -7.603   0.062  -5.088  1.00  0.00    -0.744 OA
ENDBRANCH  63  67
ENDBRANCH  46  60
BRANCH  47  71
ATOM     71  C   UNL     1      -3.043   0.855   8.758  1.00  0.00     0.023 A 
ATOM     72  C   UNL     1      -2.023  -0.009   9.187  1.00  0.00     0.031 A 
ATOM     73  C   UNL     1      -3.486   1.848   9.650  1.00  0.00     0.131 A 
ATOM     74  C   UNL     1      -1.506   0.112  10.486  1.00  0.00     0.055 A 
ATOM     75  C   UNL     1      -2.935   1.995  10.924  1.00  0.00     0.041 A 
ATOM     76  F   UNL     1      -4.459   2.699   9.289  1.00  0.00    -0.206 F 
ATOM     77  C   UNL     1      -1.946   1.115  11.353  1.00  0.00     0.022 A 
BRANCH  74  78
ATOM     78  S   UNL     1      -0.295  -1.112  11.058  1.00  0.00     0.124 S 
ATOM     79  O   UNL     1      -1.041  -2.357  10.918  1.00  0.00    -0.237 OA
ATOM     80  O   UNL     1       0.803  -0.912  10.119  1.00  0.00    -0.237 OA
ATOM     81  O   UNL     1      -0.018  -0.700  12.433  1.00  0.00    -0.744 OA
ENDBRANCH  74  78
ENDBRANCH  47  71
BRANCH  59  82
ATOM     82  C   UNL     1      -7.056  -4.104   5.965  1.00  0.00     0.023 A 
ATOM     83  C   UNL     1      -7.965  -4.213   7.031  1.00  0.00     0.031 A 
ATOM     84  C   UNL     1      -6.553  -5.287   5.396  1.00  0.00     0.131 A 
ATOM     85  C   UNL     1      -8.306  -5.480   7.530  1.00  0.00     0.055 A 
ATOM     86  C   UNL     1      -6.931  -6.545   5.866  1.00  0.00     0.041 A 
ATOM     87  F   UNL     1      -5.681  -5.237   4.376  1.00  0.00    -0.206 F 
ATOM     88  C   UNL     1      -7.803  -6.646   6.947  1.00  0.00     0.022 A 
BRANCH  85  89
ATOM     89  S   UNL     1      -9.353  -5.584   9.008  1.00  0.00     0.124 S 
ATOM     90  O   UNL     1      -8.585  -4.812   9.981  1.00  0.00    -0.237 OA
ATOM     91  O   UNL     1     -10.598  -4.976   8.552  1.00  0.00    -0.237 OA
ATOM     92  O   UNL     1      -9.427  -7.019   9.277  1.00  0.00    -0.744 OA
ENDBRANCH  85  89
ENDBRANCH  59  82
ENDBRANCH  33  34
ENDBRANCH  26  28
ENDBRANCH  25  26
ENDBRANCH  24  25
ENDBRANCH  23  24
ENDBRANCH   1  23
TORSDOF 20
