REMARK SMILES C[C@H]1[C@H](C(=O)OCCOC(=O)c2ccc(-c3c4nc(c(-c5cc(S(=O)(=O)[O-])ccc5F)c5ccc([nH]5)c(-c5cc(S(=O)(=O)[O-])ccc5F)c5nc(c(-c6cc(S(=O)(=O)[O-])ccc6F)c6ccc3[nH]6)C=C5)C=C4)cc2)CCN1C(=O)[C@H]1CC=CCC1
REMARK SMILES IDX 8 1 7 2 6 3 4 4 5 5 3 6 1 7 2 8 77 9 75 10 76 11 78 12 79 13
REMARK SMILES IDX 80 14 81 15 85 16 82 17 84 18 83 19 9 20 10 21 11 22 12 23
REMARK SMILES IDX 13 24 74 25 14 26 73 27 15 28 16 29 17 30 67 31 18 32 72 33
REMARK SMILES IDX 66 34 68 35 19 36 71 37 65 38 64 39 20 41 52 42 32 43 51 44
REMARK SMILES IDX 33 45 36 46 50 47 69 48 34 49 35 50 49 52 70 53 37 54 21 55
REMARK SMILES IDX 22 56 30 57 23 58 29 59 31 60 28 61 24 62 25 63 26 64 27 65
REMARK SMILES IDX 53 66 54 67 62 68 55 69 61 70 63 71 60 72 56 73 57 74 58 75
REMARK SMILES IDX 59 76 38 77 39 78 47 79 40 80 46 81 48 82 45 83 41 84 42 85
REMARK SMILES IDX 43 86 44 87
REMARK H PARENT 68 40 36 51
REMARK Flexibility Score: inf
ROOT
ATOM      1  C   UNL     1       0.840   3.432   3.494  1.00  0.00     0.275 C 
ENDROOT
BRANCH   1   2
ATOM      2  C   UNL     1      -0.527   2.781   3.257  1.00  0.00     0.274 C 
BRANCH   2   3
ATOM      3  O   UNL     1      -0.477   1.749   2.251  1.00  0.00    -0.462 OA
BRANCH   3   4
ATOM      4  C   UNL     1      -0.869   2.120   1.006  1.00  0.00     0.311 C 
ATOM      5  O   UNL     1      -1.293   3.234   0.717  1.00  0.00    -0.252 OA
BRANCH   4   6
ATOM      6  C   UNL     1      -0.819   1.002  -0.009  1.00  0.00     0.123 C 
ATOM      7  C   UNL     1       1.254   0.135  -1.122  1.00  0.00     0.032 C 
ATOM      8  C   UNL     1       0.358   0.003   0.116  1.00  0.00     0.096 C 
ATOM      9  N   UNL     1      -0.284  -1.318   0.171  1.00  0.00    -0.339 N 
ATOM     10  C   UNL     1      -2.089   0.157   0.066  1.00  0.00     0.039 C 
ATOM     11  C   UNL     1      -1.630  -1.219  -0.366  1.00  0.00     0.121 C 
BRANCH   9  12
ATOM     12  C   UNL     1       0.164  -2.530   0.639  1.00  0.00     0.226 C 
ATOM     13  O   UNL     1      -0.557  -3.532   0.505  1.00  0.00    -0.275 OA
BRANCH  12  14
ATOM     14  C   UNL     1       1.491  -2.729   1.391  1.00  0.00     0.083 C 
ATOM     15  C   UNL     1       2.776  -2.530   0.588  1.00  0.00     0.040 C 
ATOM     16  C   UNL     1       1.511  -2.182   2.825  1.00  0.00     0.018 C 
ATOM     17  C   UNL     1       3.608  -1.355   0.991  1.00  0.00    -0.030 C 
ATOM     18  C   UNL     1       2.269  -0.875   3.051  1.00  0.00     0.028 C 
ATOM     19  C   UNL     1       3.383  -0.623   2.088  1.00  0.00    -0.031 C 
ENDBRANCH  12  14
ENDBRANCH   9  12
ENDBRANCH   4   6
ENDBRANCH   3   4
ENDBRANCH   2   3
ENDBRANCH   1   2
BRANCH   1  20
ATOM     20  O   UNL     1       1.287   4.194   2.358  1.00  0.00    -0.458 OA
BRANCH  20  21
ATOM     21  C   UNL     1       2.024   3.493   1.469  1.00  0.00     0.338 C 
ATOM     22  O   UNL     1       2.346   2.318   1.548  1.00  0.00    -0.246 OA
BRANCH  21  23
ATOM     23  C   UNL     1       2.313   4.302   0.282  1.00  0.00     0.060 A 
ATOM     24  C   UNL     1       1.705   3.941  -0.923  1.00  0.00     0.016 A 
ATOM     25  C   UNL     1       3.268   5.316   0.326  1.00  0.00     0.016 A 
ATOM     26  C   UNL     1       2.074   4.569  -2.106  1.00  0.00     0.010 A 
ATOM     27  C   UNL     1       3.618   5.966  -0.859  1.00  0.00     0.010 A 
ATOM     28  C   UNL     1       3.034   5.585  -2.081  1.00  0.00    -0.014 A 
BRANCH  28  29
ATOM     29  C   UNL     1       3.451   6.244  -3.339  1.00  0.00     0.031 A 
ATOM     30  C   UNL     1       4.808   5.962  -3.909  1.00  0.00     0.074 A 
ATOM     31  C   UNL     1       2.612   7.103  -3.945  1.00  0.00     0.049 A 
ATOM     32  N   UNL     1       5.442   6.571  -4.876  1.00  0.00    -0.248 NA
ATOM     33  C   UNL     1       5.551   4.847  -3.304  1.00  0.00     0.031 C 
ATOM     34  C   UNL     1       1.244   7.392  -3.512  1.00  0.00     0.029 A 
ATOM     35  N   UNL     1       2.794   7.906  -5.040  1.00  0.00    -0.354 N 
ATOM     36  C   UNL     1       6.673   5.934  -4.980  1.00  0.00     0.074 A 
ATOM     37  C   UNL     1       6.697   4.896  -3.969  1.00  0.00     0.031 C 
ATOM     38  C   UNL     1       0.718   8.324  -4.322  1.00  0.00     0.029 A 
ATOM     39  C   UNL     1       1.732   8.745  -5.282  1.00  0.00     0.049 A 
ATOM     40  H   UNL     1       3.605   7.885  -5.599  1.00  0.00     0.167 HD
ATOM     41  C   UNL     1       7.688   6.203  -5.838  1.00  0.00     0.034 A 
ATOM     42  C   UNL     1       1.614   9.776  -6.141  1.00  0.00     0.034 A 
ATOM     43  C   UNL     1       7.635   7.247  -6.832  1.00  0.00     0.049 A 
ATOM     44  C   UNL     1       2.785  10.116  -7.025  1.00  0.00     0.074 A 
ATOM     45  C   UNL     1       8.601   7.620  -7.750  1.00  0.00     0.029 A 
ATOM     46  N   UNL     1       6.550   8.093  -7.034  1.00  0.00    -0.354 N 
ATOM     47  N   UNL     1       3.965   9.543  -7.085  1.00  0.00    -0.248 NA
ATOM     48  C   UNL     1       2.614  11.243  -7.950  1.00  0.00     0.031 C 
ATOM     49  C   UNL     1       8.123   8.724  -8.467  1.00  0.00     0.029 A 
ATOM     50  C   UNL     1       6.833   9.000  -8.042  1.00  0.00     0.049 A 
ATOM     51  H   UNL     1       5.704   8.054  -6.532  1.00  0.00     0.167 HD
ATOM     52  C   UNL     1       4.667  10.223  -8.074  1.00  0.00     0.074 A 
ATOM     53  C   UNL     1       3.779  11.249  -8.583  1.00  0.00     0.031 C 
ATOM     54  C   UNL     1       5.928  10.014  -8.528  1.00  0.00     0.034 A 
BRANCH  41  55
ATOM     55  C   UNL     1       8.956   5.401  -5.684  1.00  0.00     0.023 A 
ATOM     56  C   UNL     1       8.999   4.019  -5.938  1.00  0.00     0.031 A 
ATOM     57  C   UNL     1      10.134   6.026  -5.236  1.00  0.00     0.131 A 
ATOM     58  C   UNL     1      10.175   3.297  -5.680  1.00  0.00     0.055 A 
ATOM     59  C   UNL     1      11.321   5.315  -5.051  1.00  0.00     0.041 A 
ATOM     60  F   UNL     1      10.146   7.338  -4.955  1.00  0.00    -0.206 F 
ATOM     61  C   UNL     1      11.342   3.939  -5.260  1.00  0.00     0.022 A 
BRANCH  58  62
ATOM     62  S   UNL     1      10.120   1.486  -5.773  1.00  0.00     0.124 S 
ATOM     63  O   UNL     1       9.084   1.171  -4.792  1.00  0.00    -0.237 OA
ATOM     64  O   UNL     1       9.771   1.252  -7.170  1.00  0.00    -0.237 OA
ATOM     65  O   UNL     1      11.472   1.082  -5.392  1.00  0.00    -0.744 OA
ENDBRANCH  58  62
ENDBRANCH  41  55
BRANCH  42  66
ATOM     66  C   UNL     1       0.375  10.601  -6.152  1.00  0.00     0.023 A 
ATOM     67  C   UNL     1      -0.475  10.621  -7.266  1.00  0.00     0.031 A 
ATOM     68  C   UNL     1       0.033  11.397  -5.043  1.00  0.00     0.131 A 
ATOM     69  C   UNL     1      -1.613  11.444  -7.260  1.00  0.00     0.055 A 
ATOM     70  C   UNL     1      -1.123  12.178  -5.023  1.00  0.00     0.041 A 
ATOM     71  F   UNL     1       0.813  11.411  -3.950  1.00  0.00    -0.206 F 
ATOM     72  C   UNL     1      -1.949  12.212  -6.142  1.00  0.00     0.022 A 
BRANCH  69  73
ATOM     73  S   UNL     1      -2.618  11.546  -8.765  1.00  0.00     0.124 S 
ATOM     74  O   UNL     1      -1.642  12.010  -9.745  1.00  0.00    -0.237 OA
ATOM     75  O   UNL     1      -3.076  10.169  -8.917  1.00  0.00    -0.237 OA
ATOM     76  O   UNL     1      -3.658  12.511  -8.415  1.00  0.00    -0.744 OA
ENDBRANCH  69  73
ENDBRANCH  42  66
BRANCH  54  77
ATOM     77  C   UNL     1       6.390  10.877  -9.672  1.00  0.00     0.023 A 
ATOM     78  C   UNL     1       6.717  12.231  -9.493  1.00  0.00     0.031 A 
ATOM     79  C   UNL     1       6.513  10.323 -10.959  1.00  0.00     0.131 A 
ATOM     80  C   UNL     1       7.120  12.999 -10.596  1.00  0.00     0.055 A 
ATOM     81  C   UNL     1       6.955  11.080 -12.042  1.00  0.00     0.041 A 
ATOM     82  F   UNL     1       6.211   9.033 -11.177  1.00  0.00    -0.206 F 
ATOM     83  C   UNL     1       7.254  12.428 -11.866  1.00  0.00     0.022 A 
BRANCH  80  84
ATOM     84  S   UNL     1       7.430  14.770 -10.361  1.00  0.00     0.124 S 
ATOM     85  O   UNL     1       6.108  15.261  -9.986  1.00  0.00    -0.237 OA
ATOM     86  O   UNL     1       8.436  14.777  -9.304  1.00  0.00    -0.237 OA
ATOM     87  O   UNL     1       7.907  15.211 -11.671  1.00  0.00    -0.744 OA
ENDBRANCH  80  84
ENDBRANCH  54  77
ENDBRANCH  28  29
ENDBRANCH  21  23
ENDBRANCH  20  21
ENDBRANCH   1  20
TORSDOF 16
