REMARK SMILES O=C(CCC(=O)OCCOC(=O)c1ccc(-c2c3nc(c(-c4cc(S(=O)(=O)[O-])ccc4F)c4ccc([nH]4)c(-c4cc(S(=O)(=O)[O-])ccc4F)c4nc(c(-c5cc(S(=O)(=O)[O-])ccc5F)c5ccc2[nH]5)C=C4)C=C3)cc1)Nc1ccc(N2CCN(c3ccc(F)cc3)CC2)cc1
REMARK SMILES IDX 8 1 7 2 5 3 6 4 4 5 3 6 2 7 1 8 76 9 77 11 78 12 95 13 79 14
REMARK SMILES IDX 94 15 80 16 81 17 82 18 93 19 83 20 92 21 84 22 85 23 86 24
REMARK SMILES IDX 91 25 87 26 90 27 88 28 89 29 9 30 10 31 11 32 12 33 13 34
REMARK SMILES IDX 14 35 75 36 15 37 74 38 16 39 17 40 18 41 68 42 19 43 73 44
REMARK SMILES IDX 67 45 69 46 20 47 72 48 66 49 65 50 21 52 53 53 33 54 52 55
REMARK SMILES IDX 34 56 37 57 51 58 70 59 35 60 36 61 50 63 71 64 38 65 22 66
REMARK SMILES IDX 23 67 31 68 24 69 30 70 32 71 29 72 25 73 26 74 27 75 28 76
REMARK SMILES IDX 54 77 55 78 63 79 56 80 62 81 64 82 61 83 57 84 58 85 59 86
REMARK SMILES IDX 60 87 39 88 40 89 48 90 41 91 47 92 49 93 46 94 42 95 43 96
REMARK SMILES IDX 44 97 45 98
REMARK H PARENT 76 10 69 51 37 62
REMARK Flexibility Score: inf
ROOT
ATOM      1  C   UNL     1       5.829  -0.469   2.288  1.00  0.00     0.274 C 
ENDROOT
BRANCH   1   2
ATOM      2  O   UNL     1       4.654   0.098   1.661  1.00  0.00    -0.462 OA
BRANCH   2   3
ATOM      3  C   UNL     1       4.670   1.421   1.351  1.00  0.00     0.306 C 
ATOM      4  O   UNL     1       5.593   2.178   1.624  1.00  0.00    -0.252 OA
BRANCH   3   5
ATOM      5  C   UNL     1       3.371   1.890   0.714  1.00  0.00     0.132 C 
BRANCH   5   6
ATOM      6  C   UNL     1       2.820   1.071  -0.455  1.00  0.00     0.112 C 
BRANCH   6   7
ATOM      7  C   UNL     1       1.869  -0.046  -0.043  1.00  0.00     0.224 C 
ATOM      8  O   UNL     1       0.681  -0.026  -0.353  1.00  0.00    -0.275 OA
ATOM      9  N   UNL     1       2.480  -1.006   0.728  1.00  0.00    -0.326 N 
ATOM     10  H   UNL     1       3.445  -0.885   0.881  1.00  0.00     0.169 HD
BRANCH   9  11
ATOM     11  C   UNL     1       1.903  -2.132   1.324  1.00  0.00     0.041 A 
ATOM     12  C   UNL     1       2.498  -2.588   2.500  1.00  0.00     0.028 A 
ATOM     13  C   UNL     1       0.810  -2.811   0.801  1.00  0.00     0.028 A 
ATOM     14  C   UNL     1       1.980  -3.692   3.170  1.00  0.00     0.028 A 
ATOM     15  C   UNL     1       0.333  -3.961   1.449  1.00  0.00     0.028 A 
ATOM     16  C   UNL     1       0.899  -4.408   2.650  1.00  0.00     0.037 A 
BRANCH  16  17
ATOM     17  N   UNL     1       0.437  -5.509   3.336  1.00  0.00    -0.368 N 
ATOM     18  C   UNL     1      -0.190  -5.314   4.654  1.00  0.00     0.138 C 
ATOM     19  C   UNL     1       0.154  -6.781   2.662  1.00  0.00     0.138 C 
ATOM     20  C   UNL     1      -1.713  -5.579   4.580  1.00  0.00     0.138 C 
ATOM     21  C   UNL     1      -1.355  -7.096   2.639  1.00  0.00     0.138 C 
ATOM     22  N   UNL     1      -1.985  -6.889   3.955  1.00  0.00    -0.368 N 
BRANCH  22  23
ATOM     23  C   UNL     1      -2.417  -7.934   4.742  1.00  0.00     0.037 A 
ATOM     24  C   UNL     1      -3.631  -7.823   5.439  1.00  0.00     0.029 A 
ATOM     25  C   UNL     1      -1.692  -9.126   4.880  1.00  0.00     0.029 A 
ATOM     26  C   UNL     1      -4.115  -8.865   6.233  1.00  0.00     0.041 A 
ATOM     27  C   UNL     1      -2.160 -10.168   5.688  1.00  0.00     0.041 A 
ATOM     28  C   UNL     1      -3.371 -10.029   6.352  1.00  0.00     0.123 A 
ATOM     29  F   UNL     1      -3.826 -11.030   7.117  1.00  0.00    -0.207 F 
ENDBRANCH  22  23
ENDBRANCH  16  17
ENDBRANCH   9  11
ENDBRANCH   6   7
ENDBRANCH   5   6
ENDBRANCH   3   5
ENDBRANCH   2   3
ENDBRANCH   1   2
BRANCH   1  30
ATOM     30  C   UNL     1       6.613  -1.329   1.293  1.00  0.00     0.275 C 
BRANCH  30  31
ATOM     31  O   UNL     1       7.352  -0.492   0.390  1.00  0.00    -0.458 OA
BRANCH  31  32
ATOM     32  C   UNL     1       6.674  -0.119  -0.721  1.00  0.00     0.338 C 
ATOM     33  O   UNL     1       5.573  -0.500  -1.063  1.00  0.00    -0.246 OA
BRANCH  32  34
ATOM     34  C   UNL     1       7.427   0.948  -1.391  1.00  0.00     0.060 A 
ATOM     35  C   UNL     1       6.881   2.235  -1.454  1.00  0.00     0.016 A 
ATOM     36  C   UNL     1       8.659   0.662  -1.975  1.00  0.00     0.016 A 
ATOM     37  C   UNL     1       7.576   3.252  -2.106  1.00  0.00     0.010 A 
ATOM     38  C   UNL     1       9.354   1.683  -2.621  1.00  0.00     0.010 A 
ATOM     39  C   UNL     1       8.815   2.980  -2.697  1.00  0.00    -0.014 A 
BRANCH  39  40
ATOM     40  C   UNL     1       9.547   4.021  -3.457  1.00  0.00     0.031 A 
ATOM     41  C   UNL     1       9.650   3.889  -4.949  1.00  0.00     0.074 A 
ATOM     42  C   UNL     1      10.160   5.029  -2.808  1.00  0.00     0.049 A 
ATOM     43  N   UNL     1      10.404   4.548  -5.788  1.00  0.00    -0.248 NA
ATOM     44  C   UNL     1       8.801   2.863  -5.577  1.00  0.00     0.031 C 
ATOM     45  C   UNL     1      10.082   5.278  -1.368  1.00  0.00     0.029 A 
ATOM     46  N   UNL     1      10.993   6.016  -3.273  1.00  0.00    -0.354 N 
ATOM     47  C   UNL     1      10.148   3.997  -7.038  1.00  0.00     0.074 A 
ATOM     48  C   UNL     1       9.179   2.939  -6.845  1.00  0.00     0.031 C 
ATOM     49  C   UNL     1      10.852   6.337  -1.065  1.00  0.00     0.029 A 
ATOM     50  C   UNL     1      11.530   6.798  -2.274  1.00  0.00     0.049 A 
ATOM     51  H   UNL     1      11.189   6.152  -4.228  1.00  0.00     0.167 HD
ATOM     52  C   UNL     1      10.683   4.344  -8.233  1.00  0.00     0.034 A 
ATOM     53  C   UNL     1      12.494   7.740  -2.325  1.00  0.00     0.034 A 
ATOM     54  C   UNL     1      11.639   5.411  -8.397  1.00  0.00     0.049 A 
ATOM     55  C   UNL     1      13.127   8.056  -3.662  1.00  0.00     0.074 A 
ATOM     56  C   UNL     1      12.219   5.871  -9.566  1.00  0.00     0.029 A 
ATOM     57  N   UNL     1      12.163   6.177  -7.364  1.00  0.00    -0.354 N 
ATOM     58  N   UNL     1      12.875   7.531  -4.840  1.00  0.00    -0.248 NA
ATOM     59  C   UNL     1      14.170   9.091  -3.680  1.00  0.00     0.031 C 
ATOM     60  C   UNL     1      13.154   6.854  -9.231  1.00  0.00     0.029 A 
ATOM     61  C   UNL     1      13.085   7.080  -7.865  1.00  0.00     0.049 A 
ATOM     62  H   UNL     1      11.915   6.090  -6.415  1.00  0.00     0.167 HD
ATOM     63  C   UNL     1      13.691   8.212  -5.742  1.00  0.00     0.074 A 
ATOM     64  C   UNL     1      14.440   9.182  -4.974  1.00  0.00     0.031 C 
ATOM     65  C   UNL     1      13.806   8.056  -7.085  1.00  0.00     0.034 A 
BRANCH  52  66
ATOM     66  C   UNL     1      10.298   3.535  -9.445  1.00  0.00     0.023 A 
ATOM     67  C   UNL     1       8.991   3.531  -9.959  1.00  0.00     0.031 A 
ATOM     68  C   UNL     1      11.272   2.771 -10.114  1.00  0.00     0.131 A 
ATOM     69  C   UNL     1       8.684   2.747 -11.082  1.00  0.00     0.055 A 
ATOM     70  C   UNL     1      10.978   2.052 -11.273  1.00  0.00     0.041 A 
ATOM     71  F   UNL     1      12.532   2.715  -9.652  1.00  0.00    -0.206 F 
ATOM     72  C   UNL     1       9.675   2.031 -11.759  1.00  0.00     0.022 A 
BRANCH  69  73
ATOM     73  S   UNL     1       6.950   2.592 -11.587  1.00  0.00     0.124 S 
ATOM     74  O   UNL     1       6.348   1.997 -10.396  1.00  0.00    -0.237 OA
ATOM     75  O   UNL     1       6.577   3.974 -11.869  1.00  0.00    -0.237 OA
ATOM     76  O   UNL     1       7.010   1.712 -12.753  1.00  0.00    -0.744 OA
ENDBRANCH  69  73
ENDBRANCH  52  66
BRANCH  53  77
ATOM     77  C   UNL     1      12.974   8.417  -1.083  1.00  0.00     0.023 A 
ATOM     78  C   UNL     1      12.900   9.813  -0.950  1.00  0.00     0.031 A 
ATOM     79  C   UNL     1      13.603   7.694  -0.054  1.00  0.00     0.131 A 
ATOM     80  C   UNL     1      13.514  10.446   0.142  1.00  0.00     0.055 A 
ATOM     81  C   UNL     1      14.144   8.322   1.070  1.00  0.00     0.041 A 
ATOM     82  F   UNL     1      13.710   6.357  -0.127  1.00  0.00    -0.206 F 
ATOM     83  C   UNL     1      14.121   9.710   1.161  1.00  0.00     0.022 A 
BRANCH  80  84
ATOM     84  S   UNL     1      13.642  12.256   0.130  1.00  0.00     0.124 S 
ATOM     85  O   UNL     1      14.302  12.495  -1.148  1.00  0.00    -0.237 OA
ATOM     86  O   UNL     1      12.242  12.658   0.215  1.00  0.00    -0.237 OA
ATOM     87  O   UNL     1      14.447  12.547   1.314  1.00  0.00    -0.744 OA
ENDBRANCH  80  84
ENDBRANCH  53  77
BRANCH  65  88
ATOM     88  C   UNL     1      14.705   9.017  -7.824  1.00  0.00     0.023 A 
ATOM     89  C   UNL     1      16.100   9.017  -7.661  1.00  0.00     0.031 A 
ATOM     90  C   UNL     1      14.143   9.933  -8.733  1.00  0.00     0.131 A 
ATOM     91  C   UNL     1      16.883   9.944  -8.366  1.00  0.00     0.055 A 
ATOM     92  C   UNL     1      14.932  10.808  -9.478  1.00  0.00     0.041 A 
ATOM     93  F   UNL     1      12.815   9.978  -8.924  1.00  0.00    -0.206 F 
ATOM     94  C   UNL     1      16.310  10.824  -9.289  1.00  0.00     0.022 A 
BRANCH  91  95
ATOM     95  S   UNL     1      18.659  10.038  -8.010  1.00  0.00     0.124 S 
ATOM     96  O   UNL     1      18.667  10.361  -6.587  1.00  0.00    -0.237 OA
ATOM     97  O   UNL     1      19.120   8.699  -8.362  1.00  0.00    -0.237 OA
ATOM     98  O   UNL     1      19.130  11.105  -8.891  1.00  0.00    -0.744 OA
ENDBRANCH  91  95
ENDBRANCH  65  88
ENDBRANCH  39  40
ENDBRANCH  32  34
ENDBRANCH  31  32
ENDBRANCH  30  31
ENDBRANCH   1  30
TORSDOF 19
