REMARK SMILES C[C@H](NC(N)=O)C(=O)N[C@@H](CO)C(=O)OCCOC(=O)c1ccc(-c2c3nc(c(-c4cc(S(=O)(=O)[O-])ccc4F)c4ccc([nH]4)c(-c4cc(S(=O)(=O)[O-])ccc4F)c4nc(c(-c5cc(S(=O)(=O)[O-])ccc5F)c5ccc2[nH]5)C=C4)C=C3)cc1
REMARK SMILES IDX 16 1 15 2 13 3 14 4 10 5 9 6 7 7 8 8 2 10 1 11 3 12 4 13
REMARK SMILES IDX 5 15 6 16 11 19 12 20 17 22 18 23 19 24 20 25 21 26 22 27
REMARK SMILES IDX 83 28 23 29 82 30 24 31 25 32 26 33 76 34 27 35 81 36 75 37
REMARK SMILES IDX 77 38 28 39 80 40 74 41 73 42 29 44 61 45 41 46 60 47 42 48
REMARK SMILES IDX 45 49 59 50 78 51 43 52 44 53 58 55 79 56 46 57 30 58 31 59
REMARK SMILES IDX 39 60 32 61 38 62 40 63 37 64 33 65 34 66 35 67 36 68 62 69
REMARK SMILES IDX 63 70 71 71 64 72 70 73 72 74 69 75 65 76 66 77 67 78 68 79
REMARK SMILES IDX 47 80 48 81 56 82 49 83 55 84 57 85 54 86 50 87 51 88 52 89
REMARK SMILES IDX 53 90
REMARK H PARENT 9 9 3 14 5 17 5 18 12 21 77 43 45 54
REMARK Flexibility Score: inf
ROOT
ATOM      1  C   UNL     1      -2.975  -4.428   2.731  1.00  0.00     0.274 C 
ENDROOT
BRANCH   1   2
ATOM      2  O   UNL     1      -2.597  -3.215   2.050  1.00  0.00    -0.460 OA
BRANCH   2   3
ATOM      3  C   UNL     1      -1.538  -2.544   2.583  1.00  0.00     0.331 C 
ATOM      4  O   UNL     1      -0.978  -2.848   3.631  1.00  0.00    -0.250 OA
BRANCH   3   5
ATOM      5  C   UNL     1      -1.113  -1.337   1.734  1.00  0.00     0.218 C 
BRANCH   5   6
ATOM      6  N   UNL     1      -1.788  -1.236   0.433  1.00  0.00    -0.339 N 
ATOM      7  C   UNL     1      -1.324  -0.799  -0.774  1.00  0.00     0.243 C 
ATOM      8  O   UNL     1      -2.141  -0.759  -1.700  1.00  0.00    -0.273 OA
ATOM      9  H   UNL     1      -2.727  -1.531   0.432  1.00  0.00     0.164 HD
BRANCH   7  10
ATOM     10  C   UNL     1       0.177  -0.515  -1.031  1.00  0.00     0.170 C 
ATOM     11  C   UNL     1       0.877  -1.843  -1.287  1.00  0.00     0.041 C 
BRANCH  10  12
ATOM     12  N   UNL     1       0.753   0.354   0.003  1.00  0.00    -0.327 N 
ATOM     13  C   UNL     1       1.990   0.239   0.554  1.00  0.00     0.312 C 
ATOM     14  H   UNL     1       0.188   1.092   0.328  1.00  0.00     0.166 HD
ATOM     15  N   UNL     1       2.251   1.194   1.476  1.00  0.00    -0.352 N 
ATOM     16  O   UNL     1       2.802  -0.647   0.341  1.00  0.00    -0.249 OA
ATOM     17  H   UNL     1       1.593   1.907   1.645  1.00  0.00     0.161 HD
ATOM     18  H   UNL     1       3.098   1.177   1.977  1.00  0.00     0.161 HD
ENDBRANCH  10  12
ENDBRANCH   7  10
ENDBRANCH   5   6
BRANCH   5  19
ATOM     19  C   UNL     1      -1.386  -0.082   2.572  1.00  0.00     0.193 C 
BRANCH  19  20
ATOM     20  O   UNL     1      -2.791   0.167   2.689  1.00  0.00    -0.394 OA
ATOM     21  H   UNL     1      -3.169   0.308   1.807  1.00  0.00     0.210 HD
ENDBRANCH  19  20
ENDBRANCH   5  19
ENDBRANCH   3   5
ENDBRANCH   2   3
ENDBRANCH   1   2
BRANCH   1  22
ATOM     22  C   UNL     1      -2.513  -5.659   1.950  1.00  0.00     0.275 C 
BRANCH  22  23
ATOM     23  O   UNL     1      -1.076  -5.717   1.872  1.00  0.00    -0.458 OA
BRANCH  23  24
ATOM     24  C   UNL     1      -0.559  -5.185   0.741  1.00  0.00     0.338 C 
ATOM     25  O   UNL     1      -1.178  -4.688  -0.186  1.00  0.00    -0.246 OA
BRANCH  24  26
ATOM     26  C   UNL     1       0.909  -5.186   0.784  1.00  0.00     0.060 A 
ATOM     27  C   UNL     1       1.548  -4.117   1.403  1.00  0.00     0.016 A 
ATOM     28  C   UNL     1       1.634  -6.078  -0.005  1.00  0.00     0.016 A 
ATOM     29  C   UNL     1       2.884  -3.856   1.111  1.00  0.00     0.010 A 
ATOM     30  C   UNL     1       3.011  -5.880  -0.184  1.00  0.00     0.010 A 
ATOM     31  C   UNL     1       3.647  -4.736   0.330  1.00  0.00    -0.014 A 
BRANCH  31  32
ATOM     32  C   UNL     1       5.086  -4.437   0.043  1.00  0.00     0.031 A 
ATOM     33  C   UNL     1       5.604  -4.400  -1.376  1.00  0.00     0.074 A 
ATOM     34  C   UNL     1       5.937  -4.175   1.058  1.00  0.00     0.049 A 
ATOM     35  N   UNL     1       6.842  -4.366  -1.807  1.00  0.00    -0.248 NA
ATOM     36  C   UNL     1       4.602  -4.424  -2.452  1.00  0.00     0.031 C 
ATOM     37  C   UNL     1       5.571  -4.109   2.476  1.00  0.00     0.029 A 
ATOM     38  N   UNL     1       7.285  -3.904   1.060  1.00  0.00    -0.354 N 
ATOM     39  C   UNL     1       6.770  -4.420  -3.197  1.00  0.00     0.074 A 
ATOM     40  C   UNL     1       5.364  -4.504  -3.535  1.00  0.00     0.031 C 
ATOM     41  C   UNL     1       6.645  -3.764   3.197  1.00  0.00     0.029 A 
ATOM     42  C   UNL     1       7.807  -3.718   2.321  1.00  0.00     0.049 A 
ATOM     43  H   UNL     1       7.825  -3.848   0.239  1.00  0.00     0.167 HD
ATOM     44  C   UNL     1       7.784  -4.404  -4.101  1.00  0.00     0.034 A 
ATOM     45  C   UNL     1       9.079  -3.594   2.747  1.00  0.00     0.034 A 
ATOM     46  C   UNL     1       9.179  -4.266  -3.744  1.00  0.00     0.049 A 
ATOM     47  C   UNL     1      10.190  -3.654   1.734  1.00  0.00     0.074 A 
ATOM     48  C   UNL     1      10.282  -4.219  -4.581  1.00  0.00     0.029 A 
ATOM     49  N   UNL     1       9.666  -4.144  -2.448  1.00  0.00    -0.354 N 
ATOM     50  N   UNL     1      10.112  -3.785   0.430  1.00  0.00    -0.248 NA
ATOM     51  C   UNL     1      11.560  -3.564   2.252  1.00  0.00     0.031 C 
ATOM     52  C   UNL     1      11.434  -4.148  -3.792  1.00  0.00     0.029 A 
ATOM     53  C   UNL     1      11.052  -4.058  -2.464  1.00  0.00     0.049 A 
ATOM     54  H   UNL     1       9.109  -4.122  -1.637  1.00  0.00     0.167 HD
ATOM     55  C   UNL     1      11.425  -3.772  -0.029  1.00  0.00     0.074 A 
ATOM     56  C   UNL     1      12.270  -3.595   1.134  1.00  0.00     0.031 C 
ATOM     57  C   UNL     1      11.889  -3.896  -1.298  1.00  0.00     0.034 A 
BRANCH  44  58
ATOM     58  C   UNL     1       7.439  -4.606  -5.562  1.00  0.00     0.023 A 
ATOM     59  C   UNL     1       6.669  -3.685  -6.294  1.00  0.00     0.031 A 
ATOM     60  C   UNL     1       7.907  -5.749  -6.238  1.00  0.00     0.131 A 
ATOM     61  C   UNL     1       6.347  -3.950  -7.636  1.00  0.00     0.055 A 
ATOM     62  C   UNL     1       7.649  -5.968  -7.592  1.00  0.00     0.041 A 
ATOM     63  F   UNL     1       8.630  -6.678  -5.590  1.00  0.00    -0.206 F 
ATOM     64  C   UNL     1       6.855  -5.072  -8.297  1.00  0.00     0.022 A 
BRANCH  61  65
ATOM     65  S   UNL     1       5.151  -2.876  -8.477  1.00  0.00     0.124 S 
ATOM     66  O   UNL     1       3.983  -2.996  -7.608  1.00  0.00    -0.237 OA
ATOM     67  O   UNL     1       5.825  -1.583  -8.467  1.00  0.00    -0.237 OA
ATOM     68  O   UNL     1       5.003  -3.491  -9.794  1.00  0.00    -0.744 OA
ENDBRANCH  61  65
ENDBRANCH  44  58
BRANCH  45  69
ATOM     69  C   UNL     1       9.377  -3.493   4.206  1.00  0.00     0.023 A 
ATOM     70  C   UNL     1      10.032  -2.372   4.738  1.00  0.00     0.031 A 
ATOM     71  C   UNL     1       9.043  -4.539   5.088  1.00  0.00     0.131 A 
ATOM     72  C   UNL     1      10.368  -2.341   6.101  1.00  0.00     0.055 A 
ATOM     73  C   UNL     1       9.313  -4.471   6.454  1.00  0.00     0.041 A 
ATOM     74  F   UNL     1       8.424  -5.641   4.633  1.00  0.00    -0.206 F 
ATOM     75  C   UNL     1       9.994  -3.372   6.966  1.00  0.00     0.022 A 
BRANCH  72  76
ATOM     76  S   UNL     1      11.397  -0.978   6.710  1.00  0.00     0.124 S 
ATOM     77  O   UNL     1      12.570  -1.085   5.851  1.00  0.00    -0.237 OA
ATOM     78  O   UNL     1      10.537   0.177   6.481  1.00  0.00    -0.237 OA
ATOM     79  O   UNL     1      11.618  -1.320   8.114  1.00  0.00    -0.744 OA
ENDBRANCH  72  76
ENDBRANCH  45  69
BRANCH  57  80
ATOM     80  C   UNL     1      13.383  -3.791  -1.490  1.00  0.00     0.023 A 
ATOM     81  C   UNL     1      14.267  -4.752  -0.968  1.00  0.00     0.031 A 
ATOM     82  C   UNL     1      13.932  -2.693  -2.176  1.00  0.00     0.131 A 
ATOM     83  C   UNL     1      15.653  -4.562  -1.082  1.00  0.00     0.055 A 
ATOM     84  C   UNL     1      15.309  -2.546  -2.347  1.00  0.00     0.041 A 
ATOM     85  F   UNL     1      13.136  -1.741  -2.690  1.00  0.00    -0.206 F 
ATOM     86  C   UNL     1      16.178  -3.475  -1.785  1.00  0.00     0.022 A 
BRANCH  83  87
ATOM     87  S   UNL     1      16.763  -5.698  -0.205  1.00  0.00     0.124 S 
ATOM     88  O   UNL     1      16.326  -5.540   1.178  1.00  0.00    -0.237 OA
ATOM     89  O   UNL     1      16.456  -6.980  -0.829  1.00  0.00    -0.237 OA
ATOM     90  O   UNL     1      18.095  -5.170  -0.498  1.00  0.00    -0.744 OA
ENDBRANCH  83  87
ENDBRANCH  57  80
ENDBRANCH  31  32
ENDBRANCH  24  26
ENDBRANCH  23  24
ENDBRANCH  22  23
ENDBRANCH   1  22
TORSDOF 19
