REMARK SMILES O=C(OCCOC(=O)[C@@H]1C=C[C@H](Nc2ncccn2)C1)c1ccc(-c2c3nc(c(-c4cc(S(=O)(=O)[O-])ccc4F)c4ccc([nH]4)c(-c4cc(S(=O)(=O)[O-])ccc4F)c4nc(c(-c5cc(S(=O)(=O)[O-])ccc5F)c5ccc2[nH]5)C=C4)C=C3)cc1
REMARK SMILES IDX 4 1 3 2 2 3 1 4 21 5 22 6 83 7 23 8 82 9 24 10 25 11 26 12
REMARK SMILES IDX 76 13 27 14 81 15 75 16 77 17 28 18 80 19 74 20 73 21 29 23
REMARK SMILES IDX 61 24 41 25 60 26 42 27 45 28 59 29 78 30 43 31 44 32 58 34
REMARK SMILES IDX 79 35 46 36 30 37 31 38 39 39 32 40 38 41 40 42 37 43 33 44
REMARK SMILES IDX 34 45 35 46 36 47 62 48 63 49 71 50 64 51 70 52 72 53 69 54
REMARK SMILES IDX 65 55 66 56 67 57 68 58 47 59 48 60 56 61 49 62 55 63 57 64
REMARK SMILES IDX 54 65 50 66 51 67 52 68 53 69 5 70 6 71 7 72 8 73 9 74 10 75
REMARK SMILES IDX 20 76 11 77 12 78 13 79 14 81 15 82 19 83 16 84 18 85 17 86
REMARK H PARENT 77 22 45 33 13 80
REMARK Flexibility Score: inf
ROOT
ATOM      1  C   UNL     1      -0.660   0.824   2.814  1.00  0.00     0.275 C 
ENDROOT
BRANCH   1   2
ATOM      2  O   UNL     1      -0.001   1.859   3.557  1.00  0.00    -0.458 OA
BRANCH   2   3
ATOM      3  C   UNL     1       1.316   2.044   3.809  1.00  0.00     0.338 C 
ATOM      4  O   UNL     1       1.630   2.867   4.669  1.00  0.00    -0.246 OA
BRANCH   3   5
ATOM      5  C   UNL     1       2.421   1.388   3.033  1.00  0.00     0.060 A 
ATOM      6  C   UNL     1       2.326   0.212   2.283  1.00  0.00     0.016 A 
ATOM      7  C   UNL     1       3.670   2.037   3.064  1.00  0.00     0.016 A 
ATOM      8  C   UNL     1       3.404  -0.268   1.536  1.00  0.00     0.010 A 
ATOM      9  C   UNL     1       4.754   1.567   2.311  1.00  0.00     0.010 A 
ATOM     10  C   UNL     1       4.622   0.407   1.535  1.00  0.00    -0.014 A 
BRANCH  10  11
ATOM     11  C   UNL     1       5.783  -0.232   0.875  1.00  0.00     0.031 A 
ATOM     12  C   UNL     1       6.832  -0.835   1.763  1.00  0.00     0.074 A 
ATOM     13  C   UNL     1       5.842  -0.356  -0.466  1.00  0.00     0.049 A 
ATOM     14  N   UNL     1       7.913  -1.493   1.448  1.00  0.00    -0.248 NA
ATOM     15  C   UNL     1       6.635  -0.653   3.210  1.00  0.00     0.031 C 
ATOM     16  C   UNL     1       4.853   0.168  -1.412  1.00  0.00     0.029 A 
ATOM     17  N   UNL     1       6.757  -0.991  -1.269  1.00  0.00    -0.354 N 
ATOM     18  C   UNL     1       8.531  -1.787   2.659  1.00  0.00     0.074 A 
ATOM     19  C   UNL     1       7.750  -1.162   3.700  1.00  0.00     0.031 C 
ATOM     20  C   UNL     1       5.197  -0.200  -2.660  1.00  0.00     0.029 A 
ATOM     21  C   UNL     1       6.442  -0.960  -2.610  1.00  0.00     0.049 A 
ATOM     22  H   UNL     1       7.566  -1.428  -0.917  1.00  0.00     0.167 HD
ATOM     23  C   UNL     1       9.631  -2.543   2.886  1.00  0.00     0.034 A 
ATOM     24  C   UNL     1       7.090  -1.497  -3.666  1.00  0.00     0.034 A 
ATOM     25  C   UNL     1      10.385  -3.161   1.829  1.00  0.00     0.049 A 
ATOM     26  C   UNL     1       8.351  -2.288  -3.393  1.00  0.00     0.074 A 
ATOM     27  C   UNL     1      11.533  -3.924   1.914  1.00  0.00     0.029 A 
ATOM     28  N   UNL     1      10.056  -3.078   0.480  1.00  0.00    -0.354 N 
ATOM     29  N   UNL     1       8.923  -2.565  -2.241  1.00  0.00    -0.248 NA
ATOM     30  C   UNL     1       9.045  -2.852  -4.558  1.00  0.00     0.031 C 
ATOM     31  C   UNL     1      11.930  -4.253   0.613  1.00  0.00     0.029 A 
ATOM     32  C   UNL     1      10.987  -3.764  -0.279  1.00  0.00     0.049 A 
ATOM     33  H   UNL     1       9.274  -2.601   0.118  1.00  0.00     0.167 HD
ATOM     34  C   UNL     1      10.016  -3.375  -2.543  1.00  0.00     0.074 A 
ATOM     35  C   UNL     1      10.013  -3.549  -3.982  1.00  0.00     0.031 C 
ATOM     36  C   UNL     1      10.938  -3.930  -1.714  1.00  0.00     0.034 A 
BRANCH  23  37
ATOM     37  C   UNL     1      10.076  -2.665   4.323  1.00  0.00     0.023 A 
ATOM     38  C   UNL     1       9.244  -3.239   5.303  1.00  0.00     0.031 A 
ATOM     39  C   UNL     1      11.277  -2.071   4.745  1.00  0.00     0.131 A 
ATOM     40  C   UNL     1       9.559  -3.088   6.662  1.00  0.00     0.055 A 
ATOM     41  C   UNL     1      11.635  -2.017   6.093  1.00  0.00     0.041 A 
ATOM     42  F   UNL     1      12.098  -1.485   3.859  1.00  0.00    -0.206 F 
ATOM     43  C   UNL     1      10.762  -2.503   7.063  1.00  0.00     0.022 A 
BRANCH  40  44
ATOM     44  S   UNL     1       8.279  -3.467   7.891  1.00  0.00     0.124 S 
ATOM     45  O   UNL     1       7.224  -2.529   7.514  1.00  0.00    -0.237 OA
ATOM     46  O   UNL     1       8.001  -4.875   7.636  1.00  0.00    -0.237 OA
ATOM     47  O   UNL     1       8.932  -3.179   9.166  1.00  0.00    -0.744 OA
ENDBRANCH  40  44
ENDBRANCH  23  37
BRANCH  24  48
ATOM     48  C   UNL     1       6.589  -1.323  -5.066  1.00  0.00     0.023 A 
ATOM     49  C   UNL     1       6.240  -2.429  -5.861  1.00  0.00     0.031 A 
ATOM     50  C   UNL     1       6.536  -0.051  -5.665  1.00  0.00     0.131 A 
ATOM     51  C   UNL     1       5.917  -2.251  -7.218  1.00  0.00     0.055 A 
ATOM     52  C   UNL     1       6.162   0.127  -7.000  1.00  0.00     0.041 A 
ATOM     53  F   UNL     1       6.857   1.046  -4.959  1.00  0.00    -0.206 F 
ATOM     54  C   UNL     1       5.866  -0.979  -7.790  1.00  0.00     0.022 A 
BRANCH  51  55
ATOM     55  S   UNL     1       5.665  -3.719  -8.258  1.00  0.00     0.124 S 
ATOM     56  O   UNL     1       6.931  -4.423  -8.089  1.00  0.00    -0.237 OA
ATOM     57  O   UNL     1       4.499  -4.334  -7.632  1.00  0.00    -0.237 OA
ATOM     58  O   UNL     1       5.433  -3.159  -9.587  1.00  0.00    -0.744 OA
ENDBRANCH  51  55
ENDBRANCH  24  48
BRANCH  36  59
ATOM     59  C   UNL     1      11.967  -4.836  -2.341  1.00  0.00     0.023 A 
ATOM     60  C   UNL     1      12.941  -4.353  -3.231  1.00  0.00     0.031 A 
ATOM     61  C   UNL     1      11.973  -6.208  -2.030  1.00  0.00     0.131 A 
ATOM     62  C   UNL     1      13.845  -5.246  -3.824  1.00  0.00     0.055 A 
ATOM     63  C   UNL     1      12.919  -7.079  -2.569  1.00  0.00     0.041 A 
ATOM     64  F   UNL     1      11.064  -6.721  -1.186  1.00  0.00    -0.206 F 
ATOM     65  C   UNL     1      13.854  -6.601  -3.483  1.00  0.00     0.022 A 
BRANCH  62  66
ATOM     66  S   UNL     1      14.945  -4.629  -5.126  1.00  0.00     0.124 S 
ATOM     67  O   UNL     1      13.997  -4.081  -6.090  1.00  0.00    -0.237 OA
ATOM     68  O   UNL     1      15.761  -3.655  -4.409  1.00  0.00    -0.237 OA
ATOM     69  O   UNL     1      15.657  -5.827  -5.568  1.00  0.00    -0.744 OA
ENDBRANCH  62  66
ENDBRANCH  36  59
ENDBRANCH  10  11
ENDBRANCH   3   5
ENDBRANCH   2   3
ENDBRANCH   1   2
BRANCH   1  70
ATOM     70  C   UNL     1      -0.861   1.147   1.331  1.00  0.00     0.274 C 
BRANCH  70  71
ATOM     71  O   UNL     1       0.310   1.616   0.637  1.00  0.00    -0.462 OA
BRANCH  71  72
ATOM     72  C   UNL     1       0.423   2.974   0.524  1.00  0.00     0.312 C 
ATOM     73  O   UNL     1      -0.308   3.773   1.099  1.00  0.00    -0.252 OA
BRANCH  72  74
ATOM     74  C   UNL     1       1.537   3.365  -0.452  1.00  0.00     0.124 C 
ATOM     75  C   UNL     1       2.858   3.576   0.206  1.00  0.00    -0.014 C 
ATOM     76  C   UNL     1       1.294   4.766  -1.043  1.00  0.00     0.048 C 
ATOM     77  C   UNL     1       3.128   4.870   0.411  1.00  0.00    -0.006 C 
ATOM     78  C   UNL     1       2.050   5.753  -0.130  1.00  0.00     0.106 C 
BRANCH  78  79
ATOM     79  N   UNL     1       1.219   6.205   0.950  1.00  0.00    -0.348 N 
ATOM     80  H   UNL     1       0.343   5.783   1.105  1.00  0.00     0.164 HD
BRANCH  79  81
ATOM     81  C   UNL     1       1.642   7.221   1.766  1.00  0.00     0.223 A 
ATOM     82  N   UNL     1       1.167   7.205   3.018  1.00  0.00    -0.222 NA
ATOM     83  N   UNL     1       2.505   8.144   1.311  1.00  0.00    -0.222 NA
ATOM     84  C   UNL     1       1.636   8.138   3.867  1.00  0.00     0.117 A 
ATOM     85  C   UNL     1       2.921   9.076   2.188  1.00  0.00     0.117 A 
ATOM     86  C   UNL     1       2.525   9.115   3.500  1.00  0.00     0.040 A 
ENDBRANCH  79  81
ENDBRANCH  78  79
ENDBRANCH  72  74
ENDBRANCH  71  72
ENDBRANCH  70  71
ENDBRANCH   1  70
TORSDOF 16
