REMARK SMILES COc1cccc(OC)c1[C@@H](C(=O)OCCOC(=O)c1ccc(-c2c3nc(c(-c4cc(S(=O)(=O)[O-])ccc4F)c4ccc([nH]4)c(-c4cc(S(=O)(=O)[O-])ccc4F)c4nc(c(-c5cc(S(=O)(=O)[O-])ccc5F)c5ccc2[nH]5)C=C4)C=C3)cc1)[N@@H+](C)Cc1c(C)n[nH]c1C
REMARK SMILES IDX 15 1 14 2 12 3 13 4 11 5 10 6 3 7 4 8 5 9 7 10 6 11 2 12
REMARK SMILES IDX 1 13 8 14 9 15 83 16 84 17 85 19 86 20 87 21 91 22 88 23
REMARK SMILES IDX 89 24 90 25 92 26 16 28 17 29 18 30 19 31 20 32 21 33 82 34
REMARK SMILES IDX 22 35 81 36 23 37 24 38 25 39 75 40 26 41 80 42 74 43 76 44
REMARK SMILES IDX 27 45 79 46 73 47 72 48 28 50 60 51 40 52 59 53 41 54 44 55
REMARK SMILES IDX 58 56 77 57 42 58 43 59 57 61 78 62 45 63 29 64 30 65 38 66
REMARK SMILES IDX 31 67 37 68 39 69 36 70 32 71 33 72 34 73 35 74 61 75 62 76
REMARK SMILES IDX 70 77 63 78 69 79 71 80 68 81 64 82 65 83 66 84 67 85 46 86
REMARK SMILES IDX 47 87 55 88 48 89 54 90 56 91 53 92 49 93 50 94 51 95 52 96
REMARK H PARENT 83 18 90 27 76 49 44 60
REMARK Flexibility Score: inf
ROOT
ATOM      1  C   UNL     1       4.931   3.185  -1.146  1.00  0.00     0.274 C 
ENDROOT
BRANCH   1   2
ATOM      2  O   UNL     1       3.814   2.789  -0.274  1.00  0.00    -0.457 OA
BRANCH   2   3
ATOM      3  C   UNL     1       3.698   1.449  -0.064  1.00  0.00     0.370 C 
ATOM      4  O   UNL     1       4.334   0.649  -0.764  1.00  0.00    -0.245 OA
BRANCH   3   5
ATOM      5  C   UNL     1       2.722   0.923   1.049  1.00  0.00     0.334 C 
BRANCH   5   6
ATOM      6  C   UNL     1       1.527   1.734   1.632  1.00  0.00     0.105 A 
ATOM      7  C   UNL     1       0.372   1.970   0.850  1.00  0.00     0.132 A 
ATOM      8  C   UNL     1      -0.657   2.847   1.276  1.00  0.00     0.047 A 
ATOM      9  C   UNL     1      -0.598   3.507   2.495  1.00  0.00     0.008 A 
ATOM     10  C   UNL     1       1.411   2.257   2.946  1.00  0.00     0.132 A 
ATOM     11  C   UNL     1       0.422   3.176   3.348  1.00  0.00     0.047 A 
BRANCH   7  12
ATOM     12  O   UNL     1       0.135   1.423  -0.390  1.00  0.00    -0.496 OA
ATOM     13  C   UNL     1       0.084  -0.009  -0.431  1.00  0.00     0.278 C 
ENDBRANCH   7  12
BRANCH  10  14
ATOM     14  O   UNL     1       2.092   1.769   4.031  1.00  0.00    -0.496 OA
ATOM     15  C   UNL     1       3.054   2.733   4.404  1.00  0.00     0.278 C 
ENDBRANCH  10  14
ENDBRANCH   5   6
BRANCH   5  16
ATOM     16  N   UNL     1       3.339  -0.109   1.916  1.00  0.00    -0.318 N 
ATOM     17  C   UNL     1       3.775  -1.323   1.219  1.00  0.00     0.334 C 
ATOM     18  H   UNL     1       2.519  -0.353   2.472  1.00  0.00     0.349 HD
BRANCH  16  19
ATOM     19  C   UNL     1       4.288   0.313   2.924  1.00  0.00     0.303 C 
BRANCH  19  20
ATOM     20  C   UNL     1       5.482   1.210   2.519  1.00  0.00     0.050 A 
ATOM     21  C   UNL     1       6.126   2.893   3.432  1.00  0.00     0.068 A 
ATOM     22  C   UNL     1       6.887   0.678   1.442  1.00  0.00     0.041 A 
ATOM     23  C   UNL     1       5.462   4.173   3.925  1.00  0.00     0.069 C 
ATOM     24  N   UNL     1       7.705   3.276   2.777  1.00  0.00    -0.180 NA
ATOM     25  N   UNL     1       8.266   1.869   1.717  1.00  0.00    -0.282 N 
ATOM     26  C   UNL     1       7.370  -0.621   0.827  1.00  0.00     0.066 C 
ATOM     27  H   UNL     1       9.174   1.770   1.351  1.00  0.00     0.190 HD
ENDBRANCH  19  20
ENDBRANCH  16  19
ENDBRANCH   5  16
ENDBRANCH   3   5
ENDBRANCH   2   3
ENDBRANCH   1   2
BRANCH   1  28
ATOM     28  C   UNL     1       6.198   3.808  -0.467  1.00  0.00     0.275 C 
BRANCH  28  29
ATOM     29  O   UNL     1       7.052   2.872   0.285  1.00  0.00    -0.458 OA
BRANCH  29  30
ATOM     30  C   UNL     1       6.467   2.540   1.616  1.00  0.00     0.338 C 
ATOM     31  O   UNL     1       5.315   3.098   1.531  1.00  0.00    -0.246 OA
BRANCH  30  32
ATOM     32  C   UNL     1       7.310   1.367   3.297  1.00  0.00     0.060 A 
ATOM     33  C   UNL     1       6.943  -0.029   3.697  1.00  0.00     0.016 A 
ATOM     34  C   UNL     1       8.189   1.732   4.480  1.00  0.00     0.016 A 
ATOM     35  C   UNL     1       6.646  -0.442   4.957  1.00  0.00     0.010 A 
ATOM     36  C   UNL     1       8.415   0.915   5.643  1.00  0.00     0.010 A 
ATOM     37  C   UNL     1       7.648  -0.226   5.828  1.00  0.00    -0.014 A 
BRANCH  37  38
ATOM     38  C   UNL     1       7.678  -1.294   6.830  1.00  0.00     0.031 A 
ATOM     39  C   UNL     1       7.189  -0.962   8.185  1.00  0.00     0.074 A 
ATOM     40  C   UNL     1       7.776  -2.578   6.394  1.00  0.00     0.049 A 
ATOM     41  N   UNL     1       7.155  -1.714   9.240  1.00  0.00    -0.248 NA
ATOM     42  C   UNL     1       6.667   0.400   8.374  1.00  0.00     0.031 C 
ATOM     43  C   UNL     1       7.919  -2.997   4.980  1.00  0.00     0.029 A 
ATOM     44  N   UNL     1       7.651  -3.772   7.045  1.00  0.00    -0.354 N 
ATOM     45  C   UNL     1       6.715  -0.884  10.256  1.00  0.00     0.074 A 
ATOM     46  C   UNL     1       6.463   0.417   9.680  1.00  0.00     0.031 C 
ATOM     47  C   UNL     1       7.786  -4.324   4.878  1.00  0.00     0.029 A 
ATOM     48  C   UNL     1       7.758  -4.869   6.216  1.00  0.00     0.049 A 
ATOM     49  H   UNL     1       7.498  -3.843   8.015  1.00  0.00     0.167 HD
ATOM     50  C   UNL     1       6.602  -1.214  11.560  1.00  0.00     0.034 A 
ATOM     51  C   UNL     1       7.915  -6.168   6.519  1.00  0.00     0.034 A 
ATOM     52  C   UNL     1       6.884  -2.548  12.026  1.00  0.00     0.049 A 
ATOM     53  C   UNL     1       7.966  -6.480   7.984  1.00  0.00     0.074 A 
ATOM     54  C   UNL     1       6.912  -3.025  13.319  1.00  0.00     0.029 A 
ATOM     55  N   UNL     1       7.200  -3.623  11.193  1.00  0.00    -0.354 N 
ATOM     56  N   UNL     1       7.763  -5.665   8.996  1.00  0.00    -0.248 NA
ATOM     57  C   UNL     1       8.287  -7.855   8.356  1.00  0.00     0.031 C 
ATOM     58  C   UNL     1       7.354  -4.351  13.274  1.00  0.00     0.029 A 
ATOM     59  C   UNL     1       7.470  -4.749  11.948  1.00  0.00     0.049 A 
ATOM     60  H   UNL     1       7.228  -3.584  10.209  1.00  0.00     0.167 HD
ATOM     61  C   UNL     1       7.893  -6.437  10.136  1.00  0.00     0.074 A 
ATOM     62  C   UNL     1       8.184  -7.787   9.675  1.00  0.00     0.031 C 
ATOM     63  C   UNL     1       7.772  -6.071  11.439  1.00  0.00     0.034 A 
BRANCH  50  64
ATOM     64  C   UNL     1       6.370  -0.077  12.517  1.00  0.00     0.023 A 
ATOM     65  C   UNL     1       5.241   0.756  12.442  1.00  0.00     0.031 A 
ATOM     66  C   UNL     1       7.396   0.281  13.410  1.00  0.00     0.131 A 
ATOM     67  C   UNL     1       5.224   1.966  13.154  1.00  0.00     0.055 A 
ATOM     68  C   UNL     1       7.315   1.423  14.206  1.00  0.00     0.041 A 
ATOM     69  F   UNL     1       8.525  -0.441  13.482  1.00  0.00    -0.206 F 
ATOM     70  C   UNL     1       6.235   2.287  14.062  1.00  0.00     0.022 A 
BRANCH  67  71
ATOM     71  S   UNL     1       3.995   3.220  12.691  1.00  0.00     0.124 S 
ATOM     72  O   UNL     1       4.309   3.432  11.279  1.00  0.00    -0.237 OA
ATOM     73  O   UNL     1       2.734   2.544  12.969  1.00  0.00    -0.237 OA
ATOM     74  O   UNL     1       4.309   4.346  13.567  1.00  0.00    -0.744 OA
ENDBRANCH  67  71
ENDBRANCH  50  64
BRANCH  51  75
ATOM     75  C   UNL     1       8.142  -7.199   5.464  1.00  0.00     0.023 A 
ATOM     76  C   UNL     1       7.297  -8.311   5.352  1.00  0.00     0.031 A 
ATOM     77  C   UNL     1       9.226  -7.111   4.565  1.00  0.00     0.131 A 
ATOM     78  C   UNL     1       7.565  -9.303   4.394  1.00  0.00     0.055 A 
ATOM     79  C   UNL     1       9.447  -8.065   3.568  1.00  0.00     0.041 A 
ATOM     80  F   UNL     1      10.085  -6.081   4.628  1.00  0.00    -0.206 F 
ATOM     81  C   UNL     1       8.619  -9.178   3.487  1.00  0.00     0.022 A 
BRANCH  78  82
ATOM     82  S   UNL     1       6.573 -10.820   4.425  1.00  0.00     0.124 S 
ATOM     83  O   UNL     1       6.800 -11.291   5.786  1.00  0.00    -0.237 OA
ATOM     84  O   UNL     1       5.236 -10.314   4.134  1.00  0.00    -0.237 OA
ATOM     85  O   UNL     1       7.171 -11.639   3.373  1.00  0.00    -0.744 OA
ENDBRANCH  78  82
ENDBRANCH  51  75
BRANCH  63  86
ATOM     86  C   UNL     1       7.875  -7.183  12.443  1.00  0.00     0.023 A 
ATOM     87  C   UNL     1       9.048  -7.934  12.601  1.00  0.00     0.031 A 
ATOM     88  C   UNL     1       6.755  -7.513  13.226  1.00  0.00     0.131 A 
ATOM     89  C   UNL     1       9.040  -9.046  13.450  1.00  0.00     0.055 A 
ATOM     90  C   UNL     1       6.793  -8.548  14.154  1.00  0.00     0.041 A 
ATOM     91  F   UNL     1       5.605  -6.831  13.100  1.00  0.00    -0.206 F 
ATOM     92  C   UNL     1       7.934  -9.338  14.252  1.00  0.00     0.022 A 
BRANCH  89  93
ATOM     93  S   UNL     1      10.427 -10.207  13.348  1.00  0.00     0.124 S 
ATOM     94  O   UNL     1      10.416 -10.560  11.932  1.00  0.00    -0.237 OA
ATOM     95  O   UNL     1      11.552  -9.391  13.793  1.00  0.00    -0.237 OA
ATOM     96  O   UNL     1      10.038 -11.281  14.259  1.00  0.00    -0.744 OA
ENDBRANCH  89  93
ENDBRANCH  63  86
ENDBRANCH  37  38
ENDBRANCH  30  32
ENDBRANCH  29  30
ENDBRANCH  28  29
ENDBRANCH   1  28
TORSDOF 20
