REMARK SMILES Cc1cccc(Cl)c1Nc1ccccc1CC(=O)OCCOC(=O)c1ccc(-c2c3nc(c(-c4cc(S(=O)(=O)[O-])ccc4F)c4ccc([nH]4)c(-c4cc(S(=O)(=O)[O-])ccc4F)c4nc(c(-c5cc(S(=O)(=O)[O-])ccc5F)c5ccc2[nH]5)C=C4)C=C3)cc1
REMARK SMILES IDX 20 1 19 2 17 3 18 4 16 5 15 6 10 7 11 8 12 9 14 10 13 11
REMARK SMILES IDX 9 12 8 14 1 15 2 16 3 17 4 18 6 19 5 20 7 21 21 22 22 23
REMARK SMILES IDX 23 24 24 25 25 26 26 27 87 28 27 29 86 30 28 31 29 32 30 33
REMARK SMILES IDX 80 34 31 35 85 36 79 37 81 38 32 39 84 40 78 41 77 42 33 44
REMARK SMILES IDX 65 45 45 46 64 47 46 48 49 49 63 50 82 51 47 52 48 53 62 55
REMARK SMILES IDX 83 56 50 57 34 58 35 59 43 60 36 61 42 62 44 63 41 64 37 65
REMARK SMILES IDX 38 66 39 67 40 68 66 69 67 70 75 71 68 72 74 73 76 74 73 75
REMARK SMILES IDX 69 76 70 77 71 78 72 79 51 80 52 81 60 82 53 83 59 84 61 85
REMARK SMILES IDX 58 86 54 87 55 88 56 89 57 90
REMARK H PARENT 9 13 81 43 49 54
REMARK Flexibility Score: inf
ROOT
ATOM      1  C   UNL     1       1.188   3.893  -4.770  1.00  0.00     0.274 C 
ENDROOT
BRANCH   1   2
ATOM      2  O   UNL     1       1.202   3.409  -3.416  1.00  0.00    -0.462 OA
BRANCH   2   3
ATOM      3  C   UNL     1       1.108   2.059  -3.285  1.00  0.00     0.310 C 
ATOM      4  O   UNL     1       0.947   1.283  -4.224  1.00  0.00    -0.252 OA
BRANCH   3   5
ATOM      5  C   UNL     1       1.112   1.579  -1.858  1.00  0.00     0.160 C 
BRANCH   5   6
ATOM      6  C   UNL     1       1.758   2.446  -0.796  1.00  0.00    -0.013 A 
ATOM      7  C   UNL     1       1.113   2.722   0.431  1.00  0.00     0.042 A 
ATOM      8  C   UNL     1       1.748   3.565   1.361  1.00  0.00     0.026 A 
ATOM      9  C   UNL     1       3.024   4.075   1.121  1.00  0.00     0.002 A 
ATOM     10  C   UNL     1       3.060   2.942  -1.003  1.00  0.00     0.006 A 
ATOM     11  C   UNL     1       3.687   3.747  -0.053  1.00  0.00     0.000 A 
BRANCH   7  12
ATOM     12  N   UNL     1      -0.085   2.095   0.837  1.00  0.00    -0.354 N 
ATOM     13  H   UNL     1      -0.737   2.688   1.276  1.00  0.00     0.167 HD
BRANCH  12  14
ATOM     14  C   UNL     1      -0.493   0.743   0.710  1.00  0.00     0.060 A 
ATOM     15  C   UNL     1      -2.815   1.592   0.087  1.00  0.00     0.046 C 
ATOM     16  C   UNL     1      -1.828   0.478   0.315  1.00  0.00    -0.026 A 
ATOM     17  C   UNL     1      -2.226  -0.841   0.032  1.00  0.00     0.005 A 
ATOM     18  C   UNL     1      -1.330  -1.900   0.155  1.00  0.00     0.002 A 
ATOM     19  C   UNL     1       0.388  -0.354   0.865  1.00  0.00     0.064 A 
ATOM     20  C   UNL     1      -0.029  -1.658   0.582  1.00  0.00     0.023 A 
ATOM     21  Cl  UNL     1       2.000  -0.184   1.478  1.00  0.00    -0.082 Cl
ENDBRANCH  12  14
ENDBRANCH   7  12
ENDBRANCH   5   6
ENDBRANCH   3   5
ENDBRANCH   2   3
ENDBRANCH   1   2
BRANCH   1  22
ATOM     22  C   UNL     1       2.607   4.031  -5.316  1.00  0.00     0.275 C 
BRANCH  22  23
ATOM     23  O   UNL     1       3.283   2.763  -5.268  1.00  0.00    -0.458 OA
BRANCH  23  24
ATOM     24  C   UNL     1       4.490   2.764  -4.660  1.00  0.00     0.338 C 
ATOM     25  O   UNL     1       5.092   3.725  -4.214  1.00  0.00    -0.246 OA
BRANCH  24  26
ATOM     26  C   UNL     1       5.026   1.393  -4.622  1.00  0.00     0.060 A 
ATOM     27  C   UNL     1       4.394   0.398  -3.870  1.00  0.00     0.016 A 
ATOM     28  C   UNL     1       6.235   1.131  -5.265  1.00  0.00     0.016 A 
ATOM     29  C   UNL     1       4.990  -0.856  -3.731  1.00  0.00     0.010 A 
ATOM     30  C   UNL     1       6.803  -0.141  -5.168  1.00  0.00     0.010 A 
ATOM     31  C   UNL     1       6.198  -1.139  -4.383  1.00  0.00    -0.014 A 
BRANCH  31  32
ATOM     32  C   UNL     1       6.872  -2.454  -4.223  1.00  0.00     0.031 A 
ATOM     33  C   UNL     1       8.206  -2.526  -3.533  1.00  0.00     0.074 A 
ATOM     34  C   UNL     1       6.318  -3.567  -4.738  1.00  0.00     0.049 A 
ATOM     35  N   UNL     1       9.059  -3.515  -3.473  1.00  0.00    -0.248 NA
ATOM     36  C   UNL     1       8.643  -1.309  -2.833  1.00  0.00     0.031 C 
ATOM     37  C   UNL     1       5.013  -3.635  -5.399  1.00  0.00     0.029 A 
ATOM     38  N   UNL     1       6.795  -4.852  -4.808  1.00  0.00    -0.354 N 
ATOM     39  C   UNL     1      10.154  -3.030  -2.764  1.00  0.00     0.074 A 
ATOM     40  C   UNL     1       9.859  -1.651  -2.433  1.00  0.00     0.031 C 
ATOM     41  C   UNL     1       4.799  -4.893  -5.816  1.00  0.00     0.029 A 
ATOM     42  C   UNL     1       5.975  -5.702  -5.513  1.00  0.00     0.049 A 
ATOM     43  H   UNL     1       7.641  -5.138  -4.394  1.00  0.00     0.167 HD
ATOM     44  C   UNL     1      11.299  -3.677  -2.428  1.00  0.00     0.034 A 
ATOM     45  C   UNL     1       6.168  -6.974  -5.914  1.00  0.00     0.034 A 
ATOM     46  C   UNL     1      11.565  -5.059  -2.752  1.00  0.00     0.049 A 
ATOM     47  C   UNL     1       7.464  -7.661  -5.571  1.00  0.00     0.074 A 
ATOM     48  C   UNL     1      12.674  -5.823  -2.432  1.00  0.00     0.029 A 
ATOM     49  N   UNL     1      10.711  -5.885  -3.474  1.00  0.00    -0.354 N 
ATOM     50  N   UNL     1       8.505  -7.186  -4.926  1.00  0.00    -0.248 NA
ATOM     51  C   UNL     1       7.612  -9.053  -6.013  1.00  0.00     0.031 C 
ATOM     52  C   UNL     1      12.518  -7.089  -3.010  1.00  0.00     0.029 A 
ATOM     53  C   UNL     1      11.281  -7.139  -3.633  1.00  0.00     0.049 A 
ATOM     54  H   UNL     1       9.830  -5.618  -3.822  1.00  0.00     0.167 HD
ATOM     55  C   UNL     1       9.424  -8.229  -4.871  1.00  0.00     0.074 A 
ATOM     56  C   UNL     1       8.809  -9.360  -5.535  1.00  0.00     0.031 C 
ATOM     57  C   UNL     1      10.663  -8.251  -4.317  1.00  0.00     0.034 A 
BRANCH  44  58
ATOM     58  C   UNL     1      12.369  -2.872  -1.729  1.00  0.00     0.023 A 
ATOM     59  C   UNL     1      12.177  -2.327  -0.447  1.00  0.00     0.031 A 
ATOM     60  C   UNL     1      13.590  -2.613  -2.377  1.00  0.00     0.131 A 
ATOM     61  C   UNL     1      13.156  -1.491   0.112  1.00  0.00     0.055 A 
ATOM     62  C   UNL     1      14.592  -1.843  -1.783  1.00  0.00     0.041 A 
ATOM     63  F   UNL     1      13.823  -3.089  -3.611  1.00  0.00    -0.206 F 
ATOM     64  C   UNL     1      14.372  -1.264  -0.538  1.00  0.00     0.022 A 
BRANCH  61  65
ATOM     65  S   UNL     1      12.761  -0.587   1.635  1.00  0.00     0.124 S 
ATOM     66  O   UNL     1      11.572   0.161   1.235  1.00  0.00    -0.237 OA
ATOM     67  O   UNL     1      12.548  -1.664   2.594  1.00  0.00    -0.237 OA
ATOM     68  O   UNL     1      13.951   0.230   1.867  1.00  0.00    -0.744 OA
ENDBRANCH  61  65
ENDBRANCH  44  58
BRANCH  45  69
ATOM     69  C   UNL     1       5.138  -7.659  -6.744  1.00  0.00     0.023 A 
ATOM     70  C   UNL     1       4.416  -8.754  -6.247  1.00  0.00     0.031 A 
ATOM     71  C   UNL     1       4.877  -7.234  -8.059  1.00  0.00     0.131 A 
ATOM     72  C   UNL     1       3.486  -9.407  -7.071  1.00  0.00     0.055 A 
ATOM     73  C   UNL     1       3.919  -7.858  -8.859  1.00  0.00     0.041 A 
ATOM     74  F   UNL     1       5.540  -6.188  -8.579  1.00  0.00    -0.206 F 
ATOM     75  C   UNL     1       3.224  -8.958  -8.368  1.00  0.00     0.022 A 
BRANCH  72  76
ATOM     76  S   UNL     1       2.659 -10.893  -6.441  1.00  0.00     0.124 S 
ATOM     77  O   UNL     1       3.790 -11.778  -6.186  1.00  0.00    -0.237 OA
ATOM     78  O   UNL     1       1.968 -10.380  -5.263  1.00  0.00    -0.237 OA
ATOM     79  O   UNL     1       1.789 -11.293  -7.545  1.00  0.00    -0.744 OA
ENDBRANCH  72  76
ENDBRANCH  45  69
BRANCH  57  80
ATOM     80  C   UNL     1      11.411  -9.560  -4.377  1.00  0.00     0.023 A 
ATOM     81  C   UNL     1      11.902 -10.077  -5.588  1.00  0.00     0.031 A 
ATOM     82  C   UNL     1      11.615 -10.309  -3.204  1.00  0.00     0.131 A 
ATOM     83  C   UNL     1      12.530 -11.332  -5.608  1.00  0.00     0.055 A 
ATOM     84  C   UNL     1      12.286 -11.532  -3.222  1.00  0.00     0.041 A 
ATOM     85  F   UNL     1      11.163  -9.862  -2.021  1.00  0.00    -0.206 F 
ATOM     86  C   UNL     1      12.737 -12.055  -4.430  1.00  0.00     0.022 A 
BRANCH  83  87
ATOM     87  S   UNL     1      13.002 -12.047  -7.207  1.00  0.00     0.124 S 
ATOM     88  O   UNL     1      11.719 -12.115  -7.900  1.00  0.00    -0.237 OA
ATOM     89  O   UNL     1      13.954 -11.067  -7.719  1.00  0.00    -0.237 OA
ATOM     90  O   UNL     1      13.580 -13.341  -6.846  1.00  0.00    -0.744 OA
ENDBRANCH  83  87
ENDBRANCH  57  80
ENDBRANCH  31  32
ENDBRANCH  24  26
ENDBRANCH  23  24
ENDBRANCH  22  23
ENDBRANCH   1  22
TORSDOF 17
