REMARK SMILES Cc1cccc(C(=O)OCCOC(=O)c2ccc(-c3c4nc(c(-c5cc(S(=O)(=O)[O-])ccc5F)c5ccc([nH]5)c(-c5cc(S(=O)(=O)[O-])ccc5F)c5nc(c(-c6cc(S(=O)(=O)[O-])ccc6F)c6ccc3[nH]6)C=C5)C=C4)cc2)c1OC[C@@H]1C[C@H]2CC[C@@H]1C2
REMARK SMILES IDX 10 1 9 2 7 3 8 4 6 5 1 6 2 7 3 8 78 9 4 10 5 11 79 12 80 13
REMARK SMILES IDX 81 14 82 15 86 16 83 17 85 18 87 19 84 20 11 21 12 22 13 23
REMARK SMILES IDX 14 24 15 25 16 26 77 27 17 28 76 29 18 30 19 31 20 32 70 33
REMARK SMILES IDX 21 34 75 35 69 36 71 37 22 38 74 39 68 40 67 41 23 43 55 44
REMARK SMILES IDX 35 45 54 46 36 47 39 48 53 49 72 50 37 51 38 52 52 54 73 55
REMARK SMILES IDX 40 56 24 57 25 58 33 59 26 60 32 61 34 62 31 63 27 64 28 65
REMARK SMILES IDX 29 66 30 67 56 68 57 69 65 70 58 71 64 72 66 73 63 74 59 75
REMARK SMILES IDX 60 76 61 77 62 78 41 79 42 80 50 81 43 82 49 83 51 84 48 85
REMARK SMILES IDX 44 86 45 87 46 88 47 89
REMARK H PARENT 71 42 39 53
REMARK Flexibility Score: inf
ROOT
ATOM      1  C   UNL     1      -1.136   4.470  -1.723  1.00  0.00     0.275 C 
ENDROOT
BRANCH   1   2
ATOM      2  O   UNL     1      -0.919   3.050  -1.763  1.00  0.00    -0.458 OA
BRANCH   2   3
ATOM      3  C   UNL     1      -0.087   2.624  -0.767  1.00  0.00     0.342 C 
ATOM      4  O   UNL     1       0.416   3.327   0.083  1.00  0.00    -0.246 OA
BRANCH   3   5
ATOM      5  C   UNL     1       0.170   1.170  -0.845  1.00  0.00     0.102 A 
ATOM      6  C   UNL     1       2.887  -1.353  -1.708  1.00  0.00     0.048 C 
ATOM      7  C   UNL     1       1.618  -0.742  -1.179  1.00  0.00    -0.008 A 
ATOM      8  C   UNL     1       0.548  -1.607  -0.905  1.00  0.00     0.007 A 
ATOM      9  C   UNL     1       1.454   0.655  -1.045  1.00  0.00     0.136 A 
ATOM     10  C   UNL     1      -0.716  -1.095  -0.660  1.00  0.00     0.001 A 
ATOM     11  C   UNL     1      -0.906   0.284  -0.690  1.00  0.00     0.019 A 
BRANCH   9  12
ATOM     12  O   UNL     1       2.547   1.420  -1.337  1.00  0.00    -0.492 OA
BRANCH  12  13
ATOM     13  C   UNL     1       3.172   2.188  -0.299  1.00  0.00     0.233 C 
BRANCH  13  14
ATOM     14  C   UNL     1       3.329   1.594   1.115  1.00  0.00     0.030 C 
ATOM     15  C   UNL     1       4.311   2.456   1.960  1.00  0.00     0.011 C 
ATOM     16  C   UNL     1       3.994   0.203   1.220  1.00  0.00    -0.004 C 
ATOM     17  C   UNL     1       5.324   1.430   2.499  1.00  0.00    -0.010 C 
ATOM     18  C   UNL     1       3.728  -0.360   2.629  1.00  0.00     0.004 C 
ATOM     19  C   UNL     1       5.486   0.516   1.291  1.00  0.00     0.007 C 
ATOM     20  C   UNL     1       4.630   0.506   3.514  1.00  0.00     0.004 C 
ENDBRANCH  13  14
ENDBRANCH  12  13
ENDBRANCH   9  12
ENDBRANCH   3   5
ENDBRANCH   2   3
ENDBRANCH   1   2
BRANCH   1  21
ATOM     21  C   UNL     1      -2.302   4.953  -2.610  1.00  0.00     0.275 C 
BRANCH  21  22
ATOM     22  O   UNL     1      -3.653   4.476  -2.404  1.00  0.00    -0.458 OA
BRANCH  22  23
ATOM     23  C   UNL     1      -3.851   3.257  -1.845  1.00  0.00     0.338 C 
ATOM     24  O   UNL     1      -3.902   2.217  -2.482  1.00  0.00    -0.246 OA
BRANCH  23  25
ATOM     25  C   UNL     1      -3.777   3.353  -0.368  1.00  0.00     0.060 A 
ATOM     26  C   UNL     1      -3.571   2.182   0.372  1.00  0.00     0.016 A 
ATOM     27  C   UNL     1      -3.605   4.607   0.215  1.00  0.00     0.016 A 
ATOM     28  C   UNL     1      -3.010   2.248   1.641  1.00  0.00     0.010 A 
ATOM     29  C   UNL     1      -2.961   4.680   1.419  1.00  0.00     0.010 A 
ATOM     30  C   UNL     1      -2.688   3.504   2.138  1.00  0.00    -0.014 A 
BRANCH  30  31
ATOM     31  C   UNL     1      -2.394   3.773   3.530  1.00  0.00     0.031 A 
ATOM     32  C   UNL     1      -1.036   3.736   4.077  1.00  0.00     0.074 A 
ATOM     33  C   UNL     1      -3.477   4.311   4.132  1.00  0.00     0.049 A 
ATOM     34  N   UNL     1      -0.761   4.048   5.290  1.00  0.00    -0.248 NA
ATOM     35  C   UNL     1       0.145   3.317   3.330  1.00  0.00     0.031 C 
ATOM     36  C   UNL     1      -3.627   5.126   5.319  1.00  0.00     0.029 A 
ATOM     37  N   UNL     1      -4.789   4.016   3.766  1.00  0.00    -0.354 N 
ATOM     38  C   UNL     1       0.608   4.154   5.415  1.00  0.00     0.074 A 
ATOM     39  C   UNL     1       1.127   3.600   4.197  1.00  0.00     0.031 C 
ATOM     40  C   UNL     1      -4.904   5.024   5.742  1.00  0.00     0.029 A 
ATOM     41  C   UNL     1      -5.548   3.996   4.926  1.00  0.00     0.049 A 
ATOM     42  H   UNL     1      -5.116   3.853   2.852  1.00  0.00     0.167 HD
ATOM     43  C   UNL     1       1.086   4.820   6.502  1.00  0.00     0.034 A 
ATOM     44  C   UNL     1      -5.923   2.757   5.376  1.00  0.00     0.034 A 
ATOM     45  C   UNL     1      -0.000   4.977   7.467  1.00  0.00     0.049 A 
ATOM     46  C   UNL     1      -5.209   2.445   6.672  1.00  0.00     0.074 A 
ATOM     47  C   UNL     1      -0.889   6.007   7.716  1.00  0.00     0.029 A 
ATOM     48  N   UNL     1      -0.550   3.828   8.022  1.00  0.00    -0.354 N 
ATOM     49  N   UNL     1      -3.982   2.796   6.963  1.00  0.00    -0.248 NA
ATOM     50  C   UNL     1      -5.921   1.850   7.794  1.00  0.00     0.031 C 
ATOM     51  C   UNL     1      -2.057   5.422   8.287  1.00  0.00     0.029 A 
ATOM     52  C   UNL     1      -1.852   4.056   8.416  1.00  0.00     0.049 A 
ATOM     53  H   UNL     1      -0.076   2.970   8.120  1.00  0.00     0.167 HD
ATOM     54  C   UNL     1      -3.771   2.593   8.305  1.00  0.00     0.074 A 
ATOM     55  C   UNL     1      -5.011   1.983   8.770  1.00  0.00     0.031 C 
ATOM     56  C   UNL     1      -2.643   2.976   8.983  1.00  0.00     0.034 A 
BRANCH  43  57
ATOM     57  C   UNL     1       2.414   5.530   6.649  1.00  0.00     0.023 A 
ATOM     58  C   UNL     1       2.563   6.422   7.738  1.00  0.00     0.031 A 
ATOM     59  C   UNL     1       3.495   5.507   5.747  1.00  0.00     0.131 A 
ATOM     60  C   UNL     1       3.687   7.259   7.869  1.00  0.00     0.055 A 
ATOM     61  C   UNL     1       4.628   6.326   5.889  1.00  0.00     0.041 A 
ATOM     62  F   UNL     1       3.514   4.714   4.671  1.00  0.00    -0.206 F 
ATOM     63  C   UNL     1       4.725   7.217   6.947  1.00  0.00     0.022 A 
BRANCH  60  64
ATOM     64  S   UNL     1       3.740   8.450   9.237  1.00  0.00     0.124 S 
ATOM     65  O   UNL     1       2.579   9.291   8.959  1.00  0.00    -0.237 OA
ATOM     66  O   UNL     1       3.647   7.584  10.407  1.00  0.00    -0.237 OA
ATOM     67  O   UNL     1       5.033   9.111   9.062  1.00  0.00    -0.744 OA
ENDBRANCH  60  64
ENDBRANCH  43  57
BRANCH  44  68
ATOM     68  C   UNL     1      -6.231   1.779   4.267  1.00  0.00     0.023 A 
ATOM     69  C   UNL     1      -7.090   2.225   3.232  1.00  0.00     0.031 A 
ATOM     70  C   UNL     1      -5.479   0.624   4.011  1.00  0.00     0.131 A 
ATOM     71  C   UNL     1      -7.040   1.652   1.952  1.00  0.00     0.055 A 
ATOM     72  C   UNL     1      -5.509  -0.011   2.755  1.00  0.00     0.041 A 
ATOM     73  F   UNL     1      -4.623   0.144   4.924  1.00  0.00    -0.206 F 
ATOM     74  C   UNL     1      -6.261   0.523   1.706  1.00  0.00     0.022 A 
BRANCH  71  75
ATOM     75  S   UNL     1      -7.734   2.603   0.560  1.00  0.00     0.124 S 
ATOM     76  O   UNL     1      -9.152   2.276   0.643  1.00  0.00    -0.237 OA
ATOM     77  O   UNL     1      -7.373   3.977   0.908  1.00  0.00    -0.237 OA
ATOM     78  O   UNL     1      -7.030   2.068  -0.602  1.00  0.00    -0.744 OA
ENDBRANCH  71  75
ENDBRANCH  44  68
BRANCH  56  79
ATOM     79  C   UNL     1      -2.240   2.419  10.329  1.00  0.00     0.023 A 
ATOM     80  C   UNL     1      -2.842   1.279  10.869  1.00  0.00     0.031 A 
ATOM     81  C   UNL     1      -1.165   2.954  11.080  1.00  0.00     0.131 A 
ATOM     82  C   UNL     1      -2.507   0.813  12.145  1.00  0.00     0.055 A 
ATOM     83  C   UNL     1      -0.740   2.404  12.292  1.00  0.00     0.041 A 
ATOM     84  F   UNL     1      -0.466   4.021  10.667  1.00  0.00    -0.206 F 
ATOM     85  C   UNL     1      -1.436   1.345  12.852  1.00  0.00     0.022 A 
BRANCH  82  86
ATOM     86  S   UNL     1      -3.607  -0.412  12.889  1.00  0.00     0.124 S 
ATOM     87  O   UNL     1      -4.868   0.323  12.950  1.00  0.00    -0.237 OA
ATOM     88  O   UNL     1      -3.561  -1.506  11.925  1.00  0.00    -0.237 OA
ATOM     89  O   UNL     1      -2.986  -0.690  14.181  1.00  0.00    -0.744 OA
ENDBRANCH  82  86
ENDBRANCH  56  79
ENDBRANCH  30  31
ENDBRANCH  23  25
ENDBRANCH  22  23
ENDBRANCH  21  22
ENDBRANCH   1  21
TORSDOF 17
