REMARK SMILES CC[C@H](NC(=O)c1nn(C)cc1C(=O)OCCOC(=O)c1ccc(-c2c3nc(c(-c4cc(S(=O)(=O)[O-])ccc4F)c4ccc([nH]4)c(-c4cc(S(=O)(=O)[O-])ccc4F)c4nc(c(-c5cc(S(=O)(=O)[O-])ccc5F)c5ccc2[nH]5)C=C4)C=C3)cc1)c1ccccc1
REMARK SMILES IDX 16 1 15 2 13 3 14 4 12 5 7 6 8 7 9 8 11 9 10 10 5 11 4 12
REMARK SMILES IDX 6 14 3 15 2 16 1 17 84 18 85 19 89 20 86 21 88 22 87 23
REMARK SMILES IDX 17 24 18 25 19 26 20 27 21 28 22 29 83 30 23 31 82 32 24 33
REMARK SMILES IDX 25 34 26 35 76 36 27 37 81 38 75 39 77 40 28 41 80 42 74 43
REMARK SMILES IDX 73 44 29 46 61 47 41 48 60 49 42 50 45 51 59 52 78 53 43 54
REMARK SMILES IDX 44 55 58 57 79 58 46 59 30 60 31 61 39 62 32 63 38 64 40 65
REMARK SMILES IDX 37 66 33 67 34 68 35 69 36 70 62 71 63 72 71 73 64 74 70 75
REMARK SMILES IDX 72 76 69 77 65 78 66 79 67 80 68 81 47 82 48 83 56 84 49 85
REMARK SMILES IDX 55 86 57 87 54 88 50 89 51 90 52 91 53 92
REMARK H PARENT 4 13 77 45 45 56
REMARK Flexibility Score: inf
ROOT
ATOM      1  C   UNL     1      -3.099   0.167  -4.711  1.00  0.00     0.275 C 
ENDROOT
BRANCH   1   2
ATOM      2  O   UNL     1      -2.561   1.480  -4.425  1.00  0.00    -0.458 OA
BRANCH   2   3
ATOM      3  C   UNL     1      -2.784   1.949  -3.154  1.00  0.00     0.342 C 
ATOM      4  O   UNL     1      -3.515   1.395  -2.345  1.00  0.00    -0.246 OA
BRANCH   3   5
ATOM      5  C   UNL     1      -2.167   3.233  -2.896  1.00  0.00     0.111 A 
ATOM      6  C   UNL     1      -0.961   3.626  -2.197  1.00  0.00     0.164 A 
ATOM      7  N   UNL     1      -0.999   4.966  -1.984  1.00  0.00    -0.167 NA
ATOM      8  N   UNL     1      -2.117   5.398  -2.563  1.00  0.00    -0.274 N 
ATOM      9  C   UNL     1      -2.846   4.416  -3.145  1.00  0.00     0.125 A 
ATOM     10  C   UNL     1      -2.493   6.786  -2.443  1.00  0.00     0.173 C 
BRANCH   6  11
ATOM     11  C   UNL     1       0.110   2.865  -1.488  1.00  0.00     0.273 C 
ATOM     12  N   UNL     1       1.021   1.962  -2.044  1.00  0.00    -0.344 N 
ATOM     13  H   UNL     1       1.192   1.174  -1.479  1.00  0.00     0.164 HD
ATOM     14  O   UNL     1       0.250   3.045  -0.271  1.00  0.00    -0.267 OA
BRANCH  12  15
ATOM     15  C   UNL     1       1.774   1.955  -3.308  1.00  0.00     0.112 C 
BRANCH  15  16
ATOM     16  C   UNL     1       1.782   0.725  -4.287  1.00  0.00     0.026 C 
ATOM     17  C   UNL     1       1.871  -0.725  -3.829  1.00  0.00     0.006 C 
ENDBRANCH  15  16
BRANCH  15  18
ATOM     18  C   UNL     1       1.535   3.259  -4.037  1.00  0.00    -0.026 A 
ATOM     19  C   UNL     1       2.136   4.416  -3.521  1.00  0.00     0.006 A 
ATOM     20  C   UNL     1       0.550   3.380  -5.030  1.00  0.00     0.006 A 
ATOM     21  C   UNL     1       1.705   5.670  -3.937  1.00  0.00     0.000 A 
ATOM     22  C   UNL     1       0.138   4.635  -5.461  1.00  0.00     0.000 A 
ATOM     23  C   UNL     1       0.700   5.778  -4.898  1.00  0.00     0.000 A 
ENDBRANCH  15  18
ENDBRANCH  12  15
ENDBRANCH   6  11
ENDBRANCH   3   5
ENDBRANCH   2   3
ENDBRANCH   1   2
BRANCH   1  24
ATOM     24  C   UNL     1      -2.162  -1.014  -4.355  1.00  0.00     0.275 C 
BRANCH  24  25
ATOM     25  O   UNL     1      -2.022  -1.309  -2.934  1.00  0.00    -0.458 OA
BRANCH  25  26
ATOM     26  C   UNL     1      -1.173  -0.440  -2.354  1.00  0.00     0.338 C 
ATOM     27  O   UNL     1      -0.710   0.503  -2.984  1.00  0.00    -0.246 OA
BRANCH  26  28
ATOM     28  C   UNL     1      -0.683  -0.621  -0.978  1.00  0.00     0.060 A 
ATOM     29  C   UNL     1      -1.088   0.317  -0.028  1.00  0.00     0.016 A 
ATOM     30  C   UNL     1       0.539  -1.288  -0.799  1.00  0.00     0.016 A 
ATOM     31  C   UNL     1      -0.243   0.623   1.051  1.00  0.00     0.010 A 
ATOM     32  C   UNL     1       1.375  -0.992   0.289  1.00  0.00     0.010 A 
ATOM     33  C   UNL     1       0.997  -0.029   1.229  1.00  0.00    -0.014 A 
BRANCH  33  34
ATOM     34  C   UNL     1       1.699   0.051   2.542  1.00  0.00     0.031 A 
ATOM     35  C   UNL     1       3.091   0.593   2.760  1.00  0.00     0.074 A 
ATOM     36  C   UNL     1       1.028  -0.521   3.560  1.00  0.00     0.049 A 
ATOM     37  N   UNL     1       3.803   0.607   3.863  1.00  0.00    -0.248 NA
ATOM     38  C   UNL     1       3.794   1.148   1.597  1.00  0.00     0.031 C 
ATOM     39  C   UNL     1      -0.288  -1.156   3.421  1.00  0.00     0.029 A 
ATOM     40  N   UNL     1       1.325  -0.668   4.886  1.00  0.00    -0.354 N 
ATOM     41  C   UNL     1       5.049   1.139   3.529  1.00  0.00     0.074 A 
ATOM     42  C   UNL     1       4.994   1.420   2.106  1.00  0.00     0.031 C 
ATOM     43  C   UNL     1      -0.723  -1.542   4.620  1.00  0.00     0.029 A 
ATOM     44  C   UNL     1       0.322  -1.285   5.595  1.00  0.00     0.049 A 
ATOM     45  H   UNL     1       2.169  -0.364   5.291  1.00  0.00     0.167 HD
ATOM     46  C   UNL     1       6.125   1.353   4.340  1.00  0.00     0.034 A 
ATOM     47  C   UNL     1       0.243  -1.635   6.888  1.00  0.00     0.034 A 
ATOM     48  C   UNL     1       6.120   1.060   5.766  1.00  0.00     0.049 A 
ATOM     49  C   UNL     1       1.409  -1.329   7.767  1.00  0.00     0.074 A 
ATOM     50  C   UNL     1       7.112   1.301   6.706  1.00  0.00     0.029 A 
ATOM     51  N   UNL     1       5.076   0.451   6.459  1.00  0.00    -0.354 N 
ATOM     52  N   UNL     1       2.563  -0.794   7.441  1.00  0.00    -0.248 NA
ATOM     53  C   UNL     1       1.265  -1.667   9.183  1.00  0.00     0.031 C 
ATOM     54  C   UNL     1       6.703   0.769   7.936  1.00  0.00     0.029 A 
ATOM     55  C   UNL     1       5.416   0.276   7.796  1.00  0.00     0.049 A 
ATOM     56  H   UNL     1       4.218   0.182   6.058  1.00  0.00     0.167 HD
ATOM     57  C   UNL     1       3.291  -0.729   8.620  1.00  0.00     0.074 A 
ATOM     58  C   UNL     1       2.425  -1.246   9.665  1.00  0.00     0.031 C 
ATOM     59  C   UNL     1       4.559  -0.289   8.817  1.00  0.00     0.034 A 
BRANCH  46  60
ATOM     60  C   UNL     1       7.414   1.885   3.724  1.00  0.00     0.023 A 
ATOM     61  C   UNL     1       7.483   3.123   3.058  1.00  0.00     0.031 A 
ATOM     62  C   UNL     1       8.614   1.151   3.833  1.00  0.00     0.131 A 
ATOM     63  C   UNL     1       8.692   3.553   2.478  1.00  0.00     0.055 A 
ATOM     64  C   UNL     1       9.831   1.621   3.326  1.00  0.00     0.041 A 
ATOM     65  F   UNL     1       8.631  -0.046   4.441  1.00  0.00    -0.206 F 
ATOM     66  C   UNL     1       9.872   2.823   2.630  1.00  0.00     0.022 A 
BRANCH  63  67
ATOM     67  S   UNL     1       8.675   5.012   1.396  1.00  0.00     0.124 S 
ATOM     68  O   UNL     1       7.650   4.647   0.421  1.00  0.00    -0.237 OA
ATOM     69  O   UNL     1       8.329   6.086   2.320  1.00  0.00    -0.237 OA
ATOM     70  O   UNL     1      10.036   5.062   0.864  1.00  0.00    -0.744 OA
ENDBRANCH  63  67
ENDBRANCH  46  60
BRANCH  47  71
ATOM     71  C   UNL     1      -1.000  -2.284   7.382  1.00  0.00     0.023 A 
ATOM     72  C   UNL     1      -1.861  -1.603   8.252  1.00  0.00     0.031 A 
ATOM     73  C   UNL     1      -1.403  -3.544   6.898  1.00  0.00     0.131 A 
ATOM     74  C   UNL     1      -3.085  -2.183   8.613  1.00  0.00     0.055 A 
ATOM     75  C   UNL     1      -2.647  -4.089   7.212  1.00  0.00     0.041 A 
ATOM     76  F   UNL     1      -0.622  -4.224   6.042  1.00  0.00    -0.206 F 
ATOM     77  C   UNL     1      -3.495  -3.408   8.079  1.00  0.00     0.022 A 
BRANCH  74  78
ATOM     78  S   UNL     1      -4.123  -1.329   9.828  1.00  0.00     0.124 S 
ATOM     79  O   UNL     1      -3.212  -1.197  10.959  1.00  0.00    -0.237 OA
ATOM     80  O   UNL     1      -4.459  -0.095   9.127  1.00  0.00    -0.237 OA
ATOM     81  O   UNL     1      -5.238  -2.253  10.029  1.00  0.00    -0.744 OA
ENDBRANCH  74  78
ENDBRANCH  47  71
BRANCH  59  82
ATOM     82  C   UNL     1       5.060  -0.355  10.239  1.00  0.00     0.023 A 
ATOM     83  C   UNL     1       5.238  -1.587  10.894  1.00  0.00     0.031 A 
ATOM     84  C   UNL     1       5.280   0.823  10.972  1.00  0.00     0.131 A 
ATOM     85  C   UNL     1       5.538  -1.613  12.263  1.00  0.00     0.055 A 
ATOM     86  C   UNL     1       5.650   0.790  12.316  1.00  0.00     0.041 A 
ATOM     87  F   UNL     1       5.115   2.026  10.398  1.00  0.00    -0.206 F 
ATOM     88  C   UNL     1       5.762  -0.431  12.975  1.00  0.00     0.022 A 
BRANCH  85  89
ATOM     89  S   UNL     1       5.494  -3.205  13.131  1.00  0.00     0.124 S 
ATOM     90  O   UNL     1       4.124  -3.645  12.885  1.00  0.00    -0.237 OA
ATOM     91  O   UNL     1       6.539  -3.962  12.450  1.00  0.00    -0.237 OA
ATOM     92  O   UNL     1       5.791  -2.848  14.517  1.00  0.00    -0.744 OA
ENDBRANCH  85  89
ENDBRANCH  59  82
ENDBRANCH  33  34
ENDBRANCH  26  28
ENDBRANCH  25  26
ENDBRANCH  24  25
ENDBRANCH   1  24
TORSDOF 18
