REMARK SMILES CC(C)C[C@@H](C(=O)OCCOC(=O)c1ccc(-c2c3nc(c(-c4cc(S(=O)(=O)[O-])ccc4F)c4ccc([nH]4)c(-c4cc(S(=O)(=O)[O-])ccc4F)c4nc(c(-c5cc(S(=O)(=O)[O-])ccc5F)c5ccc2[nH]5)C=C4)C=C3)cc1)[C@@H]1CCC[C@@H](C)C1
REMARK SMILES IDX 10 1 9 2 8 3 6 4 7 5 5 6 4 7 2 8 1 9 3 10 77 11 78 12 83 13
REMARK SMILES IDX 79 14 81 15 80 16 82 17 11 18 12 19 13 20 14 21 15 22 76 23
REMARK SMILES IDX 16 24 75 25 17 26 18 27 19 28 69 29 20 30 74 31 68 32 70 33
REMARK SMILES IDX 21 34 73 35 67 36 66 37 22 39 54 40 34 41 53 42 35 43 38 44
REMARK SMILES IDX 52 45 71 46 36 47 37 48 51 50 72 51 39 52 23 53 24 54 32 55
REMARK SMILES IDX 25 56 31 57 33 58 30 59 26 60 27 61 28 62 29 63 55 64 56 65
REMARK SMILES IDX 64 66 57 67 63 68 65 69 62 70 58 71 59 72 60 73 61 74 40 75
REMARK SMILES IDX 41 76 49 77 42 78 48 79 50 80 47 81 43 82 44 83 45 84 46 85
REMARK H PARENT 70 38 38 49
REMARK Flexibility Score: inf
ROOT
ATOM      1  C   UNL     1      -1.795   5.635   0.410  1.00  0.00     0.275 C 
ENDROOT
BRANCH   1   2
ATOM      2  C   UNL     1      -0.710   4.866   1.164  1.00  0.00     0.274 C 
BRANCH   2   3
ATOM      3  O   UNL     1      -0.441   3.588   0.551  1.00  0.00    -0.462 OA
BRANCH   3   4
ATOM      4  C   UNL     1      -1.197   2.561   0.989  1.00  0.00     0.309 C 
ATOM      5  O   UNL     1      -2.004   2.655   1.910  1.00  0.00    -0.252 OA
BRANCH   4   6
ATOM      6  C   UNL     1      -0.932   1.224   0.298  1.00  0.00     0.102 C 
BRANCH   6   7
ATOM      7  C   UNL     1      -0.331   0.298   1.393  1.00  0.00     0.018 C 
BRANCH   7   8
ATOM      8  C   UNL     1      -0.711  -1.198   1.356  1.00  0.00    -0.017 C 
ATOM      9  C   UNL     1      -0.324  -1.934   0.077  1.00  0.00     0.007 C 
ATOM     10  C   UNL     1      -0.056  -1.896   2.555  1.00  0.00     0.007 C 
ENDBRANCH   7   8
ENDBRANCH   6   7
BRANCH   6  11
ATOM     11  C   UNL     1      -0.227   1.182  -1.099  1.00  0.00     0.003 C 
ATOM     12  C   UNL     1       1.307   1.151  -1.130  1.00  0.00     0.004 C 
ATOM     13  C   UNL     1      -0.806   2.107  -2.196  1.00  0.00     0.007 C 
ATOM     14  C   UNL     1       1.956   2.520  -1.204  1.00  0.00     0.001 C 
ATOM     15  C   UNL     1      -0.060   3.427  -2.458  1.00  0.00    -0.014 C 
ATOM     16  C   UNL     1       1.463   3.281  -2.425  1.00  0.00     0.003 C 
ATOM     17  C   UNL     1      -0.492   4.039  -3.795  1.00  0.00     0.007 C 
ENDBRANCH   6  11
ENDBRANCH   4   6
ENDBRANCH   3   4
ENDBRANCH   2   3
ENDBRANCH   1   2
BRANCH   1  18
ATOM     18  O   UNL     1      -3.031   4.902   0.433  1.00  0.00    -0.458 OA
BRANCH  18  19
ATOM     19  C   UNL     1      -3.574   4.606  -0.770  1.00  0.00     0.338 C 
ATOM     20  O   UNL     1      -3.171   4.947  -1.867  1.00  0.00    -0.246 OA
BRANCH  19  21
ATOM     21  C   UNL     1      -4.816   3.845  -0.566  1.00  0.00     0.060 A 
ATOM     22  C   UNL     1      -4.799   2.575   0.020  1.00  0.00     0.016 A 
ATOM     23  C   UNL     1      -6.014   4.405  -1.007  1.00  0.00     0.016 A 
ATOM     24  C   UNL     1      -5.987   1.863   0.173  1.00  0.00     0.010 A 
ATOM     25  C   UNL     1      -7.207   3.711  -0.812  1.00  0.00     0.010 A 
ATOM     26  C   UNL     1      -7.202   2.438  -0.217  1.00  0.00    -0.014 A 
BRANCH  26  27
ATOM     27  C   UNL     1      -8.493   1.754   0.033  1.00  0.00     0.031 A 
ATOM     28  C   UNL     1      -9.315   1.264  -1.121  1.00  0.00     0.074 A 
ATOM     29  C   UNL     1      -8.953   1.674   1.296  1.00  0.00     0.049 A 
ATOM     30  N   UNL     1     -10.558   0.860  -1.139  1.00  0.00    -0.248 NA
ATOM     31  C   UNL     1      -8.651   1.240  -2.433  1.00  0.00     0.031 C 
ATOM     32  C   UNL     1      -8.216   2.100   2.489  1.00  0.00     0.029 A 
ATOM     33  N   UNL     1     -10.159   1.244   1.786  1.00  0.00    -0.354 N 
ATOM     34  C   UNL     1     -10.839   0.561  -2.468  1.00  0.00     0.074 A 
ATOM     35  C   UNL     1      -9.636   0.842  -3.225  1.00  0.00     0.031 C 
ATOM     36  C   UNL     1      -8.995   1.935   3.568  1.00  0.00     0.029 A 
ATOM     37  C   UNL     1     -10.304   1.458   3.138  1.00  0.00     0.049 A 
ATOM     38  H   UNL     1     -10.852   0.824   1.227  1.00  0.00     0.167 HD
ATOM     39  C   UNL     1     -12.002   0.105  -2.997  1.00  0.00     0.034 A 
ATOM     40  C   UNL     1     -11.388   1.343   3.929  1.00  0.00     0.034 A 
ATOM     41  C   UNL     1     -13.183  -0.161  -2.211  1.00  0.00     0.049 A 
ATOM     42  C   UNL     1     -12.685   0.897   3.309  1.00  0.00     0.074 A 
ATOM     43  C   UNL     1     -14.404  -0.664  -2.625  1.00  0.00     0.029 A 
ATOM     44  N   UNL     1     -13.295   0.071  -0.844  1.00  0.00    -0.354 N 
ATOM     45  N   UNL     1     -12.942   0.612   2.053  1.00  0.00    -0.248 NA
ATOM     46  C   UNL     1     -13.837   0.762   4.208  1.00  0.00     0.031 C 
ATOM     47  C   UNL     1     -15.270  -0.675  -1.526  1.00  0.00     0.029 A 
ATOM     48  C   UNL     1     -14.573  -0.243  -0.408  1.00  0.00     0.049 A 
ATOM     49  H   UNL     1     -12.571   0.409  -0.269  1.00  0.00     0.167 HD
ATOM     50  C   UNL     1     -14.283   0.249   2.014  1.00  0.00     0.074 A 
ATOM     51  C   UNL     1     -14.775   0.336   3.375  1.00  0.00     0.031 C 
ATOM     52  C   UNL     1     -15.042  -0.126   0.952  1.00  0.00     0.034 A 
BRANCH  39  53
ATOM     53  C   UNL     1     -12.066  -0.071  -4.495  1.00  0.00     0.023 A 
ATOM     54  C   UNL     1     -11.284  -1.025  -5.170  1.00  0.00     0.031 A 
ATOM     55  C   UNL     1     -12.912   0.748  -5.264  1.00  0.00     0.131 A 
ATOM     56  C   UNL     1     -11.319  -1.095  -6.572  1.00  0.00     0.055 A 
ATOM     57  C   UNL     1     -12.994   0.627  -6.653  1.00  0.00     0.041 A 
ATOM     58  F   UNL     1     -13.666   1.692  -4.679  1.00  0.00    -0.206 F 
ATOM     59  C   UNL     1     -12.185  -0.290  -7.316  1.00  0.00     0.022 A 
BRANCH  56  60
ATOM     60  S   UNL     1     -10.130  -2.171  -7.421  1.00  0.00     0.124 S 
ATOM     61  O   UNL     1      -8.855  -1.618  -6.968  1.00  0.00    -0.237 OA
ATOM     62  O   UNL     1     -10.473  -3.491  -6.905  1.00  0.00    -0.237 OA
ATOM     63  O   UNL     1     -10.424  -1.959  -8.837  1.00  0.00    -0.744 OA
ENDBRANCH  56  60
ENDBRANCH  39  53
BRANCH  40  64
ATOM     64  C   UNL     1     -11.309   1.722   5.368  1.00  0.00     0.023 A 
ATOM     65  C   UNL     1     -11.470   0.765   6.381  1.00  0.00     0.031 A 
ATOM     66  C   UNL     1     -11.084   3.058   5.751  1.00  0.00     0.131 A 
ATOM     67  C   UNL     1     -11.432   1.161   7.728  1.00  0.00     0.055 A 
ATOM     68  C   UNL     1     -10.998   3.438   7.091  1.00  0.00     0.041 A 
ATOM     69  F   UNL     1     -10.921   4.013   4.821  1.00  0.00    -0.206 F 
ATOM     70  C   UNL     1     -11.183   2.487   8.089  1.00  0.00     0.022 A 
BRANCH  67  71
ATOM     71  S   UNL     1     -11.782  -0.077   9.006  1.00  0.00     0.124 S 
ATOM     72  O   UNL     1     -13.102  -0.553   8.608  1.00  0.00    -0.237 OA
ATOM     73  O   UNL     1     -10.680  -1.016   8.828  1.00  0.00    -0.237 OA
ATOM     74  O   UNL     1     -11.746   0.695  10.247  1.00  0.00    -0.744 OA
ENDBRANCH  67  71
ENDBRANCH  40  64
BRANCH  52  75
ATOM     75  C   UNL     1     -16.471  -0.498   1.246  1.00  0.00     0.023 A 
ATOM     76  C   UNL     1     -17.420   0.470   1.617  1.00  0.00     0.031 A 
ATOM     77  C   UNL     1     -16.881  -1.840   1.171  1.00  0.00     0.131 A 
ATOM     78  C   UNL     1     -18.724   0.074   1.948  1.00  0.00     0.055 A 
ATOM     79  C   UNL     1     -18.194  -2.221   1.450  1.00  0.00     0.041 A 
ATOM     80  F   UNL     1     -16.011  -2.801   0.823  1.00  0.00    -0.206 F 
ATOM     81  C   UNL     1     -19.121  -1.263   1.851  1.00  0.00     0.022 A 
BRANCH  78  82
ATOM     82  S   UNL     1     -19.881   1.321   2.575  1.00  0.00     0.124 S 
ATOM     83  O   UNL     1     -19.221   1.757   3.801  1.00  0.00    -0.237 OA
ATOM     84  O   UNL     1     -19.914   2.295   1.488  1.00  0.00    -0.237 OA
ATOM     85  O   UNL     1     -21.121   0.572   2.770  1.00  0.00    -0.744 OA
ENDBRANCH  78  82
ENDBRANCH  52  75
ENDBRANCH  26  27
ENDBRANCH  19  21
ENDBRANCH  18  19
ENDBRANCH   1  18
TORSDOF 17
