REMARK SMILES Cc1cc(F)c([C@@](C)(C(=O)OCCOC(=O)c2ccc(-c3c4nc(c(-c5cc(S(=O)(=O)[O-])ccc5F)c5ccc([nH]5)c(-c5cc(S(=O)(=O)[O-])ccc5F)c5nc(c(-c6cc(S(=O)(=O)[O-])ccc6F)c6ccc3[nH]6)C=C5)C=C4)cc2)[NH+]2CC[NH2+]CC2)cc1F
REMARK SMILES IDX 13 1 12 2 11 3 9 4 10 5 7 6 8 7 6 8 1 9 2 10 3 11 87 12 4 13
REMARK SMILES IDX 86 14 88 15 5 16 80 17 81 18 85 19 82 21 84 22 83 23 14 26
REMARK SMILES IDX 15 27 16 28 17 29 18 30 79 31 19 32 78 33 20 34 21 35 22 36
REMARK SMILES IDX 72 37 23 38 77 39 71 40 73 41 24 42 76 43 70 44 69 45 25 47
REMARK SMILES IDX 57 48 37 49 56 50 38 51 41 52 55 53 74 54 39 55 40 56 54 58
REMARK SMILES IDX 75 59 42 60 26 61 27 62 35 63 28 64 34 65 36 66 33 67 29 68
REMARK SMILES IDX 30 69 31 70 32 71 58 72 59 73 67 74 60 75 66 76 68 77 65 78
REMARK SMILES IDX 61 79 62 80 63 81 64 82 43 83 44 84 52 85 45 86 51 87 53 88
REMARK SMILES IDX 50 89 46 90 47 91 48 92 49 93
REMARK H PARENT 80 20 83 24 83 25 73 46 41 57
REMARK Flexibility Score: inf
ROOT
ATOM      1  C   UNL     1       2.695  -6.394   4.031  1.00  0.00     0.275 C 
ENDROOT
BRANCH   1   2
ATOM      2  C   UNL     1       2.220  -6.508   2.590  1.00  0.00     0.274 C 
BRANCH   2   3
ATOM      3  O   UNL     1       1.346  -5.409   2.247  1.00  0.00    -0.457 OA
BRANCH   3   4
ATOM      4  C   UNL     1       0.065  -5.736   1.911  1.00  0.00     0.373 C 
ATOM      5  O   UNL     1      -0.425  -6.840   2.147  1.00  0.00    -0.244 OA
BRANCH   4   6
ATOM      6  C   UNL     1      -0.712  -4.600   1.144  1.00  0.00     0.221 C 
ATOM      7  C   UNL     1      -1.170  -5.310  -0.160  1.00  0.00     0.098 C 
BRANCH   6   8
ATOM      8  C   UNL     1       0.139  -3.388   0.692  1.00  0.00     0.062 A 
ATOM      9  C   UNL     1       2.426   0.079  -0.603  1.00  0.00     0.047 C 
ATOM     10  C   UNL     1       1.663  -1.126  -0.155  1.00  0.00    -0.012 A 
ATOM     11  C   UNL     1       2.150  -2.423  -0.331  1.00  0.00     0.046 A 
ATOM     12  C   UNL     1       0.392  -0.973   0.384  1.00  0.00     0.126 A 
ATOM     13  C   UNL     1       1.391  -3.529   0.076  1.00  0.00     0.133 A 
ATOM     14  C   UNL     1      -0.355  -2.074   0.784  1.00  0.00     0.053 A 
ATOM     15  F   UNL     1      -0.141   0.250   0.510  1.00  0.00    -0.207 F 
ATOM     16  F   UNL     1       1.887  -4.748  -0.181  1.00  0.00    -0.206 F 
ENDBRANCH   6   8
BRANCH   6  17
ATOM     17  N   UNL     1      -1.858  -4.174   1.982  1.00  0.00    -0.308 N 
ATOM     18  C   UNL     1      -1.661  -3.697   3.346  1.00  0.00     0.325 C 
ATOM     19  C   UNL     1      -3.243  -4.150   1.540  1.00  0.00     0.325 C 
ATOM     20  H   UNL     1      -1.392  -4.756   1.287  1.00  0.00     0.349 HD
ATOM     21  C   UNL     1      -2.384  -2.367   3.665  1.00  0.00     0.322 C 
ATOM     22  C   UNL     1      -3.928  -2.794   1.837  1.00  0.00     0.322 C 
ATOM     23  N   UNL     1      -3.783  -2.317   3.217  1.00  0.00    -0.337 N 
ATOM     24  H   UNL     1      -4.114  -1.354   3.271  1.00  0.00     0.346 HD
ATOM     25  H   UNL     1      -4.333  -2.927   3.823  1.00  0.00     0.346 HD
ENDBRANCH   6  17
ENDBRANCH   4   6
ENDBRANCH   3   4
ENDBRANCH   2   3
ENDBRANCH   1   2
BRANCH   1  26
ATOM     26  O   UNL     1       1.559  -6.538   4.893  1.00  0.00    -0.458 OA
BRANCH  26  27
ATOM     27  C   UNL     1       1.305  -5.498   5.715  1.00  0.00     0.338 C 
ATOM     28  O   UNL     1       2.013  -4.521   5.912  1.00  0.00    -0.246 OA
BRANCH  27  29
ATOM     29  C   UNL     1      -0.004  -5.701   6.359  1.00  0.00     0.060 A 
ATOM     30  C   UNL     1      -0.171  -5.345   7.695  1.00  0.00     0.016 A 
ATOM     31  C   UNL     1      -1.099  -6.133   5.611  1.00  0.00     0.016 A 
ATOM     32  C   UNL     1      -1.438  -5.438   8.278  1.00  0.00     0.010 A 
ATOM     33  C   UNL     1      -2.380  -6.098   6.163  1.00  0.00     0.010 A 
ATOM     34  C   UNL     1      -2.571  -5.776   7.511  1.00  0.00    -0.014 A 
BRANCH  34  35
ATOM     35  C   UNL     1      -3.932  -5.771   8.126  1.00  0.00     0.031 A 
ATOM     36  C   UNL     1      -4.819  -6.993   8.082  1.00  0.00     0.074 A 
ATOM     37  C   UNL     1      -4.389  -4.648   8.721  1.00  0.00     0.049 A 
ATOM     38  N   UNL     1      -5.982  -7.184   8.654  1.00  0.00    -0.248 NA
ATOM     39  C   UNL     1      -4.375  -8.130   7.260  1.00  0.00     0.031 C 
ATOM     40  C   UNL     1      -3.704  -3.353   8.714  1.00  0.00     0.029 A 
ATOM     41  N   UNL     1      -5.520  -4.416   9.468  1.00  0.00    -0.354 N 
ATOM     42  C   UNL     1      -6.407  -8.444   8.247  1.00  0.00     0.074 A 
ATOM     43  C   UNL     1      -5.424  -8.936   7.312  1.00  0.00     0.031 C 
ATOM     44  C   UNL     1      -4.380  -2.492   9.487  1.00  0.00     0.029 A 
ATOM     45  C   UNL     1      -5.563  -3.158  10.028  1.00  0.00     0.049 A 
ATOM     46  H   UNL     1      -6.231  -5.085   9.590  1.00  0.00     0.167 HD
ATOM     47  C   UNL     1      -7.488  -9.153   8.652  1.00  0.00     0.034 A 
ATOM     48  C   UNL     1      -6.428  -2.612  10.908  1.00  0.00     0.034 A 
ATOM     49  C   UNL     1      -8.429  -8.682   9.632  1.00  0.00     0.049 A 
ATOM     50  C   UNL     1      -7.550  -3.462  11.452  1.00  0.00     0.074 A 
ATOM     51  C   UNL     1      -9.517  -9.351  10.165  1.00  0.00     0.029 A 
ATOM     52  N   UNL     1      -8.381  -7.441  10.247  1.00  0.00    -0.354 N 
ATOM     53  N   UNL     1      -7.860  -4.702  11.156  1.00  0.00    -0.248 NA
ATOM     54  C   UNL     1      -8.424  -2.856  12.467  1.00  0.00     0.031 C 
ATOM     55  C   UNL     1     -10.142  -8.505  11.082  1.00  0.00     0.029 A 
ATOM     56  C   UNL     1      -9.416  -7.327  11.158  1.00  0.00     0.049 A 
ATOM     57  H   UNL     1      -7.711  -6.744  10.062  1.00  0.00     0.167 HD
ATOM     58  C   UNL     1      -8.947  -5.030  11.960  1.00  0.00     0.074 A 
ATOM     59  C   UNL     1      -9.223  -3.869  12.780  1.00  0.00     0.031 C 
ATOM     60  C   UNL     1      -9.660  -6.183  12.003  1.00  0.00     0.034 A 
BRANCH  47  61
ATOM     61  C   UNL     1      -7.681 -10.545   8.100  1.00  0.00     0.023 A 
ATOM     62  C   UNL     1      -8.826 -10.865   7.348  1.00  0.00     0.031 A 
ATOM     63  C   UNL     1      -6.781 -11.580   8.415  1.00  0.00     0.131 A 
ATOM     64  C   UNL     1      -9.048 -12.191   6.952  1.00  0.00     0.055 A 
ATOM     65  C   UNL     1      -6.984 -12.890   7.981  1.00  0.00     0.041 A 
ATOM     66  F   UNL     1      -5.676 -11.327   9.136  1.00  0.00    -0.206 F 
ATOM     67  C   UNL     1      -8.128 -13.201   7.254  1.00  0.00     0.022 A 
BRANCH  64  68
ATOM     68  S   UNL     1     -10.559 -12.672   6.072  1.00  0.00     0.124 S 
ATOM     69  O   UNL     1     -10.020 -13.289   4.862  1.00  0.00    -0.237 OA
ATOM     70  O   UNL     1     -11.182 -13.594   7.018  1.00  0.00    -0.237 OA
ATOM     71  O   UNL     1     -11.261 -11.410   5.864  1.00  0.00    -0.744 OA
ENDBRANCH  64  68
ENDBRANCH  47  61
BRANCH  48  72
ATOM     72  C   UNL     1      -6.176  -1.230  11.416  1.00  0.00     0.023 A 
ATOM     73  C   UNL     1      -6.223  -0.115  10.560  1.00  0.00     0.031 A 
ATOM     74  C   UNL     1      -5.783  -1.022  12.750  1.00  0.00     0.131 A 
ATOM     75  C   UNL     1      -5.838   1.146  11.037  1.00  0.00     0.055 A 
ATOM     76  C   UNL     1      -5.459   0.246  13.237  1.00  0.00     0.041 A 
ATOM     77  F   UNL     1      -5.703  -2.058  13.600  1.00  0.00    -0.206 F 
ATOM     78  C   UNL     1      -5.472   1.336  12.374  1.00  0.00     0.022 A 
BRANCH  75  79
ATOM     79  S   UNL     1      -5.676   2.560   9.911  1.00  0.00     0.124 S 
ATOM     80  O   UNL     1      -6.691   3.474  10.425  1.00  0.00    -0.237 OA
ATOM     81  O   UNL     1      -4.290   2.966  10.136  1.00  0.00    -0.237 OA
ATOM     82  O   UNL     1      -5.947   1.985   8.598  1.00  0.00    -0.744 OA
ENDBRANCH  75  79
ENDBRANCH  48  72
BRANCH  60  83
ATOM     83  C   UNL     1     -10.814  -6.294  12.968  1.00  0.00     0.023 A 
ATOM     84  C   UNL     1     -10.779  -7.257  13.995  1.00  0.00     0.031 A 
ATOM     85  C   UNL     1     -12.007  -5.583  12.758  1.00  0.00     0.131 A 
ATOM     86  C   UNL     1     -11.933  -7.513  14.746  1.00  0.00     0.055 A 
ATOM     87  C   UNL     1     -13.142  -5.814  13.537  1.00  0.00     0.041 A 
ATOM     88  F   UNL     1     -12.092  -4.668  11.780  1.00  0.00    -0.206 F 
ATOM     89  C   UNL     1     -13.112  -6.793  14.526  1.00  0.00     0.022 A 
BRANCH  86  90
ATOM     90  S   UNL     1     -11.976  -8.851  15.971  1.00  0.00     0.124 S 
ATOM     91  O   UNL     1     -12.267  -8.123  17.204  1.00  0.00    -0.237 OA
ATOM     92  O   UNL     1     -13.062  -9.690  15.472  1.00  0.00    -0.237 OA
ATOM     93  O   UNL     1     -10.643  -9.441  15.897  1.00  0.00    -0.744 OA
ENDBRANCH  86  90
ENDBRANCH  60  83
ENDBRANCH  34  35
ENDBRANCH  27  29
ENDBRANCH  26  27
ENDBRANCH   1  26
TORSDOF 16
