REMARK SMILES C[C@@H]1[C@H](C(=O)OCCOC(=O)c2ccc(-c3c4nc(c(-c5cc(S(=O)(=O)[O-])ccc5F)c5ccc([nH]5)c(-c5cc(S(=O)(=O)[O-])ccc5F)c5nc(c(-c6cc(S(=O)(=O)[O-])ccc6F)c6ccc3[nH]6)C=C5)C=C4)cc2)CCN1c1ccc(C(F)(F)F)cc1
REMARK SMILES IDX 8 1 7 2 6 3 4 4 5 5 3 6 1 7 2 8 77 9 75 10 76 11 78 12 79 13
REMARK SMILES IDX 87 14 80 15 86 16 81 17 82 18 83 19 84 20 85 21 9 22 10 23
REMARK SMILES IDX 11 24 12 25 13 26 74 27 14 28 73 29 15 30 16 31 17 32 67 33
REMARK SMILES IDX 18 34 72 35 66 36 68 37 19 38 71 39 65 40 64 41 20 43 52 44
REMARK SMILES IDX 32 45 51 46 33 47 36 48 50 49 69 50 34 51 35 52 49 54 70 55
REMARK SMILES IDX 37 56 21 57 22 58 30 59 23 60 29 61 31 62 28 63 24 64 25 65
REMARK SMILES IDX 26 66 27 67 53 68 54 69 62 70 55 71 61 72 63 73 60 74 56 75
REMARK SMILES IDX 57 76 58 77 59 78 38 79 39 80 47 81 40 82 46 83 48 84 45 85
REMARK SMILES IDX 41 86 42 87 43 88 44 89
REMARK H PARENT 68 42 36 53
REMARK Flexibility Score: inf
ROOT
ATOM      1  C   UNL     1       3.031   4.090   0.061  1.00  0.00     0.275 C 
ENDROOT
BRANCH   1   2
ATOM      2  C   UNL     1       1.914   3.886   1.092  1.00  0.00     0.274 C 
BRANCH   2   3
ATOM      3  O   UNL     1       1.363   2.556   1.007  1.00  0.00    -0.462 OA
BRANCH   3   4
ATOM      4  C   UNL     1       0.215   2.415   0.309  1.00  0.00     0.311 C 
ATOM      5  O   UNL     1      -0.459   3.359  -0.092  1.00  0.00    -0.252 OA
BRANCH   4   6
ATOM      6  C   UNL     1      -0.219   0.987   0.079  1.00  0.00     0.123 C 
ATOM      7  C   UNL     1       1.908  -0.170   1.068  1.00  0.00     0.032 C 
ATOM      8  C   UNL     1       0.758  -0.215   0.067  1.00  0.00     0.093 C 
ATOM      9  N   UNL     1      -0.152  -1.353   0.381  1.00  0.00    -0.368 N 
ATOM     10  C   UNL     1      -1.317   0.563   1.044  1.00  0.00     0.039 C 
ATOM     11  C   UNL     1      -1.514  -0.893   0.649  1.00  0.00     0.118 C 
BRANCH   9  12
ATOM     12  C   UNL     1       0.077  -2.635  -0.074  1.00  0.00     0.037 A 
ATOM     13  C   UNL     1      -0.719  -3.240  -1.054  1.00  0.00     0.026 A 
ATOM     14  C   UNL     1       1.099  -3.412   0.482  1.00  0.00     0.026 A 
ATOM     15  C   UNL     1      -0.520  -4.573  -1.444  1.00  0.00     0.015 A 
ATOM     16  C   UNL     1       1.309  -4.742   0.102  1.00  0.00     0.015 A 
ATOM     17  C   UNL     1       0.491  -5.344  -0.858  1.00  0.00     0.056 A 
BRANCH  17  18
ATOM     18  C   UNL     1       0.659  -6.795  -1.226  1.00  0.00     0.416 C 
ATOM     19  F   UNL     1      -0.419  -7.548  -0.862  1.00  0.00    -0.166 F 
ATOM     20  F   UNL     1       0.822  -6.998  -2.561  1.00  0.00    -0.166 F 
ATOM     21  F   UNL     1       1.732  -7.388  -0.625  1.00  0.00    -0.166 F 
ENDBRANCH  17  18
ENDBRANCH   9  12
ENDBRANCH   4   6
ENDBRANCH   3   4
ENDBRANCH   2   3
ENDBRANCH   1   2
BRANCH   1  22
ATOM     22  O   UNL     1       2.520   4.205  -1.281  1.00  0.00    -0.458 OA
BRANCH  22  23
ATOM     23  C   UNL     1       2.392   3.034  -1.950  1.00  0.00     0.338 C 
ATOM     24  O   UNL     1       2.682   1.923  -1.541  1.00  0.00    -0.246 OA
BRANCH  23  25
ATOM     25  C   UNL     1       1.687   3.256  -3.223  1.00  0.00     0.060 A 
ATOM     26  C   UNL     1       0.492   2.564  -3.431  1.00  0.00     0.016 A 
ATOM     27  C   UNL     1       2.219   4.066  -4.227  1.00  0.00     0.016 A 
ATOM     28  C   UNL     1      -0.181   2.673  -4.642  1.00  0.00     0.010 A 
ATOM     29  C   UNL     1       1.541   4.177  -5.447  1.00  0.00     0.010 A 
ATOM     30  C   UNL     1       0.341   3.475  -5.663  1.00  0.00    -0.014 A 
BRANCH  30  31
ATOM     31  C   UNL     1      -0.356   3.530  -6.970  1.00  0.00     0.031 A 
ATOM     32  C   UNL     1       0.214   2.795  -8.148  1.00  0.00     0.074 A 
ATOM     33  C   UNL     1      -1.520   4.197  -7.079  1.00  0.00     0.049 A 
ATOM     34  N   UNL     1      -0.193   2.778  -9.390  1.00  0.00    -0.248 NA
ATOM     35  C   UNL     1       1.403   1.969  -7.889  1.00  0.00     0.031 C 
ATOM     36  C   UNL     1      -2.202   4.886  -5.981  1.00  0.00     0.029 A 
ATOM     37  N   UNL     1      -2.339   4.401  -8.160  1.00  0.00    -0.354 N 
ATOM     38  C   UNL     1       0.694   1.949 -10.069  1.00  0.00     0.074 A 
ATOM     39  C   UNL     1       1.677   1.506  -9.101  1.00  0.00     0.031 C 
ATOM     40  C   UNL     1      -3.337   5.432  -6.446  1.00  0.00     0.029 A 
ATOM     41  C   UNL     1      -3.435   5.183  -7.881  1.00  0.00     0.049 A 
ATOM     42  H   UNL     1      -2.158   4.024  -9.051  1.00  0.00     0.167 HD
ATOM     43  C   UNL     1       0.684   1.592 -11.377  1.00  0.00     0.034 A 
ATOM     44  C   UNL     1      -4.389   5.672  -8.698  1.00  0.00     0.034 A 
ATOM     45  C   UNL     1      -0.302   2.051 -12.326  1.00  0.00     0.049 A 
ATOM     46  C   UNL     1      -4.323   5.338 -10.167  1.00  0.00     0.074 A 
ATOM     47  C   UNL     1      -0.398   1.771 -13.678  1.00  0.00     0.029 A 
ATOM     48  N   UNL     1      -1.367   2.891 -12.021  1.00  0.00    -0.354 N 
ATOM     49  N   UNL     1      -3.453   4.591 -10.807  1.00  0.00    -0.248 NA
ATOM     50  C   UNL     1      -5.366   5.917 -11.024  1.00  0.00     0.031 C 
ATOM     51  C   UNL     1      -1.483   2.486 -14.200  1.00  0.00     0.029 A 
ATOM     52  C   UNL     1      -2.107   3.159 -13.162  1.00  0.00     0.049 A 
ATOM     53  H   UNL     1      -1.566   3.246 -11.124  1.00  0.00     0.167 HD
ATOM     54  C   UNL     1      -3.859   4.592 -12.138  1.00  0.00     0.074 A 
ATOM     55  C   UNL     1      -5.060   5.400 -12.205  1.00  0.00     0.031 C 
ATOM     56  C   UNL     1      -3.295   3.978 -13.209  1.00  0.00     0.034 A 
BRANCH  43  57
ATOM     57  C   UNL     1       1.810   0.712 -11.860  1.00  0.00     0.023 A 
ATOM     58  C   UNL     1       1.966  -0.610 -11.406  1.00  0.00     0.031 A 
ATOM     59  C   UNL     1       2.765   1.216 -12.762  1.00  0.00     0.131 A 
ATOM     60  C   UNL     1       3.085  -1.358 -11.803  1.00  0.00     0.055 A 
ATOM     61  C   UNL     1       3.836   0.441 -13.210  1.00  0.00     0.041 A 
ATOM     62  F   UNL     1       2.680   2.478 -13.211  1.00  0.00    -0.206 F 
ATOM     63  C   UNL     1       4.009  -0.850 -12.720  1.00  0.00     0.022 A 
BRANCH  60  64
ATOM     64  S   UNL     1       3.391  -2.956 -11.001  1.00  0.00     0.124 S 
ATOM     65  O   UNL     1       3.512  -2.563  -9.599  1.00  0.00    -0.237 OA
ATOM     66  O   UNL     1       2.198  -3.718 -11.351  1.00  0.00    -0.237 OA
ATOM     67  O   UNL     1       4.631  -3.419 -11.620  1.00  0.00    -0.744 OA
ENDBRANCH  60  64
ENDBRANCH  43  57
BRANCH  44  68
ATOM     68  C   UNL     1      -5.452   6.572  -8.168  1.00  0.00     0.023 A 
ATOM     69  C   UNL     1      -6.806   6.204  -8.213  1.00  0.00     0.031 A 
ATOM     70  C   UNL     1      -5.131   7.842  -7.655  1.00  0.00     0.131 A 
ATOM     71  C   UNL     1      -7.791   7.112  -7.794  1.00  0.00     0.055 A 
ATOM     72  C   UNL     1      -6.111   8.720  -7.190  1.00  0.00     0.041 A 
ATOM     73  F   UNL     1      -3.852   8.246  -7.592  1.00  0.00    -0.206 F 
ATOM     74  C   UNL     1      -7.452   8.362  -7.271  1.00  0.00     0.022 A 
BRANCH  71  75
ATOM     75  S   UNL     1      -9.535   6.669  -8.025  1.00  0.00     0.124 S 
ATOM     76  O   UNL     1      -9.592   6.423  -9.462  1.00  0.00    -0.237 OA
ATOM     77  O   UNL     1      -9.665   5.495  -7.168  1.00  0.00    -0.237 OA
ATOM     78  O   UNL     1     -10.251   7.857  -7.566  1.00  0.00    -0.744 OA
ENDBRANCH  71  75
ENDBRANCH  44  68
BRANCH  56  79
ATOM     79  C   UNL     1      -4.006   4.129 -14.530  1.00  0.00     0.023 A 
ATOM     80  C   UNL     1      -4.059   5.362 -15.204  1.00  0.00     0.031 A 
ATOM     81  C   UNL     1      -4.659   3.027 -15.110  1.00  0.00     0.131 A 
ATOM     82  C   UNL     1      -4.796   5.476 -16.392  1.00  0.00     0.055 A 
ATOM     83  C   UNL     1      -5.345   3.134 -16.320  1.00  0.00     0.041 A 
ATOM     84  F   UNL     1      -4.640   1.828 -14.506  1.00  0.00    -0.206 F 
ATOM     85  C   UNL     1      -5.427   4.366 -16.962  1.00  0.00     0.022 A 
BRANCH  82  86
ATOM     86  S   UNL     1      -4.989   7.115 -17.145  1.00  0.00     0.124 S 
ATOM     87  O   UNL     1      -5.645   7.864 -16.078  1.00  0.00    -0.237 OA
ATOM     88  O   UNL     1      -3.609   7.492 -17.432  1.00  0.00    -0.237 OA
ATOM     89  O   UNL     1      -5.817   6.858 -18.321  1.00  0.00    -0.744 OA
ENDBRANCH  82  86
ENDBRANCH  56  79
ENDBRANCH  30  31
ENDBRANCH  23  25
ENDBRANCH  22  23
ENDBRANCH   1  22
TORSDOF 16
