REMARK SMILES Cc1ccc(S(=O)(=O)Nc2ccc(N3CCNC3=O)cc2)cc1C(=O)OCCOC(=O)c1ccc(-c2c3nc(c(-c4cc(S(=O)(=O)[O-])ccc4F)c4ccc([nH]4)c(-c4cc(S(=O)(=O)[O-])ccc4F)c4nc(c(-c5cc(S(=O)(=O)[O-])ccc5F)c5ccc2[nH]5)C=C4)C=C3)cc1
REMARK SMILES IDX 27 1 26 2 24 3 25 4 23 5 1 6 2 7 3 8 4 9 22 10 5 11 6 12
REMARK SMILES IDX 7 13 8 14 9 15 10 17 11 18 21 19 12 20 20 21 13 22 14 23
REMARK SMILES IDX 15 24 18 25 16 26 17 27 19 28 28 30 29 31 30 32 31 33 32 34
REMARK SMILES IDX 33 35 94 36 34 37 93 38 35 39 36 40 37 41 87 42 38 43 92 44
REMARK SMILES IDX 86 45 88 46 39 47 91 48 85 49 84 50 40 52 72 53 52 54 71 55
REMARK SMILES IDX 53 56 56 57 70 58 89 59 54 60 55 61 69 63 90 64 57 65 41 66
REMARK SMILES IDX 42 67 50 68 43 69 49 70 51 71 48 72 44 73 45 74 46 75 47 76
REMARK SMILES IDX 73 77 74 78 82 79 75 80 81 81 83 82 80 83 76 84 77 85 78 86
REMARK SMILES IDX 79 87 58 88 59 89 67 90 60 91 66 92 68 93 65 94 61 95 62 96
REMARK SMILES IDX 63 97 64 98
REMARK H PARENT 9 16 17 29 88 51 56 62
REMARK Flexibility Score: inf
ROOT
ATOM      1  C   UNL     1       3.841   2.086  -2.017  1.00  0.00     0.275 C 
ENDROOT
BRANCH   1   2
ATOM      2  O   UNL     1       2.708   1.177  -2.083  1.00  0.00    -0.458 OA
BRANCH   2   3
ATOM      3  C   UNL     1       2.240   0.773  -0.878  1.00  0.00     0.338 C 
ATOM      4  O   UNL     1       2.752   1.059   0.198  1.00  0.00    -0.246 OA
BRANCH   3   5
ATOM      5  C   UNL     1       1.100  -0.176  -0.909  1.00  0.00     0.064 A 
ATOM      6  C   UNL     1       2.736  -2.036  -0.301  1.00  0.00     0.045 C 
ATOM      7  C   UNL     1       1.344  -1.489  -0.468  1.00  0.00    -0.036 A 
ATOM      8  C   UNL     1       0.251  -2.332  -0.224  1.00  0.00     0.006 A 
ATOM      9  C   UNL     1      -1.061  -1.869  -0.372  1.00  0.00     0.022 A 
ATOM     10  C   UNL     1      -0.226   0.272  -1.106  1.00  0.00     0.038 A 
ATOM     11  C   UNL     1      -1.311  -0.566  -0.824  1.00  0.00     0.088 A 
BRANCH  11  12
ATOM     12  S   UNL     1      -3.035  -0.093  -1.022  1.00  0.00     0.261 S 
ATOM     13  O   UNL     1      -3.373  -0.270  -2.414  1.00  0.00    -0.201 OA
ATOM     14  O   UNL     1      -3.754  -0.833   0.004  1.00  0.00    -0.201 OA
BRANCH  12  15
ATOM     15  N   UNL     1      -3.245   1.500  -0.566  1.00  0.00    -0.280 N 
ATOM     16  H   UNL     1      -3.478   1.662   0.377  1.00  0.00     0.180 HD
BRANCH  15  17
ATOM     17  C   UNL     1      -3.121   2.654  -1.404  1.00  0.00     0.049 A 
ATOM     18  C   UNL     1      -3.585   3.860  -0.885  1.00  0.00     0.029 A 
ATOM     19  C   UNL     1      -2.329   2.713  -2.546  1.00  0.00     0.029 A 
ATOM     20  C   UNL     1      -3.031   5.068  -1.327  1.00  0.00     0.028 A 
ATOM     21  C   UNL     1      -1.766   3.939  -2.960  1.00  0.00     0.028 A 
ATOM     22  C   UNL     1      -1.955   5.082  -2.196  1.00  0.00     0.046 A 
BRANCH  22  23
ATOM     23  N   UNL     1      -0.963   6.094  -2.109  1.00  0.00    -0.293 N 
ATOM     24  C   UNL     1      -0.549   6.686  -0.839  1.00  0.00     0.149 C 
ATOM     25  C   UNL     1      -0.144   6.562  -3.138  1.00  0.00     0.321 C 
ATOM     26  C   UNL     1       0.775   7.373  -1.139  1.00  0.00     0.139 C 
ATOM     27  N   UNL     1       0.833   7.377  -2.572  1.00  0.00    -0.336 N 
ATOM     28  O   UNL     1      -0.217   6.339  -4.335  1.00  0.00    -0.248 OA
ATOM     29  H   UNL     1       1.486   7.896  -3.095  1.00  0.00     0.165 HD
ENDBRANCH  22  23
ENDBRANCH  15  17
ENDBRANCH  12  15
ENDBRANCH  11  12
ENDBRANCH   3   5
ENDBRANCH   2   3
ENDBRANCH   1   2
BRANCH   1  30
ATOM     30  C   UNL     1       3.669   3.344  -2.899  1.00  0.00     0.275 C 
BRANCH  30  31
ATOM     31  O   UNL     1       2.697   4.293  -2.434  1.00  0.00    -0.458 OA
BRANCH  31  32
ATOM     32  C   UNL     1       1.519   3.740  -2.066  1.00  0.00     0.338 C 
ATOM     33  O   UNL     1       0.865   2.978  -2.747  1.00  0.00    -0.246 OA
BRANCH  32  34
ATOM     34  C   UNL     1       1.383   3.895  -0.596  1.00  0.00     0.060 A 
ATOM     35  C   UNL     1       0.269   3.360   0.073  1.00  0.00     0.016 A 
ATOM     36  C   UNL     1       2.490   4.348   0.120  1.00  0.00     0.016 A 
ATOM     37  C   UNL     1       0.288   3.164   1.442  1.00  0.00     0.010 A 
ATOM     38  C   UNL     1       2.539   4.119   1.461  1.00  0.00     0.010 A 
ATOM     39  C   UNL     1       1.443   3.526   2.106  1.00  0.00    -0.014 A 
BRANCH  39  40
ATOM     40  C   UNL     1       1.601   3.487   3.536  1.00  0.00     0.031 A 
ATOM     41  C   UNL     1       2.327   2.360   4.153  1.00  0.00     0.074 A 
ATOM     42  C   UNL     1       1.487   4.740   4.023  1.00  0.00     0.049 A 
ATOM     43  N   UNL     1       2.520   2.239   5.415  1.00  0.00    -0.248 NA
ATOM     44  C   UNL     1       2.849   1.214   3.408  1.00  0.00     0.031 C 
ATOM     45  C   UNL     1       2.319   5.404   5.009  1.00  0.00     0.029 A 
ATOM     46  N   UNL     1       0.637   5.750   3.595  1.00  0.00    -0.354 N 
ATOM     47  C   UNL     1       3.457   1.238   5.604  1.00  0.00     0.074 A 
ATOM     48  C   UNL     1       3.510   0.534   4.353  1.00  0.00     0.031 C 
ATOM     49  C   UNL     1       1.801   6.627   5.251  1.00  0.00     0.029 A 
ATOM     50  C   UNL     1       0.503   6.710   4.593  1.00  0.00     0.049 A 
ATOM     51  H   UNL     1       0.196   5.783   2.716  1.00  0.00     0.167 HD
ATOM     52  C   UNL     1       4.187   1.253   6.755  1.00  0.00     0.034 A 
ATOM     53  C   UNL     1      -0.681   6.811   5.280  1.00  0.00     0.034 A 
ATOM     54  C   UNL     1       3.741   2.375   7.579  1.00  0.00     0.049 A 
ATOM     55  C   UNL     1      -0.636   6.185   6.646  1.00  0.00     0.074 A 
ATOM     56  C   UNL     1       4.196   3.678   7.674  1.00  0.00     0.029 A 
ATOM     57  N   UNL     1       2.465   2.353   8.118  1.00  0.00    -0.354 N 
ATOM     58  N   UNL     1       0.360   5.492   7.115  1.00  0.00    -0.248 NA
ATOM     59  C   UNL     1      -1.775   6.248   7.552  1.00  0.00     0.031 C 
ATOM     60  C   UNL     1       3.114   4.468   8.146  1.00  0.00     0.029 A 
ATOM     61  C   UNL     1       2.029   3.638   8.385  1.00  0.00     0.049 A 
ATOM     62  H   UNL     1       1.942   1.536   8.288  1.00  0.00     0.167 HD
ATOM     63  C   UNL     1      -0.040   4.878   8.264  1.00  0.00     0.074 A 
ATOM     64  C   UNL     1      -1.332   5.480   8.555  1.00  0.00     0.031 C 
ATOM     65  C   UNL     1       0.663   3.855   8.834  1.00  0.00     0.034 A 
BRANCH  52  66
ATOM     66  C   UNL     1       5.457   0.500   7.083  1.00  0.00     0.023 A 
ATOM     67  C   UNL     1       6.182   0.932   8.217  1.00  0.00     0.031 A 
ATOM     68  C   UNL     1       6.047  -0.561   6.370  1.00  0.00     0.131 A 
ATOM     69  C   UNL     1       7.425   0.382   8.568  1.00  0.00     0.055 A 
ATOM     70  C   UNL     1       7.290  -1.117   6.721  1.00  0.00     0.041 A 
ATOM     71  F   UNL     1       5.460  -1.127   5.310  1.00  0.00    -0.206 F 
ATOM     72  C   UNL     1       7.991  -0.641   7.821  1.00  0.00     0.022 A 
BRANCH  69  73
ATOM     73  S   UNL     1       8.291   1.057  10.009  1.00  0.00     0.124 S 
ATOM     74  O   UNL     1       8.520   2.441   9.609  1.00  0.00    -0.237 OA
ATOM     75  O   UNL     1       7.324   0.843  11.080  1.00  0.00    -0.237 OA
ATOM     76  O   UNL     1       9.496   0.233  10.095  1.00  0.00    -0.744 OA
ENDBRANCH  69  73
ENDBRANCH  52  66
BRANCH  53  77
ATOM     77  C   UNL     1      -1.885   6.662   4.421  1.00  0.00     0.023 A 
ATOM     78  C   UNL     1      -2.214   7.751   3.599  1.00  0.00     0.031 A 
ATOM     79  C   UNL     1      -2.302   5.364   4.070  1.00  0.00     0.131 A 
ATOM     80  C   UNL     1      -2.716   7.495   2.331  1.00  0.00     0.055 A 
ATOM     81  C   UNL     1      -2.760   5.110   2.792  1.00  0.00     0.041 A 
ATOM     82  F   UNL     1      -2.077   4.317   4.876  1.00  0.00    -0.206 F 
ATOM     83  C   UNL     1      -2.905   6.178   1.917  1.00  0.00     0.022 A 
BRANCH  80  84
ATOM     84  S   UNL     1      -2.911   8.878   1.172  1.00  0.00     0.124 S 
ATOM     85  O   UNL     1      -3.899   9.713   1.841  1.00  0.00    -0.237 OA
ATOM     86  O   UNL     1      -1.548   9.401   1.111  1.00  0.00    -0.237 OA
ATOM     87  O   UNL     1      -3.379   8.236  -0.053  1.00  0.00    -0.744 OA
ENDBRANCH  80  84
ENDBRANCH  53  77
BRANCH  65  88
ATOM     88  C   UNL     1       0.071   3.023   9.931  1.00  0.00     0.023 A 
ATOM     89  C   UNL     1      -1.312   2.893  10.081  1.00  0.00     0.031 A 
ATOM     90  C   UNL     1       0.871   2.359  10.880  1.00  0.00     0.131 A 
ATOM     91  C   UNL     1      -1.847   2.414  11.276  1.00  0.00     0.055 A 
ATOM     92  C   UNL     1       0.323   1.706  11.983  1.00  0.00     0.041 A 
ATOM     93  F   UNL     1       2.208   2.344  10.788  1.00  0.00    -0.206 F 
ATOM     94  C   UNL     1      -1.042   1.791  12.223  1.00  0.00     0.022 A 
BRANCH  91  95
ATOM     95  S   UNL     1      -3.551   2.893  11.654  1.00  0.00     0.124 S 
ATOM     96  O   UNL     1      -3.468   4.351  11.595  1.00  0.00    -0.237 OA
ATOM     97  O   UNL     1      -4.304   2.260  10.577  1.00  0.00    -0.237 OA
ATOM     98  O   UNL     1      -3.772   2.339  12.987  1.00  0.00    -0.744 OA
ENDBRANCH  91  95
ENDBRANCH  65  88
ENDBRANCH  39  40
ENDBRANCH  32  34
ENDBRANCH  31  32
ENDBRANCH  30  31
ENDBRANCH   1  30
TORSDOF 18
