REMARK SMILES Cc1ccc2nc(CC3(CC(=O)OCCOC(=O)c4ccc(-c5c6nc(c(-c7cc(S(=O)(=O)[O-])ccc7F)c7ccc([nH]7)c(-c7cc(S(=O)(=O)[O-])ccc7F)c7nc(c(-c8cc(S(=O)(=O)[O-])ccc8F)c8ccc5[nH]8)C=C7)C=C6)cc4)CCCCC3)sc2c1
REMARK SMILES IDX 14 1 13 2 11 3 12 4 10 5 9 6 82 7 86 8 83 9 85 10 84 11 8 12
REMARK SMILES IDX 7 13 1 14 2 15 3 16 89 17 4 18 88 19 5 20 87 21 6 22 15 23
REMARK SMILES IDX 16 24 17 25 18 26 19 27 20 28 81 29 21 30 80 31 22 32 23 33
REMARK SMILES IDX 24 34 74 35 25 36 79 37 73 38 75 39 26 40 78 41 72 42 71 43
REMARK SMILES IDX 27 45 59 46 39 47 58 48 40 49 43 50 57 51 76 52 41 53 42 54
REMARK SMILES IDX 56 56 77 57 44 58 28 59 29 60 37 61 30 62 36 63 38 64 35 65
REMARK SMILES IDX 31 66 32 67 33 68 34 69 60 70 61 71 69 72 62 73 68 74 70 75
REMARK SMILES IDX 67 76 63 77 64 78 65 79 66 80 45 81 46 82 54 83 47 84 53 85
REMARK SMILES IDX 55 86 52 87 48 88 49 89 50 90 51 91
REMARK H PARENT 75 44 43 55
REMARK Flexibility Score: inf
ROOT
ATOM      1  C   UNL     1      -5.947  -4.504   1.219  1.00  0.00     0.274 C 
ENDROOT
BRANCH   1   2
ATOM      2  O   UNL     1      -5.391  -3.614   0.232  1.00  0.00    -0.462 OA
BRANCH   2   3
ATOM      3  C   UNL     1      -6.284  -2.978  -0.559  1.00  0.00     0.306 C 
ATOM      4  O   UNL     1      -7.499  -3.138  -0.503  1.00  0.00    -0.252 OA
BRANCH   3   5
ATOM      5  C   UNL     1      -5.670  -2.021  -1.562  1.00  0.00     0.130 C 
BRANCH   5   6
ATOM      6  C   UNL     1      -4.130  -1.765  -1.627  1.00  0.00    -0.013 C 
ATOM      7  C   UNL     1      -3.870  -0.831  -2.853  1.00  0.00     0.008 C 
ATOM      8  C   UNL     1      -3.331  -3.071  -1.875  1.00  0.00     0.008 C 
ATOM      9  C   UNL     1      -4.182  -1.482  -4.205  1.00  0.00     0.001 C 
ATOM     10  C   UNL     1      -3.711  -3.764  -3.181  1.00  0.00     0.001 C 
ATOM     11  C   UNL     1      -3.499  -2.837  -4.374  1.00  0.00     0.000 C 
BRANCH   6  12
ATOM     12  C   UNL     1      -3.691  -1.034  -0.313  1.00  0.00     0.075 C 
BRANCH  12  13
ATOM     13  C   UNL     1      -2.221  -0.717  -0.214  1.00  0.00     0.094 A 
ATOM     14  C   UNL     1       3.669   1.180   0.006  1.00  0.00     0.044 C 
ATOM     15  C   UNL     1       2.381   0.408  -0.013  1.00  0.00    -0.050 A 
ATOM     16  C   UNL     1       2.388  -0.985   0.090  1.00  0.00     0.006 A 
ATOM     17  C   UNL     1       1.161   1.098  -0.122  1.00  0.00     0.024 A 
ATOM     18  C   UNL     1       1.190  -1.708   0.086  1.00  0.00     0.030 A 
ATOM     19  C   UNL     1      -0.035   0.358  -0.135  1.00  0.00     0.055 A 
ATOM     20  C   UNL     1      -0.039  -1.032  -0.028  1.00  0.00     0.082 A 
ATOM     21  S   UNL     1      -1.663   0.908  -0.273  1.00  0.00    -0.119 S 
ATOM     22  N   UNL     1      -1.286  -1.628  -0.051  1.00  0.00    -0.241 NA
ENDBRANCH  12  13
ENDBRANCH   6  12
ENDBRANCH   5   6
ENDBRANCH   3   5
ENDBRANCH   2   3
ENDBRANCH   1   2
BRANCH   1  23
ATOM     23  C   UNL     1      -5.955  -3.836   2.590  1.00  0.00     0.275 C 
BRANCH  23  24
ATOM     24  O   UNL     1      -6.670  -2.591   2.512  1.00  0.00    -0.458 OA
BRANCH  24  25
ATOM     25  C   UNL     1      -5.987  -1.500   2.927  1.00  0.00     0.338 C 
ATOM     26  O   UNL     1      -4.878  -1.467   3.429  1.00  0.00    -0.246 OA
BRANCH  25  27
ATOM     27  C   UNL     1      -6.804  -0.296   2.703  1.00  0.00     0.060 A 
ATOM     28  C   UNL     1      -7.268   0.023   1.425  1.00  0.00     0.016 A 
ATOM     29  C   UNL     1      -7.033   0.567   3.773  1.00  0.00     0.016 A 
ATOM     30  C   UNL     1      -7.927   1.232   1.204  1.00  0.00     0.010 A 
ATOM     31  C   UNL     1      -7.755   1.743   3.564  1.00  0.00     0.010 A 
ATOM     32  C   UNL     1      -8.190   2.097   2.275  1.00  0.00    -0.014 A 
BRANCH  32  33
ATOM     33  C   UNL     1      -8.911   3.380   2.068  1.00  0.00     0.031 A 
ATOM     34  C   UNL     1      -8.216   4.682   2.354  1.00  0.00     0.074 A 
ATOM     35  C   UNL     1     -10.200   3.370   1.678  1.00  0.00     0.049 A 
ATOM     36  N   UNL     1      -8.715   5.887   2.450  1.00  0.00    -0.248 NA
ATOM     37  C   UNL     1      -6.764   4.612   2.579  1.00  0.00     0.031 C 
ATOM     38  C   UNL     1     -10.972   2.174   1.338  1.00  0.00     0.029 A 
ATOM     39  N   UNL     1     -11.096   4.399   1.524  1.00  0.00    -0.354 N 
ATOM     40  C   UNL     1      -7.649   6.715   2.785  1.00  0.00     0.074 A 
ATOM     41  C   UNL     1      -6.479   5.868   2.889  1.00  0.00     0.031 C 
ATOM     42  C   UNL     1     -12.224   2.535   1.018  1.00  0.00     0.029 A 
ATOM     43  C   UNL     1     -12.365   3.975   1.204  1.00  0.00     0.049 A 
ATOM     44  H   UNL     1     -10.854   5.347   1.631  1.00  0.00     0.167 HD
ATOM     45  C   UNL     1      -7.653   8.056   2.990  1.00  0.00     0.034 A 
ATOM     46  C   UNL     1     -13.523   4.659   1.122  1.00  0.00     0.034 A 
ATOM     47  C   UNL     1      -8.831   8.882   2.867  1.00  0.00     0.049 A 
ATOM     48  C   UNL     1     -13.515   6.137   1.404  1.00  0.00     0.074 A 
ATOM     49  C   UNL     1      -8.948  10.252   3.032  1.00  0.00     0.029 A 
ATOM     50  N   UNL     1     -10.101   8.413   2.551  1.00  0.00    -0.354 N 
ATOM     51  N   UNL     1     -12.509   6.905   1.754  1.00  0.00    -0.248 NA
ATOM     52  C   UNL     1     -14.798   6.839   1.284  1.00  0.00     0.031 C 
ATOM     53  C   UNL     1     -10.295  10.601   2.872  1.00  0.00     0.029 A 
ATOM     54  C   UNL     1     -11.010   9.461   2.541  1.00  0.00     0.049 A 
ATOM     55  H   UNL     1     -10.323   7.473   2.362  1.00  0.00     0.167 HD
ATOM     56  C   UNL     1     -13.037   8.186   1.880  1.00  0.00     0.074 A 
ATOM     57  C   UNL     1     -14.446   8.088   1.553  1.00  0.00     0.031 C 
ATOM     58  C   UNL     1     -12.415   9.340   2.231  1.00  0.00     0.034 A 
BRANCH  45  59
ATOM     59  C   UNL     1      -6.357   8.695   3.429  1.00  0.00     0.023 A 
ATOM     60  C   UNL     1      -5.223   8.730   2.598  1.00  0.00     0.031 A 
ATOM     61  C   UNL     1      -6.246   9.251   4.716  1.00  0.00     0.131 A 
ATOM     62  C   UNL     1      -4.012   9.246   3.087  1.00  0.00     0.055 A 
ATOM     63  C   UNL     1      -5.059   9.829   5.170  1.00  0.00     0.041 A 
ATOM     64  F   UNL     1      -7.288   9.228   5.562  1.00  0.00    -0.206 F 
ATOM     65  C   UNL     1      -3.929   9.816   4.359  1.00  0.00     0.022 A 
BRANCH  62  66
ATOM     66  S   UNL     1      -2.513   9.041   2.086  1.00  0.00     0.124 S 
ATOM     67  O   UNL     1      -2.450   7.589   1.938  1.00  0.00    -0.237 OA
ATOM     68  O   UNL     1      -2.834   9.793   0.878  1.00  0.00    -0.237 OA
ATOM     69  O   UNL     1      -1.461   9.620   2.920  1.00  0.00    -0.744 OA
ENDBRANCH  62  66
ENDBRANCH  45  59
BRANCH  46  70
ATOM     70  C   UNL     1     -14.794   3.942   0.823  1.00  0.00     0.023 A 
ATOM     71  C   UNL     1     -15.495   4.175  -0.369  1.00  0.00     0.031 A 
ATOM     72  C   UNL     1     -15.334   3.021   1.740  1.00  0.00     0.131 A 
ATOM     73  C   UNL     1     -16.713   3.518  -0.602  1.00  0.00     0.055 A 
ATOM     74  C   UNL     1     -16.521   2.335   1.483  1.00  0.00     0.041 A 
ATOM     75  F   UNL     1     -14.699   2.761   2.894  1.00  0.00    -0.206 F 
ATOM     76  C   UNL     1     -17.223   2.589   0.309  1.00  0.00     0.022 A 
BRANCH  73  77
ATOM     77  S   UNL     1     -17.657   3.941  -2.091  1.00  0.00     0.124 S 
ATOM     78  O   UNL     1     -17.871   5.372  -1.912  1.00  0.00    -0.237 OA
ATOM     79  O   UNL     1     -16.733   3.559  -3.154  1.00  0.00    -0.237 OA
ATOM     80  O   UNL     1     -18.855   3.111  -1.982  1.00  0.00    -0.744 OA
ENDBRANCH  73  77
ENDBRANCH  46  70
BRANCH  58  81
ATOM     81  C   UNL     1     -13.259  10.589   2.234  1.00  0.00     0.023 A 
ATOM     82  C   UNL     1     -14.269  10.794   3.189  1.00  0.00     0.031 A 
ATOM     83  C   UNL     1     -13.066  11.572   1.248  1.00  0.00     0.131 A 
ATOM     84  C   UNL     1     -15.086  11.932   3.106  1.00  0.00     0.055 A 
ATOM     85  C   UNL     1     -13.847  12.727   1.202  1.00  0.00     0.041 A 
ATOM     86  F   UNL     1     -12.116  11.422   0.311  1.00  0.00    -0.206 F 
ATOM     87  C   UNL     1     -14.872  12.906   2.127  1.00  0.00     0.022 A 
BRANCH  84  88
ATOM     88  S   UNL     1     -16.490  12.083   4.245  1.00  0.00     0.124 S 
ATOM     89  O   UNL     1     -17.264  10.886   3.932  1.00  0.00    -0.237 OA
ATOM     90  O   UNL     1     -15.835  12.097   5.549  1.00  0.00    -0.237 OA
ATOM     91  O   UNL     1     -17.115  13.345   3.853  1.00  0.00    -0.744 OA
ENDBRANCH  84  88
ENDBRANCH  58  81
ENDBRANCH  32  33
ENDBRANCH  25  27
ENDBRANCH  24  25
ENDBRANCH  23  24
ENDBRANCH   1  23
TORSDOF 17
