REMARK SMILES Cc1cc2nc(NC(=O)[C@H]3[C@@H](C(=O)OCCOC(=O)c4ccc(-c5c6nc(c(-c7cc(S(=O)(=O)[O-])ccc7F)c7ccc([nH]7)c(-c7cc(S(=O)(=O)[O-])ccc7F)c7nc(c(-c8cc(S(=O)(=O)[O-])ccc8F)c8ccc5[nH]8)C=C7)C=C6)cc4)[C@@H]4C=C[C@H]3C4)sc2cc1C
REMARK SMILES IDX 16 1 15 2 14 3 12 4 13 5 11 6 10 7 86 8 83 9 85 10 87 11
REMARK SMILES IDX 84 12 8 13 7 14 9 16 6 17 1 18 2 19 3 20 91 21 4 22 90 23
REMARK SMILES IDX 92 24 5 25 89 26 88 27 17 28 18 29 19 30 20 31 21 32 82 33
REMARK SMILES IDX 22 34 81 35 23 36 24 37 25 38 75 39 26 40 80 41 74 42 76 43
REMARK SMILES IDX 27 44 79 45 73 46 72 47 28 49 60 50 40 51 59 52 41 53 44 54
REMARK SMILES IDX 58 55 77 56 42 57 43 58 57 60 78 61 45 62 29 63 30 64 38 65
REMARK SMILES IDX 31 66 37 67 39 68 36 69 32 70 33 71 34 72 35 73 61 74 62 75
REMARK SMILES IDX 70 76 63 77 69 78 71 79 68 80 64 81 65 82 66 83 67 84 46 85
REMARK SMILES IDX 47 86 55 87 48 88 54 89 56 90 53 91 49 92 50 93 51 94 52 95
REMARK H PARENT 7 15 76 48 44 59
REMARK Flexibility Score: inf
ROOT
ATOM      1  C   UNL     1       1.918   7.233   6.687  1.00  0.00     0.275 C 
ENDROOT
BRANCH   1   2
ATOM      2  C   UNL     1       0.647   8.245   6.858  1.00  0.00     0.274 C 
BRANCH   2   3
ATOM      3  O   UNL     1      -0.661   7.597   7.121  1.00  0.00    -0.462 OA
BRANCH   3   4
ATOM      4  C   UNL     1      -1.841   7.958   6.450  1.00  0.00     0.310 C 
ATOM      5  O   UNL     1      -2.043   9.076   6.003  1.00  0.00    -0.252 OA
BRANCH   4   6
ATOM      6  C   UNL     1      -2.843   6.744   6.388  1.00  0.00     0.119 C 
ATOM      7  C   UNL     1      -2.087   5.418   6.410  1.00  0.00     0.100 C 
ATOM      8  C   UNL     1      -2.919   4.373   5.670  1.00  0.00     0.025 C 
ATOM      9  C   UNL     1      -3.854   6.376   5.232  1.00  0.00     0.027 C 
ATOM     10  C   UNL     1      -4.329   4.307   6.189  1.00  0.00    -0.027 C 
ATOM     11  C   UNL     1      -3.237   5.187   4.450  1.00  0.00     0.017 C 
ATOM     12  C   UNL     1      -4.915   5.481   5.882  1.00  0.00    -0.027 C 
BRANCH   7  13
ATOM     13  C   UNL     1      -0.732   5.547   5.778  1.00  0.00     0.230 C 
ATOM     14  N   UNL     1      -0.325   6.418   4.803  1.00  0.00    -0.302 N 
ATOM     15  H   UNL     1       0.655   6.338   4.756  1.00  0.00     0.172 HD
ATOM     16  O   UNL     1       0.140   4.863   6.343  1.00  0.00    -0.274 OA
BRANCH  14  17
ATOM     17  C   UNL     1      -0.680   7.354   3.860  1.00  0.00     0.190 A 
ATOM     18  C   UNL     1      -2.650   8.853  -1.466  1.00  0.00     0.044 C 
ATOM     19  C   UNL     1      -1.736   8.916  -0.283  1.00  0.00    -0.046 A 
ATOM     20  C   UNL     1      -2.286   8.591   0.974  1.00  0.00     0.033 A 
ATOM     21  C   UNL     1      -0.372   9.219  -0.427  1.00  0.00    -0.047 A 
ATOM     22  C   UNL     1      -1.438   8.345   2.061  1.00  0.00     0.084 A 
ATOM     23  C   UNL     1       0.462   9.119   0.690  1.00  0.00     0.025 A 
ATOM     24  C   UNL     1       0.258   9.537  -1.762  1.00  0.00     0.044 C 
ATOM     25  N   UNL     1      -1.785   7.711   3.274  1.00  0.00    -0.220 NA
ATOM     26  C   UNL     1      -0.090   8.643   1.889  1.00  0.00     0.057 A 
ATOM     27  S   UNL     1       0.694   8.286   3.346  1.00  0.00    -0.097 S 
ENDBRANCH  14  17
ENDBRANCH   7  13
ENDBRANCH   4   6
ENDBRANCH   3   4
ENDBRANCH   2   3
ENDBRANCH   1   2
BRANCH   1  28
ATOM     28  O   UNL     1       2.097   6.620   5.330  1.00  0.00    -0.458 OA
BRANCH  28  29
ATOM     29  C   UNL     1       2.652   5.354   5.103  1.00  0.00     0.338 C 
ATOM     30  O   UNL     1       3.352   4.758   5.868  1.00  0.00    -0.246 OA
BRANCH  29  31
ATOM     31  C   UNL     1       1.964   4.750   3.843  1.00  0.00     0.060 A 
ATOM     32  C   UNL     1       1.925   5.404   2.607  1.00  0.00     0.016 A 
ATOM     33  C   UNL     1       1.020   3.729   4.036  1.00  0.00     0.016 A 
ATOM     34  C   UNL     1       0.826   5.216   1.713  1.00  0.00     0.010 A 
ATOM     35  C   UNL     1      -0.106   3.597   3.176  1.00  0.00     0.010 A 
ATOM     36  C   UNL     1      -0.276   4.403   2.038  1.00  0.00    -0.014 A 
BRANCH  36  37
ATOM     37  C   UNL     1      -1.395   4.180   1.059  1.00  0.00     0.031 A 
ATOM     38  C   UNL     1      -1.129   3.005   0.210  1.00  0.00     0.074 A 
ATOM     39  C   UNL     1      -2.640   4.678   0.786  1.00  0.00     0.049 A 
ATOM     40  N   UNL     1      -0.706   3.047  -1.006  1.00  0.00    -0.248 NA
ATOM     41  C   UNL     1      -1.301   1.665   0.771  1.00  0.00     0.031 C 
ATOM     42  C   UNL     1      -3.475   5.611   1.519  1.00  0.00     0.029 A 
ATOM     43  N   UNL     1      -3.500   4.341  -0.255  1.00  0.00    -0.354 N 
ATOM     44  C   UNL     1      -0.716   1.737  -1.441  1.00  0.00     0.074 A 
ATOM     45  C   UNL     1      -0.906   0.920  -0.261  1.00  0.00     0.031 C 
ATOM     46  C   UNL     1      -4.761   5.567   1.106  1.00  0.00     0.029 A 
ATOM     47  C   UNL     1      -4.819   4.762  -0.088  1.00  0.00     0.049 A 
ATOM     48  H   UNL     1      -3.200   3.844  -1.049  1.00  0.00     0.167 HD
ATOM     49  C   UNL     1      -0.769   1.421  -2.764  1.00  0.00     0.034 A 
ATOM     50  C   UNL     1      -5.908   4.535  -0.864  1.00  0.00     0.034 A 
ATOM     51  C   UNL     1      -0.595   2.568  -3.623  1.00  0.00     0.049 A 
ATOM     52  C   UNL     1      -5.447   4.203  -2.220  1.00  0.00     0.074 A 
ATOM     53  C   UNL     1       0.297   3.626  -3.632  1.00  0.00     0.029 A 
ATOM     54  N   UNL     1      -1.621   2.958  -4.453  1.00  0.00    -0.354 N 
ATOM     55  N   UNL     1      -5.020   5.079  -3.078  1.00  0.00    -0.248 NA
ATOM     56  C   UNL     1      -5.221   2.817  -2.574  1.00  0.00     0.031 C 
ATOM     57  C   UNL     1      -0.475   4.761  -4.003  1.00  0.00     0.029 A 
ATOM     58  C   UNL     1      -1.758   4.328  -4.339  1.00  0.00     0.049 A 
ATOM     59  H   UNL     1      -2.161   2.367  -5.026  1.00  0.00     0.167 HD
ATOM     60  C   UNL     1      -4.134   4.409  -3.883  1.00  0.00     0.074 A 
ATOM     61  C   UNL     1      -4.408   2.996  -3.616  1.00  0.00     0.031 C 
ATOM     62  C   UNL     1      -3.039   5.041  -4.412  1.00  0.00     0.034 A 
BRANCH  49  63
ATOM     63  C   UNL     1      -1.197   0.065  -3.230  1.00  0.00     0.023 A 
ATOM     64  C   UNL     1      -2.071  -0.742  -2.477  1.00  0.00     0.031 A 
ATOM     65  C   UNL     1      -0.798  -0.436  -4.476  1.00  0.00     0.131 A 
ATOM     66  C   UNL     1      -2.384  -2.043  -2.876  1.00  0.00     0.055 A 
ATOM     67  C   UNL     1      -1.197  -1.699  -4.928  1.00  0.00     0.041 A 
ATOM     68  F   UNL     1      -0.019   0.291  -5.291  1.00  0.00    -0.206 F 
ATOM     69  C   UNL     1      -1.965  -2.525  -4.111  1.00  0.00     0.022 A 
BRANCH  66  70
ATOM     70  S   UNL     1      -3.227  -3.165  -1.728  1.00  0.00     0.124 S 
ATOM     71  O   UNL     1      -4.530  -3.317  -2.364  1.00  0.00    -0.237 OA
ATOM     72  O   UNL     1      -2.361  -4.341  -1.764  1.00  0.00    -0.237 OA
ATOM     73  O   UNL     1      -3.209  -2.429  -0.466  1.00  0.00    -0.744 OA
ENDBRANCH  66  70
ENDBRANCH  49  63
BRANCH  50  74
ATOM     74  C   UNL     1      -7.356   4.543  -0.540  1.00  0.00     0.023 A 
ATOM     75  C   UNL     1      -7.795   4.018   0.689  1.00  0.00     0.031 A 
ATOM     76  C   UNL     1      -8.337   4.780  -1.524  1.00  0.00     0.131 A 
ATOM     77  C   UNL     1      -9.147   3.684   0.878  1.00  0.00     0.055 A 
ATOM     78  C   UNL     1      -9.687   4.465  -1.325  1.00  0.00     0.041 A 
ATOM     79  F   UNL     1      -8.001   5.271  -2.726  1.00  0.00    -0.206 F 
ATOM     80  C   UNL     1     -10.096   3.898  -0.124  1.00  0.00     0.022 A 
BRANCH  77  81
ATOM     81  S   UNL     1      -9.687   2.910   2.428  1.00  0.00     0.124 S 
ATOM     82  O   UNL     1     -11.025   3.467   2.618  1.00  0.00    -0.237 OA
ATOM     83  O   UNL     1      -9.643   1.493   2.085  1.00  0.00    -0.237 OA
ATOM     84  O   UNL     1      -8.691   3.366   3.393  1.00  0.00    -0.744 OA
ENDBRANCH  77  81
ENDBRANCH  50  74
BRANCH  62  85
ATOM     85  C   UNL     1      -3.016   6.567  -4.707  1.00  0.00     0.023 A 
ATOM     86  C   UNL     1      -1.940   7.048  -5.496  1.00  0.00     0.031 A 
ATOM     87  C   UNL     1      -3.905   7.574  -4.260  1.00  0.00     0.131 A 
ATOM     88  C   UNL     1      -1.697   8.422  -5.681  1.00  0.00     0.055 A 
ATOM     89  C   UNL     1      -3.707   8.943  -4.525  1.00  0.00     0.041 A 
ATOM     90  F   UNL     1      -4.971   7.342  -3.487  1.00  0.00    -0.206 F 
ATOM     91  C   UNL     1      -2.584   9.378  -5.207  1.00  0.00     0.022 A 
BRANCH  88  92
ATOM     92  S   UNL     1      -0.180   8.990  -6.492  1.00  0.00     0.124 S 
ATOM     93  O   UNL     1      -0.649  10.117  -7.297  1.00  0.00    -0.237 OA
ATOM     94  O   UNL     1       0.654   9.347  -5.347  1.00  0.00    -0.237 OA
ATOM     95  O   UNL     1       0.261   7.829  -7.258  1.00  0.00    -0.744 OA
ENDBRANCH  88  92
ENDBRANCH  62  85
ENDBRANCH  36  37
ENDBRANCH  29  31
ENDBRANCH  28  29
ENDBRANCH   1  28
TORSDOF 16
