REMARK SMILES CS(=O)(=O)c1ccc(/C=C(/C(=O)OCCOC(=O)c2ccc(-c3c4nc(c(-c5cc(S(=O)(=O)[O-])ccc5F)c5ccc([nH]5)c(-c5cc(S(=O)(=O)[O-])ccc5F)c5nc(c(-c6cc(S(=O)(=O)[O-])ccc6F)c6ccc3[nH]6)C=C5)C=C4)cc2)c2ccc(O)cc2)cc1
REMARK SMILES IDX 15 1 14 2 13 3 11 4 12 5 10 6 9 7 8 8 5 9 6 10 90 11 7 12
REMARK SMILES IDX 89 13 2 14 1 15 3 16 4 17 82 18 83 19 88 20 84 21 87 22
REMARK SMILES IDX 85 23 86 24 16 26 17 27 18 28 19 29 20 30 81 31 21 32 80 33
REMARK SMILES IDX 22 34 23 35 24 36 74 37 25 38 79 39 73 40 75 41 26 42 78 43
REMARK SMILES IDX 72 44 71 45 27 47 59 48 39 49 58 50 40 51 43 52 57 53 76 54
REMARK SMILES IDX 41 55 42 56 56 58 77 59 44 60 28 61 29 62 37 63 30 64 36 65
REMARK SMILES IDX 38 66 35 67 31 68 32 69 33 70 34 71 60 72 61 73 69 74 62 75
REMARK SMILES IDX 68 76 70 77 67 78 63 79 64 80 65 81 66 82 45 83 46 84 54 85
REMARK SMILES IDX 47 86 53 87 55 88 52 89 48 90 49 91 50 92 51 93
REMARK H PARENT 86 25 75 46 43 57
REMARK Flexibility Score: inf
ROOT
ATOM      1  C   UNL     1       2.288   3.499  10.879  1.00  0.00     0.275 C 
ENDROOT
BRANCH   1   2
ATOM      2  C   UNL     1       2.966   4.126   9.663  1.00  0.00     0.275 C 
BRANCH   2   3
ATOM      3  O   UNL     1       2.333   3.684   8.445  1.00  0.00    -0.458 OA
BRANCH   3   4
ATOM      4  C   UNL     1       2.982   2.690   7.782  1.00  0.00     0.338 C 
ATOM      5  O   UNL     1       4.061   2.212   8.100  1.00  0.00    -0.246 OA
BRANCH   4   6
ATOM      6  C   UNL     1       2.204   2.213   6.600  1.00  0.00     0.067 C 
ATOM      7  C   UNL     1       1.663   3.136   5.772  1.00  0.00     0.024 C 
BRANCH   7   8
ATOM      8  C   UNL     1       1.115   2.903   4.418  1.00  0.00    -0.025 A 
ATOM      9  C   UNL     1       0.431   2.396   1.745  1.00  0.00     0.067 A 
ATOM     10  C   UNL     1      -0.032   1.548   2.747  1.00  0.00     0.021 A 
ATOM     11  C   UNL     1       1.147   3.548   2.069  1.00  0.00     0.021 A 
ATOM     12  C   UNL     1       0.289   1.823   4.078  1.00  0.00     0.009 A 
ATOM     13  C   UNL     1       1.487   3.796   3.402  1.00  0.00     0.009 A 
BRANCH   9  14
ATOM     14  S   UNL     1       0.147   1.973   0.045  1.00  0.00     0.175 S 
ATOM     15  C   UNL     1       0.858   0.354  -0.128  1.00  0.00     0.163 C 
ATOM     16  O   UNL     1       0.939   2.880  -0.766  1.00  0.00    -0.224 OA
ATOM     17  O   UNL     1      -1.289   1.878  -0.137  1.00  0.00    -0.224 OA
ENDBRANCH   9  14
ENDBRANCH   7   8
BRANCH   6  18
ATOM     18  C   UNL     1       2.209   0.768   6.300  1.00  0.00    -0.011 A 
ATOM     19  C   UNL     1       1.126  -0.021   6.721  1.00  0.00     0.013 A 
ATOM     20  C   UNL     1       3.238   0.177   5.554  1.00  0.00     0.013 A 
ATOM     21  C   UNL     1       1.047  -1.364   6.352  1.00  0.00     0.047 A 
ATOM     22  C   UNL     1       3.171  -1.177   5.209  1.00  0.00     0.047 A 
ATOM     23  C   UNL     1       2.070  -1.930   5.602  1.00  0.00     0.115 A 
BRANCH  23  24
ATOM     24  O   UNL     1       1.947  -3.244   5.271  1.00  0.00    -0.508 OA
ATOM     25  H   UNL     1       1.194  -3.729   5.548  1.00  0.00     0.293 HD
ENDBRANCH  23  24
ENDBRANCH   6  18
ENDBRANCH   4   6
ENDBRANCH   3   4
ENDBRANCH   2   3
ENDBRANCH   1   2
BRANCH   1  26
ATOM     26  O   UNL     1       2.443   2.070  10.832  1.00  0.00    -0.458 OA
BRANCH  26  27
ATOM     27  C   UNL     1       1.301   1.349  10.892  1.00  0.00     0.338 C 
ATOM     28  O   UNL     1       0.171   1.783  11.065  1.00  0.00    -0.246 OA
BRANCH  27  29
ATOM     29  C   UNL     1       1.587  -0.088  10.703  1.00  0.00     0.060 A 
ATOM     30  C   UNL     1       2.459  -0.510   9.704  1.00  0.00     0.016 A 
ATOM     31  C   UNL     1       0.869  -1.034  11.436  1.00  0.00     0.016 A 
ATOM     32  C   UNL     1       2.510  -1.860   9.352  1.00  0.00     0.010 A 
ATOM     33  C   UNL     1       1.014  -2.399  11.151  1.00  0.00     0.010 A 
ATOM     34  C   UNL     1       1.791  -2.833  10.063  1.00  0.00    -0.014 A 
BRANCH  34  35
ATOM     35  C   UNL     1       1.789  -4.270   9.630  1.00  0.00     0.031 A 
ATOM     36  C   UNL     1       0.480  -5.008   9.439  1.00  0.00     0.074 A 
ATOM     37  C   UNL     1       2.939  -4.932   9.379  1.00  0.00     0.049 A 
ATOM     38  N   UNL     1       0.257  -6.295   9.335  1.00  0.00    -0.248 NA
ATOM     39  C   UNL     1      -0.741  -4.189   9.389  1.00  0.00     0.031 C 
ATOM     40  C   UNL     1       4.285  -4.361   9.453  1.00  0.00     0.029 A 
ATOM     41  N   UNL     1       3.160  -6.235   8.997  1.00  0.00    -0.354 N 
ATOM     42  C   UNL     1      -1.128  -6.445   9.297  1.00  0.00     0.074 A 
ATOM     43  C   UNL     1      -1.691  -5.114   9.385  1.00  0.00     0.031 C 
ATOM     44  C   UNL     1       5.179  -5.282   9.067  1.00  0.00     0.029 A 
ATOM     45  C   UNL     1       4.492  -6.548   8.843  1.00  0.00     0.049 A 
ATOM     46  H   UNL     1       2.435  -6.883   8.848  1.00  0.00     0.167 HD
ATOM     47  C   UNL     1      -1.859  -7.586   9.206  1.00  0.00     0.034 A 
ATOM     48  C   UNL     1       5.109  -7.724   8.614  1.00  0.00     0.034 A 
ATOM     49  C   UNL     1      -1.286  -8.900   9.024  1.00  0.00     0.049 A 
ATOM     50  C   UNL     1       4.285  -8.980   8.525  1.00  0.00     0.074 A 
ATOM     51  C   UNL     1      -1.937 -10.116   8.894  1.00  0.00     0.029 A 
ATOM     52  N   UNL     1       0.072  -9.170   8.917  1.00  0.00    -0.354 N 
ATOM     53  N   UNL     1       2.984  -9.121   8.619  1.00  0.00    -0.248 NA
ATOM     54  C   UNL     1       5.017 -10.237   8.328  1.00  0.00     0.031 C 
ATOM     55  C   UNL     1      -0.974 -11.123   8.761  1.00  0.00     0.029 A 
ATOM     56  C   UNL     1       0.277 -10.531   8.739  1.00  0.00     0.049 A 
ATOM     57  H   UNL     1       0.786  -8.493   8.960  1.00  0.00     0.167 HD
ATOM     58  C   UNL     1       2.743 -10.486   8.497  1.00  0.00     0.074 A 
ATOM     59  C   UNL     1       4.029 -11.119   8.289  1.00  0.00     0.031 C 
ATOM     60  C   UNL     1       1.565 -11.156   8.560  1.00  0.00     0.034 A 
BRANCH  47  61
ATOM     61  C   UNL     1      -3.358  -7.477   9.369  1.00  0.00     0.023 A 
ATOM     62  C   UNL     1      -4.176  -6.810   8.442  1.00  0.00     0.031 A 
ATOM     63  C   UNL     1      -3.978  -8.056  10.494  1.00  0.00     0.131 A 
ATOM     64  C   UNL     1      -5.553  -6.683   8.688  1.00  0.00     0.055 A 
ATOM     65  C   UNL     1      -5.358  -7.992  10.694  1.00  0.00     0.041 A 
ATOM     66  F   UNL     1      -3.248  -8.691  11.424  1.00  0.00    -0.206 F 
ATOM     67  C   UNL     1      -6.153  -7.290   9.794  1.00  0.00     0.022 A 
BRANCH  64  68
ATOM     68  S   UNL     1      -6.533  -5.601   7.611  1.00  0.00     0.124 S 
ATOM     69  O   UNL     1      -5.840  -4.324   7.764  1.00  0.00    -0.237 OA
ATOM     70  O   UNL     1      -6.401  -6.248   6.311  1.00  0.00    -0.237 OA
ATOM     71  O   UNL     1      -7.870  -5.650   8.200  1.00  0.00    -0.744 OA
ENDBRANCH  64  68
ENDBRANCH  47  61
BRANCH  48  72
ATOM     72  C   UNL     1       6.598  -7.787   8.544  1.00  0.00     0.023 A 
ATOM     73  C   UNL     1       7.253  -8.157   7.360  1.00  0.00     0.031 A 
ATOM     74  C   UNL     1       7.386  -7.496   9.673  1.00  0.00     0.131 A 
ATOM     75  C   UNL     1       8.654  -8.247   7.338  1.00  0.00     0.055 A 
ATOM     76  C   UNL     1       8.779  -7.533   9.630  1.00  0.00     0.041 A 
ATOM     77  F   UNL     1       6.807  -7.141  10.832  1.00  0.00    -0.206 F 
ATOM     78  C   UNL     1       9.421  -7.920   8.459  1.00  0.00     0.022 A 
BRANCH  75  79
ATOM     79  S   UNL     1       9.462  -8.857   5.833  1.00  0.00     0.124 S 
ATOM     80  O   UNL     1       8.885 -10.190   5.705  1.00  0.00    -0.237 OA
ATOM     81  O   UNL     1       9.035  -7.875   4.841  1.00  0.00    -0.237 OA
ATOM     82  O   UNL     1      10.883  -8.820   6.171  1.00  0.00    -0.744 OA
ENDBRANCH  75  79
ENDBRANCH  48  72
BRANCH  60  83
ATOM     83  C   UNL     1       1.626 -12.650   8.373  1.00  0.00     0.023 A 
ATOM     84  C   UNL     1       2.212 -13.488   9.338  1.00  0.00     0.031 A 
ATOM     85  C   UNL     1       1.125 -13.238   7.199  1.00  0.00     0.131 A 
ATOM     86  C   UNL     1       2.335 -14.863   9.086  1.00  0.00     0.055 A 
ATOM     87  C   UNL     1       1.203 -14.614   6.977  1.00  0.00     0.041 A 
ATOM     88  F   UNL     1       0.559 -12.482   6.244  1.00  0.00    -0.206 F 
ATOM     89  C   UNL     1       1.823 -15.433   7.917  1.00  0.00     0.022 A 
BRANCH  86  90
ATOM     90  S   UNL     1       3.258 -15.886  10.265  1.00  0.00     0.124 S 
ATOM     91  O   UNL     1       4.568 -15.242  10.266  1.00  0.00    -0.237 OA
ATOM     92  O   UNL     1       2.474 -15.740  11.487  1.00  0.00    -0.237 OA
ATOM     93  O   UNL     1       3.224 -17.218   9.664  1.00  0.00    -0.744 OA
ENDBRANCH  86  90
ENDBRANCH  60  83
ENDBRANCH  34  35
ENDBRANCH  27  29
ENDBRANCH  26  27
ENDBRANCH   1  26
TORSDOF 18
