REMARK SMILES O=C(CN1C(=O)N[C@](c2cccs2)(C2CC2)C1=O)OCCOC(=O)c1ccc(-c2c3nc(c(-c4cc(S(=O)(=O)[O-])ccc4F)c4ccc([nH]4)c(-c4cc(S(=O)(=O)[O-])ccc4F)c4nc(c(-c5cc(S(=O)(=O)[O-])ccc5F)c5ccc2[nH]5)C=C4)C=C3)cc1
REMARK SMILES IDX 21 1 20 2 19 3 2 4 1 5 3 6 4 7 5 8 17 9 6 10 7 11 8 12 18 13
REMARK SMILES IDX 14 15 15 16 16 17 9 18 10 19 13 20 11 21 12 22 22 23 23 24
REMARK SMILES IDX 24 25 25 26 26 27 87 28 27 29 86 30 28 31 29 32 30 33 80 34
REMARK SMILES IDX 31 35 85 36 79 37 81 38 32 39 84 40 78 41 77 42 33 44 65 45
REMARK SMILES IDX 45 46 64 47 46 48 49 49 63 50 82 51 47 52 48 53 62 55 83 56
REMARK SMILES IDX 50 57 34 58 35 59 43 60 36 61 42 62 44 63 41 64 37 65 38 66
REMARK SMILES IDX 39 67 40 68 66 69 67 70 75 71 68 72 74 73 76 74 73 75 69 76
REMARK SMILES IDX 70 77 71 78 72 79 51 80 52 81 60 82 53 83 59 84 61 85 58 86
REMARK SMILES IDX 54 87 55 88 56 89 57 90
REMARK H PARENT 7 14 81 43 49 54
REMARK Flexibility Score: inf
ROOT
ATOM      1  C   UNL     1       4.191  -1.101  -2.198  1.00  0.00     0.275 C 
ENDROOT
BRANCH   1   2
ATOM      2  C   UNL     1       4.213  -1.234  -0.676  1.00  0.00     0.274 C 
BRANCH   2   3
ATOM      3  O   UNL     1       2.882  -1.147  -0.117  1.00  0.00    -0.461 OA
BRANCH   3   4
ATOM      4  C   UNL     1       2.442  -0.104   0.633  1.00  0.00     0.326 C 
ATOM      5  O   UNL     1       1.508  -0.249   1.420  1.00  0.00    -0.250 OA
BRANCH   4   6
ATOM      6  C   UNL     1       3.141   1.234   0.473  1.00  0.00     0.253 C 
BRANCH   6   7
ATOM      7  N   UNL     1       3.808   1.656   1.677  1.00  0.00    -0.251 N 
ATOM      8  C   UNL     1       3.975   2.961   2.019  1.00  0.00     0.325 C 
ATOM      9  C   UNL     1       4.641   0.866   2.418  1.00  0.00     0.262 C 
ATOM     10  O   UNL     1       3.524   3.934   1.440  1.00  0.00    -0.248 OA
ATOM     11  N   UNL     1       4.823   3.033   3.095  1.00  0.00    -0.318 N 
ATOM     12  C   UNL     1       5.321   1.740   3.511  1.00  0.00     0.158 C 
ATOM     13  O   UNL     1       4.856  -0.326   2.226  1.00  0.00    -0.271 OA
ATOM     14  H   UNL     1       5.066   3.877   3.539  1.00  0.00     0.166 HD
BRANCH  12  15
ATOM     15  C   UNL     1       6.813   1.721   3.227  1.00  0.00     0.030 C 
ATOM     16  C   UNL     1       7.907   2.138   4.176  1.00  0.00     0.007 C 
ATOM     17  C   UNL     1       7.767   0.688   3.778  1.00  0.00     0.007 C 
ENDBRANCH  12  15
BRANCH  12  18
ATOM     18  C   UNL     1       4.631   1.401   4.829  1.00  0.00     0.040 A 
ATOM     19  C   UNL     1       3.256   1.390   5.062  1.00  0.00     0.018 A 
ATOM     20  S   UNL     1       5.454   0.966   6.269  1.00  0.00    -0.146 S 
ATOM     21  C   UNL     1       2.901   0.977   6.375  1.00  0.00     0.012 A 
ATOM     22  C   UNL     1       4.010   0.704   7.135  1.00  0.00     0.065 A 
ENDBRANCH  12  18
ENDBRANCH   6   7
ENDBRANCH   4   6
ENDBRANCH   3   4
ENDBRANCH   2   3
ENDBRANCH   1   2
BRANCH   1  23
ATOM     23  O   UNL     1       3.772   0.224  -2.574  1.00  0.00    -0.458 OA
BRANCH  23  24
ATOM     24  C   UNL     1       2.440   0.362  -2.813  1.00  0.00     0.338 C 
ATOM     25  O   UNL     1       1.619  -0.532  -2.846  1.00  0.00    -0.246 OA
BRANCH  24  26
ATOM     26  C   UNL     1       2.092   1.804  -2.820  1.00  0.00     0.060 A 
ATOM     27  C   UNL     1       0.852   2.176  -2.283  1.00  0.00     0.016 A 
ATOM     28  C   UNL     1       2.967   2.781  -3.306  1.00  0.00     0.016 A 
ATOM     29  C   UNL     1       0.476   3.520  -2.253  1.00  0.00     0.010 A 
ATOM     30  C   UNL     1       2.585   4.126  -3.282  1.00  0.00     0.010 A 
ATOM     31  C   UNL     1       1.329   4.501  -2.776  1.00  0.00    -0.014 A 
BRANCH  31  32
ATOM     32  C   UNL     1       0.848   5.896  -2.927  1.00  0.00     0.031 A 
ATOM     33  C   UNL     1       0.279   6.323  -4.252  1.00  0.00     0.074 A 
ATOM     34  C   UNL     1       0.907   6.767  -1.902  1.00  0.00     0.049 A 
ATOM     35  N   UNL     1      -0.185   7.489  -4.621  1.00  0.00    -0.248 NA
ATOM     36  C   UNL     1       0.233   5.295  -5.304  1.00  0.00     0.031 C 
ATOM     37  C   UNL     1       1.417   6.466  -0.565  1.00  0.00     0.029 A 
ATOM     38  N   UNL     1       0.541   8.089  -1.833  1.00  0.00    -0.354 N 
ATOM     39  C   UNL     1      -0.587   7.335  -5.944  1.00  0.00     0.074 A 
ATOM     40  C   UNL     1      -0.273   5.973  -6.323  1.00  0.00     0.031 C 
ATOM     41  C   UNL     1       1.341   7.577   0.189  1.00  0.00     0.029 A 
ATOM     42  C   UNL     1       0.807   8.674  -0.617  1.00  0.00     0.049 A 
ATOM     43  H   UNL     1       0.126   8.572  -2.584  1.00  0.00     0.167 HD
ATOM     44  C   UNL     1      -1.172   8.242  -6.763  1.00  0.00     0.034 A 
ATOM     45  C   UNL     1       0.657   9.952  -0.211  1.00  0.00     0.034 A 
ATOM     46  C   UNL     1      -1.463   9.601  -6.383  1.00  0.00     0.049 A 
ATOM     47  C   UNL     1       0.082  10.968  -1.175  1.00  0.00     0.074 A 
ATOM     48  C   UNL     1      -2.077  10.592  -7.130  1.00  0.00     0.029 A 
ATOM     49  N   UNL     1      -1.143  10.170  -5.158  1.00  0.00    -0.354 N 
ATOM     50  N   UNL     1      -0.330  10.798  -2.410  1.00  0.00    -0.248 NA
ATOM     51  C   UNL     1      -0.053  12.346  -0.683  1.00  0.00     0.031 C 
ATOM     52  C   UNL     1      -2.063  11.776  -6.385  1.00  0.00     0.029 A 
ATOM     53  C   UNL     1      -1.511  11.507  -5.143  1.00  0.00     0.049 A 
ATOM     54  H   UNL     1      -0.718   9.694  -4.409  1.00  0.00     0.167 HD
ATOM     55  C   UNL     1      -0.803  12.040  -2.828  1.00  0.00     0.074 A 
ATOM     56  C   UNL     1      -0.638  12.945  -1.710  1.00  0.00     0.031 C 
ATOM     57  C   UNL     1      -1.333  12.402  -4.024  1.00  0.00     0.034 A 
BRANCH  44  58
ATOM     58  C   UNL     1      -1.492   7.799  -8.168  1.00  0.00     0.023 A 
ATOM     59  C   UNL     1      -2.462   6.815  -8.429  1.00  0.00     0.031 A 
ATOM     60  C   UNL     1      -0.808   8.360  -9.260  1.00  0.00     0.131 A 
ATOM     61  C   UNL     1      -2.682   6.383  -9.746  1.00  0.00     0.055 A 
ATOM     62  C   UNL     1      -1.080   7.975 -10.574  1.00  0.00     0.041 A 
ATOM     63  F   UNL     1       0.145   9.285  -9.066  1.00  0.00    -0.206 F 
ATOM     64  C   UNL     1      -2.014   6.974 -10.822  1.00  0.00     0.022 A 
BRANCH  61  65
ATOM     65  S   UNL     1      -3.768   4.958 -10.024  1.00  0.00     0.124 S 
ATOM     66  O   UNL     1      -3.080   3.912  -9.270  1.00  0.00    -0.237 OA
ATOM     67  O   UNL     1      -5.037   5.415  -9.472  1.00  0.00    -0.237 OA
ATOM     68  O   UNL     1      -3.744   4.787 -11.476  1.00  0.00    -0.744 OA
ENDBRANCH  61  65
ENDBRANCH  44  58
BRANCH  45  69
ATOM     69  C   UNL     1       1.095  10.378   1.150  1.00  0.00     0.023 A 
ATOM     70  C   UNL     1       0.179  10.893   2.082  1.00  0.00     0.031 A 
ATOM     71  C   UNL     1       2.456  10.363   1.505  1.00  0.00     0.131 A 
ATOM     72  C   UNL     1       0.640  11.426   3.297  1.00  0.00     0.055 A 
ATOM     73  C   UNL     1       2.903  10.841   2.737  1.00  0.00     0.041 A 
ATOM     74  F   UNL     1       3.376   9.889   0.649  1.00  0.00    -0.206 F 
ATOM     75  C   UNL     1       1.995  11.392   3.635  1.00  0.00     0.022 A 
BRANCH  72  76
ATOM     76  S   UNL     1      -0.543  12.270   4.382  1.00  0.00     0.124 S 
ATOM     77  O   UNL     1      -1.081  13.295   3.495  1.00  0.00    -0.237 OA
ATOM     78  O   UNL     1      -1.453  11.187   4.739  1.00  0.00    -0.237 OA
ATOM     79  O   UNL     1       0.291  12.766   5.475  1.00  0.00    -0.744 OA
ENDBRANCH  72  76
ENDBRANCH  45  69
BRANCH  57  80
ATOM     80  C   UNL     1      -1.815  13.826  -4.165  1.00  0.00     0.023 A 
ATOM     81  C   UNL     1      -0.924  14.914  -4.161  1.00  0.00     0.031 A 
ATOM     82  C   UNL     1      -3.188  14.096  -4.302  1.00  0.00     0.131 A 
ATOM     83  C   UNL     1      -1.422  16.224  -4.239  1.00  0.00     0.055 A 
ATOM     84  C   UNL     1      -3.672  15.398  -4.436  1.00  0.00     0.041 A 
ATOM     85  F   UNL     1      -4.084  13.095  -4.312  1.00  0.00    -0.206 F 
ATOM     86  C   UNL     1      -2.789  16.472  -4.393  1.00  0.00     0.022 A 
BRANCH  83  87
ATOM     87  S   UNL     1      -0.265  17.610  -4.056  1.00  0.00     0.124 S 
ATOM     88  O   UNL     1       0.304  17.359  -2.736  1.00  0.00    -0.237 OA
ATOM     89  O   UNL     1       0.637  17.416  -5.186  1.00  0.00    -0.237 OA
ATOM     90  O   UNL     1      -1.125  18.790  -4.146  1.00  0.00    -0.744 OA
ENDBRANCH  83  87
ENDBRANCH  57  80
ENDBRANCH  31  32
ENDBRANCH  24  26
ENDBRANCH  23  24
ENDBRANCH   1  23
TORSDOF 17
