REMARK SMILES CC(C)[C@H](NC(=O)[C@H](Cc1ccccc1)n1c(=O)[nH]c2ccccc2c1=O)C(=O)OCCOC(=O)c1ccc(-c2c3nc(c(-c4cc(S(=O)(=O)[O-])ccc4F)c4ccc([nH]4)c(-c4cc(S(=O)(=O)[O-])ccc4F)c4nc(c(-c5cc(S(=O)(=O)[O-])ccc5F)c5ccc2[nH]5)C=C4)C=C3)cc1
REMARK SMILES IDX 31 1 30 2 28 3 29 4 4 5 2 6 1 7 3 8 5 9 6 10 7 12 8 13 16 14
REMARK SMILES IDX 17 15 26 16 18 17 19 18 25 19 27 20 20 21 24 23 21 24 23 25
REMARK SMILES IDX 22 26 9 27 10 28 11 29 15 30 12 31 14 32 13 33 32 34 33 35
REMARK SMILES IDX 34 36 35 37 36 38 37 39 98 40 38 41 97 42 39 43 40 44 41 45
REMARK SMILES IDX 91 46 42 47 96 48 90 49 92 50 43 51 95 52 89 53 88 54 44 56
REMARK SMILES IDX 76 57 56 58 75 59 57 60 60 61 74 62 93 63 58 64 59 65 73 67
REMARK SMILES IDX 94 68 61 69 45 70 46 71 54 72 47 73 53 74 55 75 52 76 48 77
REMARK SMILES IDX 49 78 50 79 51 80 77 81 78 82 86 83 79 84 85 85 87 86 84 87
REMARK SMILES IDX 80 88 81 89 82 90 83 91 62 92 63 93 71 94 64 95 70 96 72 97
REMARK SMILES IDX 69 98 65 99 66 100 67 101 68 102
REMARK H PARENT 5 11 19 22 92 55 60 66
REMARK Flexibility Score: inf
ROOT
ATOM      1  C   UNL     1      -5.373  -2.739  -1.273  1.00  0.00     0.274 C 
ENDROOT
BRANCH   1   2
ATOM      2  O   UNL     1      -4.444  -3.835  -1.156  1.00  0.00    -0.461 OA
BRANCH   2   3
ATOM      3  C   UNL     1      -3.208  -3.526  -0.665  1.00  0.00     0.329 C 
ATOM      4  O   UNL     1      -2.869  -2.391  -0.353  1.00  0.00    -0.250 OA
BRANCH   3   5
ATOM      5  C   UNL     1      -2.377  -4.805  -0.367  1.00  0.00     0.194 C 
BRANCH   5   6
ATOM      6  C   UNL     1      -0.832  -4.688  -0.237  1.00  0.00     0.017 C 
ATOM      7  C   UNL     1      -0.258  -3.376   0.307  1.00  0.00     0.010 C 
ATOM      8  C   UNL     1      -0.250  -5.845   0.590  1.00  0.00     0.010 C 
ENDBRANCH   5   6
BRANCH   5   9
ATOM      9  N   UNL     1      -2.814  -6.006  -1.103  1.00  0.00    -0.341 N 
ATOM     10  C   UNL     1      -2.885  -6.363  -2.413  1.00  0.00     0.244 C 
ATOM     11  H   UNL     1      -3.128  -6.720  -0.502  1.00  0.00     0.164 HD
ATOM     12  O   UNL     1      -3.349  -7.495  -2.612  1.00  0.00    -0.273 OA
BRANCH  10  13
ATOM     13  C   UNL     1      -2.700  -5.367  -3.586  1.00  0.00     0.189 C 
BRANCH  13  14
ATOM     14  N   UNL     1      -1.567  -4.444  -3.454  1.00  0.00    -0.247 N 
ATOM     15  C   UNL     1      -0.287  -4.987  -3.469  1.00  0.00     0.329 A 
ATOM     16  C   UNL     1      -1.822  -3.074  -3.493  1.00  0.00     0.264 A 
ATOM     17  O   UNL     1      -0.053  -6.193  -3.397  1.00  0.00    -0.248 OA
ATOM     18  N   UNL     1       0.757  -4.105  -3.472  1.00  0.00    -0.307 N 
ATOM     19  C   UNL     1      -0.669  -2.178  -3.298  1.00  0.00     0.064 A 
ATOM     20  O   UNL     1      -2.932  -2.585  -3.695  1.00  0.00    -0.268 OA
ATOM     21  C   UNL     1       0.606  -2.729  -3.332  1.00  0.00     0.055 A 
ATOM     22  H   UNL     1       1.667  -4.463  -3.579  1.00  0.00     0.171 HD
ATOM     23  C   UNL     1      -0.844  -0.814  -3.050  1.00  0.00     0.016 A 
ATOM     24  C   UNL     1       1.726  -1.917  -3.158  1.00  0.00     0.027 A 
ATOM     25  C   UNL     1       0.273  -0.004  -2.844  1.00  0.00     0.001 A 
ATOM     26  C   UNL     1       1.555  -0.554  -2.908  1.00  0.00     0.002 A 
ENDBRANCH  13  14
BRANCH  13  27
ATOM     27  C   UNL     1      -2.808  -6.080  -4.979  1.00  0.00     0.071 C 
BRANCH  27  28
ATOM     28  C   UNL     1      -1.742  -5.728  -5.995  1.00  0.00    -0.045 A 
ATOM     29  C   UNL     1      -0.686  -6.621  -6.229  1.00  0.00     0.004 A 
ATOM     30  C   UNL     1      -1.704  -4.456  -6.580  1.00  0.00     0.004 A 
ATOM     31  C   UNL     1       0.435  -6.214  -6.948  1.00  0.00     0.000 A 
ATOM     32  C   UNL     1      -0.579  -4.051  -7.299  1.00  0.00     0.000 A 
ATOM     33  C   UNL     1       0.497  -4.923  -7.466  1.00  0.00     0.000 A 
ENDBRANCH  27  28
ENDBRANCH  13  27
ENDBRANCH  10  13
ENDBRANCH   5   9
ENDBRANCH   3   5
ENDBRANCH   2   3
ENDBRANCH   1   2
BRANCH   1  34
ATOM     34  C   UNL     1      -6.362  -2.712  -0.102  1.00  0.00     0.275 C 
BRANCH  34  35
ATOM     35  O   UNL     1      -5.721  -2.365   1.142  1.00  0.00    -0.458 OA
BRANCH  35  36
ATOM     36  C   UNL     1      -5.316  -3.424   1.883  1.00  0.00     0.338 C 
ATOM     37  O   UNL     1      -5.469  -4.604   1.621  1.00  0.00    -0.246 OA
BRANCH  36  38
ATOM     38  C   UNL     1      -4.467  -2.973   2.997  1.00  0.00     0.060 A 
ATOM     39  C   UNL     1      -3.100  -3.203   2.869  1.00  0.00     0.016 A 
ATOM     40  C   UNL     1      -4.982  -2.485   4.194  1.00  0.00     0.016 A 
ATOM     41  C   UNL     1      -2.238  -3.010   3.932  1.00  0.00     0.010 A 
ATOM     42  C   UNL     1      -4.105  -2.245   5.264  1.00  0.00     0.010 A 
ATOM     43  C   UNL     1      -2.731  -2.530   5.143  1.00  0.00    -0.014 A 
BRANCH  43  44
ATOM     44  C   UNL     1      -1.789  -2.442   6.283  1.00  0.00     0.031 A 
ATOM     45  C   UNL     1      -1.915  -3.421   7.414  1.00  0.00     0.074 A 
ATOM     46  C   UNL     1      -0.759  -1.577   6.234  1.00  0.00     0.049 A 
ATOM     47  N   UNL     1      -1.252  -3.477   8.539  1.00  0.00    -0.248 NA
ATOM     48  C   UNL     1      -2.925  -4.477   7.254  1.00  0.00     0.031 C 
ATOM     49  C   UNL     1      -0.480  -0.659   5.126  1.00  0.00     0.029 A 
ATOM     50  N   UNL     1       0.261  -1.346   7.120  1.00  0.00    -0.354 N 
ATOM     51  C   UNL     1      -1.791  -4.549   9.242  1.00  0.00     0.074 A 
ATOM     52  C   UNL     1      -2.843  -5.106   8.417  1.00  0.00     0.031 C 
ATOM     53  C   UNL     1       0.649   0.018   5.390  1.00  0.00     0.029 A 
ATOM     54  C   UNL     1       1.131  -0.361   6.713  1.00  0.00     0.049 A 
ATOM     55  H   UNL     1       0.360  -1.837   7.967  1.00  0.00     0.167 HD
ATOM     56  C   UNL     1      -1.441  -5.014  10.467  1.00  0.00     0.034 A 
ATOM     57  C   UNL     1       2.175   0.197   7.354  1.00  0.00     0.034 A 
ATOM     58  C   UNL     1      -0.376  -4.444  11.257  1.00  0.00     0.049 A 
ATOM     59  C   UNL     1       2.509  -0.297   8.737  1.00  0.00     0.074 A 
ATOM     60  C   UNL     1       0.040  -4.790  12.531  1.00  0.00     0.029 A 
ATOM     61  N   UNL     1       0.453  -3.408  10.839  1.00  0.00    -0.354 N 
ATOM     62  N   UNL     1       1.926  -1.243   9.439  1.00  0.00    -0.248 NA
ATOM     63  C   UNL     1       3.635   0.354   9.415  1.00  0.00     0.031 C 
ATOM     64  C   UNL     1       1.084  -3.932  12.900  1.00  0.00     0.029 A 
ATOM     65  C   UNL     1       1.366  -3.093  11.833  1.00  0.00     0.049 A 
ATOM     66  H   UNL     1       0.398  -2.962   9.963  1.00  0.00     0.167 HD
ATOM     67  C   UNL     1       2.623  -1.305  10.641  1.00  0.00     0.074 A 
ATOM     68  C   UNL     1       3.687  -0.323  10.552  1.00  0.00     0.031 C 
ATOM     69  C   UNL     1       2.404  -2.094  11.725  1.00  0.00     0.034 A 
BRANCH  56  70
ATOM     70  C   UNL     1      -2.282  -6.129  11.041  1.00  0.00     0.023 A 
ATOM     71  C   UNL     1      -2.327  -7.408  10.460  1.00  0.00     0.031 A 
ATOM     72  C   UNL     1      -3.111  -5.880  12.150  1.00  0.00     0.131 A 
ATOM     73  C   UNL     1      -3.239  -8.362  10.939  1.00  0.00     0.055 A 
ATOM     74  C   UNL     1      -3.959  -6.859  12.671  1.00  0.00     0.041 A 
ATOM     75  F   UNL     1      -3.132  -4.670  12.730  1.00  0.00    -0.206 F 
ATOM     76  C   UNL     1      -4.040  -8.104  12.055  1.00  0.00     0.022 A 
BRANCH  73  77
ATOM     77  S   UNL     1      -3.481  -9.889   9.988  1.00  0.00     0.124 S 
ATOM     78  O   UNL     1      -3.904  -9.364   8.692  1.00  0.00    -0.237 OA
ATOM     79  O   UNL     1      -2.157 -10.499  10.030  1.00  0.00    -0.237 OA
ATOM     80  O   UNL     1      -4.518 -10.598  10.735  1.00  0.00    -0.744 OA
ENDBRANCH  73  77
ENDBRANCH  56  70
BRANCH  57  81
ATOM     81  C   UNL     1       2.929   1.324   6.735  1.00  0.00     0.023 A 
ATOM     82  C   UNL     1       4.289   1.203   6.409  1.00  0.00     0.031 A 
ATOM     83  C   UNL     1       2.300   2.559   6.491  1.00  0.00     0.131 A 
ATOM     84  C   UNL     1       4.983   2.308   5.889  1.00  0.00     0.055 A 
ATOM     85  C   UNL     1       2.982   3.638   5.928  1.00  0.00     0.041 A 
ATOM     86  F   UNL     1       1.000   2.729   6.784  1.00  0.00    -0.206 F 
ATOM     87  C   UNL     1       4.336   3.520   5.635  1.00  0.00     0.022 A 
BRANCH  84  88
ATOM     88  S   UNL     1       6.770   2.161   5.609  1.00  0.00     0.124 S 
ATOM     89  O   UNL     1       7.254   1.819   6.942  1.00  0.00    -0.237 OA
ATOM     90  O   UNL     1       6.833   1.099   4.611  1.00  0.00    -0.237 OA
ATOM     91  O   UNL     1       7.149   3.488   5.127  1.00  0.00    -0.744 OA
ENDBRANCH  84  88
ENDBRANCH  57  81
BRANCH  69  92
ATOM     92  C   UNL     1       3.364  -1.930  12.876  1.00  0.00     0.023 A 
ATOM     93  C   UNL     1       3.406  -0.747  13.634  1.00  0.00     0.031 A 
ATOM     94  C   UNL     1       4.280  -2.950  13.183  1.00  0.00     0.131 A 
ATOM     95  C   UNL     1       4.394  -0.584  14.616  1.00  0.00     0.055 A 
ATOM     96  C   UNL     1       5.222  -2.806  14.202  1.00  0.00     0.041 A 
ATOM     97  F   UNL     1       4.283  -4.099  12.488  1.00  0.00    -0.206 F 
ATOM     98  C   UNL     1       5.294  -1.611  14.914  1.00  0.00     0.022 A 
BRANCH  95  99
ATOM     99  S   UNL     1       4.564   1.035  15.416  1.00  0.00     0.124 S 
ATOM    100  O   UNL     1       4.736   1.924  14.271  1.00  0.00    -0.237 OA
ATOM    101  O   UNL     1       3.301   1.160  16.136  1.00  0.00    -0.237 OA
ATOM    102  O   UNL     1       5.747   0.877  16.260  1.00  0.00    -0.744 OA
ENDBRANCH  95  99
ENDBRANCH  69  92
ENDBRANCH  43  44
ENDBRANCH  36  38
ENDBRANCH  35  36
ENDBRANCH  34  35
ENDBRANCH   1  34
TORSDOF 20
