REMARK SMILES CCc1ccc(OCC(=O)Nc2cc(C)c(O)c(C(=O)OCCOC(=O)c3ccc(-c4c5nc(c(-c6cc(S(=O)(=O)[O-])ccc6F)c6ccc([nH]6)c(-c6cc(S(=O)(=O)[O-])ccc6F)c6nc(c(-c7cc(S(=O)(=O)[O-])ccc7F)c7ccc4[nH]7)C=C6)C=C5)cc3)c2)cc1
REMARK SMILES IDX 22 1 21 2 19 3 20 4 18 5 12 6 13 7 90 8 14 9 15 10 16 11
REMARK SMILES IDX 11 12 9 13 10 14 8 16 7 17 6 18 3 19 4 20 92 21 5 22 91 23
REMARK SMILES IDX 2 24 1 25 17 26 23 28 24 29 25 30 26 31 27 32 28 33 89 34
REMARK SMILES IDX 29 35 88 36 30 37 31 38 32 39 82 40 33 41 87 42 81 43 83 44
REMARK SMILES IDX 34 45 86 46 80 47 79 48 35 50 67 51 47 52 66 53 48 54 51 55
REMARK SMILES IDX 65 56 84 57 49 58 50 59 64 61 85 62 52 63 36 64 37 65 45 66
REMARK SMILES IDX 38 67 44 68 46 69 43 70 39 71 40 72 41 73 42 74 68 75 69 76
REMARK SMILES IDX 77 77 70 78 76 79 78 80 75 81 71 82 72 83 73 84 74 85 53 86
REMARK SMILES IDX 54 87 62 88 55 89 61 90 63 91 60 92 56 93 57 94 58 95 59 96
REMARK H PARENT 11 15 17 27 83 49 51 60
REMARK Flexibility Score: inf
ROOT
ATOM      1  C   UNL     1       0.971  -6.904   4.314  1.00  0.00     0.275 C 
ENDROOT
BRANCH   1   2
ATOM      2  O   UNL     1       1.978  -5.995   4.804  1.00  0.00    -0.458 OA
BRANCH   2   3
ATOM      3  C   UNL     1       2.669  -6.361   5.912  1.00  0.00     0.342 C 
ATOM      4  O   UNL     1       2.509  -7.378   6.570  1.00  0.00    -0.246 OA
BRANCH   3   5
ATOM      5  C   UNL     1       3.768  -5.402   6.195  1.00  0.00     0.104 A 
ATOM      6  C   UNL     1       4.733  -3.189   5.974  1.00  0.00     0.042 A 
ATOM      7  C   UNL     1       5.952  -3.684   6.440  1.00  0.00     0.033 A 
ATOM      8  C   UNL     1       3.691  -4.081   5.754  1.00  0.00     0.045 A 
ATOM      9  C   UNL     1       6.066  -5.016   6.869  1.00  0.00    -0.006 A 
ATOM     10  C   UNL     1       7.401  -5.521   7.340  1.00  0.00     0.048 C 
ATOM     11  C   UNL     1       4.926  -5.831   6.852  1.00  0.00     0.133 A 
BRANCH   6  12
ATOM     12  N   UNL     1       4.634  -1.813   5.732  1.00  0.00    -0.323 N 
ATOM     13  C   UNL     1       3.560  -0.968   5.825  1.00  0.00     0.262 C 
ATOM     14  O   UNL     1       3.746   0.230   5.577  1.00  0.00    -0.271 OA
ATOM     15  H   UNL     1       5.473  -1.383   5.448  1.00  0.00     0.170 HD
BRANCH  13  16
ATOM     16  C   UNL     1       2.193  -1.438   6.378  1.00  0.00     0.329 C 
BRANCH  16  17
ATOM     17  O   UNL     1       1.280  -2.202   5.609  1.00  0.00    -0.484 OA
BRANCH  17  18
ATOM     18  C   UNL     1       1.099  -1.840   4.306  1.00  0.00     0.120 A 
ATOM     19  C   UNL     1       0.749  -1.340   1.557  1.00  0.00    -0.048 A 
ATOM     20  C   UNL     1       0.620  -2.638   2.070  1.00  0.00     0.007 A 
ATOM     21  C   UNL     1       1.025  -0.298   2.452  1.00  0.00     0.007 A 
ATOM     22  C   UNL     1       0.782  -2.880   3.433  1.00  0.00     0.047 A 
ATOM     23  C   UNL     1       1.191  -0.544   3.818  1.00  0.00     0.047 A 
BRANCH  19  24
ATOM     24  C   UNL     1       0.530  -1.130   0.078  1.00  0.00     0.032 C 
ATOM     25  C   UNL     1       0.995   0.203  -0.491  1.00  0.00     0.009 C 
ENDBRANCH  19  24
ENDBRANCH  17  18
ENDBRANCH  16  17
ENDBRANCH  13  16
ENDBRANCH   6  12
BRANCH  11  26
ATOM     26  O   UNL     1       5.019  -7.067   7.433  1.00  0.00    -0.507 OA
ATOM     27  H   UNL     1       5.809  -7.323   7.866  1.00  0.00     0.293 HD
ENDBRANCH  11  26
ENDBRANCH   3   5
ENDBRANCH   2   3
ENDBRANCH   1   2
BRANCH   1  28
ATOM     28  C   UNL     1       1.372  -7.479   2.952  1.00  0.00     0.275 C 
BRANCH  28  29
ATOM     29  O   UNL     1       2.464  -8.405   3.100  1.00  0.00    -0.458 OA
BRANCH  29  30
ATOM     30  C   UNL     1       3.694  -7.886   2.868  1.00  0.00     0.338 C 
ATOM     31  O   UNL     1       3.945  -6.781   2.412  1.00  0.00    -0.246 OA
BRANCH  30  32
ATOM     32  C   UNL     1       4.702  -8.759   3.494  1.00  0.00     0.060 A 
ATOM     33  C   UNL     1       5.521  -8.165   4.450  1.00  0.00     0.016 A 
ATOM     34  C   UNL     1       4.846 -10.115   3.196  1.00  0.00     0.016 A 
ATOM     35  C   UNL     1       6.432  -8.924   5.174  1.00  0.00     0.010 A 
ATOM     36  C   UNL     1       5.803 -10.873   3.890  1.00  0.00     0.010 A 
ATOM     37  C   UNL     1       6.588 -10.284   4.898  1.00  0.00    -0.014 A 
BRANCH  37  38
ATOM     38  C   UNL     1       7.667 -11.021   5.601  1.00  0.00     0.031 A 
ATOM     39  C   UNL     1       8.988 -11.202   4.913  1.00  0.00     0.074 A 
ATOM     40  C   UNL     1       7.509 -11.424   6.876  1.00  0.00     0.049 A 
ATOM     41  N   UNL     1      10.056 -11.839   5.317  1.00  0.00    -0.248 NA
ATOM     42  C   UNL     1       9.125 -10.566   3.594  1.00  0.00     0.031 C 
ATOM     43  C   UNL     1       6.317 -11.193   7.692  1.00  0.00     0.029 A 
ATOM     44  N   UNL     1       8.362 -12.100   7.715  1.00  0.00    -0.354 N 
ATOM     45  C   UNL     1      10.992 -11.690   4.300  1.00  0.00     0.074 A 
ATOM     46  C   UNL     1      10.354 -10.920   3.252  1.00  0.00     0.031 C 
ATOM     47  C   UNL     1       6.512 -11.726   8.911  1.00  0.00     0.029 A 
ATOM     48  C   UNL     1       7.817 -12.384   8.946  1.00  0.00     0.049 A 
ATOM     49  H   UNL     1       9.277 -12.357   7.459  1.00  0.00     0.167 HD
ATOM     50  C   UNL     1      12.264 -12.155   4.249  1.00  0.00     0.034 A 
ATOM     51  C   UNL     1       8.300 -13.122   9.968  1.00  0.00     0.034 A 
ATOM     52  C   UNL     1      12.879 -12.930   5.300  1.00  0.00     0.049 A 
ATOM     53  C   UNL     1       9.670 -13.747   9.829  1.00  0.00     0.074 A 
ATOM     54  C   UNL     1      14.153 -13.469   5.340  1.00  0.00     0.029 A 
ATOM     55  N   UNL     1      12.262 -13.287   6.494  1.00  0.00    -0.354 N 
ATOM     56  N   UNL     1      10.533 -13.643   8.843  1.00  0.00    -0.248 NA
ATOM     57  C   UNL     1      10.130 -14.590  10.940  1.00  0.00     0.031 C 
ATOM     58  C   UNL     1      14.277 -14.219   6.514  1.00  0.00     0.029 A 
ATOM     59  C   UNL     1      13.115 -14.073   7.255  1.00  0.00     0.049 A 
ATOM     60  H   UNL     1      11.352 -13.021   6.760  1.00  0.00     0.167 HD
ATOM     61  C   UNL     1      11.648 -14.382   9.233  1.00  0.00     0.074 A 
ATOM     62  C   UNL     1      11.355 -14.907  10.550  1.00  0.00     0.031 C 
ATOM     63  C   UNL     1      12.809 -14.606   8.564  1.00  0.00     0.034 A 
BRANCH  50  64
ATOM     64  C   UNL     1      13.040 -11.905   2.979  1.00  0.00     0.023 A 
ATOM     65  C   UNL     1      13.390 -10.610   2.559  1.00  0.00     0.031 A 
ATOM     66  C   UNL     1      13.404 -12.986   2.156  1.00  0.00     0.131 A 
ATOM     67  C   UNL     1      14.022 -10.425   1.319  1.00  0.00     0.055 A 
ATOM     68  C   UNL     1      14.105 -12.801   0.964  1.00  0.00     0.041 A 
ATOM     69  F   UNL     1      13.070 -14.242   2.491  1.00  0.00    -0.206 F 
ATOM     70  C   UNL     1      14.405 -11.514   0.531  1.00  0.00     0.022 A 
BRANCH  67  71
ATOM     71  S   UNL     1      14.203  -8.737   0.679  1.00  0.00     0.124 S 
ATOM     72  O   UNL     1      12.815  -8.282   0.648  1.00  0.00    -0.237 OA
ATOM     73  O   UNL     1      15.059  -8.111   1.679  1.00  0.00    -0.237 OA
ATOM     74  O   UNL     1      14.816  -8.932  -0.634  1.00  0.00    -0.744 OA
ENDBRANCH  67  71
ENDBRANCH  50  64
BRANCH  51  75
ATOM     75  C   UNL     1       7.468 -13.388  11.180  1.00  0.00     0.023 A 
ATOM     76  C   UNL     1       7.899 -13.012  12.464  1.00  0.00     0.031 A 
ATOM     77  C   UNL     1       6.262 -14.106  11.078  1.00  0.00     0.131 A 
ATOM     78  C   UNL     1       7.159 -13.402  13.593  1.00  0.00     0.055 A 
ATOM     79  C   UNL     1       5.497 -14.434  12.199  1.00  0.00     0.041 A 
ATOM     80  F   UNL     1       5.808 -14.507   9.880  1.00  0.00    -0.206 F 
ATOM     81  C   UNL     1       5.953 -14.095  13.468  1.00  0.00     0.022 A 
BRANCH  78  82
ATOM     82  S   UNL     1       7.852 -13.088  15.241  1.00  0.00     0.124 S 
ATOM     83  O   UNL     1       9.124 -13.798  15.167  1.00  0.00    -0.237 OA
ATOM     84  O   UNL     1       7.930 -11.631  15.265  1.00  0.00    -0.237 OA
ATOM     85  O   UNL     1       6.862 -13.672  16.143  1.00  0.00    -0.744 OA
ENDBRANCH  78  82
ENDBRANCH  51  75
BRANCH  63  86
ATOM     86  C   UNL     1      13.867 -15.420   9.273  1.00  0.00     0.023 A 
ATOM     87  C   UNL     1      13.666 -16.772   9.604  1.00  0.00     0.031 A 
ATOM     88  C   UNL     1      15.089 -14.828   9.641  1.00  0.00     0.131 A 
ATOM     89  C   UNL     1      14.641 -17.466  10.339  1.00  0.00     0.055 A 
ATOM     90  C   UNL     1      16.084 -15.543  10.308  1.00  0.00     0.041 A 
ATOM     91  F   UNL     1      15.337 -13.539   9.356  1.00  0.00    -0.206 F 
ATOM     92  C   UNL     1      15.857 -16.865  10.676  1.00  0.00     0.022 A 
BRANCH  89  93
ATOM     93  S   UNL     1      14.252 -19.129  10.950  1.00  0.00     0.124 S 
ATOM     94  O   UNL     1      13.046 -18.889  11.736  1.00  0.00    -0.237 OA
ATOM     95  O   UNL     1      14.068 -19.881   9.714  1.00  0.00    -0.237 OA
ATOM     96  O   UNL     1      15.435 -19.495  11.727  1.00  0.00    -0.744 OA
ENDBRANCH  89  93
ENDBRANCH  63  86
ENDBRANCH  37  38
ENDBRANCH  30  32
ENDBRANCH  29  30
ENDBRANCH  28  29
ENDBRANCH   1  28
TORSDOF 20
