REMARK SMILES C[C@H]1[C@@H](C(=O)OCCOC(=O)c2ccc(-c3c4nc(c(-c5cc(S(=O)(=O)[O-])ccc5F)c5ccc([nH]5)c(-c5cc(S(=O)(=O)[O-])ccc5F)c5nc(c(-c6cc(S(=O)(=O)[O-])ccc6F)c6ccc3[nH]6)C=C5)C=C4)cc2)CCN1C(=O)/C=C/c1cccc(F)c1
REMARK SMILES IDX 7 1 6 2 4 3 5 4 3 5 1 6 2 7 77 8 75 9 76 10 78 11 79 12
REMARK SMILES IDX 80 13 81 14 82 15 83 16 88 17 84 18 86 19 85 20 87 21 8 22
REMARK SMILES IDX 9 23 10 24 11 25 12 26 13 27 74 28 14 29 73 30 15 31 16 32
REMARK SMILES IDX 17 33 67 34 18 35 72 36 66 37 68 38 19 39 71 40 65 41 64 42
REMARK SMILES IDX 20 44 52 45 32 46 51 47 33 48 36 49 50 50 69 51 34 52 35 53
REMARK SMILES IDX 49 55 70 56 37 57 21 58 22 59 30 60 23 61 29 62 31 63 28 64
REMARK SMILES IDX 24 65 25 66 26 67 27 68 53 69 54 70 62 71 55 72 61 73 63 74
REMARK SMILES IDX 60 75 56 76 57 77 58 78 59 79 38 80 39 81 47 82 40 83 46 84
REMARK SMILES IDX 48 85 45 86 41 87 42 88 43 89 44 90
REMARK H PARENT 68 43 36 54
REMARK Flexibility Score: inf
ROOT
ATOM      1  C   UNL     1       1.825   2.749  -2.673  1.00  0.00     0.274 C 
ENDROOT
BRANCH   1   2
ATOM      2  O   UNL     1       1.478   1.743  -1.700  1.00  0.00    -0.462 OA
BRANCH   2   3
ATOM      3  C   UNL     1       0.802   2.126  -0.597  1.00  0.00     0.311 C 
ATOM      4  O   UNL     1       0.421   3.274  -0.392  1.00  0.00    -0.252 OA
BRANCH   3   5
ATOM      5  C   UNL     1       0.506   1.004   0.383  1.00  0.00     0.123 C 
ATOM      6  C   UNL     1       2.336  -0.572  -0.673  1.00  0.00     0.032 C 
ATOM      7  C   UNL     1       1.375  -0.267   0.473  1.00  0.00     0.096 C 
ATOM      8  N   UNL     1       0.404  -1.358   0.654  1.00  0.00    -0.336 N 
ATOM      9  C   UNL     1      -0.947   0.516   0.301  1.00  0.00     0.039 C 
ATOM     10  C   UNL     1      -0.884  -0.983   0.120  1.00  0.00     0.121 C 
BRANCH   8  11
ATOM     11  C   UNL     1       0.599  -2.636   1.131  1.00  0.00     0.246 C 
ATOM     12  O   UNL     1      -0.270  -3.499   1.183  1.00  0.00    -0.270 OA
BRANCH  11  13
ATOM     13  C   UNL     1       1.983  -3.001   1.492  1.00  0.00     0.072 C 
ATOM     14  C   UNL     1       2.608  -2.421   2.525  1.00  0.00     0.014 C 
BRANCH  14  15
ATOM     15  C   UNL     1       4.043  -2.562   2.810  1.00  0.00    -0.023 A 
ATOM     16  C   UNL     1       4.651  -1.608   3.642  1.00  0.00     0.008 A 
ATOM     17  C   UNL     1       4.840  -3.573   2.258  1.00  0.00     0.047 A 
ATOM     18  C   UNL     1       6.025  -1.648   3.898  1.00  0.00     0.004 A 
ATOM     19  C   UNL     1       6.206  -3.602   2.516  1.00  0.00     0.123 A 
ATOM     20  C   UNL     1       6.807  -2.648   3.327  1.00  0.00     0.039 A 
ATOM     21  F   UNL     1       6.959  -4.562   1.962  1.00  0.00    -0.207 F 
ENDBRANCH  14  15
ENDBRANCH  11  13
ENDBRANCH   8  11
ENDBRANCH   3   5
ENDBRANCH   2   3
ENDBRANCH   1   2
BRANCH   1  22
ATOM     22  C   UNL     1       1.173   2.425  -4.014  1.00  0.00     0.275 C 
BRANCH  22  23
ATOM     23  O   UNL     1      -0.238   2.679  -3.939  1.00  0.00    -0.458 OA
BRANCH  23  24
ATOM     24  C   UNL     1      -0.993   1.608  -3.607  1.00  0.00     0.338 C 
ATOM     25  O   UNL     1      -0.629   0.457  -3.449  1.00  0.00    -0.246 OA
BRANCH  24  26
ATOM     26  C   UNL     1      -2.365   2.062  -3.362  1.00  0.00     0.060 A 
ATOM     27  C   UNL     1      -2.671   2.627  -2.124  1.00  0.00     0.016 A 
ATOM     28  C   UNL     1      -3.360   1.818  -4.304  1.00  0.00     0.016 A 
ATOM     29  C   UNL     1      -3.997   2.857  -1.780  1.00  0.00     0.010 A 
ATOM     30  C   UNL     1      -4.679   2.156  -3.994  1.00  0.00     0.010 A 
ATOM     31  C   UNL     1      -5.015   2.653  -2.720  1.00  0.00    -0.014 A 
BRANCH  31  32
ATOM     32  C   UNL     1      -6.433   2.955  -2.392  1.00  0.00     0.031 A 
ATOM     33  C   UNL     1      -7.468   1.872  -2.509  1.00  0.00     0.074 A 
ATOM     34  C   UNL     1      -6.795   4.203  -2.037  1.00  0.00     0.049 A 
ATOM     35  N   UNL     1      -8.769   1.973  -2.584  1.00  0.00    -0.248 NA
ATOM     36  C   UNL     1      -6.966   0.491  -2.570  1.00  0.00     0.031 C 
ATOM     37  C   UNL     1      -5.878   5.324  -1.816  1.00  0.00     0.029 A 
ATOM     38  N   UNL     1      -8.037   4.745  -1.817  1.00  0.00    -0.354 N 
ATOM     39  C   UNL     1      -9.240   0.677  -2.767  1.00  0.00     0.074 A 
ATOM     40  C   UNL     1      -8.082  -0.192  -2.784  1.00  0.00     0.031 C 
ATOM     41  C   UNL     1      -6.585   6.415  -1.486  1.00  0.00     0.029 A 
ATOM     42  C   UNL     1      -8.005   6.101  -1.581  1.00  0.00     0.049 A 
ATOM     43  H   UNL     1      -8.867   4.217  -1.827  1.00  0.00     0.167 HD
ATOM     44  C   UNL     1     -10.523   0.264  -2.922  1.00  0.00     0.034 A 
ATOM     45  C   UNL     1      -8.999   7.007  -1.526  1.00  0.00     0.034 A 
ATOM     46  C   UNL     1     -11.657   1.155  -2.863  1.00  0.00     0.049 A 
ATOM     47  C   UNL     1     -10.410   6.541  -1.755  1.00  0.00     0.074 A 
ATOM     48  C   UNL     1     -13.001   0.858  -3.005  1.00  0.00     0.029 A 
ATOM     49  N   UNL     1     -11.577   2.524  -2.634  1.00  0.00    -0.354 N 
ATOM     50  N   UNL     1     -10.843   5.330  -2.024  1.00  0.00    -0.248 NA
ATOM     51  C   UNL     1     -11.464   7.561  -1.692  1.00  0.00     0.031 C 
ATOM     52  C   UNL     1     -13.727   2.051  -2.910  1.00  0.00     0.029 A 
ATOM     53  C   UNL     1     -12.843   3.085  -2.647  1.00  0.00     0.049 A 
ATOM     54  H   UNL     1     -10.741   3.022  -2.483  1.00  0.00     0.167 HD
ATOM     55  C   UNL     1     -12.223   5.441  -2.144  1.00  0.00     0.074 A 
ATOM     56  C   UNL     1     -12.550   6.834  -1.914  1.00  0.00     0.031 C 
ATOM     57  C   UNL     1     -13.139   4.478  -2.416  1.00  0.00     0.034 A 
BRANCH  44  58
ATOM     58  C   UNL     1     -10.754  -1.192  -3.244  1.00  0.00     0.023 A 
ATOM     59  C   UNL     1     -10.458  -2.219  -2.332  1.00  0.00     0.031 A 
ATOM     60  C   UNL     1     -11.254  -1.558  -4.507  1.00  0.00     0.131 A 
ATOM     61  C   UNL     1     -10.605  -3.562  -2.719  1.00  0.00     0.055 A 
ATOM     62  C   UNL     1     -11.466  -2.892  -4.860  1.00  0.00     0.041 A 
ATOM     63  F   UNL     1     -11.533  -0.622  -5.428  1.00  0.00    -0.206 F 
ATOM     64  C   UNL     1     -11.128  -3.904  -3.968  1.00  0.00     0.022 A 
BRANCH  61  65
ATOM     65  S   UNL     1      -9.979  -4.858  -1.615  1.00  0.00     0.124 S 
ATOM     66  O   UNL     1      -8.567  -4.499  -1.512  1.00  0.00    -0.237 OA
ATOM     67  O   UNL     1     -10.779  -4.660  -0.412  1.00  0.00    -0.237 OA
ATOM     68  O   UNL     1     -10.249  -6.093  -2.348  1.00  0.00    -0.744 OA
ENDBRANCH  61  65
ENDBRANCH  44  58
BRANCH  45  69
ATOM     69  C   UNL     1      -8.682   8.451  -1.338  1.00  0.00     0.023 A 
ATOM     70  C   UNL     1      -9.077   9.136  -0.180  1.00  0.00     0.031 A 
ATOM     71  C   UNL     1      -7.974   9.167  -2.321  1.00  0.00     0.131 A 
ATOM     72  C   UNL     1      -8.779  10.501  -0.042  1.00  0.00     0.055 A 
ATOM     73  C   UNL     1      -7.638  10.511  -2.158  1.00  0.00     0.041 A 
ATOM     74  F   UNL     1      -7.571   8.556  -3.447  1.00  0.00    -0.206 F 
ATOM     75  C   UNL     1      -8.049  11.188  -1.015  1.00  0.00     0.022 A 
BRANCH  72  76
ATOM     76  S   UNL     1      -9.412  11.386   1.408  1.00  0.00     0.124 S 
ATOM     77  O   UNL     1     -10.850  11.177   1.281  1.00  0.00    -0.237 OA
ATOM     78  O   UNL     1      -8.755  10.682   2.504  1.00  0.00    -0.237 OA
ATOM     79  O   UNL     1      -8.960  12.759   1.193  1.00  0.00    -0.744 OA
ENDBRANCH  72  76
ENDBRANCH  45  69
BRANCH  57  80
ATOM     80  C   UNL     1     -14.583   4.900  -2.416  1.00  0.00     0.023 A 
ATOM     81  C   UNL     1     -15.129   5.666  -3.458  1.00  0.00     0.031 A 
ATOM     82  C   UNL     1     -15.419   4.524  -1.351  1.00  0.00     0.131 A 
ATOM     83  C   UNL     1     -16.472   6.065  -3.395  1.00  0.00     0.055 A 
ATOM     84  C   UNL     1     -16.765   4.888  -1.315  1.00  0.00     0.041 A 
ATOM     85  F   UNL     1     -14.940   3.793  -0.332  1.00  0.00    -0.206 F 
ATOM     86  C   UNL     1     -17.296   5.669  -2.337  1.00  0.00     0.022 A 
BRANCH  83  87
ATOM     87  S   UNL     1     -17.122   7.151  -4.694  1.00  0.00     0.124 S 
ATOM     88  O   UNL     1     -16.326   8.360  -4.503  1.00  0.00    -0.237 OA
ATOM     89  O   UNL     1     -16.846   6.391  -5.909  1.00  0.00    -0.237 OA
ATOM     90  O   UNL     1     -18.538   7.281  -4.355  1.00  0.00    -0.744 OA
ENDBRANCH  83  87
ENDBRANCH  57  80
ENDBRANCH  31  32
ENDBRANCH  24  26
ENDBRANCH  23  24
ENDBRANCH  22  23
ENDBRANCH   1  22
TORSDOF 17
