REMARK SMILES CS(=O)(=O)c1ccc(/C=C(/C(=O)OCCOC(=O)c2ccc(-c3c4nc(c(-c5cc(S(=O)(=O)[O-])ccc5F)c5ccc([nH]5)c(-c5cc(S(=O)(=O)[O-])ccc5F)c5nc(c(-c6cc(S(=O)(=O)[O-])ccc6F)c6ccc3[nH]6)C=C5)C=C4)cc2)c2ccc(-c3ccc(S(C)(=O)=O)cc3)cc2)cc1
REMARK SMILES IDX 14 1 13 2 11 3 12 4 10 5 9 6 8 7 5 8 6 9 99 10 7 11 98 12
REMARK SMILES IDX 2 13 1 14 3 15 4 16 82 17 83 18 97 19 84 20 96 21 85 22
REMARK SMILES IDX 86 23 87 24 95 25 88 26 94 27 89 28 90 29 91 30 92 31 93 32
REMARK SMILES IDX 15 33 16 34 17 35 18 36 19 37 20 38 81 39 21 40 80 41 22 42
REMARK SMILES IDX 23 43 24 44 74 45 25 46 79 47 73 48 75 49 26 50 78 51 72 52
REMARK SMILES IDX 71 53 27 55 59 56 39 57 58 58 40 59 43 60 57 61 76 62 41 63
REMARK SMILES IDX 42 64 56 66 77 67 44 68 28 69 29 70 37 71 30 72 36 73 38 74
REMARK SMILES IDX 35 75 31 76 32 77 33 78 34 79 60 80 61 81 69 82 62 83 68 84
REMARK SMILES IDX 70 85 67 86 63 87 64 88 65 89 66 90 45 91 46 92 54 93 47 94
REMARK SMILES IDX 53 95 55 96 52 97 48 98 49 99 50 100 51 101
REMARK H PARENT 75 54 43 65
REMARK Flexibility Score: inf
ROOT
ATOM      1  C   UNL     1       2.825   4.935  -9.400  1.00  0.00     0.275 C 
ENDROOT
BRANCH   1   2
ATOM      2  O   UNL     1       2.800   4.168  -8.179  1.00  0.00    -0.458 OA
BRANCH   2   3
ATOM      3  C   UNL     1       2.436   2.867  -8.323  1.00  0.00     0.338 C 
ATOM      4  O   UNL     1       2.083   2.343  -9.371  1.00  0.00    -0.246 OA
BRANCH   3   5
ATOM      5  C   UNL     1       2.536   2.110  -7.040  1.00  0.00     0.067 C 
ATOM      6  C   UNL     1       1.993   2.659  -5.929  1.00  0.00     0.024 C 
BRANCH   6   7
ATOM      7  C   UNL     1       1.673   1.985  -4.648  1.00  0.00    -0.025 A 
ATOM      8  C   UNL     1       0.712   0.553  -2.431  1.00  0.00     0.067 A 
ATOM      9  C   UNL     1       1.915   0.182  -3.021  1.00  0.00     0.021 A 
ATOM     10  C   UNL     1       0.014   1.671  -2.887  1.00  0.00     0.021 A 
ATOM     11  C   UNL     1       2.408   0.927  -4.095  1.00  0.00     0.009 A 
ATOM     12  C   UNL     1       0.498   2.382  -3.990  1.00  0.00     0.009 A 
BRANCH   8  13
ATOM     13  S   UNL     1       0.033  -0.460  -1.143  1.00  0.00     0.175 S 
ATOM     14  C   UNL     1       0.928   0.059   0.293  1.00  0.00     0.163 C 
ATOM     15  O   UNL     1       0.382  -1.833  -1.429  1.00  0.00    -0.224 OA
ATOM     16  O   UNL     1      -1.357  -0.067  -0.963  1.00  0.00    -0.224 OA
ENDBRANCH   8  13
ENDBRANCH   6   7
BRANCH   5  17
ATOM     17  C   UNL     1       3.052   0.731  -7.093  1.00  0.00    -0.011 A 
ATOM     18  C   UNL     1       4.406   0.496  -6.827  1.00  0.00     0.009 A 
ATOM     19  C   UNL     1       2.213  -0.357  -7.337  1.00  0.00     0.009 A 
ATOM     20  C   UNL     1       4.907  -0.811  -6.792  1.00  0.00     0.009 A 
ATOM     21  C   UNL     1       2.723  -1.662  -7.299  1.00  0.00     0.009 A 
ATOM     22  C   UNL     1       4.081  -1.924  -7.033  1.00  0.00    -0.018 A 
BRANCH  22  23
ATOM     23  C   UNL     1       4.620  -3.308  -7.014  1.00  0.00    -0.018 A 
ATOM     24  C   UNL     1       5.703  -3.665  -6.185  1.00  0.00     0.010 A 
ATOM     25  C   UNL     1       4.064  -4.327  -7.815  1.00  0.00     0.010 A 
ATOM     26  C   UNL     1       6.190  -4.976  -6.134  1.00  0.00     0.021 A 
ATOM     27  C   UNL     1       4.535  -5.645  -7.764  1.00  0.00     0.021 A 
ATOM     28  C   UNL     1       5.595  -5.961  -6.918  1.00  0.00     0.067 A 
BRANCH  28  29
ATOM     29  S   UNL     1       6.146  -7.643  -6.760  1.00  0.00     0.175 S 
ATOM     30  C   UNL     1       7.739  -7.643  -7.529  1.00  0.00     0.163 C 
ATOM     31  O   UNL     1       6.311  -7.895  -5.339  1.00  0.00    -0.224 OA
ATOM     32  O   UNL     1       5.252  -8.472  -7.548  1.00  0.00    -0.224 OA
ENDBRANCH  28  29
ENDBRANCH  22  23
ENDBRANCH   5  17
ENDBRANCH   3   5
ENDBRANCH   2   3
ENDBRANCH   1   2
BRANCH   1  33
ATOM     33  C   UNL     1       4.255   5.096  -9.910  1.00  0.00     0.275 C 
BRANCH  33  34
ATOM     34  O   UNL     1       4.800   3.812 -10.261  1.00  0.00    -0.458 OA
BRANCH  34  35
ATOM     35  C   UNL     1       5.847   3.394  -9.513  1.00  0.00     0.338 C 
ATOM     36  O   UNL     1       6.412   4.017  -8.628  1.00  0.00    -0.246 OA
BRANCH  35  37
ATOM     37  C   UNL     1       6.230   2.018  -9.884  1.00  0.00     0.060 A 
ATOM     38  C   UNL     1       5.269   1.016  -9.904  1.00  0.00     0.016 A 
ATOM     39  C   UNL     1       7.577   1.687 -10.033  1.00  0.00     0.016 A 
ATOM     40  C   UNL     1       5.668  -0.321  -9.916  1.00  0.00     0.010 A 
ATOM     41  C   UNL     1       7.956   0.343 -10.174  1.00  0.00     0.010 A 
ATOM     42  C   UNL     1       7.015  -0.695 -10.047  1.00  0.00    -0.014 A 
BRANCH  42  43
ATOM     43  C   UNL     1       7.433  -2.138  -9.981  1.00  0.00     0.031 A 
ATOM     44  C   UNL     1       8.580  -2.571  -9.089  1.00  0.00     0.074 A 
ATOM     45  C   UNL     1       6.787  -3.092 -10.687  1.00  0.00     0.049 A 
ATOM     46  N   UNL     1       9.258  -3.694  -9.087  1.00  0.00    -0.248 NA
ATOM     47  C   UNL     1       9.042  -1.602  -8.084  1.00  0.00     0.031 C 
ATOM     48  C   UNL     1       5.618  -2.876 -11.540  1.00  0.00     0.029 A 
ATOM     49  N   UNL     1       7.020  -4.445 -10.794  1.00  0.00    -0.354 N 
ATOM     50  C   UNL     1      10.282  -3.527  -8.156  1.00  0.00     0.074 A 
ATOM     51  C   UNL     1      10.125  -2.197  -7.605  1.00  0.00     0.031 C 
ATOM     52  C   UNL     1       5.193  -4.052 -12.019  1.00  0.00     0.029 A 
ATOM     53  C   UNL     1       6.146  -5.087 -11.644  1.00  0.00     0.049 A 
ATOM     54  H   UNL     1       7.741  -4.909 -10.310  1.00  0.00     0.167 HD
ATOM     55  C   UNL     1      11.263  -4.398  -7.805  1.00  0.00     0.034 A 
ATOM     56  C   UNL     1       6.141  -6.338 -12.146  1.00  0.00     0.034 A 
ATOM     57  C   UNL     1      11.353  -5.752  -8.301  1.00  0.00     0.049 A 
ATOM     58  C   UNL     1       7.261  -7.273 -11.790  1.00  0.00     0.074 A 
ATOM     59  C   UNL     1      12.250  -6.743  -7.936  1.00  0.00     0.029 A 
ATOM     60  N   UNL     1      10.522  -6.310  -9.264  1.00  0.00    -0.354 N 
ATOM     61  N   UNL     1       8.303  -7.054 -11.023  1.00  0.00    -0.248 NA
ATOM     62  C   UNL     1       7.217  -8.613 -12.385  1.00  0.00     0.031 C 
ATOM     63  C   UNL     1      11.989  -7.882  -8.706  1.00  0.00     0.029 A 
ATOM     64  C   UNL     1      10.878  -7.632  -9.494  1.00  0.00     0.049 A 
ATOM     65  H   UNL     1       9.788  -5.837  -9.717  1.00  0.00     0.167 HD
ATOM     66  C   UNL     1       9.033  -8.239 -11.034  1.00  0.00     0.074 A 
ATOM     67  C   UNL     1       8.307  -9.168 -11.875  1.00  0.00     0.031 C 
ATOM     68  C   UNL     1      10.188  -8.534 -10.385  1.00  0.00     0.034 A 
BRANCH  55  69
ATOM     69  C   UNL     1      12.355  -3.904  -6.880  1.00  0.00     0.023 A 
ATOM     70  C   UNL     1      12.107  -3.509  -5.556  1.00  0.00     0.031 A 
ATOM     71  C   UNL     1      13.682  -3.828  -7.348  1.00  0.00     0.131 A 
ATOM     72  C   UNL     1      13.151  -2.990  -4.771  1.00  0.00     0.055 A 
ATOM     73  C   UNL     1      14.731  -3.388  -6.536  1.00  0.00     0.041 A 
ATOM     74  F   UNL     1      13.982  -4.176  -8.609  1.00  0.00    -0.206 F 
ATOM     75  C   UNL     1      14.466  -2.951  -5.243  1.00  0.00     0.022 A 
BRANCH  72  76
ATOM     76  S   UNL     1      12.740  -2.232  -3.175  1.00  0.00     0.124 S 
ATOM     77  O   UNL     1      11.758  -1.225  -3.571  1.00  0.00    -0.237 OA
ATOM     78  O   UNL     1      12.222  -3.364  -2.416  1.00  0.00    -0.237 OA
ATOM     79  O   UNL     1      14.018  -1.697  -2.709  1.00  0.00    -0.744 OA
ENDBRANCH  72  76
ENDBRANCH  55  69
BRANCH  56  80
ATOM     80  C   UNL     1       5.096  -6.739 -13.132  1.00  0.00     0.023 A 
ATOM     81  C   UNL     1       4.160  -7.742 -12.839  1.00  0.00     0.031 A 
ATOM     82  C   UNL     1       5.027  -6.118 -14.394  1.00  0.00     0.131 A 
ATOM     83  C   UNL     1       3.208  -8.107 -13.804  1.00  0.00     0.055 A 
ATOM     84  C   UNL     1       4.041  -6.441 -15.324  1.00  0.00     0.041 A 
ATOM     85  F   UNL     1       5.904  -5.156 -14.726  1.00  0.00    -0.206 F 
ATOM     86  C   UNL     1       3.128  -7.448 -15.034  1.00  0.00     0.022 A 
BRANCH  83  87
ATOM     87  S   UNL     1       2.110  -9.508 -13.461  1.00  0.00     0.124 S 
ATOM     88  O   UNL     1       3.067 -10.587 -13.241  1.00  0.00    -0.237 OA
ATOM     89  O   UNL     1       1.382  -9.040 -12.286  1.00  0.00    -0.237 OA
ATOM     90  O   UNL     1       1.313  -9.621 -14.680  1.00  0.00    -0.744 OA
ENDBRANCH  83  87
ENDBRANCH  56  80
BRANCH  68  91
ATOM     91  C   UNL     1      10.709  -9.939 -10.546  1.00  0.00     0.023 A 
ATOM     92  C   UNL     1      11.205 -10.405 -11.775  1.00  0.00     0.031 A 
ATOM     93  C   UNL     1      10.662 -10.838  -9.465  1.00  0.00     0.131 A 
ATOM     94  C   UNL     1      11.580 -11.749 -11.911  1.00  0.00     0.055 A 
ATOM     95  C   UNL     1      11.093 -12.159  -9.590  1.00  0.00     0.041 A 
ATOM     96  F   UNL     1      10.188 -10.444  -8.272  1.00  0.00    -0.206 F 
ATOM     97  C   UNL     1      11.543 -12.625 -10.822  1.00  0.00     0.022 A 
BRANCH  94  98
ATOM     98  S   UNL     1      12.024 -12.365 -13.558  1.00  0.00     0.124 S 
ATOM     99  O   UNL     1      10.805 -12.104 -14.316  1.00  0.00    -0.237 OA
ATOM    100  O   UNL     1      13.177 -11.538 -13.899  1.00  0.00    -0.237 OA
ATOM    101  O   UNL     1      12.322 -13.778 -13.328  1.00  0.00    -0.744 OA
ENDBRANCH  94  98
ENDBRANCH  68  91
ENDBRANCH  42  43
ENDBRANCH  35  37
ENDBRANCH  34  35
ENDBRANCH  33  34
ENDBRANCH   1  33
TORSDOF 19
