REMARK SMILES COc1ccc(/C=C/c2ncc(C(=O)OCCOC(=O)c3ccc(-c4c5nc(c(-c6cc(S(=O)(=O)[O-])ccc6F)c6ccc([nH]6)c(-c6cc(S(=O)(=O)[O-])ccc6F)c6nc(c(-c7cc(S(=O)(=O)[O-])ccc7F)c7ccc4[nH]7)C=C6)C=C5)cc3)s2)cc1O
REMARK SMILES IDX 16 1 15 2 13 3 14 4 12 5 9 6 10 7 84 8 11 9 8 10 7 11 6 12
REMARK SMILES IDX 3 13 4 14 86 15 5 16 85 17 2 18 1 19 87 20 17 22 18 23 19 24
REMARK SMILES IDX 20 25 21 26 22 27 83 28 23 29 82 30 24 31 25 32 26 33 76 34
REMARK SMILES IDX 27 35 81 36 75 37 77 38 28 39 80 40 74 41 73 42 29 44 61 45
REMARK SMILES IDX 41 46 60 47 42 48 45 49 59 50 78 51 43 52 44 53 58 55 79 56
REMARK SMILES IDX 46 57 30 58 31 59 39 60 32 61 38 62 40 63 37 64 33 65 34 66
REMARK SMILES IDX 35 67 36 68 62 69 63 70 71 71 64 72 70 73 72 74 69 75 65 76
REMARK SMILES IDX 66 77 67 78 68 79 47 80 48 81 56 82 49 83 55 84 57 85 54 86
REMARK SMILES IDX 50 87 51 88 52 89 53 90
REMARK H PARENT 87 21 77 43 45 54
REMARK Flexibility Score: inf
ROOT
ATOM      1  C   UNL     1      -4.516  -1.384 -13.707  1.00  0.00     0.275 C 
ENDROOT
BRANCH   1   2
ATOM      2  O   UNL     1      -4.425  -1.462 -12.270  1.00  0.00    -0.458 OA
BRANCH   2   3
ATOM      3  C   UNL     1      -3.158  -1.505 -11.753  1.00  0.00     0.350 C 
ATOM      4  O   UNL     1      -2.147  -1.564 -12.435  1.00  0.00    -0.245 OA
BRANCH   3   5
ATOM      5  C   UNL     1      -3.199  -1.404 -10.311  1.00  0.00     0.132 A 
ATOM      6  C   UNL     1      -2.666  -0.841  -7.997  1.00  0.00     0.116 A 
ATOM      7  N   UNL     1      -3.934  -1.192  -8.099  1.00  0.00    -0.244 NA
ATOM      8  S   UNL     1      -1.750  -1.107  -9.434  1.00  0.00    -0.107 S 
ATOM      9  C   UNL     1      -4.248  -1.472  -9.421  1.00  0.00     0.139 A 
BRANCH   6  10
ATOM     10  C   UNL     1      -2.015  -0.283  -6.862  1.00  0.00     0.040 C 
ATOM     11  C   UNL     1      -1.830  -1.022  -5.758  1.00  0.00     0.011 C 
BRANCH  11  12
ATOM     12  C   UNL     1      -1.222  -0.580  -4.487  1.00  0.00    -0.022 A 
ATOM     13  C   UNL     1      -0.324   0.143  -1.911  1.00  0.00     0.160 A 
ATOM     14  C   UNL     1      -0.436   1.111  -2.906  1.00  0.00     0.051 A 
ATOM     15  C   UNL     1      -0.658  -1.177  -2.204  1.00  0.00     0.158 A 
ATOM     16  C   UNL     1      -0.884   0.751  -4.188  1.00  0.00     0.012 A 
ATOM     17  C   UNL     1      -1.065  -1.546  -3.482  1.00  0.00     0.058 A 
BRANCH  13  18
ATOM     18  O   UNL     1      -0.054   0.538  -0.627  1.00  0.00    -0.493 OA
ATOM     19  C   UNL     1       1.248   0.137  -0.199  1.00  0.00     0.278 C 
ENDBRANCH  13  18
BRANCH  15  20
ATOM     20  O   UNL     1      -0.690  -2.135  -1.229  1.00  0.00    -0.504 OA
ATOM     21  H   UNL     1      -0.423  -1.924  -0.356  1.00  0.00     0.293 HD
ENDBRANCH  15  20
ENDBRANCH  11  12
ENDBRANCH   6  10
ENDBRANCH   3   5
ENDBRANCH   2   3
ENDBRANCH   1   2
BRANCH   1  22
ATOM     22  C   UNL     1      -4.831   0.038 -14.186  1.00  0.00     0.275 C 
BRANCH  22  23
ATOM     23  O   UNL     1      -3.726   0.939 -13.979  1.00  0.00    -0.458 OA
BRANCH  23  24
ATOM     24  C   UNL     1      -3.777   1.641 -12.822  1.00  0.00     0.338 C 
ATOM     25  O   UNL     1      -4.645   1.574 -11.968  1.00  0.00    -0.246 OA
BRANCH  24  26
ATOM     26  C   UNL     1      -2.537   2.411 -12.638  1.00  0.00     0.060 A 
ATOM     27  C   UNL     1      -1.666   1.979 -11.640  1.00  0.00     0.016 A 
ATOM     28  C   UNL     1      -2.281   3.595 -13.327  1.00  0.00     0.016 A 
ATOM     29  C   UNL     1      -0.553   2.736 -11.293  1.00  0.00     0.010 A 
ATOM     30  C   UNL     1      -1.141   4.346 -12.998  1.00  0.00     0.010 A 
ATOM     31  C   UNL     1      -0.278   3.932 -11.964  1.00  0.00    -0.014 A 
BRANCH  31  32
ATOM     32  C   UNL     1       0.875   4.766 -11.525  1.00  0.00     0.031 A 
ATOM     33  C   UNL     1       0.631   6.102 -10.877  1.00  0.00     0.074 A 
ATOM     34  C   UNL     1       2.133   4.301 -11.649  1.00  0.00     0.049 A 
ATOM     35  N   UNL     1       1.492   7.014 -10.502  1.00  0.00    -0.248 NA
ATOM     36  C   UNL     1      -0.772   6.459 -10.622  1.00  0.00     0.031 C 
ATOM     37  C   UNL     1       2.498   2.991 -12.192  1.00  0.00     0.029 A 
ATOM     38  N   UNL     1       3.339   4.869 -11.318  1.00  0.00    -0.354 N 
ATOM     39  C   UNL     1       0.736   8.065  -9.991  1.00  0.00     0.074 A 
ATOM     40  C   UNL     1      -0.655   7.685 -10.135  1.00  0.00     0.031 C 
ATOM     41  C   UNL     1       3.831   2.847 -12.134  1.00  0.00     0.029 A 
ATOM     42  C   UNL     1       4.424   4.079 -11.622  1.00  0.00     0.049 A 
ATOM     43  H   UNL     1       3.419   5.758 -10.902  1.00  0.00     0.167 HD
ATOM     44  C   UNL     1       1.164   9.233  -9.447  1.00  0.00     0.034 A 
ATOM     45  C   UNL     1       5.745   4.331 -11.535  1.00  0.00     0.034 A 
ATOM     46  C   UNL     1       2.556   9.589  -9.303  1.00  0.00     0.049 A 
ATOM     47  C   UNL     1       6.197   5.673 -11.017  1.00  0.00     0.074 A 
ATOM     48  C   UNL     1       3.102  10.748  -8.777  1.00  0.00     0.029 A 
ATOM     49  N   UNL     1       3.627   8.791  -9.687  1.00  0.00    -0.354 N 
ATOM     50  N   UNL     1       5.471   6.679 -10.584  1.00  0.00    -0.248 NA
ATOM     51  C   UNL     1       7.644   5.915 -10.979  1.00  0.00     0.031 C 
ATOM     52  C   UNL     1       4.494  10.680  -8.906  1.00  0.00     0.029 A 
ATOM     53  C   UNL     1       4.826   9.443  -9.436  1.00  0.00     0.049 A 
ATOM     54  H   UNL     1       3.547   7.892 -10.081  1.00  0.00     0.167 HD
ATOM     55  C   UNL     1       6.379   7.661 -10.196  1.00  0.00     0.074 A 
ATOM     56  C   UNL     1       7.702   7.120 -10.432  1.00  0.00     0.031 C 
ATOM     57  C   UNL     1       6.140   8.897  -9.686  1.00  0.00     0.034 A 
BRANCH  44  58
ATOM     58  C   UNL     1       0.107  10.230  -9.029  1.00  0.00     0.023 A 
ATOM     59  C   UNL     1      -0.824   9.947  -8.014  1.00  0.00     0.031 A 
ATOM     60  C   UNL     1       0.000  11.468  -9.689  1.00  0.00     0.131 A 
ATOM     61  C   UNL     1      -1.867  10.848  -7.748  1.00  0.00     0.055 A 
ATOM     62  C   UNL     1      -0.988  12.398  -9.359  1.00  0.00     0.041 A 
ATOM     63  F   UNL     1       0.845  11.788 -10.681  1.00  0.00    -0.206 F 
ATOM     64  C   UNL     1      -1.940  12.083  -8.396  1.00  0.00     0.022 A 
BRANCH  61  65
ATOM     65  S   UNL     1      -3.219  10.313  -6.662  1.00  0.00     0.124 S 
ATOM     66  O   UNL     1      -3.689   9.112  -7.349  1.00  0.00    -0.237 OA
ATOM     67  O   UNL     1      -2.536  10.097  -5.392  1.00  0.00    -0.237 OA
ATOM     68  O   UNL     1      -4.147  11.441  -6.689  1.00  0.00    -0.744 OA
ENDBRANCH  61  65
ENDBRANCH  44  58
BRANCH  45  69
ATOM     69  C   UNL     1       6.740   3.319 -11.995  1.00  0.00     0.023 A 
ATOM     70  C   UNL     1       7.670   2.757 -11.107  1.00  0.00     0.031 A 
ATOM     71  C   UNL     1       6.807   2.934 -13.347  1.00  0.00     0.131 A 
ATOM     72  C   UNL     1       8.651   1.874 -11.586  1.00  0.00     0.055 A 
ATOM     73  C   UNL     1       7.746   2.010 -13.808  1.00  0.00     0.041 A 
ATOM     74  F   UNL     1       5.947   3.445 -14.243  1.00  0.00    -0.206 F 
ATOM     75  C   UNL     1       8.684   1.484 -12.927  1.00  0.00     0.022 A 
BRANCH  72  76
ATOM     76  S   UNL     1       9.944   1.308 -10.446  1.00  0.00     0.124 S 
ATOM     77  O   UNL     1      10.538   2.570 -10.021  1.00  0.00    -0.237 OA
ATOM     78  O   UNL     1       9.168   0.592  -9.439  1.00  0.00    -0.237 OA
ATOM     79  O   UNL     1      10.795   0.468 -11.287  1.00  0.00    -0.744 OA
ENDBRANCH  72  76
ENDBRANCH  45  69
BRANCH  57  80
ATOM     80  C   UNL     1       7.345   9.722  -9.299  1.00  0.00     0.023 A 
ATOM     81  C   UNL     1       8.252  10.207 -10.257  1.00  0.00     0.031 A 
ATOM     82  C   UNL     1       7.597  10.008  -7.946  1.00  0.00     0.131 A 
ATOM     83  C   UNL     1       9.399  10.902  -9.844  1.00  0.00     0.055 A 
ATOM     84  C   UNL     1       8.707  10.753  -7.545  1.00  0.00     0.041 A 
ATOM     85  F   UNL     1       6.766   9.566  -6.987  1.00  0.00    -0.206 F 
ATOM     86  C   UNL     1       9.623  11.193  -8.496  1.00  0.00     0.022 A 
BRANCH  83  87
ATOM     87  S   UNL     1      10.649  11.340 -11.085  1.00  0.00     0.124 S 
ATOM     88  O   UNL     1      11.000  10.035 -11.636  1.00  0.00    -0.237 OA
ATOM     89  O   UNL     1       9.908  12.229 -11.974  1.00  0.00    -0.237 OA
ATOM     90  O   UNL     1      11.700  11.985 -10.301  1.00  0.00    -0.744 OA
ENDBRANCH  83  87
ENDBRANCH  57  80
ENDBRANCH  31  32
ENDBRANCH  24  26
ENDBRANCH  23  24
ENDBRANCH  22  23
ENDBRANCH   1  22
TORSDOF 18
