REMARK SMILES CC1=C[C@@H]([C@@H]2N=N[C@H](S)N2/N=C/c2ccc(C(=O)OCCOC(=O)c3ccc(-c4c5nc(c(-c6cc(S(=O)(=O)[O-])ccc6F)c6ccc([nH]6)c(-c6cc(S(=O)(=O)[O-])ccc6F)c6nc(c(-c7cc(S(=O)(=O)[O-])ccc7F)c7ccc4[nH]7)C=C6)C=C5)cc3)cc2)N=N1
REMARK SMILES IDX 20 1 19 2 17 3 18 4 16 5 13 6 14 7 89 8 15 9 88 10 12 11
REMARK SMILES IDX 11 12 10 13 5 14 6 15 7 16 8 17 4 18 1 19 2 20 3 21 91 22
REMARK SMILES IDX 90 23 9 24 21 26 22 27 23 28 24 29 25 30 26 31 87 32 27 33
REMARK SMILES IDX 86 34 28 35 29 36 30 37 80 38 31 39 85 40 79 41 81 42 32 43
REMARK SMILES IDX 84 44 78 45 77 46 33 48 65 49 45 50 64 51 46 52 49 53 63 54
REMARK SMILES IDX 82 55 47 56 48 57 62 59 83 60 50 61 34 62 35 63 43 64 36 65
REMARK SMILES IDX 42 66 44 67 41 68 37 69 38 70 39 71 40 72 66 73 67 74 75 75
REMARK SMILES IDX 68 76 74 77 76 78 73 79 69 80 70 81 71 82 72 83 51 84 52 85
REMARK SMILES IDX 60 86 53 87 59 88 61 89 58 90 54 91 55 92 56 93 57 94
REMARK H PARENT 9 25 81 47 49 58
REMARK Flexibility Score: inf
ROOT
ATOM      1  C   UNL     1       3.460  -6.478  11.655  1.00  0.00     0.275 C 
ENDROOT
BRANCH   1   2
ATOM      2  O   UNL     1       2.693  -5.937  10.562  1.00  0.00    -0.458 OA
BRANCH   2   3
ATOM      3  C   UNL     1       2.474  -6.772   9.513  1.00  0.00     0.338 C 
ATOM      4  O   UNL     1       3.015  -7.854   9.326  1.00  0.00    -0.246 OA
BRANCH   3   5
ATOM      5  C   UNL     1       1.391  -6.253   8.636  1.00  0.00     0.060 A 
ATOM      6  C   UNL     1      -0.555  -5.339   6.858  1.00  0.00    -0.005 A 
ATOM      7  C   UNL     1      -0.279  -6.705   6.927  1.00  0.00     0.010 A 
ATOM      8  C   UNL     1       0.080  -4.439   7.719  1.00  0.00     0.010 A 
ATOM      9  C   UNL     1       0.706  -7.159   7.809  1.00  0.00     0.016 A 
ATOM     10  C   UNL     1       1.042  -4.898   8.620  1.00  0.00     0.016 A 
BRANCH   6  11
ATOM     11  C   UNL     1      -1.485  -4.848   5.823  1.00  0.00     0.141 C 
ATOM     12  N   UNL     1      -1.368  -3.644   5.363  1.00  0.00    -0.180 NA
BRANCH  12  13
ATOM     13  N   UNL     1      -2.236  -3.215   4.422  1.00  0.00    -0.233 NA
ATOM     14  C   UNL     1      -1.894  -2.076   3.573  1.00  0.00     0.274 C 
ATOM     15  N   UNL     1      -2.757  -2.138   2.365  1.00  0.00    -0.161 NA
ATOM     16  N   UNL     1      -3.462  -3.176   2.386  1.00  0.00    -0.153 NA
ATOM     17  C   UNL     1      -3.224  -3.941   3.634  1.00  0.00     0.298 C 
BRANCH  14  18
ATOM     18  C   UNL     1      -2.075  -0.739   4.326  1.00  0.00     0.201 C 
ATOM     19  C   UNL     1      -5.297   1.083   4.425  1.00  0.00     0.068 C 
ATOM     20  C   UNL     1      -3.927   0.534   4.278  1.00  0.00     0.058 C 
ATOM     21  C   UNL     1      -3.430  -0.529   4.905  1.00  0.00     0.031 C 
ATOM     22  N   UNL     1      -3.036   1.085   3.392  1.00  0.00    -0.160 NA
ATOM     23  N   UNL     1      -1.960   0.417   3.383  1.00  0.00    -0.177 NA
ENDBRANCH  14  18
BRANCH  17  24
ATOM     24  S   UNL     1      -4.751  -4.218   4.602  1.00  0.00    -0.128 SA
ATOM     25  H   UNL     1      -5.277  -3.020   4.972  1.00  0.00     0.106 HD
ENDBRANCH  17  24
ENDBRANCH  12  13
ENDBRANCH   6  11
ENDBRANCH   3   5
ENDBRANCH   2   3
ENDBRANCH   1   2
BRANCH   1  26
ATOM     26  C   UNL     1       2.571  -7.170  12.681  1.00  0.00     0.275 C 
BRANCH  26  27
ATOM     27  O   UNL     1       2.015  -8.363  12.136  1.00  0.00    -0.458 OA
BRANCH  27  28
ATOM     28  C   UNL     1       0.816  -8.198  11.533  1.00  0.00     0.338 C 
ATOM     29  O   UNL     1       0.265  -7.142  11.268  1.00  0.00    -0.246 OA
BRANCH  28  30
ATOM     30  C   UNL     1       0.153  -9.494  11.401  1.00  0.00     0.060 A 
ATOM     31  C   UNL     1      -1.092  -9.493  10.760  1.00  0.00     0.016 A 
ATOM     32  C   UNL     1       0.563 -10.526  12.253  1.00  0.00     0.016 A 
ATOM     33  C   UNL     1      -2.037 -10.400  11.179  1.00  0.00     0.010 A 
ATOM     34  C   UNL     1      -0.391 -11.396  12.700  1.00  0.00     0.010 A 
ATOM     35  C   UNL     1      -1.696 -11.257  12.224  1.00  0.00    -0.014 A 
BRANCH  35  36
ATOM     36  C   UNL     1      -2.732 -12.051  12.845  1.00  0.00     0.031 A 
ATOM     37  C   UNL     1      -3.013 -13.304  12.110  1.00  0.00     0.074 A 
ATOM     38  C   UNL     1      -3.176 -11.727  14.075  1.00  0.00     0.049 A 
ATOM     39  N   UNL     1      -4.117 -13.692  11.566  1.00  0.00    -0.248 NA
ATOM     40  C   UNL     1      -1.853 -14.151  11.770  1.00  0.00     0.031 C 
ATOM     41  C   UNL     1      -2.671 -10.665  14.955  1.00  0.00     0.029 A 
ATOM     42  N   UNL     1      -4.057 -12.382  14.872  1.00  0.00    -0.354 N 
ATOM     43  C   UNL     1      -3.833 -14.945  11.033  1.00  0.00     0.074 A 
ATOM     44  C   UNL     1      -2.405 -15.035  10.944  1.00  0.00     0.031 C 
ATOM     45  C   UNL     1      -3.055 -10.924  16.225  1.00  0.00     0.029 A 
ATOM     46  C   UNL     1      -3.911 -12.100  16.227  1.00  0.00     0.049 A 
ATOM     47  H   UNL     1      -4.739 -13.000  14.524  1.00  0.00     0.167 HD
ATOM     48  C   UNL     1      -4.767 -15.932  10.997  1.00  0.00     0.034 A 
ATOM     49  C   UNL     1      -4.350 -12.862  17.266  1.00  0.00     0.034 A 
ATOM     50  C   UNL     1      -6.099 -15.391  11.126  1.00  0.00     0.049 A 
ATOM     51  C   UNL     1      -5.364 -13.802  16.713  1.00  0.00     0.074 A 
ATOM     52  C   UNL     1      -6.827 -14.460  10.410  1.00  0.00     0.029 A 
ATOM     53  N   UNL     1      -6.731 -15.496  12.346  1.00  0.00    -0.354 N 
ATOM     54  N   UNL     1      -6.505 -13.416  16.208  1.00  0.00    -0.248 NA
ATOM     55  C   UNL     1      -4.901 -15.105  16.248  1.00  0.00     0.031 C 
ATOM     56  C   UNL     1      -7.525 -13.703  11.395  1.00  0.00     0.029 A 
ATOM     57  C   UNL     1      -7.254 -14.260  12.646  1.00  0.00     0.049 A 
ATOM     58  H   UNL     1      -6.796 -16.307  12.901  1.00  0.00     0.167 HD
ATOM     59  C   UNL     1      -6.685 -14.194  15.072  1.00  0.00     0.074 A 
ATOM     60  C   UNL     1      -5.715 -15.280  15.202  1.00  0.00     0.031 C 
ATOM     61  C   UNL     1      -7.383 -13.728  13.992  1.00  0.00     0.034 A 
BRANCH  48  62
ATOM     62  C   UNL     1      -4.446 -17.395  11.206  1.00  0.00     0.023 A 
ATOM     63  C   UNL     1      -5.499 -18.312  11.057  1.00  0.00     0.031 A 
ATOM     64  C   UNL     1      -3.260 -17.912  11.787  1.00  0.00     0.131 A 
ATOM     65  C   UNL     1      -5.380 -19.629  11.534  1.00  0.00     0.055 A 
ATOM     66  C   UNL     1      -3.121 -19.242  12.188  1.00  0.00     0.041 A 
ATOM     67  F   UNL     1      -2.204 -17.152  12.097  1.00  0.00    -0.206 F 
ATOM     68  C   UNL     1      -4.196 -20.103  12.091  1.00  0.00     0.022 A 
BRANCH  65  69
ATOM     69  S   UNL     1      -6.865 -20.660  11.579  1.00  0.00     0.124 S 
ATOM     70  O   UNL     1      -7.812 -19.787  12.265  1.00  0.00    -0.237 OA
ATOM     71  O   UNL     1      -7.110 -20.891  10.160  1.00  0.00    -0.237 OA
ATOM     72  O   UNL     1      -6.438 -21.833  12.339  1.00  0.00    -0.744 OA
ENDBRANCH  65  69
ENDBRANCH  48  62
BRANCH  49  73
ATOM     73  C   UNL     1      -3.639 -13.068  18.563  1.00  0.00     0.023 A 
ATOM     74  C   UNL     1      -4.287 -13.485  19.744  1.00  0.00     0.031 A 
ATOM     75  C   UNL     1      -2.224 -13.041  18.598  1.00  0.00     0.131 A 
ATOM     76  C   UNL     1      -3.527 -13.827  20.892  1.00  0.00     0.055 A 
ATOM     77  C   UNL     1      -1.481 -13.364  19.735  1.00  0.00     0.041 A 
ATOM     78  F   UNL     1      -1.505 -12.774  17.496  1.00  0.00    -0.206 F 
ATOM     79  C   UNL     1      -2.132 -13.764  20.889  1.00  0.00     0.022 A 
BRANCH  76  80
ATOM     80  S   UNL     1      -4.349 -14.443  22.398  1.00  0.00     0.124 S 
ATOM     81  O   UNL     1      -5.102 -13.277  22.842  1.00  0.00    -0.237 OA
ATOM     82  O   UNL     1      -5.129 -15.566  21.891  1.00  0.00    -0.237 OA
ATOM     83  O   UNL     1      -3.232 -14.819  23.268  1.00  0.00    -0.744 OA
ENDBRANCH  76  80
ENDBRANCH  49  73
BRANCH  61  84
ATOM     84  C   UNL     1      -8.168 -12.436  14.142  1.00  0.00     0.023 A 
ATOM     85  C   UNL     1      -7.605 -11.188  14.502  1.00  0.00     0.031 A 
ATOM     86  C   UNL     1      -9.521 -12.450  13.762  1.00  0.00     0.131 A 
ATOM     87  C   UNL     1      -8.396 -10.022  14.481  1.00  0.00     0.055 A 
ATOM     88  C   UNL     1     -10.295 -11.291  13.722  1.00  0.00     0.041 A 
ATOM     89  F   UNL     1     -10.107 -13.597  13.378  1.00  0.00    -0.206 F 
ATOM     90  C   UNL     1      -9.737 -10.072  14.087  1.00  0.00     0.022 A 
BRANCH  87  91
ATOM     91  S   UNL     1      -7.698  -8.412  14.975  1.00  0.00     0.124 S 
ATOM     92  O   UNL     1      -6.998  -8.710  16.219  1.00  0.00    -0.237 OA
ATOM     93  O   UNL     1      -6.856  -8.069  13.832  1.00  0.00    -0.237 OA
ATOM     94  O   UNL     1      -8.881  -7.563  15.132  1.00  0.00    -0.744 OA
ENDBRANCH  87  91
ENDBRANCH  61  84
ENDBRANCH  35  36
ENDBRANCH  28  30
ENDBRANCH  27  28
ENDBRANCH  26  27
ENDBRANCH   1  26
TORSDOF 18
