REMARK SMILES O=C(C[C@@H]([NH2+]Cc1ccccc1)C(=O)OCCOC(=O)c1ccc(-c2c3nc(c(-c4cc(S(=O)(=O)[O-])ccc4F)c4ccc([nH]4)c(-c4cc(S(=O)(=O)[O-])ccc4F)c4nc(c(-c5cc(S(=O)(=O)[O-])ccc5F)c5ccc2[nH]5)C=C4)C=C3)cc1)Nc1cccc(Cl)c1Cl
REMARK SMILES IDX 16 1 15 2 13 3 14 4 4 5 3 6 2 7 1 8 84 9 85 11 86 12 91 13
REMARK SMILES IDX 87 14 89 15 92 16 88 17 90 18 5 19 6 22 7 23 8 24 12 25 9 26
REMARK SMILES IDX 11 27 10 28 17 29 18 30 19 31 20 32 21 33 22 34 83 35 23 36
REMARK SMILES IDX 82 37 24 38 25 39 26 40 76 41 27 42 81 43 75 44 77 45 28 46
REMARK SMILES IDX 80 47 74 48 73 49 29 51 61 52 41 53 60 54 42 55 45 56 59 57
REMARK SMILES IDX 78 58 43 59 44 60 58 62 79 63 46 64 30 65 31 66 39 67 32 68
REMARK SMILES IDX 38 69 40 70 37 71 33 72 34 73 35 74 36 75 62 76 63 77 71 78
REMARK SMILES IDX 64 79 70 80 72 81 69 82 65 83 66 84 67 85 68 86 47 87 48 88
REMARK SMILES IDX 56 89 49 90 55 91 57 92 54 93 50 94 51 95 52 96 53 97
REMARK H PARENT 84 10 5 20 5 21 77 50 45 61
REMARK Flexibility Score: inf
ROOT
ATOM      1  C   UNL     1       6.000   4.255   0.229  1.00  0.00     0.274 C 
ENDROOT
BRANCH   1   2
ATOM      2  O   UNL     1       5.375   2.961   0.118  1.00  0.00    -0.458 OA
BRANCH   2   3
ATOM      3  C   UNL     1       5.178   2.314   1.300  1.00  0.00     0.365 C 
ATOM      4  O   UNL     1       5.560   2.763   2.376  1.00  0.00    -0.245 OA
BRANCH   3   5
ATOM      5  C   UNL     1       4.442   0.965   1.159  1.00  0.00     0.303 C 
BRANCH   5   6
ATOM      6  C   UNL     1       3.709   0.854  -0.189  1.00  0.00     0.177 C 
BRANCH   6   7
ATOM      7  C   UNL     1       2.648  -0.222  -0.150  1.00  0.00     0.231 C 
ATOM      8  O   UNL     1       1.493   0.021   0.178  1.00  0.00    -0.274 OA
ATOM      9  N   UNL     1       3.162  -1.486  -0.397  1.00  0.00    -0.325 N 
ATOM     10  H   UNL     1       4.125  -1.566  -0.581  1.00  0.00     0.169 HD
BRANCH   9  11
ATOM     11  C   UNL     1       2.384  -2.664  -0.400  1.00  0.00     0.061 A 
ATOM     12  C   UNL     1       2.889  -3.730   0.360  1.00  0.00     0.028 A 
ATOM     13  C   UNL     1       1.191  -2.833  -1.135  1.00  0.00     0.083 A 
ATOM     14  C   UNL     1       2.188  -4.931   0.455  1.00  0.00     0.004 A 
ATOM     15  C   UNL     1       0.505  -4.057  -1.050  1.00  0.00     0.061 A 
ATOM     16  Cl  UNL     1       0.687  -1.642  -2.297  1.00  0.00    -0.080 Cl
ATOM     17  C   UNL     1       0.995  -5.092  -0.245  1.00  0.00     0.022 A 
ATOM     18  Cl  UNL     1      -0.931  -4.392  -1.959  1.00  0.00    -0.083 Cl
ENDBRANCH   9  11
ENDBRANCH   6   7
ENDBRANCH   5   6
BRANCH   5  19
ATOM     19  N   UNL     1       5.333  -0.226   1.361  1.00  0.00    -0.330 N 
ATOM     20  H   UNL     1       5.978  -0.279   0.572  1.00  0.00     0.347 HD
ATOM     21  H   UNL     1       4.721  -1.039   1.431  1.00  0.00     0.347 HD
BRANCH  19  22
ATOM     22  C   UNL     1       6.128  -0.190   2.605  1.00  0.00     0.298 C 
BRANCH  22  23
ATOM     23  C   UNL     1       5.302  -0.315   3.864  1.00  0.00     0.006 A 
ATOM     24  C   UNL     1       5.177   0.770   4.742  1.00  0.00     0.009 A 
ATOM     25  C   UNL     1       4.645  -1.514   4.181  1.00  0.00     0.009 A 
ATOM     26  C   UNL     1       4.401   0.667   5.896  1.00  0.00     0.001 A 
ATOM     27  C   UNL     1       3.867  -1.613   5.337  1.00  0.00     0.001 A 
ATOM     28  C   UNL     1       3.739  -0.520   6.191  1.00  0.00     0.000 A 
ENDBRANCH  22  23
ENDBRANCH  19  22
ENDBRANCH   5  19
ENDBRANCH   3   5
ENDBRANCH   2   3
ENDBRANCH   1   2
BRANCH   1  29
ATOM     29  C   UNL     1       4.987   5.404   0.339  1.00  0.00     0.275 C 
BRANCH  29  30
ATOM     30  O   UNL     1       4.203   5.358   1.547  1.00  0.00    -0.458 OA
BRANCH  30  31
ATOM     31  C   UNL     1       3.037   4.671   1.440  1.00  0.00     0.338 C 
ATOM     32  O   UNL     1       2.619   4.122   0.434  1.00  0.00    -0.246 OA
BRANCH  31  33
ATOM     33  C   UNL     1       2.387   4.531   2.757  1.00  0.00     0.060 A 
ATOM     34  C   UNL     1       2.022   3.245   3.164  1.00  0.00     0.016 A 
ATOM     35  C   UNL     1       2.063   5.636   3.548  1.00  0.00     0.016 A 
ATOM     36  C   UNL     1       1.355   3.049   4.371  1.00  0.00     0.010 A 
ATOM     37  C   UNL     1       1.363   5.442   4.747  1.00  0.00     0.010 A 
ATOM     38  C   UNL     1       1.003   4.148   5.161  1.00  0.00    -0.014 A 
BRANCH  38  39
ATOM     39  C   UNL     1       0.184   3.925   6.377  1.00  0.00     0.031 A 
ATOM     40  C   UNL     1      -1.306   4.081   6.303  1.00  0.00     0.074 A 
ATOM     41  C   UNL     1       0.771   3.520   7.518  1.00  0.00     0.049 A 
ATOM     42  N   UNL     1      -2.199   3.966   7.252  1.00  0.00    -0.248 NA
ATOM     43  C   UNL     1      -1.862   4.416   4.985  1.00  0.00     0.031 C 
ATOM     44  C   UNL     1       2.204   3.284   7.679  1.00  0.00     0.029 A 
ATOM     45  N   UNL     1       0.243   3.223   8.748  1.00  0.00    -0.354 N 
ATOM     46  C   UNL     1      -3.425   4.227   6.651  1.00  0.00     0.074 A 
ATOM     47  C   UNL     1      -3.155   4.522   5.258  1.00  0.00     0.031 C 
ATOM     48  C   UNL     1       2.440   2.853   8.929  1.00  0.00     0.029 A 
ATOM     49  C   UNL     1       1.185   2.845   9.678  1.00  0.00     0.049 A 
ATOM     50  H   UNL     1      -0.720   3.276   8.948  1.00  0.00     0.167 HD
ATOM     51  C   UNL     1      -4.659   4.227   7.215  1.00  0.00     0.034 A 
ATOM     52  C   UNL     1       1.051   2.559  10.989  1.00  0.00     0.034 A 
ATOM     53  C   UNL     1      -4.902   3.945   8.610  1.00  0.00     0.049 A 
ATOM     54  C   UNL     1      -0.324   2.641  11.609  1.00  0.00     0.074 A 
ATOM     55  C   UNL     1      -6.105   3.943   9.294  1.00  0.00     0.029 A 
ATOM     56  N   UNL     1      -3.919   3.623   9.540  1.00  0.00    -0.354 N 
ATOM     57  N   UNL     1      -1.472   2.927  11.040  1.00  0.00    -0.248 NA
ATOM     58  C   UNL     1      -0.418   2.372  13.050  1.00  0.00     0.031 C 
ATOM     59  C   UNL     1      -5.843   3.685  10.645  1.00  0.00     0.029 A 
ATOM     60  C   UNL     1      -4.486   3.450  10.794  1.00  0.00     0.049 A 
ATOM     61  H   UNL     1      -2.960   3.531   9.337  1.00  0.00     0.167 HD
ATOM     62  C   UNL     1      -2.426   2.856  12.051  1.00  0.00     0.074 A 
ATOM     63  C   UNL     1      -1.722   2.475  13.259  1.00  0.00     0.031 C 
ATOM     64  C   UNL     1      -3.763   3.086  11.991  1.00  0.00     0.034 A 
BRANCH  51  65
ATOM     65  C   UNL     1      -5.819   4.620   6.334  1.00  0.00     0.023 A 
ATOM     66  C   UNL     1      -6.222   3.838   5.238  1.00  0.00     0.031 A 
ATOM     67  C   UNL     1      -6.507   5.824   6.573  1.00  0.00     0.131 A 
ATOM     68  C   UNL     1      -7.237   4.300   4.385  1.00  0.00     0.055 A 
ATOM     69  C   UNL     1      -7.564   6.242   5.764  1.00  0.00     0.041 A 
ATOM     70  F   UNL     1      -6.150   6.624   7.590  1.00  0.00    -0.206 F 
ATOM     71  C   UNL     1      -7.926   5.486   4.653  1.00  0.00     0.022 A 
BRANCH  68  72
ATOM     72  S   UNL     1      -7.554   3.401   2.841  1.00  0.00     0.124 S 
ATOM     73  O   UNL     1      -6.255   3.486   2.180  1.00  0.00    -0.237 OA
ATOM     74  O   UNL     1      -7.946   2.081   3.320  1.00  0.00    -0.237 OA
ATOM     75  O   UNL     1      -8.620   4.176   2.207  1.00  0.00    -0.744 OA
ENDBRANCH  68  72
ENDBRANCH  51  65
BRANCH  52  76
ATOM     76  C   UNL     1       2.244   2.231  11.824  1.00  0.00     0.023 A 
ATOM     77  C   UNL     1       2.361   0.992  12.474  1.00  0.00     0.031 A 
ATOM     78  C   UNL     1       3.258   3.183  12.037  1.00  0.00     0.131 A 
ATOM     79  C   UNL     1       3.441   0.754  13.339  1.00  0.00     0.055 A 
ATOM     80  C   UNL     1       4.360   2.920  12.852  1.00  0.00     0.041 A 
ATOM     81  F   UNL     1       3.195   4.387  11.447  1.00  0.00    -0.206 F 
ATOM     82  C   UNL     1       4.449   1.704  13.521  1.00  0.00     0.022 A 
BRANCH  79  83
ATOM     83  S   UNL     1       3.463  -0.784  14.302  1.00  0.00     0.124 S 
ATOM     84  O   UNL     1       2.205  -0.694  15.034  1.00  0.00    -0.237 OA
ATOM     85  O   UNL     1       3.525  -1.797  13.254  1.00  0.00    -0.237 OA
ATOM     86  O   UNL     1       4.670  -0.658  15.117  1.00  0.00    -0.744 OA
ENDBRANCH  79  83
ENDBRANCH  52  76
BRANCH  64  87
ATOM     87  C   UNL     1      -4.547   2.893  13.267  1.00  0.00     0.023 A 
ATOM     88  C   UNL     1      -4.382   3.746  14.373  1.00  0.00     0.031 A 
ATOM     89  C   UNL     1      -5.461   1.831  13.380  1.00  0.00     0.131 A 
ATOM     90  C   UNL     1      -5.081   3.490  15.563  1.00  0.00     0.055 A 
ATOM     91  C   UNL     1      -6.197   1.616  14.547  1.00  0.00     0.041 A 
ATOM     92  F   UNL     1      -5.656   0.985  12.356  1.00  0.00    -0.206 F 
ATOM     93  C   UNL     1      -5.999   2.440  15.651  1.00  0.00     0.022 A 
BRANCH  90  94
ATOM     94  S   UNL     1      -4.711   4.497  17.026  1.00  0.00     0.124 S 
ATOM     95  O   UNL     1      -3.283   4.256  17.207  1.00  0.00    -0.237 OA
ATOM     96  O   UNL     1      -5.082   5.838  16.586  1.00  0.00    -0.237 OA
ATOM     97  O   UNL     1      -5.572   3.926  18.061  1.00  0.00    -0.744 OA
ENDBRANCH  90  94
ENDBRANCH  64  87
ENDBRANCH  38  39
ENDBRANCH  31  33
ENDBRANCH  30  31
ENDBRANCH  29  30
ENDBRANCH   1  29
TORSDOF 20
