REMARK SMILES CCCN(C(=O)Cc1c(C(=O)OCCOC(=O)c2ccc(-c3c4nc(c(-c5cc(S(=O)(=O)[O-])ccc5F)c5ccc([nH]5)c(-c5cc(S(=O)(=O)[O-])ccc5F)c5nc(c(-c6cc(S(=O)(=O)[O-])ccc6F)c6ccc3[nH]6)C=C5)C=C4)cc2)c(C)cn1CC)c1cccc(Cl)c1
REMARK SMILES IDX 13 1 12 2 10 3 11 4 9 5 8 6 84 7 81 8 83 9 82 10 7 11 5 12
REMARK SMILES IDX 6 13 4 14 3 15 2 16 1 17 87 18 88 19 93 20 89 21 91 22 90 23
REMARK SMILES IDX 92 24 85 25 86 26 14 27 15 28 16 29 17 30 18 31 19 32 80 33
REMARK SMILES IDX 20 34 79 35 21 36 22 37 23 38 73 39 24 40 78 41 72 42 74 43
REMARK SMILES IDX 25 44 77 45 71 46 70 47 26 49 58 50 38 51 57 52 39 53 42 54
REMARK SMILES IDX 56 55 75 56 40 57 41 58 55 60 76 61 43 62 27 63 28 64 36 65
REMARK SMILES IDX 29 66 35 67 37 68 34 69 30 70 31 71 32 72 33 73 59 74 60 75
REMARK SMILES IDX 68 76 61 77 67 78 69 79 66 80 62 81 63 82 64 83 65 84 44 85
REMARK SMILES IDX 45 86 53 87 46 88 52 89 54 90 51 91 47 92 48 93 49 94 50 95
REMARK H PARENT 74 48 42 59
REMARK Flexibility Score: inf
ROOT
ATOM      1  C   UNL     1      -3.573  -1.183  -0.924  1.00  0.00     0.275 C 
ENDROOT
BRANCH   1   2
ATOM      2  O   UNL     1      -3.256   0.219  -0.967  1.00  0.00    -0.458 OA
BRANCH   2   3
ATOM      3  C   UNL     1      -2.235   0.525  -1.828  1.00  0.00     0.340 C 
ATOM      4  O   UNL     1      -1.579  -0.343  -2.375  1.00  0.00    -0.246 OA
BRANCH   3   5
ATOM      5  C   UNL     1      -1.991   1.969  -2.008  1.00  0.00     0.084 A 
ATOM      6  C   UNL     1      -1.089   2.558  -2.916  1.00  0.00     0.042 A 
ATOM      7  N   UNL     1      -1.196   3.931  -2.762  1.00  0.00    -0.350 N 
ATOM      8  C   UNL     1      -2.537   3.039  -1.214  1.00  0.00    -0.019 A 
ATOM      9  C   UNL     1      -2.017   4.216  -1.705  1.00  0.00     0.090 A 
ATOM     10  C   UNL     1      -3.465   2.918  -0.058  1.00  0.00     0.047 C 
BRANCH   6  11
ATOM     11  C   UNL     1      -0.181   1.995  -3.978  1.00  0.00     0.155 C 
BRANCH  11  12
ATOM     12  C   UNL     1       0.334   0.572  -3.856  1.00  0.00     0.232 C 
ATOM     13  O   UNL     1       0.087  -0.142  -4.839  1.00  0.00    -0.274 OA
BRANCH  12  14
ATOM     14  N   UNL     1       1.107   0.156  -2.734  1.00  0.00    -0.312 N 
BRANCH  14  15
ATOM     15  C   UNL     1       1.649   1.112  -1.731  1.00  0.00     0.125 C 
BRANCH  15  16
ATOM     16  C   UNL     1       0.877   1.484  -0.440  1.00  0.00     0.019 C 
ATOM     17  C   UNL     1       0.822   0.534   0.744  1.00  0.00     0.006 C 
ENDBRANCH  15  16
ENDBRANCH  14  15
BRANCH  14  18
ATOM     18  C   UNL     1       1.403  -1.269  -2.572  1.00  0.00     0.045 A 
ATOM     19  C   UNL     1       1.310  -2.201  -3.621  1.00  0.00     0.026 A 
ATOM     20  C   UNL     1       1.715  -1.807  -1.322  1.00  0.00     0.046 A 
ATOM     21  C   UNL     1       1.354  -3.586  -3.406  1.00  0.00     0.004 A 
ATOM     22  C   UNL     1       1.694  -3.186  -1.084  1.00  0.00     0.043 A 
ATOM     23  C   UNL     1       1.495  -4.082  -2.121  1.00  0.00     0.020 A 
ATOM     24  Cl  UNL     1       1.865  -3.768   0.529  1.00  0.00    -0.084 Cl
ENDBRANCH  14  18
ENDBRANCH  12  14
ENDBRANCH  11  12
ENDBRANCH   6  11
BRANCH   7  25
ATOM     25  C   UNL     1      -0.636   4.969  -3.622  1.00  0.00     0.118 C 
ATOM     26  C   UNL     1       0.866   5.182  -3.482  1.00  0.00     0.027 C 
ENDBRANCH   7  25
ENDBRANCH   3   5
ENDBRANCH   2   3
ENDBRANCH   1   2
BRANCH   1  27
ATOM     27  C   UNL     1      -4.519  -1.592  -2.048  1.00  0.00     0.275 C 
BRANCH  27  28
ATOM     28  O   UNL     1      -3.915  -1.524  -3.340  1.00  0.00    -0.458 OA
BRANCH  28  29
ATOM     29  C   UNL     1      -4.082  -0.354  -4.003  1.00  0.00     0.338 C 
ATOM     30  O   UNL     1      -4.446   0.708  -3.522  1.00  0.00    -0.246 OA
BRANCH  29  31
ATOM     31  C   UNL     1      -3.978  -0.591  -5.448  1.00  0.00     0.060 A 
ATOM     32  C   UNL     1      -4.136   0.507  -6.299  1.00  0.00     0.016 A 
ATOM     33  C   UNL     1      -4.018  -1.906  -5.932  1.00  0.00     0.016 A 
ATOM     34  C   UNL     1      -4.517   0.277  -7.608  1.00  0.00     0.010 A 
ATOM     35  C   UNL     1      -4.422  -2.132  -7.228  1.00  0.00     0.010 A 
ATOM     36  C   UNL     1      -4.739  -1.040  -8.030  1.00  0.00    -0.014 A 
BRANCH  36  37
ATOM     37  C   UNL     1      -5.164  -1.276  -9.396  1.00  0.00     0.031 A 
ATOM     38  C   UNL     1      -4.071  -1.050 -10.369  1.00  0.00     0.074 A 
ATOM     39  C   UNL     1      -6.381  -1.752  -9.731  1.00  0.00     0.049 A 
ATOM     40  N   UNL     1      -3.965  -0.067 -11.197  1.00  0.00    -0.248 NA
ATOM     41  C   UNL     1      -2.862  -1.886 -10.278  1.00  0.00     0.031 C 
ATOM     42  C   UNL     1      -7.452  -2.226  -8.854  1.00  0.00     0.029 A 
ATOM     43  N   UNL     1      -6.890  -1.983 -10.973  1.00  0.00    -0.354 N 
ATOM     44  C   UNL     1      -2.792  -0.294 -11.905  1.00  0.00     0.074 A 
ATOM     45  C   UNL     1      -2.064  -1.287 -11.163  1.00  0.00     0.031 C 
ATOM     46  C   UNL     1      -8.380  -2.886  -9.591  1.00  0.00     0.029 A 
ATOM     47  C   UNL     1      -8.040  -2.770 -11.002  1.00  0.00     0.049 A 
ATOM     48  H   UNL     1      -6.477  -1.621 -11.789  1.00  0.00     0.167 HD
ATOM     49  C   UNL     1      -2.647   0.176 -13.173  1.00  0.00     0.034 A 
ATOM     50  C   UNL     1      -8.638  -3.313 -12.103  1.00  0.00     0.034 A 
ATOM     51  C   UNL     1      -3.631   1.196 -13.460  1.00  0.00     0.049 A 
ATOM     52  C   UNL     1      -8.198  -2.497 -13.265  1.00  0.00     0.074 A 
ATOM     53  C   UNL     1      -3.929   2.429 -12.912  1.00  0.00     0.029 A 
ATOM     54  N   UNL     1      -4.750   0.825 -14.173  1.00  0.00    -0.354 N 
ATOM     55  N   UNL     1      -8.541  -1.247 -13.420  1.00  0.00    -0.248 NA
ATOM     56  C   UNL     1      -6.974  -2.889 -13.951  1.00  0.00     0.031 C 
ATOM     57  C   UNL     1      -5.354   2.486 -12.896  1.00  0.00     0.029 A 
ATOM     58  C   UNL     1      -5.846   1.338 -13.521  1.00  0.00     0.049 A 
ATOM     59  H   UNL     1      -4.763   0.290 -14.999  1.00  0.00     0.167 HD
ATOM     60  C   UNL     1      -7.379  -0.603 -13.818  1.00  0.00     0.074 A 
ATOM     61  C   UNL     1      -6.468  -1.679 -14.214  1.00  0.00     0.031 C 
ATOM     62  C   UNL     1      -7.156   0.711 -13.515  1.00  0.00     0.034 A 
BRANCH  49  63
ATOM     63  C   UNL     1      -1.886  -0.534 -14.266  1.00  0.00     0.023 A 
ATOM     64  C   UNL     1      -1.812   0.106 -15.516  1.00  0.00     0.031 A 
ATOM     65  C   UNL     1      -1.504  -1.895 -14.245  1.00  0.00     0.131 A 
ATOM     66  C   UNL     1      -1.480  -0.614 -16.675  1.00  0.00     0.055 A 
ATOM     67  C   UNL     1      -1.107  -2.589 -15.390  1.00  0.00     0.041 A 
ATOM     68  F   UNL     1      -1.585  -2.657 -13.149  1.00  0.00    -0.206 F 
ATOM     69  C   UNL     1      -1.126  -1.959 -16.621  1.00  0.00     0.022 A 
BRANCH  66  70
ATOM     70  S   UNL     1      -1.695   0.198 -18.279  1.00  0.00     0.124 S 
ATOM     71  O   UNL     1      -3.099   0.593 -18.224  1.00  0.00    -0.237 OA
ATOM     72  O   UNL     1      -0.718   1.278 -18.203  1.00  0.00    -0.237 OA
ATOM     73  O   UNL     1      -1.382  -0.860 -19.238  1.00  0.00    -0.744 OA
ENDBRANCH  66  70
ENDBRANCH  49  63
BRANCH  50  74
ATOM     74  C   UNL     1      -9.245  -4.674 -12.243  1.00  0.00     0.023 A 
ATOM     75  C   UNL     1     -10.115  -5.045 -13.299  1.00  0.00     0.031 A 
ATOM     76  C   UNL     1      -8.749  -5.729 -11.444  1.00  0.00     0.131 A 
ATOM     77  C   UNL     1     -10.448  -6.410 -13.511  1.00  0.00     0.055 A 
ATOM     78  C   UNL     1      -9.075  -7.070 -11.661  1.00  0.00     0.041 A 
ATOM     79  F   UNL     1      -7.853  -5.500 -10.471  1.00  0.00    -0.206 F 
ATOM     80  C   UNL     1      -9.919  -7.418 -12.702  1.00  0.00     0.022 A 
BRANCH  77  81
ATOM     81  S   UNL     1     -11.522  -6.921 -14.900  1.00  0.00     0.124 S 
ATOM     82  O   UNL     1     -12.813  -6.361 -14.520  1.00  0.00    -0.237 OA
ATOM     83  O   UNL     1     -10.862  -6.314 -16.050  1.00  0.00    -0.237 OA
ATOM     84  O   UNL     1     -11.457  -8.384 -14.864  1.00  0.00    -0.744 OA
ENDBRANCH  77  81
ENDBRANCH  50  74
BRANCH  62  85
ATOM     85  C   UNL     1      -8.309   1.529 -12.960  1.00  0.00     0.023 A 
ATOM     86  C   UNL     1      -9.036   1.226 -11.784  1.00  0.00     0.031 A 
ATOM     87  C   UNL     1      -8.600   2.742 -13.609  1.00  0.00     0.131 A 
ATOM     88  C   UNL     1     -10.019   2.122 -11.312  1.00  0.00     0.055 A 
ATOM     89  C   UNL     1      -9.552   3.636 -13.124  1.00  0.00     0.041 A 
ATOM     90  F   UNL     1      -7.930   3.099 -14.717  1.00  0.00    -0.206 F 
ATOM     91  C   UNL     1     -10.271   3.326 -11.977  1.00  0.00     0.022 A 
BRANCH  88  92
ATOM     92  S   UNL     1     -11.015   1.730  -9.834  1.00  0.00     0.124 S 
ATOM     93  O   UNL     1     -11.450   0.359 -10.069  1.00  0.00    -0.237 OA
ATOM     94  O   UNL     1     -10.058   1.921  -8.747  1.00  0.00    -0.237 OA
ATOM     95  O   UNL     1     -12.090   2.724  -9.875  1.00  0.00    -0.744 OA
ENDBRANCH  88  92
ENDBRANCH  62  85
ENDBRANCH  36  37
ENDBRANCH  29  31
ENDBRANCH  28  29
ENDBRANCH  27  28
ENDBRANCH   1  27
TORSDOF 21
