REMARK SMILES O=C(OCCOC(=O)[C@H]1[C@@H](C(=O)NNC(=O)c2ccccc2Cl)[C@H]2C=C[C@@H]1C2)c1ccc(-c2c3nc(c(-c4cc(S(=O)(=O)[O-])ccc4F)c4ccc([nH]4)c(-c4cc(S(=O)(=O)[O-])ccc4F)c4nc(c(-c5cc(S(=O)(=O)[O-])ccc5F)c5ccc2[nH]5)C=C4)C=C3)cc1
REMARK SMILES IDX 4 1 3 2 2 3 1 4 29 5 30 6 91 7 31 8 90 9 32 10 33 11 34 12
REMARK SMILES IDX 84 13 35 14 89 15 83 16 85 17 36 18 88 19 82 20 81 21 37 23
REMARK SMILES IDX 69 24 49 25 68 26 50 27 53 28 67 29 86 30 51 31 52 32 66 34
REMARK SMILES IDX 87 35 54 36 38 37 39 38 47 39 40 40 46 41 48 42 45 43 41 44
REMARK SMILES IDX 42 45 43 46 44 47 70 48 71 49 79 50 72 51 78 52 80 53 77 54
REMARK SMILES IDX 73 55 74 56 75 57 76 58 55 59 56 60 64 61 57 62 63 63 65 64
REMARK SMILES IDX 62 65 58 66 59 67 60 68 61 69 5 70 6 71 7 72 8 73 9 74 10 75
REMARK SMILES IDX 27 76 24 77 26 78 28 79 25 80 11 81 12 82 13 83 14 85 15 86
REMARK SMILES IDX 16 88 17 89 18 90 22 91 19 92 21 93 23 94 20 95
REMARK H PARENT 85 22 53 33 13 84 14 87
REMARK Flexibility Score: inf
ROOT
ATOM      1  C   UNL     1      -1.648  -1.093   0.440  1.00  0.00     0.275 C 
ENDROOT
BRANCH   1   2
ATOM      2  O   UNL     1      -0.692  -1.746  -0.423  1.00  0.00    -0.458 OA
BRANCH   2   3
ATOM      3  C   UNL     1       0.614  -1.499  -0.685  1.00  0.00     0.338 C 
ATOM      4  O   UNL     1       1.215  -2.309  -1.393  1.00  0.00    -0.246 OA
BRANCH   3   5
ATOM      5  C   UNL     1       1.417  -0.362  -0.119  1.00  0.00     0.060 A 
ATOM      6  C   UNL     1       0.906   0.802   0.453  1.00  0.00     0.016 A 
ATOM      7  C   UNL     1       2.825  -0.497  -0.157  1.00  0.00     0.016 A 
ATOM      8  C   UNL     1       1.752   1.755   1.036  1.00  0.00     0.010 A 
ATOM      9  C   UNL     1       3.678   0.459   0.419  1.00  0.00     0.010 A 
ATOM     10  C   UNL     1       3.139   1.592   1.031  1.00  0.00    -0.014 A 
BRANCH  10  11
ATOM     11  C   UNL     1       3.979   2.710   1.529  1.00  0.00     0.031 A 
ATOM     12  C   UNL     1       4.375   3.771   0.556  1.00  0.00     0.074 A 
ATOM     13  C   UNL     1       4.260   2.847   2.839  1.00  0.00     0.049 A 
ATOM     14  N   UNL     1       4.983   4.903   0.778  1.00  0.00    -0.248 NA
ATOM     15  C   UNL     1       4.024   3.527  -0.851  1.00  0.00     0.031 C 
ATOM     16  C   UNL     1       3.879   1.882   3.856  1.00  0.00     0.029 A 
ATOM     17  N   UNL     1       4.892   3.833   3.551  1.00  0.00    -0.354 N 
ATOM     18  C   UNL     1       5.046   5.534  -0.455  1.00  0.00     0.074 A 
ATOM     19  C   UNL     1       4.470   4.631  -1.428  1.00  0.00     0.031 C 
ATOM     20  C   UNL     1       4.239   2.327   5.070  1.00  0.00     0.029 A 
ATOM     21  C   UNL     1       4.939   3.597   4.911  1.00  0.00     0.049 A 
ATOM     22  H   UNL     1       5.278   4.636   3.132  1.00  0.00     0.167 HD
ATOM     23  C   UNL     1       5.527   6.766  -0.741  1.00  0.00     0.034 A 
ATOM     24  C   UNL     1       5.504   4.317   5.904  1.00  0.00     0.034 A 
ATOM     25  C   UNL     1       6.166   7.613   0.232  1.00  0.00     0.049 A 
ATOM     26  C   UNL     1       6.167   5.622   5.527  1.00  0.00     0.074 A 
ATOM     27  C   UNL     1       6.785   8.834   0.041  1.00  0.00     0.029 A 
ATOM     28  N   UNL     1       6.284   7.313   1.586  1.00  0.00    -0.354 N 
ATOM     29  N   UNL     1       6.231   6.203   4.349  1.00  0.00    -0.248 NA
ATOM     30  C   UNL     1       6.828   6.370   6.602  1.00  0.00     0.031 C 
ATOM     31  C   UNL     1       7.333   9.240   1.263  1.00  0.00     0.029 A 
ATOM     32  C   UNL     1       6.990   8.313   2.235  1.00  0.00     0.049 A 
ATOM     33  H   UNL     1       5.920   6.508   2.019  1.00  0.00     0.167 HD
ATOM     34  C   UNL     1       6.916   7.397   4.550  1.00  0.00     0.074 A 
ATOM     35  C   UNL     1       7.213   7.466   5.967  1.00  0.00     0.031 C 
ATOM     36  C   UNL     1       7.278   8.348   3.651  1.00  0.00     0.034 A 
BRANCH  23  37
ATOM     37  C   UNL     1       5.428   7.201  -2.177  1.00  0.00     0.023 A 
ATOM     38  C   UNL     1       4.179   7.420  -2.786  1.00  0.00     0.031 A 
ATOM     39  C   UNL     1       6.581   7.302  -2.971  1.00  0.00     0.131 A 
ATOM     40  C   UNL     1       4.109   7.655  -4.167  1.00  0.00     0.055 A 
ATOM     41  C   UNL     1       6.509   7.613  -4.329  1.00  0.00     0.041 A 
ATOM     42  F   UNL     1       7.794   7.065  -2.447  1.00  0.00    -0.206 F 
ATOM     43  C   UNL     1       5.267   7.777  -4.938  1.00  0.00     0.022 A 
BRANCH  40  44
ATOM     44  S   UNL     1       2.481   7.653  -4.966  1.00  0.00     0.124 S 
ATOM     45  O   UNL     1       2.030   6.287  -4.712  1.00  0.00    -0.237 OA
ATOM     46  O   UNL     1       1.771   8.703  -4.244  1.00  0.00    -0.237 OA
ATOM     47  O   UNL     1       2.785   7.953  -6.363  1.00  0.00    -0.744 OA
ENDBRANCH  40  44
ENDBRANCH  23  37
BRANCH  24  48
ATOM     48  C   UNL     1       5.543   3.819   7.317  1.00  0.00     0.023 A 
ATOM     49  C   UNL     1       5.032   4.578   8.385  1.00  0.00     0.031 A 
ATOM     50  C   UNL     1       6.202   2.616   7.636  1.00  0.00     0.131 A 
ATOM     51  C   UNL     1       5.250   4.166   9.713  1.00  0.00     0.055 A 
ATOM     52  C   UNL     1       6.358   2.177   8.954  1.00  0.00     0.041 A 
ATOM     53  F   UNL     1       6.721   1.846   6.666  1.00  0.00    -0.206 F 
ATOM     54  C   UNL     1       5.899   2.965  10.003  1.00  0.00     0.022 A 
BRANCH  51  55
ATOM     55  S   UNL     1       4.798   5.293  11.065  1.00  0.00     0.124 S 
ATOM     56  O   UNL     1       5.497   6.514  10.681  1.00  0.00    -0.237 OA
ATOM     57  O   UNL     1       3.343   5.325  10.957  1.00  0.00    -0.237 OA
ATOM     58  O   UNL     1       5.319   4.623  12.255  1.00  0.00    -0.744 OA
ENDBRANCH  51  55
ENDBRANCH  24  48
BRANCH  36  59
ATOM     59  C   UNL     1       8.002   9.553   4.198  1.00  0.00     0.023 A 
ATOM     60  C   UNL     1       9.279   9.447   4.774  1.00  0.00     0.031 A 
ATOM     61  C   UNL     1       7.393  10.820   4.165  1.00  0.00     0.131 A 
ATOM     62  C   UNL     1       9.876  10.571   5.361  1.00  0.00     0.055 A 
ATOM     63  C   UNL     1       8.023  11.950   4.686  1.00  0.00     0.041 A 
ATOM     64  F   UNL     1       6.172  10.979   3.628  1.00  0.00    -0.206 F 
ATOM     65  C   UNL     1       9.265  11.826   5.303  1.00  0.00     0.022 A 
BRANCH  62  66
ATOM     66  S   UNL     1      11.410  10.348   6.301  1.00  0.00     0.124 S 
ATOM     67  O   UNL     1      11.009   9.367   7.305  1.00  0.00    -0.237 OA
ATOM     68  O   UNL     1      12.335   9.871   5.279  1.00  0.00    -0.237 OA
ATOM     69  O   UNL     1      11.693  11.685   6.818  1.00  0.00    -0.744 OA
ENDBRANCH  62  66
ENDBRANCH  36  59
ENDBRANCH  10  11
ENDBRANCH   3   5
ENDBRANCH   2   3
ENDBRANCH   1   2
BRANCH   1  70
ATOM     70  C   UNL     1      -1.495  -1.476   1.907  1.00  0.00     0.274 C 
BRANCH  70  71
ATOM     71  O   UNL     1      -0.146  -1.273   2.337  1.00  0.00    -0.462 OA
BRANCH  71  72
ATOM     72  C   UNL     1       0.527  -2.370   2.779  1.00  0.00     0.310 C 
ATOM     73  O   UNL     1       0.015  -3.466   2.967  1.00  0.00    -0.252 OA
BRANCH  72  74
ATOM     74  C   UNL     1       1.991  -2.018   2.961  1.00  0.00     0.119 C 
ATOM     75  C   UNL     1       2.481  -1.759   4.406  1.00  0.00     0.102 C 
ATOM     76  C   UNL     1       2.969  -3.106   2.440  1.00  0.00     0.027 C 
ATOM     77  C   UNL     1       3.619  -2.799   4.560  1.00  0.00     0.025 C 
ATOM     78  C   UNL     1       2.729  -4.402   3.174  1.00  0.00    -0.027 C 
ATOM     79  C   UNL     1       4.259  -2.696   3.160  1.00  0.00     0.017 C 
ATOM     80  C   UNL     1       3.090  -4.206   4.449  1.00  0.00    -0.027 C 
BRANCH  75  81
ATOM     81  C   UNL     1       1.424  -1.685   5.488  1.00  0.00     0.242 C 
ATOM     82  O   UNL     1       1.342  -2.512   6.394  1.00  0.00    -0.273 OA
ATOM     83  N   UNL     1       0.563  -0.605   5.482  1.00  0.00    -0.267 N 
ATOM     84  H   UNL     1      -0.145  -0.594   6.166  1.00  0.00     0.191 HD
BRANCH  83  85
ATOM     85  N   UNL     1       0.604   0.476   4.594  1.00  0.00    -0.263 N 
ATOM     86  C   UNL     1      -0.437   1.349   4.340  1.00  0.00     0.271 C 
ATOM     87  H   UNL     1       1.447   0.627   4.109  1.00  0.00     0.191 HD
ATOM     88  O   UNL     1      -0.379   2.122   3.384  1.00  0.00    -0.267 OA
BRANCH  86  89
ATOM     89  C   UNL     1      -1.686   1.307   5.122  1.00  0.00     0.060 A 
ATOM     90  C   UNL     1      -2.882   1.254   4.386  1.00  0.00     0.015 A 
ATOM     91  C   UNL     1      -1.741   1.379   6.516  1.00  0.00     0.053 A 
ATOM     92  C   UNL     1      -4.112   1.164   5.036  1.00  0.00     0.001 A 
ATOM     93  C   UNL     1      -2.976   1.278   7.164  1.00  0.00     0.021 A 
ATOM     94  Cl  UNL     1      -0.349   1.639   7.502  1.00  0.00    -0.083 Cl
ATOM     95  C   UNL     1      -4.155   1.154   6.427  1.00  0.00     0.002 A 
ENDBRANCH  86  89
ENDBRANCH  83  85
ENDBRANCH  75  81
ENDBRANCH  72  74
ENDBRANCH  71  72
ENDBRANCH  70  71
ENDBRANCH   1  70
TORSDOF 17
