REMARK SMILES Cc1cccc(C(=O)Nc2ccc(C(=O)NNC(=O)c3ccccc3C(=O)OCCOC(=O)c3ccc(-c4c5nc(c(-c6cc(S(=O)(=O)[O-])ccc6F)c6ccc([nH]6)c(-c6cc(S(=O)(=O)[O-])ccc6F)c6nc(c(-c7cc(S(=O)(=O)[O-])ccc7F)c7ccc4[nH]7)C=C6)C=C5)cc3)cc2)c1
REMARK SMILES IDX 29 1 28 2 26 3 27 4 25 5 20 6 21 7 22 8 24 9 23 10 18 11
REMARK SMILES IDX 17 12 19 14 16 15 14 16 15 17 13 19 10 20 11 21 98 22 12 23
REMARK SMILES IDX 97 24 9 25 7 26 8 27 6 29 1 30 2 31 3 32 99 33 4 34 5 35
REMARK SMILES IDX 30 36 31 37 32 38 33 39 34 40 35 41 96 42 36 43 95 44 37 45
REMARK SMILES IDX 38 46 39 47 89 48 40 49 94 50 88 51 90 52 41 53 93 54 87 55
REMARK SMILES IDX 86 56 42 58 74 59 54 60 73 61 55 62 58 63 72 64 91 65 56 66
REMARK SMILES IDX 57 67 71 69 92 70 59 71 43 72 44 73 52 74 45 75 51 76 53 77
REMARK SMILES IDX 50 78 46 79 47 80 48 81 49 82 75 83 76 84 84 85 77 86 83 87
REMARK SMILES IDX 85 88 82 89 78 90 79 91 80 92 81 93 60 94 61 95 69 96 62 97
REMARK SMILES IDX 68 98 70 99 67 100 63 101 64 102 65 103 66 104
REMARK H PARENT 17 13 16 18 9 28 90 57 58 68
REMARK Flexibility Score: inf
ROOT
ATOM      1  C   UNL     1       3.467   0.459   0.533  1.00  0.00     0.275 C 
ENDROOT
BRANCH   1   2
ATOM      2  O   UNL     1       4.146  -0.397  -0.402  1.00  0.00    -0.458 OA
BRANCH   2   3
ATOM      3  C   UNL     1       4.972   0.277  -1.230  1.00  0.00     0.339 C 
ATOM      4  O   UNL     1       5.107   1.481  -1.283  1.00  0.00    -0.246 OA
BRANCH   3   5
ATOM      5  C   UNL     1       5.610  -0.565  -2.233  1.00  0.00     0.072 A 
ATOM      6  C   UNL     1       5.704  -0.120  -3.566  1.00  0.00     0.056 A 
ATOM      7  C   UNL     1       6.562  -0.835  -4.423  1.00  0.00     0.015 A 
ATOM      8  C   UNL     1       7.295  -1.939  -3.969  1.00  0.00     0.001 A 
ATOM      9  C   UNL     1       6.322  -1.691  -1.780  1.00  0.00     0.016 A 
ATOM     10  C   UNL     1       7.170  -2.371  -2.651  1.00  0.00     0.001 A 
BRANCH   6  11
ATOM     11  C   UNL     1       5.087   1.139  -4.134  1.00  0.00     0.270 C 
ATOM     12  N   UNL     1       4.004   1.755  -3.505  1.00  0.00    -0.263 N 
ATOM     13  H   UNL     1       3.348   1.246  -2.977  1.00  0.00     0.191 HD
ATOM     14  O   UNL     1       5.586   1.630  -5.148  1.00  0.00    -0.267 OA
BRANCH  12  15
ATOM     15  N   UNL     1       3.907   3.168  -3.674  1.00  0.00    -0.263 N 
ATOM     16  C   UNL     1       3.543   4.004  -2.625  1.00  0.00     0.269 C 
ATOM     17  O   UNL     1       4.166   5.038  -2.405  1.00  0.00    -0.267 OA
ATOM     18  H   UNL     1       4.103   3.561  -4.555  1.00  0.00     0.191 HD
BRANCH  16  19
ATOM     19  C   UNL     1       2.324   3.715  -1.818  1.00  0.00     0.041 A 
ATOM     20  C   UNL     1      -0.050   3.378  -0.340  1.00  0.00     0.041 A 
ATOM     21  C   UNL     1       0.083   2.806  -1.608  1.00  0.00     0.027 A 
ATOM     22  C   UNL     1       0.979   4.181   0.158  1.00  0.00     0.027 A 
ATOM     23  C   UNL     1       1.264   2.970  -2.342  1.00  0.00     0.016 A 
ATOM     24  C   UNL     1       2.166   4.336  -0.569  1.00  0.00     0.016 A 
BRANCH  20  25
ATOM     25  N   UNL     1      -1.199   3.217   0.451  1.00  0.00    -0.322 N 
ATOM     26  C   UNL     1      -2.142   2.212   0.506  1.00  0.00     0.255 C 
ATOM     27  O   UNL     1      -3.257   2.474   0.963  1.00  0.00    -0.269 OA
ATOM     28  H   UNL     1      -1.362   3.957   1.080  1.00  0.00     0.170 HD
BRANCH  26  29
ATOM     29  C   UNL     1      -1.835   0.787   0.155  1.00  0.00     0.040 A 
ATOM     30  C   UNL     1       1.074  -1.607  -0.478  1.00  0.00     0.044 C 
ATOM     31  C   UNL     1      -0.313  -1.082  -0.264  1.00  0.00    -0.050 A 
ATOM     32  C   UNL     1      -1.403  -1.941  -0.394  1.00  0.00     0.003 A 
ATOM     33  C   UNL     1      -0.537   0.264   0.076  1.00  0.00     0.017 A 
ATOM     34  C   UNL     1      -2.697  -1.454  -0.247  1.00  0.00     0.001 A 
ATOM     35  C   UNL     1      -2.913  -0.097   0.005  1.00  0.00     0.014 A 
ENDBRANCH  26  29
ENDBRANCH  20  25
ENDBRANCH  16  19
ENDBRANCH  12  15
ENDBRANCH   6  11
ENDBRANCH   3   5
ENDBRANCH   2   3
ENDBRANCH   1   2
BRANCH   1  36
ATOM     36  C   UNL     1       3.600  -0.053   1.968  1.00  0.00     0.275 C 
BRANCH  36  37
ATOM     37  O   UNL     1       4.826  -0.779   2.287  1.00  0.00    -0.458 OA
BRANCH  37  38
ATOM     38  C   UNL     1       6.139  -0.444   2.197  1.00  0.00     0.338 C 
ATOM     39  O   UNL     1       7.006  -1.280   2.437  1.00  0.00    -0.246 OA
BRANCH  38  40
ATOM     40  C   UNL     1       6.545   0.871   1.654  1.00  0.00     0.060 A 
ATOM     41  C   UNL     1       7.734   1.020   0.912  1.00  0.00     0.016 A 
ATOM     42  C   UNL     1       5.713   1.956   1.799  1.00  0.00     0.016 A 
ATOM     43  C   UNL     1       8.008   2.229   0.241  1.00  0.00     0.010 A 
ATOM     44  C   UNL     1       5.850   3.018   0.940  1.00  0.00     0.010 A 
ATOM     45  C   UNL     1       7.033   3.230   0.224  1.00  0.00    -0.014 A 
BRANCH  45  46
ATOM     46  C   UNL     1       7.170   4.600  -0.297  1.00  0.00     0.031 A 
ATOM     47  C   UNL     1       7.594   4.964  -1.659  1.00  0.00     0.074 A 
ATOM     48  C   UNL     1       6.846   5.602   0.561  1.00  0.00     0.049 A 
ATOM     49  N   UNL     1       8.287   6.017  -1.938  1.00  0.00    -0.248 NA
ATOM     50  C   UNL     1       7.217   4.212  -2.843  1.00  0.00     0.031 C 
ATOM     51  C   UNL     1       6.872   7.041   0.383  1.00  0.00     0.029 A 
ATOM     52  N   UNL     1       6.576   5.475   1.923  1.00  0.00    -0.354 N 
ATOM     53  C   UNL     1       8.085   6.310  -3.275  1.00  0.00     0.074 A 
ATOM     54  C   UNL     1       7.533   5.083  -3.813  1.00  0.00     0.031 C 
ATOM     55  C   UNL     1       7.030   7.604   1.599  1.00  0.00     0.029 A 
ATOM     56  C   UNL     1       7.179   6.536   2.579  1.00  0.00     0.049 A 
ATOM     57  H   UNL     1       6.050   4.758   2.345  1.00  0.00     0.167 HD
ATOM     58  C   UNL     1       8.276   7.602  -3.703  1.00  0.00     0.034 A 
ATOM     59  C   UNL     1       8.229   6.246   3.407  1.00  0.00     0.034 A 
ATOM     60  C   UNL     1       8.807   8.444  -2.609  1.00  0.00     0.049 A 
ATOM     61  C   UNL     1       9.534   6.716   2.767  1.00  0.00     0.074 A 
ATOM     62  C   UNL     1       8.325   9.486  -1.833  1.00  0.00     0.029 A 
ATOM     63  N   UNL     1       9.977   8.044  -1.990  1.00  0.00    -0.354 N 
ATOM     64  N   UNL     1       9.618   7.577   1.784  1.00  0.00    -0.248 NA
ATOM     65  C   UNL     1      10.836   6.140   3.100  1.00  0.00     0.031 C 
ATOM     66  C   UNL     1       9.162   9.596  -0.670  1.00  0.00     0.029 A 
ATOM     67  C   UNL     1      10.179   8.661  -0.770  1.00  0.00     0.049 A 
ATOM     68  H   UNL     1      10.601   7.389  -2.378  1.00  0.00     0.167 HD
ATOM     69  C   UNL     1      10.879   7.526   1.242  1.00  0.00     0.074 A 
ATOM     70  C   UNL     1      11.607   6.619   2.115  1.00  0.00     0.031 C 
ATOM     71  C   UNL     1      11.252   8.143   0.076  1.00  0.00     0.034 A 
BRANCH  58  72
ATOM     72  C   UNL     1       7.841   8.214  -5.038  1.00  0.00     0.023 A 
ATOM     73  C   UNL     1       7.888   9.623  -5.201  1.00  0.00     0.031 A 
ATOM     74  C   UNL     1       7.359   7.520  -6.166  1.00  0.00     0.131 A 
ATOM     75  C   UNL     1       7.427  10.263  -6.374  1.00  0.00     0.055 A 
ATOM     76  C   UNL     1       6.882   8.154  -7.327  1.00  0.00     0.041 A 
ATOM     77  F   UNL     1       7.354   6.188  -6.242  1.00  0.00    -0.206 F 
ATOM     78  C   UNL     1       6.905   9.533  -7.434  1.00  0.00     0.022 A 
BRANCH  75  79
ATOM     79  S   UNL     1       7.517  12.073  -6.507  1.00  0.00     0.124 S 
ATOM     80  O   UNL     1       6.674  12.511  -5.400  1.00  0.00    -0.237 OA
ATOM     81  O   UNL     1       8.947  12.324  -6.372  1.00  0.00    -0.237 OA
ATOM     82  O   UNL     1       6.972  12.345  -7.838  1.00  0.00    -0.744 OA
ENDBRANCH  75  79
ENDBRANCH  58  72
BRANCH  59  83
ATOM     83  C   UNL     1       8.006   4.960   4.198  1.00  0.00     0.023 A 
ATOM     84  C   UNL     1       6.788   4.865   4.929  1.00  0.00     0.031 A 
ATOM     85  C   UNL     1       8.684   3.748   3.963  1.00  0.00     0.131 A 
ATOM     86  C   UNL     1       6.239   3.612   5.264  1.00  0.00     0.055 A 
ATOM     87  C   UNL     1       8.185   2.510   4.402  1.00  0.00     0.041 A 
ATOM     88  F   UNL     1       9.768   3.693   3.179  1.00  0.00    -0.206 F 
ATOM     89  C   UNL     1       6.943   2.434   5.023  1.00  0.00     0.022 A 
BRANCH  86  90
ATOM     90  S   UNL     1       4.473   3.467   5.705  1.00  0.00     0.124 S 
ATOM     91  O   UNL     1       4.534   3.208   7.138  1.00  0.00    -0.237 OA
ATOM     92  O   UNL     1       3.914   4.755   5.311  1.00  0.00    -0.237 OA
ATOM     93  O   UNL     1       4.037   2.342   4.875  1.00  0.00    -0.744 OA
ENDBRANCH  86  90
ENDBRANCH  59  83
BRANCH  71  94
ATOM     94  C   UNL     1      12.705   8.194  -0.366  1.00  0.00     0.023 A 
ATOM     95  C   UNL     1      13.742   8.222   0.583  1.00  0.00     0.031 A 
ATOM     96  C   UNL     1      13.117   8.306  -1.713  1.00  0.00     0.131 A 
ATOM     97  C   UNL     1      15.091   8.218   0.197  1.00  0.00     0.055 A 
ATOM     98  C   UNL     1      14.459   8.407  -2.094  1.00  0.00     0.041 A 
ATOM     99  F   UNL     1      12.250   8.299  -2.734  1.00  0.00    -0.206 F 
ATOM    100  C   UNL     1      15.460   8.341  -1.138  1.00  0.00     0.022 A 
BRANCH  97 101
ATOM    101  S   UNL     1      16.355   7.983   1.470  1.00  0.00     0.124 S 
ATOM    102  O   UNL     1      15.922   8.889   2.529  1.00  0.00    -0.237 OA
ATOM    103  O   UNL     1      16.215   6.558   1.761  1.00  0.00    -0.237 OA
ATOM    104  O   UNL     1      17.594   8.362   0.796  1.00  0.00    -0.744 OA
ENDBRANCH  97 101
ENDBRANCH  71  94
ENDBRANCH  45  46
ENDBRANCH  38  40
ENDBRANCH  37  38
ENDBRANCH  36  37
ENDBRANCH   1  36
TORSDOF 19
