REMARK SMILES O=C(NC(=S)Nc1cc(C(=O)OCCOC(=O)c2ccc(-c3c4nc(c(-c5cc(S(=O)(=O)[O-])ccc5F)c5ccc([nH]5)c(-c5cc(S(=O)(=O)[O-])ccc5F)c5nc(c(-c6cc(S(=O)(=O)[O-])ccc6F)c6ccc3[nH]6)C=C5)C=C4)cc2)ccc1Br)c1ccc(F)cc1
REMARK SMILES IDX 13 1 12 2 10 3 11 4 9 5 7 6 8 7 83 8 82 9 84 10 81 11 6 12
REMARK SMILES IDX 4 14 5 15 3 16 1 17 2 18 85 20 86 21 91 22 87 23 90 24 88 25
REMARK SMILES IDX 89 26 14 27 15 28 16 29 17 30 18 31 19 32 80 33 20 34 79 35
REMARK SMILES IDX 21 36 22 37 23 38 73 39 24 40 78 41 72 42 74 43 25 44 77 45
REMARK SMILES IDX 71 46 70 47 26 49 58 50 38 51 57 52 39 53 42 54 56 55 75 56
REMARK SMILES IDX 40 57 41 58 55 60 76 61 43 62 27 63 28 64 36 65 29 66 35 67
REMARK SMILES IDX 37 68 34 69 30 70 31 71 32 72 33 73 59 74 60 75 68 76 61 77
REMARK SMILES IDX 67 78 69 79 66 80 62 81 63 82 64 83 65 84 44 85 45 86 53 87
REMARK SMILES IDX 46 88 52 89 54 90 51 91 47 92 48 93 49 94 50 95
REMARK H PARENT 6 13 3 19 74 48 42 59
REMARK Flexibility Score: inf
ROOT
ATOM      1  C   UNL     1       3.267   6.256   3.228  1.00  0.00     0.275 C 
ENDROOT
BRANCH   1   2
ATOM      2  O   UNL     1       2.921   4.866   3.066  1.00  0.00    -0.458 OA
BRANCH   2   3
ATOM      3  C   UNL     1       3.194   4.344   1.847  1.00  0.00     0.338 C 
ATOM      4  O   UNL     1       3.539   4.931   0.838  1.00  0.00    -0.246 OA
BRANCH   3   5
ATOM      5  C   UNL     1       3.159   2.878   1.946  1.00  0.00     0.062 A 
ATOM      6  C   UNL     1       4.335  -0.029   0.830  1.00  0.00     0.055 A 
ATOM      7  C   UNL     1       4.342   1.967   0.662  1.00  0.00     0.043 A 
ATOM      8  C   UNL     1       3.195  -0.815   2.236  1.00  0.00     0.041 A 
ATOM      9  C   UNL     1       2.013   0.109   3.518  1.00  0.00     0.019 A 
ATOM     10  Br  UNL     1       3.177  -2.726   2.386  1.00  0.00    -0.049 Br
ATOM     11  C   UNL     1       2.003   2.102   3.332  1.00  0.00     0.017 A 
BRANCH   6  12
ATOM     12  N   UNL     1       4.558  -0.755  -0.346  1.00  0.00    -0.331 N 
ATOM     13  H   UNL     1       5.446  -0.699  -0.765  1.00  0.00     0.169 HD
BRANCH  12  14
ATOM     14  C   UNL     1       3.619  -1.532  -0.939  1.00  0.00     0.177 C 
ATOM     15  S   UNL     1       4.088  -2.659  -2.079  1.00  0.00    -0.040 S 
BRANCH  14  16
ATOM     16  N   UNL     1       2.256  -1.379  -0.692  1.00  0.00    -0.299 N 
ATOM     17  O   UNL     1       0.096  -0.847  -0.168  1.00  0.00    -0.269 OA
ATOM     18  C   UNL     1       1.290  -0.548  -0.068  1.00  0.00     0.257 C 
ATOM     19  H   UNL     1       1.784  -2.135  -1.110  1.00  0.00     0.172 HD
BRANCH  18  20
ATOM     20  C   UNL     1       1.555   0.722   0.655  1.00  0.00     0.040 A 
ATOM     21  C   UNL     1       2.766   0.997   1.005  1.00  0.00     0.017 A 
ATOM     22  C   UNL     1       2.059   0.925   1.827  1.00  0.00     0.017 A 
ATOM     23  C   UNL     1       4.318   1.114   2.341  1.00  0.00     0.040 A 
ATOM     24  C   UNL     1       3.592   1.061   3.180  1.00  0.00     0.040 A 
ATOM     25  C   UNL     1       4.823   0.921   3.505  1.00  0.00     0.123 A 
ATOM     26  F   UNL     1       5.534   1.812   4.195  1.00  0.00    -0.207 F 
ENDBRANCH  18  20
ENDBRANCH  14  16
ENDBRANCH  12  14
ENDBRANCH   6  12
ENDBRANCH   3   5
ENDBRANCH   2   3
ENDBRANCH   1   2
BRANCH   1  27
ATOM     27  C   UNL     1       4.679   6.385   3.804  1.00  0.00     0.275 C 
BRANCH  27  28
ATOM     28  O   UNL     1       5.607   5.805   2.878  1.00  0.00    -0.458 OA
BRANCH  28  29
ATOM     29  C   UNL     1       6.920   6.032   3.117  1.00  0.00     0.338 C 
ATOM     30  O   UNL     1       7.376   6.722   4.013  1.00  0.00    -0.246 OA
BRANCH  29  31
ATOM     31  C   UNL     1       7.737   5.320   2.095  1.00  0.00     0.060 A 
ATOM     32  C   UNL     1       7.177   4.342   1.263  1.00  0.00     0.016 A 
ATOM     33  C   UNL     1       9.095   5.631   1.964  1.00  0.00     0.016 A 
ATOM     34  C   UNL     1       7.957   3.682   0.311  1.00  0.00     0.010 A 
ATOM     35  C   UNL     1       9.872   4.990   0.989  1.00  0.00     0.010 A 
ATOM     36  C   UNL     1       9.308   4.013   0.154  1.00  0.00    -0.014 A 
BRANCH  36  37
ATOM     37  C   UNL     1      10.130   3.330  -0.876  1.00  0.00     0.031 A 
ATOM     38  C   UNL     1      11.196   2.357  -0.464  1.00  0.00     0.074 A 
ATOM     39  C   UNL     1       9.909   3.566  -2.183  1.00  0.00     0.049 A 
ATOM     40  N   UNL     1      12.130   1.799  -1.189  1.00  0.00    -0.248 NA
ATOM     41  C   UNL     1      11.209   1.964   0.952  1.00  0.00     0.031 C 
ATOM     42  C   UNL     1       8.868   4.441  -2.726  1.00  0.00     0.029 A 
ATOM     43  N   UNL     1      10.549   3.080  -3.294  1.00  0.00    -0.354 N 
ATOM     44  C   UNL     1      12.876   1.022  -0.311  1.00  0.00     0.074 A 
ATOM     45  C   UNL     1      12.268   1.168   0.997  1.00  0.00     0.031 C 
ATOM     46  C   UNL     1       8.926   4.409  -4.068  1.00  0.00     0.029 A 
ATOM     47  C   UNL     1      10.041   3.562  -4.476  1.00  0.00     0.049 A 
ATOM     48  H   UNL     1      11.301   2.446  -3.249  1.00  0.00     0.167 HD
ATOM     49  C   UNL     1      13.979   0.276  -0.568  1.00  0.00     0.034 A 
ATOM     50  C   UNL     1      10.453   3.372  -5.744  1.00  0.00     0.034 A 
ATOM     51  C   UNL     1      14.574   0.131  -1.873  1.00  0.00     0.049 A 
ATOM     52  C   UNL     1      11.690   2.562  -6.005  1.00  0.00     0.074 A 
ATOM     53  C   UNL     1      15.726  -0.549  -2.233  1.00  0.00     0.029 A 
ATOM     54  N   UNL     1      14.053   0.668  -3.041  1.00  0.00    -0.354 N 
ATOM     55  N   UNL     1      12.473   1.954  -5.147  1.00  0.00    -0.248 NA
ATOM     56  C   UNL     1      12.117   2.447  -7.407  1.00  0.00     0.031 C 
ATOM     57  C   UNL     1      15.914  -0.399  -3.614  1.00  0.00     0.029 A 
ATOM     58  C   UNL     1      14.859   0.342  -4.120  1.00  0.00     0.049 A 
ATOM     59  H   UNL     1      13.229   1.204  -3.095  1.00  0.00     0.167 HD
ATOM     60  C   UNL     1      13.506   1.412  -5.902  1.00  0.00     0.074 A 
ATOM     61  C   UNL     1      13.231   1.737  -7.287  1.00  0.00     0.031 C 
ATOM     62  C   UNL     1      14.592   0.716  -5.485  1.00  0.00     0.034 A 
BRANCH  49  63
ATOM     63  C   UNL     1      14.650  -0.362   0.616  1.00  0.00     0.023 A 
ATOM     64  C   UNL     1      14.083  -1.460   1.285  1.00  0.00     0.031 A 
ATOM     65  C   UNL     1      15.842   0.184   1.122  1.00  0.00     0.131 A 
ATOM     66  C   UNL     1      14.682  -1.943   2.458  1.00  0.00     0.055 A 
ATOM     67  C   UNL     1      16.462  -0.334   2.259  1.00  0.00     0.041 A 
ATOM     68  F   UNL     1      16.407   1.250   0.533  1.00  0.00    -0.206 F 
ATOM     69  C   UNL     1      15.875  -1.395   2.942  1.00  0.00     0.022 A 
BRANCH  66  70
ATOM     70  S   UNL     1      13.809  -3.205   3.426  1.00  0.00     0.124 S 
ATOM     71  O   UNL     1      12.489  -2.601   3.587  1.00  0.00    -0.237 OA
ATOM     72  O   UNL     1      13.880  -4.370   2.553  1.00  0.00    -0.237 OA
ATOM     73  O   UNL     1      14.594  -3.296   4.655  1.00  0.00    -0.744 OA
ENDBRANCH  66  70
ENDBRANCH  49  63
BRANCH  50  74
ATOM     74  C   UNL     1       9.743   4.040  -6.862  1.00  0.00     0.023 A 
ATOM     75  C   UNL     1       8.863   3.323  -7.686  1.00  0.00     0.031 A 
ATOM     76  C   UNL     1       9.954   5.403  -7.127  1.00  0.00     0.131 A 
ATOM     77  C   UNL     1       8.233   3.975  -8.756  1.00  0.00     0.055 A 
ATOM     78  C   UNL     1       9.310   6.051  -8.181  1.00  0.00     0.041 A 
ATOM     79  F   UNL     1      10.783   6.122  -6.354  1.00  0.00    -0.206 F 
ATOM     80  C   UNL     1       8.446   5.334  -9.005  1.00  0.00     0.022 A 
BRANCH  77  81
ATOM     81  S   UNL     1       7.122   3.021  -9.825  1.00  0.00     0.124 S 
ATOM     82  O   UNL     1       8.057   2.138 -10.514  1.00  0.00    -0.237 OA
ATOM     83  O   UNL     1       6.232   2.389  -8.856  1.00  0.00    -0.237 OA
ATOM     84  O   UNL     1       6.496   4.044 -10.660  1.00  0.00    -0.744 OA
ENDBRANCH  77  81
ENDBRANCH  50  74
BRANCH  62  85
ATOM     85  C   UNL     1      15.560   0.289  -6.549  1.00  0.00     0.023 A 
ATOM     86  C   UNL     1      16.499   1.193  -7.074  1.00  0.00     0.031 A 
ATOM     87  C   UNL     1      15.524  -1.018  -7.061  1.00  0.00     0.131 A 
ATOM     88  C   UNL     1      17.353   0.784  -8.108  1.00  0.00     0.055 A 
ATOM     89  C   UNL     1      16.392  -1.426  -8.075  1.00  0.00     0.041 A 
ATOM     90  F   UNL     1      14.638  -1.910  -6.593  1.00  0.00    -0.206 F 
ATOM     91  C   UNL     1      17.309  -0.522  -8.608  1.00  0.00     0.022 A 
BRANCH  88  92
ATOM     92  S   UNL     1      18.501   1.992  -8.823  1.00  0.00     0.124 S 
ATOM     93  O   UNL     1      17.590   2.997  -9.362  1.00  0.00    -0.237 OA
ATOM     94  O   UNL     1      19.289   2.400  -7.665  1.00  0.00    -0.237 OA
ATOM     95  O   UNL     1      19.232   1.219  -9.826  1.00  0.00    -0.744 OA
ENDBRANCH  88  92
ENDBRANCH  62  85
ENDBRANCH  36  37
ENDBRANCH  29  31
ENDBRANCH  28  29
ENDBRANCH  27  28
ENDBRANCH   1  27
TORSDOF 18
