REMARK SMILES Cc1c(C)c2c(c(C)c1O)CC[C@@](C)(C(=O)OCCOC(=O)c1ccc(-c3c4nc(c(-c5cc(S(=O)(=O)[O-])ccc5F)c5ccc([nH]5)c(-c5cc(S(=O)(=O)[O-])ccc5F)c5nc(c(-c6cc(S(=O)(=O)[O-])ccc6F)c6ccc3[nH]6)C=C5)C=C4)cc1)O2
REMARK SMILES IDX 19 1 18 2 17 3 15 4 16 5 13 6 1 7 2 8 3 9 9 10 4 11 5 12
REMARK SMILES IDX 7 13 6 14 86 15 8 16 11 17 12 18 14 19 10 20 20 22 21 23
REMARK SMILES IDX 22 24 23 25 24 26 85 27 25 28 84 29 26 30 27 31 28 32 78 33
REMARK SMILES IDX 29 34 83 35 77 36 79 37 30 38 82 39 76 40 75 41 31 43 63 44
REMARK SMILES IDX 43 45 62 46 44 47 47 48 61 49 80 50 45 51 46 52 60 54 81 55
REMARK SMILES IDX 48 56 32 57 33 58 41 59 34 60 40 61 42 62 39 63 35 64 36 65
REMARK SMILES IDX 37 66 38 67 64 68 65 69 73 70 66 71 72 72 74 73 71 74 67 75
REMARK SMILES IDX 68 76 69 77 70 78 49 79 50 80 58 81 51 82 57 83 59 84 56 85
REMARK SMILES IDX 52 86 53 87 54 88 55 89
REMARK H PARENT 10 21 79 42 47 53
REMARK Flexibility Score: inf
ROOT
ATOM      1  C   UNL     1      -3.929  -0.547   8.524  1.00  0.00     0.275 C 
ENDROOT
BRANCH   1   2
ATOM      2  C   UNL     1      -2.450  -0.481   8.902  1.00  0.00     0.274 C 
BRANCH   2   3
ATOM      3  O   UNL     1      -1.712   0.336   7.970  1.00  0.00    -0.459 OA
BRANCH   3   4
ATOM      4  C   UNL     1      -1.027  -0.328   6.990  1.00  0.00     0.350 C 
ATOM      5  O   UNL     1      -0.970  -1.550   6.912  1.00  0.00    -0.247 OA
BRANCH   4   6
ATOM      6  C   UNL     1      -0.276   0.643   6.049  1.00  0.00     0.203 C 
ATOM      7  C   UNL     1       1.060   0.030   0.007  1.00  0.00     0.049 C 
ATOM      8  C   UNL     1       0.764   0.748   1.303  1.00  0.00    -0.002 A 
ATOM      9  C   UNL     1       0.439   0.031   2.481  1.00  0.00    -0.002 A 
ATOM     10  C   UNL     1       0.858   2.150   1.374  1.00  0.00     0.122 A 
ATOM     11  C   UNL     1       0.434  -1.479   2.468  1.00  0.00     0.049 C 
ATOM     12  C   UNL     1       0.134   0.738   3.667  1.00  0.00     0.127 A 
ATOM     13  C   UNL     1       0.563   2.857   2.551  1.00  0.00    -0.002 A 
ATOM     14  C   UNL     1       0.131   2.142   3.689  1.00  0.00     0.001 A 
ATOM     15  O   UNL     1      -0.164  -0.018   4.775  1.00  0.00    -0.475 OA
ATOM     16  C   UNL     1       0.671   4.361   2.589  1.00  0.00     0.049 C 
ATOM     17  C   UNL     1      -0.307   2.879   4.926  1.00  0.00     0.044 C 
ATOM     18  C   UNL     1      -1.033   1.962   5.894  1.00  0.00     0.065 C 
ATOM     19  C   UNL     1       1.127   0.802   6.651  1.00  0.00     0.069 C 
BRANCH  10  20
ATOM     20  O   UNL     1       1.258   2.896   0.293  1.00  0.00    -0.507 OA
ATOM     21  H   UNL     1       1.466   2.473  -0.516  1.00  0.00     0.293 HD
ENDBRANCH  10  20
ENDBRANCH   4   6
ENDBRANCH   3   4
ENDBRANCH   2   3
ENDBRANCH   1   2
BRANCH   1  22
ATOM     22  O   UNL     1      -4.082  -1.259   7.286  1.00  0.00    -0.458 OA
BRANCH  22  23
ATOM     23  C   UNL     1      -4.623  -0.558   6.263  1.00  0.00     0.338 C 
ATOM     24  O   UNL     1      -5.069   0.574   6.292  1.00  0.00    -0.246 OA
BRANCH  23  25
ATOM     25  C   UNL     1      -4.552  -1.378   5.045  1.00  0.00     0.060 A 
ATOM     26  C   UNL     1      -3.326  -1.501   4.396  1.00  0.00     0.016 A 
ATOM     27  C   UNL     1      -5.704  -1.940   4.493  1.00  0.00     0.016 A 
ATOM     28  C   UNL     1      -3.251  -2.157   3.174  1.00  0.00     0.010 A 
ATOM     29  C   UNL     1      -5.616  -2.635   3.279  1.00  0.00     0.010 A 
ATOM     30  C   UNL     1      -4.390  -2.728   2.598  1.00  0.00    -0.014 A 
BRANCH  30  31
ATOM     31  C   UNL     1      -4.293  -3.316   1.237  1.00  0.00     0.031 A 
ATOM     32  C   UNL     1      -4.957  -2.618   0.083  1.00  0.00     0.074 A 
ATOM     33  C   UNL     1      -3.538  -4.409   1.012  1.00  0.00     0.049 A 
ATOM     34  N   UNL     1      -5.099  -3.015  -1.155  1.00  0.00    -0.248 NA
ATOM     35  C   UNL     1      -5.535  -1.294   0.361  1.00  0.00     0.031 C 
ATOM     36  C   UNL     1      -2.750  -5.117   2.023  1.00  0.00     0.029 A 
ATOM     37  N   UNL     1      -3.288  -5.101  -0.147  1.00  0.00    -0.354 N 
ATOM     38  C   UNL     1      -5.817  -2.011  -1.794  1.00  0.00     0.074 A 
ATOM     39  C   UNL     1      -6.080  -0.986  -0.807  1.00  0.00     0.031 C 
ATOM     40  C   UNL     1      -2.080  -6.121   1.433  1.00  0.00     0.029 A 
ATOM     41  C   UNL     1      -2.447  -6.177   0.021  1.00  0.00     0.049 A 
ATOM     42  H   UNL     1      -3.674  -4.851  -1.018  1.00  0.00     0.167 HD
ATOM     43  C   UNL     1      -6.223  -1.955  -3.086  1.00  0.00     0.034 A 
ATOM     44  C   UNL     1      -2.049  -7.123  -0.852  1.00  0.00     0.034 A 
ATOM     45  C   UNL     1      -5.927  -2.967  -4.068  1.00  0.00     0.049 A 
ATOM     46  C   UNL     1      -2.580  -7.088  -2.260  1.00  0.00     0.074 A 
ATOM     47  C   UNL     1      -6.319  -3.024  -5.394  1.00  0.00     0.029 A 
ATOM     48  N   UNL     1      -5.156  -4.097  -3.833  1.00  0.00    -0.354 N 
ATOM     49  N   UNL     1      -3.370  -6.202  -2.821  1.00  0.00    -0.248 NA
ATOM     50  C   UNL     1      -2.189  -8.194  -3.144  1.00  0.00     0.031 C 
ATOM     51  C   UNL     1      -5.823  -4.211  -5.947  1.00  0.00     0.029 A 
ATOM     52  C   UNL     1      -5.075  -4.866  -4.983  1.00  0.00     0.049 A 
ATOM     53  H   UNL     1      -4.728  -4.320  -2.974  1.00  0.00     0.167 HD
ATOM     54  C   UNL     1      -3.577  -6.649  -4.122  1.00  0.00     0.074 A 
ATOM     55  C   UNL     1      -2.812  -7.870  -4.270  1.00  0.00     0.031 C 
ATOM     56  C   UNL     1      -4.335  -6.099  -5.103  1.00  0.00     0.034 A 
BRANCH  43  57
ATOM     57  C   UNL     1      -7.097  -0.795  -3.483  1.00  0.00     0.023 A 
ATOM     58  C   UNL     1      -6.598   0.514  -3.589  1.00  0.00     0.031 A 
ATOM     59  C   UNL     1      -8.463  -1.009  -3.739  1.00  0.00     0.131 A 
ATOM     60  C   UNL     1      -7.473   1.568  -3.896  1.00  0.00     0.055 A 
ATOM     61  C   UNL     1      -9.315   0.034  -4.102  1.00  0.00     0.041 A 
ATOM     62  F   UNL     1      -8.993  -2.238  -3.629  1.00  0.00    -0.206 F 
ATOM     63  C   UNL     1      -8.823   1.333  -4.174  1.00  0.00     0.022 A 
BRANCH  60  64
ATOM     64  S   UNL     1      -6.846   3.269  -3.845  1.00  0.00     0.124 S 
ATOM     65  O   UNL     1      -6.532   3.423  -2.427  1.00  0.00    -0.237 OA
ATOM     66  O   UNL     1      -5.704   3.214  -4.750  1.00  0.00    -0.237 OA
ATOM     67  O   UNL     1      -7.976   4.065  -4.317  1.00  0.00    -0.744 OA
ENDBRANCH  60  64
ENDBRANCH  43  57
BRANCH  44  68
ATOM     68  C   UNL     1      -1.167  -8.234  -0.398  1.00  0.00     0.023 A 
ATOM     69  C   UNL     1       0.154  -8.350  -0.855  1.00  0.00     0.031 A 
ATOM     70  C   UNL     1      -1.646  -9.204   0.501  1.00  0.00     0.131 A 
ATOM     71  C   UNL     1       0.949  -9.423  -0.422  1.00  0.00     0.055 A 
ATOM     72  C   UNL     1      -0.841 -10.247   0.959  1.00  0.00     0.041 A 
ATOM     73  F   UNL     1      -2.904  -9.136   0.965  1.00  0.00    -0.206 F 
ATOM     74  C   UNL     1       0.465 -10.363   0.493  1.00  0.00     0.022 A 
BRANCH  71  75
ATOM     75  S   UNL     1       2.631  -9.592  -1.082  1.00  0.00     0.124 S 
ATOM     76  O   UNL     1       2.369  -9.918  -2.479  1.00  0.00    -0.237 OA
ATOM     77  O   UNL     1       3.196  -8.271  -0.826  1.00  0.00    -0.237 OA
ATOM     78  O   UNL     1       3.202 -10.674  -0.283  1.00  0.00    -0.744 OA
ENDBRANCH  71  75
ENDBRANCH  44  68
BRANCH  56  79
ATOM     79  C   UNL     1      -4.367  -6.816  -6.426  1.00  0.00     0.023 A 
ATOM     80  C   UNL     1      -5.070  -8.022  -6.586  1.00  0.00     0.031 A 
ATOM     81  C   UNL     1      -3.700  -6.278  -7.540  1.00  0.00     0.131 A 
ATOM     82  C   UNL     1      -5.064  -8.671  -7.830  1.00  0.00     0.055 A 
ATOM     83  C   UNL     1      -3.733  -6.906  -8.785  1.00  0.00     0.041 A 
ATOM     84  F   UNL     1      -3.016  -5.128  -7.436  1.00  0.00    -0.206 F 
ATOM     85  C   UNL     1      -4.412  -8.113  -8.934  1.00  0.00     0.022 A 
BRANCH  82  86
ATOM     86  S   UNL     1      -5.887 -10.280  -7.980  1.00  0.00     0.124 S 
ATOM     87  O   UNL     1      -5.089 -11.112  -7.085  1.00  0.00    -0.237 OA
ATOM     88  O   UNL     1      -7.244  -9.984  -7.534  1.00  0.00    -0.237 OA
ATOM     89  O   UNL     1      -5.760 -10.599  -9.401  1.00  0.00    -0.744 OA
ENDBRANCH  82  86
ENDBRANCH  56  79
ENDBRANCH  30  31
ENDBRANCH  23  25
ENDBRANCH  22  23
ENDBRANCH   1  22
TORSDOF 15
