REMARK SMILES CCC([NH3+])(CC)C(=O)N1Cc2nc[nH]c2C[C@H]1C(=O)OCCOC(=O)c1ccc(-c2c3nc(c(-c4cc(S(=O)(=O)[O-])ccc4F)c4ccc([nH]4)c(-c4cc(S(=O)(=O)[O-])ccc4F)c4nc(c(-c5cc(S(=O)(=O)[O-])ccc5F)c5ccc2[nH]5)C=C4)C=C3)cc1
REMARK SMILES IDX 21 1 20 2 18 3 19 4 17 5 9 6 10 7 11 8 16 9 12 10 15 11
REMARK SMILES IDX 13 12 14 13 7 15 8 16 3 17 2 18 1 19 4 20 5 24 6 25 22 26
REMARK SMILES IDX 23 27 24 28 25 29 26 30 27 31 88 32 28 33 87 34 29 35 30 36
REMARK SMILES IDX 31 37 81 38 32 39 86 40 80 41 82 42 33 43 85 44 79 45 78 46
REMARK SMILES IDX 34 48 66 49 46 50 65 51 47 52 50 53 64 54 83 55 48 56 49 57
REMARK SMILES IDX 63 59 84 60 51 61 35 62 36 63 44 64 37 65 43 66 45 67 42 68
REMARK SMILES IDX 38 69 39 70 40 71 41 72 67 73 68 74 76 75 69 76 75 77 77 78
REMARK SMILES IDX 74 79 70 80 71 81 72 82 73 83 52 84 53 85 61 86 54 87 60 88
REMARK SMILES IDX 62 89 59 90 55 91 56 92 57 93 58 94
REMARK H PARENT 14 14 4 21 4 22 4 23 82 47 50 58
REMARK Flexibility Score: inf
ROOT
ATOM      1  C   UNL     1       4.469   6.520  -3.103  1.00  0.00     0.274 C 
ENDROOT
BRANCH   1   2
ATOM      2  O   UNL     1       4.345   5.622  -1.986  1.00  0.00    -0.461 OA
BRANCH   2   3
ATOM      3  C   UNL     1       3.617   6.032  -0.914  1.00  0.00     0.329 C 
ATOM      4  O   UNL     1       3.234   7.190  -0.749  1.00  0.00    -0.250 OA
BRANCH   3   5
ATOM      5  C   UNL     1       3.451   4.940   0.176  1.00  0.00     0.201 C 
ATOM      6  N   UNL     1       3.513   3.471  -0.161  1.00  0.00    -0.317 N 
ATOM      7  C   UNL     1       4.753   2.995  -0.817  1.00  0.00     0.178 C 
ATOM      8  C   UNL     1       5.934   3.736  -0.267  1.00  0.00     0.081 A 
ATOM      9  C   UNL     1       4.566   5.273   1.217  1.00  0.00     0.093 C 
ATOM     10  N   UNL     1       7.219   3.630  -0.734  1.00  0.00    -0.240 NA
ATOM     11  C   UNL     1       5.843   4.764   0.648  1.00  0.00     0.042 A 
ATOM     12  C   UNL     1       7.888   4.574  -0.108  1.00  0.00     0.197 A 
ATOM     13  N   UNL     1       7.094   5.289   0.750  1.00  0.00    -0.348 N 
ATOM     14  H   UNL     1       7.374   6.036   1.326  1.00  0.00     0.167 HD
BRANCH   6  15
ATOM     15  C   UNL     1       2.854   2.517   0.630  1.00  0.00     0.284 C 
ATOM     16  O   UNL     1       3.506   1.728   1.320  1.00  0.00    -0.268 OA
BRANCH  15  17
ATOM     17  C   UNL     1       1.275   2.433   0.568  1.00  0.00     0.173 C 
BRANCH  17  18
ATOM     18  C   UNL     1       0.773   1.032   1.045  1.00  0.00     0.075 C 
ATOM     19  C   UNL     1       1.100  -0.158   0.144  1.00  0.00     0.011 C 
ENDBRANCH  17  18
BRANCH  17  20
ATOM     20  N   UNL     1       0.838   2.646  -0.823  1.00  0.00    -0.345 N 
ATOM     21  H   UNL     1      -0.179   2.594  -0.871  1.00  0.00     0.345 HD
ATOM     22  H   UNL     1       1.245   1.927  -1.421  1.00  0.00     0.345 HD
ATOM     23  H   UNL     1       1.147   3.566  -1.139  1.00  0.00     0.345 HD
ENDBRANCH  17  20
BRANCH  17  24
ATOM     24  C   UNL     1       0.563   3.504   1.434  1.00  0.00     0.075 C 
ATOM     25  C   UNL     1       0.971   3.510   2.903  1.00  0.00     0.011 C 
ENDBRANCH  17  24
ENDBRANCH  15  17
ENDBRANCH   6  15
ENDBRANCH   3   5
ENDBRANCH   2   3
ENDBRANCH   1   2
BRANCH   1  26
ATOM     26  C   UNL     1       3.484   6.133  -4.198  1.00  0.00     0.275 C 
BRANCH  26  27
ATOM     27  O   UNL     1       2.149   6.512  -3.849  1.00  0.00    -0.458 OA
BRANCH  27  28
ATOM     28  C   UNL     1       1.508   5.597  -3.091  1.00  0.00     0.338 C 
ATOM     29  O   UNL     1       1.999   4.644  -2.508  1.00  0.00    -0.246 OA
BRANCH  28  30
ATOM     30  C   UNL     1       0.063   5.739  -3.208  1.00  0.00     0.060 A 
ATOM     31  C   UNL     1      -0.697   5.048  -2.263  1.00  0.00     0.016 A 
ATOM     32  C   UNL     1      -0.457   6.139  -4.440  1.00  0.00     0.016 A 
ATOM     33  C   UNL     1      -1.895   4.508  -2.658  1.00  0.00     0.010 A 
ATOM     34  C   UNL     1      -1.682   5.644  -4.814  1.00  0.00     0.010 A 
ATOM     35  C   UNL     1      -2.336   4.753  -3.959  1.00  0.00    -0.014 A 
BRANCH  35  36
ATOM     36  C   UNL     1      -3.591   4.153  -4.359  1.00  0.00     0.031 A 
ATOM     37  C   UNL     1      -4.754   4.675  -3.604  1.00  0.00     0.074 A 
ATOM     38  C   UNL     1      -3.690   3.350  -5.433  1.00  0.00     0.049 A 
ATOM     39  N   UNL     1      -5.643   4.019  -2.937  1.00  0.00    -0.248 NA
ATOM     40  C   UNL     1      -4.847   6.138  -3.451  1.00  0.00     0.031 C 
ATOM     41  C   UNL     1      -2.639   3.014  -6.397  1.00  0.00     0.029 A 
ATOM     42  N   UNL     1      -4.807   2.810  -5.987  1.00  0.00    -0.354 N 
ATOM     43  C   UNL     1      -6.529   4.977  -2.460  1.00  0.00     0.074 A 
ATOM     44  C   UNL     1      -5.890   6.251  -2.634  1.00  0.00     0.031 C 
ATOM     45  C   UNL     1      -3.219   2.579  -7.537  1.00  0.00     0.029 A 
ATOM     46  C   UNL     1      -4.658   2.506  -7.334  1.00  0.00     0.049 A 
ATOM     47  H   UNL     1      -5.638   2.651  -5.485  1.00  0.00     0.167 HD
ATOM     48  C   UNL     1      -7.824   4.673  -2.183  1.00  0.00     0.034 A 
ATOM     49  C   UNL     1      -5.656   2.340  -8.239  1.00  0.00     0.034 A 
ATOM     50  C   UNL     1      -8.001   3.257  -1.970  1.00  0.00     0.049 A 
ATOM     51  C   UNL     1      -6.900   2.054  -7.480  1.00  0.00     0.074 A 
ATOM     52  C   UNL     1      -7.433   2.340  -1.104  1.00  0.00     0.029 A 
ATOM     53  N   UNL     1      -8.594   2.506  -2.960  1.00  0.00    -0.354 N 
ATOM     54  N   UNL     1      -7.080   0.974  -6.768  1.00  0.00    -0.248 NA
ATOM     55  C   UNL     1      -7.764   3.172  -7.124  1.00  0.00     0.031 C 
ATOM     56  C   UNL     1      -7.270   1.155  -1.877  1.00  0.00     0.029 A 
ATOM     57  C   UNL     1      -7.804   1.396  -3.144  1.00  0.00     0.049 A 
ATOM     58  H   UNL     1      -9.424   2.723  -3.443  1.00  0.00     0.167 HD
ATOM     59  C   UNL     1      -7.739   1.400  -5.625  1.00  0.00     0.074 A 
ATOM     60  C   UNL     1      -8.235   2.735  -5.951  1.00  0.00     0.031 C 
ATOM     61  C   UNL     1      -7.577   0.760  -4.428  1.00  0.00     0.034 A 
BRANCH  48  62
ATOM     62  C   UNL     1      -8.972   5.617  -2.450  1.00  0.00     0.023 A 
ATOM     63  C   UNL     1     -10.255   5.198  -2.060  1.00  0.00     0.031 A 
ATOM     64  C   UNL     1      -8.923   6.747  -3.302  1.00  0.00     0.131 A 
ATOM     65  C   UNL     1     -11.402   5.825  -2.576  1.00  0.00     0.055 A 
ATOM     66  C   UNL     1     -10.065   7.416  -3.746  1.00  0.00     0.041 A 
ATOM     67  F   UNL     1      -7.786   7.209  -3.836  1.00  0.00    -0.206 F 
ATOM     68  C   UNL     1     -11.317   6.936  -3.410  1.00  0.00     0.022 A 
BRANCH  65  69
ATOM     69  S   UNL     1     -13.005   5.034  -2.293  1.00  0.00     0.124 S 
ATOM     70  O   UNL     1     -12.741   3.667  -2.729  1.00  0.00    -0.237 OA
ATOM     71  O   UNL     1     -13.186   5.231  -0.859  1.00  0.00    -0.237 OA
ATOM     72  O   UNL     1     -13.912   5.797  -3.148  1.00  0.00    -0.744 OA
ENDBRANCH  65  69
ENDBRANCH  48  62
BRANCH  49  73
ATOM     73  C   UNL     1      -5.628   2.752  -9.668  1.00  0.00     0.023 A 
ATOM     74  C   UNL     1      -6.523   2.225 -10.618  1.00  0.00     0.031 A 
ATOM     75  C   UNL     1      -4.836   3.849 -10.084  1.00  0.00     0.131 A 
ATOM     76  C   UNL     1      -6.585   2.778 -11.918  1.00  0.00     0.055 A 
ATOM     77  C   UNL     1      -4.886   4.377 -11.374  1.00  0.00     0.041 A 
ATOM     78  F   UNL     1      -4.042   4.505  -9.223  1.00  0.00    -0.206 F 
ATOM     79  C   UNL     1      -5.769   3.846 -12.298  1.00  0.00     0.022 A 
BRANCH  76  80
ATOM     80  S   UNL     1      -7.825   2.180 -13.109  1.00  0.00     0.124 S 
ATOM     81  O   UNL     1      -7.291   0.875 -13.481  1.00  0.00    -0.237 OA
ATOM     82  O   UNL     1      -9.049   2.179 -12.315  1.00  0.00    -0.237 OA
ATOM     83  O   UNL     1      -7.789   3.186 -14.171  1.00  0.00    -0.744 OA
ENDBRANCH  76  80
ENDBRANCH  49  73
BRANCH  61  84
ATOM     84  C   UNL     1      -6.882  -0.587  -4.412  1.00  0.00     0.023 A 
ATOM     85  C   UNL     1      -5.585  -0.825  -4.921  1.00  0.00     0.031 A 
ATOM     86  C   UNL     1      -7.514  -1.641  -3.728  1.00  0.00     0.131 A 
ATOM     87  C   UNL     1      -4.977  -2.084  -4.752  1.00  0.00     0.055 A 
ATOM     88  C   UNL     1      -6.901  -2.880  -3.543  1.00  0.00     0.041 A 
ATOM     89  F   UNL     1      -8.733  -1.470  -3.190  1.00  0.00    -0.206 F 
ATOM     90  C   UNL     1      -5.631  -3.109  -4.061  1.00  0.00     0.022 A 
BRANCH  87  91
ATOM     91  S   UNL     1      -3.325  -2.419  -5.444  1.00  0.00     0.124 S 
ATOM     92  O   UNL     1      -3.406  -1.888  -6.799  1.00  0.00    -0.237 OA
ATOM     93  O   UNL     1      -2.446  -1.700  -4.525  1.00  0.00    -0.237 OA
ATOM     94  O   UNL     1      -3.216  -3.877  -5.368  1.00  0.00    -0.744 OA
ENDBRANCH  87  91
ENDBRANCH  61  84
ENDBRANCH  35  36
ENDBRANCH  28  30
ENDBRANCH  27  28
ENDBRANCH  26  27
ENDBRANCH   1  26
TORSDOF 19
