REMARK SMILES COc1ccc2c(c1)[C@]1(CCC2)C[C@H]1C(=O)OCCOC(=O)c1ccc(-c2c3nc(c(-c4cc(S(=O)(=O)[O-])ccc4F)c4ccc([nH]4)c(-c4cc(S(=O)(=O)[O-])ccc4F)c4nc(c(-c5cc(S(=O)(=O)[O-])ccc5F)c5ccc2[nH]5)C=C4)C=C3)cc1
REMARK SMILES IDX 19 1 18 2 17 3 15 4 16 5 14 6 3 7 4 8 8 9 5 10 7 11 6 12
REMARK SMILES IDX 9 13 12 14 10 15 13 16 11 17 2 18 1 19 20 20 21 21 22 22
REMARK SMILES IDX 23 23 24 24 85 25 25 26 84 27 26 28 27 29 28 30 78 31 29 32
REMARK SMILES IDX 83 33 77 34 79 35 30 36 82 37 76 38 75 39 31 41 63 42 43 43
REMARK SMILES IDX 62 44 44 45 47 46 61 47 80 48 45 49 46 50 60 52 81 53 48 54
REMARK SMILES IDX 32 55 33 56 41 57 34 58 40 59 42 60 39 61 35 62 36 63 37 64
REMARK SMILES IDX 38 65 64 66 65 67 73 68 66 69 72 70 74 71 71 72 67 73 68 74
REMARK SMILES IDX 69 75 70 76 49 77 50 78 58 79 51 80 57 81 59 82 56 83 52 84
REMARK SMILES IDX 53 85 54 86 55 87
REMARK H PARENT 79 40 47 51
REMARK Flexibility Score: inf
ROOT
ATOM      1  C   UNL     1      -1.913  -7.111  -2.972  1.00  0.00     0.275 C 
ENDROOT
BRANCH   1   2
ATOM      2  C   UNL     1      -3.186  -6.306  -3.261  1.00  0.00     0.274 C 
BRANCH   2   3
ATOM      3  O   UNL     1      -3.050  -4.977  -2.735  1.00  0.00    -0.462 OA
BRANCH   3   4
ATOM      4  C   UNL     1      -3.682  -4.712  -1.562  1.00  0.00     0.309 C 
ATOM      5  O   UNL     1      -4.545  -5.391  -1.031  1.00  0.00    -0.252 OA
BRANCH   4   6
ATOM      6  C   UNL     1      -3.092  -3.511  -0.934  1.00  0.00     0.111 C 
ATOM      7  C   UNL     1      -0.919   0.315  -1.404  1.00  0.00     0.119 A 
ATOM      8  C   UNL     1      -1.590   1.423  -1.894  1.00  0.00     0.047 A 
ATOM      9  C   UNL     1      -1.632  -0.830  -1.044  1.00  0.00     0.051 A 
ATOM     10  C   UNL     1      -2.981   1.411  -1.955  1.00  0.00     0.008 A 
ATOM     11  C   UNL     1      -3.041  -0.899  -1.139  1.00  0.00    -0.034 A 
ATOM     12  C   UNL     1      -3.708   0.273  -1.562  1.00  0.00    -0.044 A 
ATOM     13  C   UNL     1      -3.837  -2.186  -0.838  1.00  0.00     0.010 C 
ATOM     14  C   UNL     1      -5.216   0.309  -1.669  1.00  0.00     0.036 C 
ATOM     15  C   UNL     1      -5.304  -2.146  -1.231  1.00  0.00     0.013 C 
ATOM     16  C   UNL     1      -3.527  -2.978   0.411  1.00  0.00     0.029 C 
ATOM     17  C   UNL     1      -5.899  -0.793  -0.863  1.00  0.00     0.006 C 
BRANCH   7  18
ATOM     18  O   UNL     1       0.449   0.354  -1.395  1.00  0.00    -0.497 OA
ATOM     19  C   UNL     1       0.987   0.149  -0.088  1.00  0.00     0.278 C 
ENDBRANCH   7  18
ENDBRANCH   4   6
ENDBRANCH   3   4
ENDBRANCH   2   3
ENDBRANCH   1   2
BRANCH   1  20
ATOM     20  O   UNL     1      -1.816  -7.447  -1.575  1.00  0.00    -0.458 OA
BRANCH  20  21
ATOM     21  C   UNL     1      -1.108  -6.583  -0.807  1.00  0.00     0.338 C 
ATOM     22  O   UNL     1      -0.498  -5.596  -1.184  1.00  0.00    -0.246 OA
BRANCH  21  23
ATOM     23  C   UNL     1      -1.336  -6.908   0.612  1.00  0.00     0.060 A 
ATOM     24  C   UNL     1      -1.085  -8.180   1.122  1.00  0.00     0.016 A 
ATOM     25  C   UNL     1      -1.803  -5.893   1.450  1.00  0.00     0.016 A 
ATOM     26  C   UNL     1      -1.337  -8.432   2.474  1.00  0.00     0.010 A 
ATOM     27  C   UNL     1      -2.063  -6.144   2.793  1.00  0.00     0.010 A 
ATOM     28  C   UNL     1      -1.837  -7.419   3.315  1.00  0.00    -0.014 A 
BRANCH  28  29
ATOM     29  C   UNL     1      -2.018  -7.670   4.764  1.00  0.00     0.031 A 
ATOM     30  C   UNL     1      -3.383  -7.790   5.373  1.00  0.00     0.074 A 
ATOM     31  C   UNL     1      -0.917  -7.763   5.533  1.00  0.00     0.049 A 
ATOM     32  N   UNL     1      -3.706  -8.167   6.582  1.00  0.00    -0.248 NA
ATOM     33  C   UNL     1      -4.531  -7.426   4.529  1.00  0.00     0.031 C 
ATOM     34  C   UNL     1       0.448  -7.551   5.053  1.00  0.00     0.029 A 
ATOM     35  N   UNL     1      -0.764  -8.065   6.861  1.00  0.00    -0.354 N 
ATOM     36  C   UNL     1      -5.094  -8.112   6.641  1.00  0.00     0.074 A 
ATOM     37  C   UNL     1      -5.546  -7.596   5.367  1.00  0.00     0.031 C 
ATOM     38  C   UNL     1       1.304  -7.781   6.058  1.00  0.00     0.029 A 
ATOM     39  C   UNL     1       0.551  -8.137   7.258  1.00  0.00     0.049 A 
ATOM     40  H   UNL     1      -1.522  -8.215   7.472  1.00  0.00     0.167 HD
ATOM     41  C   UNL     1      -5.906  -8.491   7.657  1.00  0.00     0.034 A 
ATOM     42  C   UNL     1       1.091  -8.483   8.444  1.00  0.00     0.034 A 
ATOM     43  C   UNL     1      -5.417  -8.989   8.920  1.00  0.00     0.049 A 
ATOM     44  C   UNL     1       0.171  -8.937   9.548  1.00  0.00     0.074 A 
ATOM     45  C   UNL     1      -6.150  -9.461   9.995  1.00  0.00     0.029 A 
ATOM     46  N   UNL     1      -4.079  -9.075   9.283  1.00  0.00    -0.354 N 
ATOM     47  N   UNL     1      -1.139  -9.027   9.543  1.00  0.00    -0.248 NA
ATOM     48  C   UNL     1       0.794  -9.367  10.806  1.00  0.00     0.031 C 
ATOM     49  C   UNL     1      -5.264  -9.760  11.030  1.00  0.00     0.029 A 
ATOM     50  C   UNL     1      -3.969  -9.566  10.574  1.00  0.00     0.049 A 
ATOM     51  H   UNL     1      -3.321  -8.825   8.708  1.00  0.00     0.167 HD
ATOM     52  C   UNL     1      -1.494  -9.551  10.783  1.00  0.00     0.074 A 
ATOM     53  C   UNL     1      -0.258  -9.783  11.501  1.00  0.00     0.031 C 
ATOM     54  C   UNL     1      -2.731  -9.812  11.279  1.00  0.00     0.034 A 
BRANCH  41  55
ATOM     55  C   UNL     1      -7.403  -8.434   7.458  1.00  0.00     0.023 A 
ATOM     56  C   UNL     1      -8.207  -7.661   8.318  1.00  0.00     0.031 A 
ATOM     57  C   UNL     1      -8.045  -9.268   6.524  1.00  0.00     0.131 A 
ATOM     58  C   UNL     1      -9.603  -7.772   8.255  1.00  0.00     0.055 A 
ATOM     59  C   UNL     1      -9.436  -9.338   6.433  1.00  0.00     0.041 A 
ATOM     60  F   UNL     1      -7.327 -10.036   5.688  1.00  0.00    -0.206 F 
ATOM     61  C   UNL     1     -10.221  -8.599   7.312  1.00  0.00     0.022 A 
BRANCH  58  62
ATOM     62  S   UNL     1     -10.669  -6.913   9.445  1.00  0.00     0.124 S 
ATOM     63  O   UNL     1     -11.510  -6.104   8.566  1.00  0.00    -0.237 OA
ATOM     64  O   UNL     1     -11.348  -8.025  10.105  1.00  0.00    -0.237 OA
ATOM     65  O   UNL     1      -9.736  -6.161  10.275  1.00  0.00    -0.744 OA
ENDBRANCH  58  62
ENDBRANCH  41  55
BRANCH  42  66
ATOM     66  C   UNL     1       2.577  -8.516   8.576  1.00  0.00     0.023 A 
ATOM     67  C   UNL     1       3.342  -7.348   8.400  1.00  0.00     0.031 A 
ATOM     68  C   UNL     1       3.259  -9.733   8.741  1.00  0.00     0.131 A 
ATOM     69  C   UNL     1       4.738  -7.435   8.319  1.00  0.00     0.055 A 
ATOM     70  C   UNL     1       4.653  -9.803   8.738  1.00  0.00     0.041 A 
ATOM     71  F   UNL     1       2.575 -10.878   8.889  1.00  0.00    -0.206 F 
ATOM     72  C   UNL     1       5.400  -8.652   8.506  1.00  0.00     0.022 A 
BRANCH  69  73
ATOM     73  S   UNL     1       5.730  -6.001   7.816  1.00  0.00     0.124 S 
ATOM     74  O   UNL     1       6.601  -5.813   8.972  1.00  0.00    -0.237 OA
ATOM     75  O   UNL     1       6.382  -6.498   6.607  1.00  0.00    -0.237 OA
ATOM     76  O   UNL     1       4.737  -4.954   7.598  1.00  0.00    -0.744 OA
ENDBRANCH  69  73
ENDBRANCH  42  66
BRANCH  54  77
ATOM     77  C   UNL     1      -2.847 -10.394  12.670  1.00  0.00     0.023 A 
ATOM     78  C   UNL     1      -3.471 -11.643  12.855  1.00  0.00     0.031 A 
ATOM     79  C   UNL     1      -2.494  -9.654  13.811  1.00  0.00     0.131 A 
ATOM     80  C   UNL     1      -3.766 -12.092  14.148  1.00  0.00     0.055 A 
ATOM     81  C   UNL     1      -2.738 -10.132  15.100  1.00  0.00     0.041 A 
ATOM     82  F   UNL     1      -1.911  -8.450  13.691  1.00  0.00    -0.206 F 
ATOM     83  C   UNL     1      -3.392 -11.348  15.272  1.00  0.00     0.022 A 
BRANCH  80  84
ATOM     84  S   UNL     1      -4.739 -13.600  14.417  1.00  0.00     0.124 S 
ATOM     85  O   UNL     1      -3.798 -14.437  15.159  1.00  0.00    -0.237 OA
ATOM     86  O   UNL     1      -5.872 -13.101  15.191  1.00  0.00    -0.237 OA
ATOM     87  O   UNL     1      -5.053 -14.063  13.070  1.00  0.00    -0.744 OA
ENDBRANCH  80  84
ENDBRANCH  54  77
ENDBRANCH  28  29
ENDBRANCH  21  23
ENDBRANCH  20  21
ENDBRANCH   1  20
TORSDOF 15
