REMARK SMILES COc1ccc2c(c1)C=C(C(=O)OCCOC(=O)c1ccc(-c3c4nc(c(-c5cc(S(=O)(=O)[O-])ccc5F)c5ccc([nH]5)c(-c5cc(S(=O)(=O)[O-])ccc5F)c5nc(c(-c6cc(S(=O)(=O)[O-])ccc6F)c6ccc3[nH]6)C=C5)C=C4)cc1)[C@H](C(F)(F)F)O2
REMARK SMILES IDX 15 1 14 2 13 3 11 4 12 5 10 6 3 7 4 8 8 9 5 10 7 11 6 12
REMARK SMILES IDX 9 13 87 14 82 15 2 16 1 17 83 18 84 19 85 20 86 21 16 22
REMARK SMILES IDX 17 23 18 24 19 25 20 26 81 27 21 28 80 29 22 30 23 31 24 32
REMARK SMILES IDX 74 33 25 34 79 35 73 36 75 37 26 38 78 39 72 40 71 41 27 43
REMARK SMILES IDX 59 44 39 45 58 46 40 47 43 48 57 49 76 50 41 51 42 52 56 54
REMARK SMILES IDX 77 55 44 56 28 57 29 58 37 59 30 60 36 61 38 62 35 63 31 64
REMARK SMILES IDX 32 65 33 66 34 67 60 68 61 69 69 70 62 71 68 72 70 73 67 74
REMARK SMILES IDX 63 75 64 76 65 77 66 78 45 79 46 80 54 81 47 82 53 83 55 84
REMARK SMILES IDX 52 85 48 86 49 87 50 88 51 89
REMARK H PARENT 75 42 43 53
REMARK Flexibility Score: inf
ROOT
ATOM      1  C   UNL     1      -3.592   3.168   9.138  1.00  0.00     0.275 C 
ENDROOT
BRANCH   1   2
ATOM      2  C   UNL     1      -3.111   4.197   8.110  1.00  0.00     0.275 C 
BRANCH   2   3
ATOM      3  O   UNL     1      -2.187   3.624   7.161  1.00  0.00    -0.459 OA
BRANCH   3   4
ATOM      4  C   UNL     1      -0.893   4.029   7.276  1.00  0.00     0.338 C 
ATOM      5  O   UNL     1      -0.482   4.819   8.103  1.00  0.00    -0.246 OA
BRANCH   4   6
ATOM      6  C   UNL     1      -0.017   3.378   6.272  1.00  0.00     0.087 C 
ATOM      7  C   UNL     1       0.825   1.335   1.966  1.00  0.00     0.119 A 
ATOM      8  C   UNL     1       2.179   1.234   2.293  1.00  0.00     0.050 A 
ATOM      9  C   UNL     1      -0.061   1.940   2.869  1.00  0.00     0.058 A 
ATOM     10  C   UNL     1       2.647   1.766   3.495  1.00  0.00     0.051 A 
ATOM     11  C   UNL     1       0.396   2.444   4.091  1.00  0.00     0.021 A 
ATOM     12  C   UNL     1       1.759   2.373   4.380  1.00  0.00     0.128 A 
ATOM     13  C   UNL     1      -0.501   3.084   5.052  1.00  0.00     0.027 C 
ATOM     14  O   UNL     1       2.301   2.963   5.484  1.00  0.00    -0.475 OA
ATOM     15  C   UNL     1       1.425   3.053   6.642  1.00  0.00     0.316 C 
BRANCH   7  16
ATOM     16  O   UNL     1       0.261   0.933   0.786  1.00  0.00    -0.497 OA
ATOM     17  C   UNL     1       0.988  -0.027   0.026  1.00  0.00     0.278 C 
ENDBRANCH   7  16
BRANCH  15  18
ATOM     18  C   UNL     1       2.139   3.940   7.681  1.00  0.00     0.430 C 
ATOM     19  F   UNL     1       1.628   3.782   8.923  1.00  0.00    -0.167 F 
ATOM     20  F   UNL     1       3.448   3.590   7.777  1.00  0.00    -0.167 F 
ATOM     21  F   UNL     1       2.102   5.250   7.354  1.00  0.00    -0.167 F 
ENDBRANCH  15  18
ENDBRANCH   4   6
ENDBRANCH   3   4
ENDBRANCH   2   3
ENDBRANCH   1   2
BRANCH   1  22
ATOM     22  O   UNL     1      -2.504   2.653   9.927  1.00  0.00    -0.458 OA
BRANCH  22  23
ATOM     23  C   UNL     1      -1.979   1.488   9.473  1.00  0.00     0.338 C 
ATOM     24  O   UNL     1      -2.382   0.833   8.524  1.00  0.00    -0.246 OA
BRANCH  23  25
ATOM     25  C   UNL     1      -0.701   1.207  10.155  1.00  0.00     0.060 A 
ATOM     26  C   UNL     1       0.386   0.892   9.337  1.00  0.00     0.016 A 
ATOM     27  C   UNL     1      -0.547   1.229  11.543  1.00  0.00     0.016 A 
ATOM     28  C   UNL     1       1.650   0.682   9.884  1.00  0.00     0.010 A 
ATOM     29  C   UNL     1       0.713   0.960  12.100  1.00  0.00     0.010 A 
ATOM     30  C   UNL     1       1.822   0.704  11.273  1.00  0.00    -0.014 A 
BRANCH  30  31
ATOM     31  C   UNL     1       3.145   0.336  11.838  1.00  0.00     0.031 A 
ATOM     32  C   UNL     1       3.435  -1.108  12.131  1.00  0.00     0.074 A 
ATOM     33  C   UNL     1       4.103   1.264  12.021  1.00  0.00     0.049 A 
ATOM     34  N   UNL     1       4.511  -1.655  12.636  1.00  0.00    -0.248 NA
ATOM     35  C   UNL     1       2.369  -2.064  11.796  1.00  0.00     0.031 C 
ATOM     36  C   UNL     1       3.979   2.681  11.680  1.00  0.00     0.029 A 
ATOM     37  N   UNL     1       5.373   1.151  12.531  1.00  0.00    -0.354 N 
ATOM     38  C   UNL     1       4.260  -3.022  12.668  1.00  0.00     0.074 A 
ATOM     39  C   UNL     1       2.916  -3.213  12.161  1.00  0.00     0.031 C 
ATOM     40  C   UNL     1       5.125   3.307  12.004  1.00  0.00     0.029 A 
ATOM     41  C   UNL     1       6.047   2.349  12.612  1.00  0.00     0.049 A 
ATOM     42  H   UNL     1       5.766   0.293  12.812  1.00  0.00     0.167 HD
ATOM     43  C   UNL     1       5.075  -4.024  13.081  1.00  0.00     0.034 A 
ATOM     44  C   UNL     1       7.253   2.640  13.143  1.00  0.00     0.034 A 
ATOM     45  C   UNL     1       6.396  -3.816  13.625  1.00  0.00     0.049 A 
ATOM     46  C   UNL     1       8.081   1.523  13.741  1.00  0.00     0.074 A 
ATOM     47  C   UNL     1       7.289  -4.760  14.102  1.00  0.00     0.029 A 
ATOM     48  N   UNL     1       7.008  -2.579  13.786  1.00  0.00    -0.354 N 
ATOM     49  N   UNL     1       7.827   0.235  13.789  1.00  0.00    -0.248 NA
ATOM     50  C   UNL     1       9.362   1.901  14.355  1.00  0.00     0.031 C 
ATOM     51  C   UNL     1       8.399  -4.090  14.627  1.00  0.00     0.029 A 
ATOM     52  C   UNL     1       8.247  -2.733  14.391  1.00  0.00     0.049 A 
ATOM     53  H   UNL     1       6.618  -1.717  13.510  1.00  0.00     0.167 HD
ATOM     54  C   UNL     1       8.934  -0.351  14.401  1.00  0.00     0.074 A 
ATOM     55  C   UNL     1       9.861   0.722  14.694  1.00  0.00     0.031 C 
ATOM     56  C   UNL     1       9.166  -1.658  14.689  1.00  0.00     0.034 A 
BRANCH  43  57
ATOM     57  C   UNL     1       4.521  -5.426  13.026  1.00  0.00     0.023 A 
ATOM     58  C   UNL     1       4.183  -6.041  11.807  1.00  0.00     0.031 A 
ATOM     59  C   UNL     1       4.289  -6.144  14.213  1.00  0.00     0.131 A 
ATOM     60  C   UNL     1       3.562  -7.300  11.808  1.00  0.00     0.055 A 
ATOM     61  C   UNL     1       3.750  -7.431  14.201  1.00  0.00     0.041 A 
ATOM     62  F   UNL     1       4.566  -5.598  15.407  1.00  0.00    -0.206 F 
ATOM     63  C   UNL     1       3.368  -8.010  12.995  1.00  0.00     0.022 A 
BRANCH  60  64
ATOM     64  S   UNL     1       2.869  -7.925  10.253  1.00  0.00     0.124 S 
ATOM     65  O   UNL     1       1.937  -6.859   9.895  1.00  0.00    -0.237 OA
ATOM     66  O   UNL     1       4.051  -8.051   9.408  1.00  0.00    -0.237 OA
ATOM     67  O   UNL     1       2.241  -9.186  10.640  1.00  0.00    -0.744 OA
ENDBRANCH  60  64
ENDBRANCH  43  57
BRANCH  44  68
ATOM     68  C   UNL     1       7.743   4.051  13.202  1.00  0.00     0.023 A 
ATOM     69  C   UNL     1       8.941   4.436  12.578  1.00  0.00     0.031 A 
ATOM     70  C   UNL     1       7.064   5.015  13.969  1.00  0.00     0.131 A 
ATOM     71  C   UNL     1       9.450   5.731  12.776  1.00  0.00     0.055 A 
ATOM     72  C   UNL     1       7.540   6.320  14.109  1.00  0.00     0.041 A 
ATOM     73  F   UNL     1       5.923   4.699  14.603  1.00  0.00    -0.206 F 
ATOM     74  C   UNL     1       8.749   6.679  13.524  1.00  0.00     0.022 A 
BRANCH  71  75
ATOM     75  S   UNL     1      11.102   6.126  12.136  1.00  0.00     0.124 S 
ATOM     76  O   UNL     1      11.927   5.135  12.817  1.00  0.00    -0.237 OA
ATOM     77  O   UNL     1      10.927   5.938  10.700  1.00  0.00    -0.237 OA
ATOM     78  O   UNL     1      11.310   7.509  12.561  1.00  0.00    -0.744 OA
ENDBRANCH  71  75
ENDBRANCH  44  68
BRANCH  56  79
ATOM     79  C   UNL     1      10.503  -2.009  15.305  1.00  0.00     0.023 A 
ATOM     80  C   UNL     1      10.880  -1.559  16.582  1.00  0.00     0.031 A 
ATOM     81  C   UNL     1      11.419  -2.807  14.593  1.00  0.00     0.131 A 
ATOM     82  C   UNL     1      12.157  -1.859  17.083  1.00  0.00     0.055 A 
ATOM     83  C   UNL     1      12.660  -3.160  15.125  1.00  0.00     0.041 A 
ATOM     84  F   UNL     1      11.119  -3.264  13.366  1.00  0.00    -0.206 F 
ATOM     85  C   UNL     1      13.041  -2.674  16.372  1.00  0.00     0.022 A 
BRANCH  82  86
ATOM     86  S   UNL     1      12.691  -1.086  18.636  1.00  0.00     0.124 S 
ATOM     87  O   UNL     1      12.553   0.334  18.331  1.00  0.00    -0.237 OA
ATOM     88  O   UNL     1      11.738  -1.627  19.599  1.00  0.00    -0.237 OA
ATOM     89  O   UNL     1      14.067  -1.555  18.797  1.00  0.00    -0.744 OA
ENDBRANCH  82  86
ENDBRANCH  56  79
ENDBRANCH  30  31
ENDBRANCH  23  25
ENDBRANCH  22  23
ENDBRANCH   1  22
TORSDOF 16
