REMARK SMILES NS(=O)(=O)c1ccc(/N=N/c2ccc(O)c(C(=O)OCCOC(=O)c3ccc(-c4c5nc(c(-c6cc(S(=O)(=O)[O-])ccc6F)c6ccc([nH]6)c(-c6cc(S(=O)(=O)[O-])ccc6F)c6nc(c(-c7cc(S(=O)(=O)[O-])ccc7F)c7ccc4[nH]7)C=C6)C=C5)cc3)c2)cc1
REMARK SMILES IDX 20 1 19 2 17 3 18 4 16 5 11 6 12 7 88 8 13 9 14 10 10 11
REMARK SMILES IDX 9 12 8 13 5 14 6 15 90 16 7 17 89 18 2 19 3 20 4 21 1 22
REMARK SMILES IDX 15 25 21 27 22 28 23 29 24 30 25 31 26 32 87 33 27 34 86 35
REMARK SMILES IDX 28 36 29 37 30 38 80 39 31 40 85 41 79 42 81 43 32 44 84 45
REMARK SMILES IDX 78 46 77 47 33 49 65 50 45 51 64 52 46 53 49 54 63 55 82 56
REMARK SMILES IDX 47 57 48 58 62 60 83 61 50 62 34 63 35 64 43 65 36 66 42 67
REMARK SMILES IDX 44 68 41 69 37 70 38 71 39 72 40 73 66 74 67 75 75 76 68 77
REMARK SMILES IDX 74 78 76 79 73 80 69 81 70 82 71 83 72 84 51 85 52 86 60 87
REMARK SMILES IDX 53 88 59 89 61 90 58 91 54 92 55 93 56 94 57 95
REMARK H PARENT 1 23 1 24 15 26 81 48 49 59
REMARK Flexibility Score: inf
ROOT
ATOM      1  C   UNL     1       1.561   4.083 -11.922  1.00  0.00     0.275 C 
ENDROOT
BRANCH   1   2
ATOM      2  O   UNL     1       1.722   4.457 -10.542  1.00  0.00    -0.458 OA
BRANCH   2   3
ATOM      3  C   UNL     1       2.712   5.339 -10.260  1.00  0.00     0.342 C 
ATOM      4  O   UNL     1       3.510   5.818 -11.053  1.00  0.00    -0.246 OA
BRANCH   3   5
ATOM      5  C   UNL     1       2.666   5.758  -8.839  1.00  0.00     0.104 A 
ATOM      6  C   UNL     1       1.899   5.433  -6.558  1.00  0.00     0.087 A 
ATOM      7  C   UNL     1       2.422   6.681  -6.205  1.00  0.00     0.034 A 
ATOM      8  C   UNL     1       1.982   4.998  -7.887  1.00  0.00     0.049 A 
ATOM      9  C   UNL     1       3.126   7.434  -7.143  1.00  0.00     0.049 A 
ATOM     10  C   UNL     1       3.288   6.949  -8.440  1.00  0.00     0.130 A 
BRANCH   6  11
ATOM     11  N   UNL     1       1.338   4.591  -5.582  1.00  0.00    -0.151 NA
ATOM     12  N   UNL     1       2.178   3.699  -5.328  1.00  0.00    -0.151 NA
BRANCH  12  13
ATOM     13  C   UNL     1       1.712   2.710  -4.450  1.00  0.00     0.086 A 
ATOM     14  C   UNL     1       0.988   0.648  -2.702  1.00  0.00     0.082 A 
ATOM     15  C   UNL     1       1.866   0.382  -3.752  1.00  0.00     0.024 A 
ATOM     16  C   UNL     1       0.453   1.927  -2.523  1.00  0.00     0.024 A 
ATOM     17  C   UNL     1       2.225   1.416  -4.617  1.00  0.00     0.031 A 
ATOM     18  C   UNL     1       0.823   2.956  -3.393  1.00  0.00     0.031 A 
BRANCH  14  19
ATOM     19  S   UNL     1       0.559  -0.636  -1.569  1.00  0.00     0.238 S 
ATOM     20  O   UNL     1       1.287  -1.837  -1.899  1.00  0.00    -0.207 OA
ATOM     21  O   UNL     1      -0.872  -0.626  -1.366  1.00  0.00    -0.207 OA
BRANCH  19  22
ATOM     22  N   UNL     1       1.243  -0.079  -0.140  1.00  0.00    -0.225 NA
ATOM     23  H   UNL     1       1.060  -0.749   0.608  1.00  0.00     0.137 HD
ATOM     24  H   UNL     1       0.834   0.823   0.103  1.00  0.00     0.137 HD
ENDBRANCH  19  22
ENDBRANCH  14  19
ENDBRANCH  12  13
ENDBRANCH   6  11
BRANCH  10  25
ATOM     25  O   UNL     1       4.045   7.721  -9.278  1.00  0.00    -0.507 OA
ATOM     26  H   UNL     1       4.440   8.509  -8.960  1.00  0.00     0.293 HD
ENDBRANCH  10  25
ENDBRANCH   3   5
ENDBRANCH   2   3
ENDBRANCH   1   2
BRANCH   1  27
ATOM     27  C   UNL     1       0.353   4.782 -12.555  1.00  0.00     0.275 C 
BRANCH  27  28
ATOM     28  O   UNL     1       0.579   6.198 -12.698  1.00  0.00    -0.458 OA
BRANCH  28  29
ATOM     29  C   UNL     1       0.055   6.966 -11.711  1.00  0.00     0.338 C 
ATOM     30  O   UNL     1      -0.629   6.584 -10.776  1.00  0.00    -0.246 OA
BRANCH  29  31
ATOM     31  C   UNL     1       0.611   8.329 -11.803  1.00  0.00     0.060 A 
ATOM     32  C   UNL     1       1.333   8.785 -10.700  1.00  0.00     0.016 A 
ATOM     33  C   UNL     1       0.423   9.161 -12.907  1.00  0.00     0.016 A 
ATOM     34  C   UNL     1       1.928  10.043 -10.708  1.00  0.00     0.010 A 
ATOM     35  C   UNL     1       0.986  10.447 -12.899  1.00  0.00     0.010 A 
ATOM     36  C   UNL     1       1.750  10.892 -11.803  1.00  0.00    -0.014 A 
BRANCH  36  37
ATOM     37  C   UNL     1       2.280  12.277 -11.732  1.00  0.00     0.031 A 
ATOM     38  C   UNL     1       1.345  13.403 -11.392  1.00  0.00     0.074 A 
ATOM     39  C   UNL     1       3.594  12.521 -11.897  1.00  0.00     0.049 A 
ATOM     40  N   UNL     1       1.577  14.688 -11.338  1.00  0.00    -0.248 NA
ATOM     41  C   UNL     1      -0.035  13.022 -11.062  1.00  0.00     0.031 C 
ATOM     42  C   UNL     1       4.617  11.502 -12.129  1.00  0.00     0.029 A 
ATOM     43  N   UNL     1       4.294  13.703 -11.891  1.00  0.00    -0.354 N 
ATOM     44  C   UNL     1       0.370  15.276 -10.977  1.00  0.00     0.074 A 
ATOM     45  C   UNL     1      -0.596  14.204 -10.854  1.00  0.00     0.031 C 
ATOM     46  C   UNL     1       5.813  12.104 -12.250  1.00  0.00     0.029 A 
ATOM     47  C   UNL     1       5.635  13.553 -12.162  1.00  0.00     0.049 A 
ATOM     48  H   UNL     1       3.876  14.576 -11.709  1.00  0.00     0.167 HD
ATOM     49  C   UNL     1       0.097  16.587 -10.766  1.00  0.00     0.034 A 
ATOM     50  C   UNL     1       6.598  14.477 -12.356  1.00  0.00     0.034 A 
ATOM     51  C   UNL     1       1.071  17.644 -10.904  1.00  0.00     0.049 A 
ATOM     52  C   UNL     1       6.238  15.942 -12.251  1.00  0.00     0.074 A 
ATOM     53  C   UNL     1       0.895  19.006 -10.724  1.00  0.00     0.029 A 
ATOM     54  N   UNL     1       2.400  17.463 -11.269  1.00  0.00    -0.354 N 
ATOM     55  N   UNL     1       5.086  16.491 -11.942  1.00  0.00    -0.248 NA
ATOM     56  C   UNL     1       7.309  16.910 -12.521  1.00  0.00     0.031 C 
ATOM     57  C   UNL     1       2.088  19.652 -11.064  1.00  0.00     0.029 A 
ATOM     58  C   UNL     1       3.041  18.691 -11.362  1.00  0.00     0.049 A 
ATOM     59  H   UNL     1       2.824  16.591 -11.437  1.00  0.00     0.167 HD
ATOM     60  C   UNL     1       5.306  17.868 -11.948  1.00  0.00     0.074 A 
ATOM     61  C   UNL     1       6.703  18.062 -12.277  1.00  0.00     0.031 C 
ATOM     62  C   UNL     1       4.433  18.878 -11.700  1.00  0.00     0.034 A 
BRANCH  49  63
ATOM     63  C   UNL     1      -1.331  16.952 -10.438  1.00  0.00     0.023 A 
ATOM     64  C   UNL     1      -1.963  16.508  -9.263  1.00  0.00     0.031 A 
ATOM     65  C   UNL     1      -2.084  17.730 -11.336  1.00  0.00     0.131 A 
ATOM     66  C   UNL     1      -3.324  16.781  -9.056  1.00  0.00     0.055 A 
ATOM     67  C   UNL     1      -3.413  18.072 -11.082  1.00  0.00     0.041 A 
ATOM     68  F   UNL     1      -1.543  18.161 -12.487  1.00  0.00    -0.206 F 
ATOM     69  C   UNL     1      -4.046  17.583  -9.943  1.00  0.00     0.022 A 
BRANCH  66  70
ATOM     70  S   UNL     1      -4.179  15.941  -7.694  1.00  0.00     0.124 S 
ATOM     71  O   UNL     1      -3.943  14.536  -8.019  1.00  0.00    -0.237 OA
ATOM     72  O   UNL     1      -3.481  16.451  -6.520  1.00  0.00    -0.237 OA
ATOM     73  O   UNL     1      -5.566  16.381  -7.837  1.00  0.00    -0.744 OA
ENDBRANCH  66  70
ENDBRANCH  49  63
BRANCH  50  74
ATOM     74  C   UNL     1       7.982  14.066 -12.741  1.00  0.00     0.023 A 
ATOM     75  C   UNL     1       9.092  14.398 -11.947  1.00  0.00     0.031 A 
ATOM     76  C   UNL     1       8.222  13.402 -13.959  1.00  0.00     0.131 A 
ATOM     77  C   UNL     1      10.390  14.113 -12.402  1.00  0.00     0.055 A 
ATOM     78  C   UNL     1       9.510  13.062 -14.376  1.00  0.00     0.041 A 
ATOM     79  F   UNL     1       7.202  13.072 -14.767  1.00  0.00    -0.206 F 
ATOM     80  C   UNL     1      10.605  13.431 -13.602  1.00  0.00     0.022 A 
BRANCH  77  81
ATOM     81  S   UNL     1      11.803  14.745 -11.456  1.00  0.00     0.124 S 
ATOM     82  O   UNL     1      11.547  16.180 -11.466  1.00  0.00    -0.237 OA
ATOM     83  O   UNL     1      11.636  14.071 -10.173  1.00  0.00    -0.237 OA
ATOM     84  O   UNL     1      12.958  14.311 -12.239  1.00  0.00    -0.744 OA
ENDBRANCH  77  81
ENDBRANCH  50  74
BRANCH  62  85
ATOM     85  C   UNL     1       4.980  20.289 -11.724  1.00  0.00     0.023 A 
ATOM     86  C   UNL     1       5.477  20.877 -12.900  1.00  0.00     0.031 A 
ATOM     87  C   UNL     1       5.005  21.055 -10.544  1.00  0.00     0.131 A 
ATOM     88  C   UNL     1       6.030  22.166 -12.859  1.00  0.00     0.055 A 
ATOM     89  C   UNL     1       5.492  22.363 -10.524  1.00  0.00     0.041 A 
ATOM     90  F   UNL     1       4.550  20.546  -9.387  1.00  0.00    -0.206 F 
ATOM     91  C   UNL     1       6.021  22.921 -11.683  1.00  0.00     0.022 A 
BRANCH  88  92
ATOM     92  S   UNL     1       6.857  22.810 -14.340  1.00  0.00     0.124 S 
ATOM     93  O   UNL     1       7.884  21.801 -14.577  1.00  0.00    -0.237 OA
ATOM     94  O   UNL     1       5.769  22.852 -15.312  1.00  0.00    -0.237 OA
ATOM     95  O   UNL     1       7.357  24.116 -13.915  1.00  0.00    -0.744 OA
ENDBRANCH  88  92
ENDBRANCH  62  85
ENDBRANCH  36  37
ENDBRANCH  29  31
ENDBRANCH  28  29
ENDBRANCH  27  28
ENDBRANCH   1  27
TORSDOF 19
