REMARK SMILES C[NH2+][C@]1(C(=O)OCCOC(=O)c2ccc(-c3c4nc(c(-c5cc(S(=O)(=O)[O-])ccc5F)c5ccc([nH]5)c(-c5cc(S(=O)(=O)[O-])ccc5F)c5nc(c(-c6cc(S(=O)(=O)[O-])ccc6F)c6ccc3[nH]6)C=C5)C=C4)cc2)CC[C@@H]([N@@H+](C)C[C@@H]2CCCCO2)C1
REMARK SMILES IDX 7 1 6 2 4 3 5 4 3 5 75 6 87 7 76 8 77 9 2 10 1 11 78 14
REMARK SMILES IDX 79 15 80 17 81 18 82 19 86 20 83 21 85 22 84 23 8 24 9 25
REMARK SMILES IDX 10 26 11 27 12 28 13 29 74 30 14 31 73 32 15 33 16 34 17 35
REMARK SMILES IDX 67 36 18 37 72 38 66 39 68 40 19 41 71 42 65 43 64 44 20 46
REMARK SMILES IDX 52 47 32 48 51 49 33 50 36 51 50 52 69 53 34 54 35 55 49 57
REMARK SMILES IDX 70 58 37 59 21 60 22 61 30 62 23 63 29 64 31 65 28 66 24 67
REMARK SMILES IDX 25 68 26 69 27 70 53 71 54 72 62 73 55 74 61 75 63 76 60 77
REMARK SMILES IDX 56 78 57 79 58 80 59 81 38 82 39 83 47 84 40 85 46 86 48 87
REMARK SMILES IDX 45 88 41 89 42 90 43 91 44 92
REMARK H PARENT 2 12 2 13 78 16 68 45 36 56
REMARK Flexibility Score: inf
ROOT
ATOM      1  C   UNL     1       2.446  -1.119  -0.479  1.00  0.00     0.274 C 
ENDROOT
BRANCH   1   2
ATOM      2  O   UNL     1       1.016  -0.998  -0.351  1.00  0.00    -0.457 OA
BRANCH   2   3
ATOM      3  C   UNL     1       0.361  -2.045   0.229  1.00  0.00     0.368 C 
ATOM      4  O   UNL     1       0.911  -3.079   0.596  1.00  0.00    -0.245 OA
BRANCH   3   5
ATOM      5  C   UNL     1      -1.166  -1.804   0.335  1.00  0.00     0.200 C 
ATOM      6  C   UNL     1      -1.644  -0.467  -0.265  1.00  0.00     0.087 C 
ATOM      7  C   UNL     1      -1.850  -2.814  -0.610  1.00  0.00     0.146 C 
ATOM      8  C   UNL     1      -3.123  -0.724  -0.530  1.00  0.00     0.072 C 
ATOM      9  C   UNL     1      -3.184  -2.173  -1.043  1.00  0.00     0.191 C 
BRANCH   5  10
ATOM     10  N   UNL     1      -1.575  -1.821   1.761  1.00  0.00    -0.334 N 
ATOM     11  C   UNL     1      -2.227  -3.015   2.265  1.00  0.00     0.331 C 
ATOM     12  H   UNL     1      -0.735  -1.675   2.320  1.00  0.00     0.347 HD
ATOM     13  H   UNL     1      -2.285  -1.092   1.833  1.00  0.00     0.347 HD
ENDBRANCH   5  10
BRANCH   9  14
ATOM     14  N   UNL     1      -3.419  -2.405  -2.478  1.00  0.00    -0.333 N 
ATOM     15  C   UNL     1      -4.838  -2.445  -2.802  1.00  0.00     0.333 C 
ATOM     16  H   UNL     1      -3.051  -3.343  -2.638  1.00  0.00     0.348 HD
BRANCH  14  17
ATOM     17  C   UNL     1      -2.601  -1.617  -3.421  1.00  0.00     0.294 C 
BRANCH  17  18
ATOM     18  C   UNL     1      -3.106  -0.212  -3.858  1.00  0.00     0.173 C 
ATOM     19  C   UNL     1      -3.767  -0.186  -5.243  1.00  0.00     0.038 C 
ATOM     20  O   UNL     1      -2.070   0.779  -3.755  1.00  0.00    -0.372 OA
ATOM     21  C   UNL     1      -2.751  -0.182  -6.379  1.00  0.00     0.005 C 
ATOM     22  C   UNL     1      -1.071   0.702  -4.767  1.00  0.00     0.161 C 
ATOM     23  C   UNL     1      -1.694   0.887  -6.140  1.00  0.00     0.029 C 
ENDBRANCH  17  18
ENDBRANCH  14  17
ENDBRANCH   9  14
ENDBRANCH   3   5
ENDBRANCH   2   3
ENDBRANCH   1   2
BRANCH   1  24
ATOM     24  C   UNL     1       3.137  -0.153   0.478  1.00  0.00     0.275 C 
BRANCH  24  25
ATOM     25  O   UNL     1       2.783  -0.509   1.823  1.00  0.00    -0.458 OA
BRANCH  25  26
ATOM     26  C   UNL     1       2.237   0.478   2.572  1.00  0.00     0.338 C 
ATOM     27  O   UNL     1       2.150   1.659   2.285  1.00  0.00    -0.246 OA
BRANCH  26  28
ATOM     28  C   UNL     1       1.726  -0.096   3.830  1.00  0.00     0.060 A 
ATOM     29  C   UNL     1       0.848  -1.174   3.784  1.00  0.00     0.016 A 
ATOM     30  C   UNL     1       2.020   0.508   5.050  1.00  0.00     0.016 A 
ATOM     31  C   UNL     1       0.175  -1.582   4.933  1.00  0.00     0.010 A 
ATOM     32  C   UNL     1       1.431   0.016   6.222  1.00  0.00     0.010 A 
ATOM     33  C   UNL     1       0.466  -1.008   6.175  1.00  0.00    -0.014 A 
BRANCH  33  34
ATOM     34  C   UNL     1      -0.280  -1.426   7.400  1.00  0.00     0.031 A 
ATOM     35  C   UNL     1      -0.999  -0.388   8.226  1.00  0.00     0.074 A 
ATOM     36  C   UNL     1      -0.350  -2.722   7.771  1.00  0.00     0.049 A 
ATOM     37  N   UNL     1      -1.489  -0.479   9.436  1.00  0.00    -0.248 NA
ATOM     38  C   UNL     1      -1.169   0.937   7.610  1.00  0.00     0.031 C 
ATOM     39  C   UNL     1       0.224  -3.850   7.034  1.00  0.00     0.029 A 
ATOM     40  N   UNL     1      -0.945  -3.313   8.860  1.00  0.00    -0.354 N 
ATOM     41  C   UNL     1      -1.954   0.794   9.756  1.00  0.00     0.074 A 
ATOM     42  C   UNL     1      -1.687   1.636   8.609  1.00  0.00     0.031 C 
ATOM     43  C   UNL     1      -0.087  -4.994   7.662  1.00  0.00     0.029 A 
ATOM     44  C   UNL     1      -0.778  -4.679   8.907  1.00  0.00     0.049 A 
ATOM     45  H   UNL     1      -1.444  -2.808   9.542  1.00  0.00     0.167 HD
ATOM     46  C   UNL     1      -2.540   1.217  10.904  1.00  0.00     0.034 A 
ATOM     47  C   UNL     1      -1.087  -5.575   9.866  1.00  0.00     0.034 A 
ATOM     48  C   UNL     1      -2.854   0.347  12.013  1.00  0.00     0.049 A 
ATOM     49  C   UNL     1      -1.701  -5.081  11.149  1.00  0.00     0.074 A 
ATOM     50  C   UNL     1      -3.440   0.667  13.226  1.00  0.00     0.029 A 
ATOM     51  N   UNL     1      -2.626  -1.024  12.035  1.00  0.00    -0.354 N 
ATOM     52  N   UNL     1      -2.025  -3.855  11.489  1.00  0.00    -0.248 NA
ATOM     53  C   UNL     1      -1.967  -6.086  12.185  1.00  0.00     0.031 C 
ATOM     54  C   UNL     1      -3.522  -0.499  13.998  1.00  0.00     0.029 A 
ATOM     55  C   UNL     1      -3.046  -1.559  13.243  1.00  0.00     0.049 A 
ATOM     56  H   UNL     1      -2.225  -1.540  11.299  1.00  0.00     0.167 HD
ATOM     57  C   UNL     1      -2.536  -3.945  12.780  1.00  0.00     0.074 A 
ATOM     58  C   UNL     1      -2.503  -5.347  13.145  1.00  0.00     0.031 C 
ATOM     59  C   UNL     1      -2.987  -2.957  13.595  1.00  0.00     0.034 A 
BRANCH  46  60
ATOM     60  C   UNL     1      -2.805   2.698  11.043  1.00  0.00     0.023 A 
ATOM     61  C   UNL     1      -3.729   3.377  10.229  1.00  0.00     0.031 A 
ATOM     62  C   UNL     1      -2.081   3.451  11.986  1.00  0.00     0.131 A 
ATOM     63  C   UNL     1      -3.849   4.773  10.324  1.00  0.00     0.055 A 
ATOM     64  C   UNL     1      -2.263   4.828  12.128  1.00  0.00     0.041 A 
ATOM     65  F   UNL     1      -1.170   2.862  12.777  1.00  0.00    -0.206 F 
ATOM     66  C   UNL     1      -3.140   5.500  11.283  1.00  0.00     0.022 A 
BRANCH  63  67
ATOM     67  S   UNL     1      -4.840   5.646   9.080  1.00  0.00     0.124 S 
ATOM     68  O   UNL     1      -4.169   5.258   7.842  1.00  0.00    -0.237 OA
ATOM     69  O   UNL     1      -6.171   5.087   9.288  1.00  0.00    -0.237 OA
ATOM     70  O   UNL     1      -4.690   7.053   9.446  1.00  0.00    -0.744 OA
ENDBRANCH  63  67
ENDBRANCH  46  60
BRANCH  47  71
ATOM     71  C   UNL     1      -0.734  -7.015   9.695  1.00  0.00     0.023 A 
ATOM     72  C   UNL     1      -1.726  -8.007   9.643  1.00  0.00     0.031 A 
ATOM     73  C   UNL     1       0.611  -7.424   9.615  1.00  0.00     0.131 A 
ATOM     74  C   UNL     1      -1.358  -9.359   9.543  1.00  0.00     0.055 A 
ATOM     75  C   UNL     1       0.969  -8.763   9.458  1.00  0.00     0.041 A 
ATOM     76  F   UNL     1       1.600  -6.517   9.667  1.00  0.00    -0.206 F 
ATOM     77  C   UNL     1      -0.019  -9.741   9.432  1.00  0.00     0.022 A 
BRANCH  74  78
ATOM     78  S   UNL     1      -2.655 -10.624   9.633  1.00  0.00     0.124 S 
ATOM     79  O   UNL     1      -3.250 -10.348  10.936  1.00  0.00    -0.237 OA
ATOM     80  O   UNL     1      -3.476 -10.302   8.471  1.00  0.00    -0.237 OA
ATOM     81  O   UNL     1      -1.913 -11.880   9.540  1.00  0.00    -0.744 OA
ENDBRANCH  74  78
ENDBRANCH  47  71
BRANCH  59  82
ATOM     82  C   UNL     1      -3.509  -3.381  14.944  1.00  0.00     0.023 A 
ATOM     83  C   UNL     1      -2.651  -3.867  15.945  1.00  0.00     0.031 A 
ATOM     84  C   UNL     1      -4.887  -3.322  15.218  1.00  0.00     0.131 A 
ATOM     85  C   UNL     1      -3.186  -4.326  17.158  1.00  0.00     0.055 A 
ATOM     86  C   UNL     1      -5.407  -3.733  16.445  1.00  0.00     0.041 A 
ATOM     87  F   UNL     1      -5.748  -2.868  14.293  1.00  0.00    -0.206 F 
ATOM     88  C   UNL     1      -4.557  -4.250  17.419  1.00  0.00     0.022 A 
BRANCH  85  89
ATOM     89  S   UNL     1      -2.075  -5.103  18.363  1.00  0.00     0.124 S 
ATOM     90  O   UNL     1      -1.533  -6.222  17.600  1.00  0.00    -0.237 OA
ATOM     91  O   UNL     1      -1.139  -4.025  18.666  1.00  0.00    -0.237 OA
ATOM     92  O   UNL     1      -2.965  -5.475  19.461  1.00  0.00    -0.744 OA
ENDBRANCH  85  89
ENDBRANCH  59  82
ENDBRANCH  33  34
ENDBRANCH  26  28
ENDBRANCH  25  26
ENDBRANCH  24  25
ENDBRANCH   1  24
TORSDOF 18
