REMARK SMILES Cc1cc(Br)cc2c1O[C@H](C(F)(F)F)C(C(=O)OCCOC(=O)c1ccc(-c3c4nc(c(-c5cc(S(=O)(=O)[O-])ccc5F)c5ccc([nH]5)c(-c5cc(S(=O)(=O)[O-])ccc5F)c5nc(c(-c6cc(S(=O)(=O)[O-])ccc6F)c6ccc3[nH]6)C=C5)C=C4)cc1)=C2
REMARK SMILES IDX 20 1 19 2 18 3 16 4 17 5 15 6 1 7 2 8 3 9 8 10 4 11 7 12
REMARK SMILES IDX 9 13 5 14 6 15 87 16 10 17 11 18 12 19 13 20 14 21 21 22
REMARK SMILES IDX 22 23 23 24 24 25 25 26 86 27 26 28 85 29 27 30 28 31 29 32
REMARK SMILES IDX 79 33 30 34 84 35 78 36 80 37 31 38 83 39 77 40 76 41 32 43
REMARK SMILES IDX 64 44 44 45 63 46 45 47 48 48 62 49 81 50 46 51 47 52 61 54
REMARK SMILES IDX 82 55 49 56 33 57 34 58 42 59 35 60 41 61 43 62 40 63 36 64
REMARK SMILES IDX 37 65 38 66 39 67 65 68 66 69 74 70 67 71 73 72 75 73 72 74
REMARK SMILES IDX 68 75 69 76 70 77 71 78 50 79 51 80 59 81 52 82 58 83 60 84
REMARK SMILES IDX 57 85 53 86 54 87 55 88 56 89
REMARK H PARENT 80 42 48 53
REMARK Flexibility Score: inf
ROOT
ATOM      1  C   UNL     1      -5.894   1.641  -5.782  1.00  0.00     0.275 C 
ENDROOT
BRANCH   1   2
ATOM      2  C   UNL     1      -4.725   0.676  -5.980  1.00  0.00     0.275 C 
BRANCH   2   3
ATOM      3  O   UNL     1      -3.888   0.616  -4.805  1.00  0.00    -0.459 OA
BRANCH   3   4
ATOM      4  C   UNL     1      -2.721   1.296  -4.891  1.00  0.00     0.338 C 
ATOM      5  O   UNL     1      -2.309   1.911  -5.862  1.00  0.00    -0.246 OA
BRANCH   4   6
ATOM      6  C   UNL     1      -1.968   1.203  -3.628  1.00  0.00     0.087 C 
ATOM      7  C   UNL     1       1.100  -0.365   0.212  1.00  0.00     0.048 C 
ATOM      8  C   UNL     1       0.656   0.942  -0.377  1.00  0.00    -0.007 A 
ATOM      9  C   UNL     1       1.189   2.131   0.154  1.00  0.00     0.023 A 
ATOM     10  C   UNL     1      -0.277   1.017  -1.422  1.00  0.00     0.130 A 
ATOM     11  C   UNL     1       0.801   3.369  -0.353  1.00  0.00     0.019 A 
ATOM     12  C   UNL     1      -0.646   2.264  -1.934  1.00  0.00     0.019 A 
ATOM     13  O   UNL     1      -0.804  -0.157  -1.891  1.00  0.00    -0.475 OA
ATOM     14  Br  UNL     1       1.542   4.954   0.360  1.00  0.00    -0.051 Br
ATOM     15  C   UNL     1      -0.116   3.442  -1.394  1.00  0.00     0.027 A 
ATOM     16  C   UNL     1      -1.545   2.340  -3.068  1.00  0.00     0.027 C 
ATOM     17  C   UNL     1      -1.580  -0.152  -3.121  1.00  0.00     0.316 C 
BRANCH  17  18
ATOM     18  C   UNL     1      -0.822  -0.959  -4.186  1.00  0.00     0.430 C 
ATOM     19  F   UNL     1      -0.460  -2.178  -3.715  1.00  0.00    -0.167 F 
ATOM     20  F   UNL     1      -1.593  -1.190  -5.278  1.00  0.00    -0.167 F 
ATOM     21  F   UNL     1       0.301  -0.338  -4.607  1.00  0.00    -0.167 F 
ENDBRANCH  17  18
ENDBRANCH   4   6
ENDBRANCH   3   4
ENDBRANCH   2   3
ENDBRANCH   1   2
BRANCH   1  22
ATOM     22  O   UNL     1      -5.411   2.991  -5.665  1.00  0.00    -0.458 OA
BRANCH  22  23
ATOM     23  C   UNL     1      -5.457   3.511  -4.417  1.00  0.00     0.338 C 
ATOM     24  O   UNL     1      -5.910   2.983  -3.416  1.00  0.00    -0.246 OA
BRANCH  23  25
ATOM     25  C   UNL     1      -4.796   4.825  -4.388  1.00  0.00     0.060 A 
ATOM     26  C   UNL     1      -3.431   4.890  -4.639  1.00  0.00     0.016 A 
ATOM     27  C   UNL     1      -5.469   5.947  -3.910  1.00  0.00     0.016 A 
ATOM     28  C   UNL     1      -2.704   6.006  -4.238  1.00  0.00     0.010 A 
ATOM     29  C   UNL     1      -4.755   7.128  -3.667  1.00  0.00     0.010 A 
ATOM     30  C   UNL     1      -3.352   7.156  -3.768  1.00  0.00    -0.014 A 
BRANCH  30  31
ATOM     31  C   UNL     1      -2.559   8.353  -3.349  1.00  0.00     0.031 A 
ATOM     32  C   UNL     1      -2.761   8.964  -1.981  1.00  0.00     0.074 A 
ATOM     33  C   UNL     1      -1.623   8.877  -4.171  1.00  0.00     0.049 A 
ATOM     34  N   UNL     1      -2.317  10.101  -1.509  1.00  0.00    -0.248 NA
ATOM     35  C   UNL     1      -3.582   8.204  -1.023  1.00  0.00     0.031 C 
ATOM     36  C   UNL     1      -1.265   8.357  -5.494  1.00  0.00     0.029 A 
ATOM     37  N   UNL     1      -0.779   9.950  -4.010  1.00  0.00    -0.354 N 
ATOM     38  C   UNL     1      -2.847  10.219  -0.227  1.00  0.00     0.074 A 
ATOM     39  C   UNL     1      -3.661   9.045  -0.001  1.00  0.00     0.031 C 
ATOM     40  C   UNL     1      -0.231   9.054  -5.982  1.00  0.00     0.029 A 
ATOM     41  C   UNL     1       0.066  10.156  -5.078  1.00  0.00     0.049 A 
ATOM     42  H   UNL     1      -0.778  10.518  -3.206  1.00  0.00     0.167 HD
ATOM     43  C   UNL     1      -2.666  11.213   0.678  1.00  0.00     0.034 A 
ATOM     44  C   UNL     1       0.943  11.146  -5.338  1.00  0.00     0.034 A 
ATOM     45  C   UNL     1      -1.802  12.347   0.463  1.00  0.00     0.049 A 
ATOM     46  C   UNL     1       1.062  12.280  -4.360  1.00  0.00     0.074 A 
ATOM     47  C   UNL     1      -1.545  13.407   1.316  1.00  0.00     0.029 A 
ATOM     48  N   UNL     1      -1.039  12.561  -0.677  1.00  0.00    -0.354 N 
ATOM     49  N   UNL     1       0.469  12.430  -3.199  1.00  0.00    -0.248 NA
ATOM     50  C   UNL     1       1.939  13.395  -4.740  1.00  0.00     0.031 C 
ATOM     51  C   UNL     1      -0.674  14.289   0.669  1.00  0.00     0.029 A 
ATOM     52  C   UNL     1      -0.335  13.749  -0.561  1.00  0.00     0.049 A 
ATOM     53  H   UNL     1      -1.003  11.957  -1.453  1.00  0.00     0.167 HD
ATOM     54  C   UNL     1       0.902  13.656  -2.710  1.00  0.00     0.074 A 
ATOM     55  C   UNL     1       1.822  14.197  -3.690  1.00  0.00     0.031 C 
ATOM     56  C   UNL     1       0.563  14.282  -1.555  1.00  0.00     0.034 A 
BRANCH  43  57
ATOM     57  C   UNL     1      -3.445  11.146   1.968  1.00  0.00     0.023 A 
ATOM     58  C   UNL     1      -3.184  10.175   2.948  1.00  0.00     0.031 A 
ATOM     59  C   UNL     1      -4.453  12.093   2.228  1.00  0.00     0.131 A 
ATOM     60  C   UNL     1      -3.950  10.146   4.124  1.00  0.00     0.055 A 
ATOM     61  C   UNL     1      -5.167  12.099   3.428  1.00  0.00     0.041 A 
ATOM     62  F   UNL     1      -4.757  13.034   1.320  1.00  0.00    -0.206 F 
ATOM     63  C   UNL     1      -4.923  11.116   4.381  1.00  0.00     0.022 A 
BRANCH  60  64
ATOM     64  S   UNL     1      -3.718   8.770   5.282  1.00  0.00     0.124 S 
ATOM     65  O   UNL     1      -4.137   7.630   4.471  1.00  0.00    -0.237 OA
ATOM     66  O   UNL     1      -2.294   8.848   5.587  1.00  0.00    -0.237 OA
ATOM     67  O   UNL     1      -4.611   9.100   6.391  1.00  0.00    -0.744 OA
ENDBRANCH  60  64
ENDBRANCH  43  57
BRANCH  44  68
ATOM     68  C   UNL     1       1.713  11.145  -6.614  1.00  0.00     0.023 A 
ATOM     69  C   UNL     1       3.109  11.008  -6.614  1.00  0.00     0.031 A 
ATOM     70  C   UNL     1       1.062  11.273  -7.856  1.00  0.00     0.131 A 
ATOM     71  C   UNL     1       3.811  11.011  -7.830  1.00  0.00     0.055 A 
ATOM     72  C   UNL     1       1.758  11.226  -9.064  1.00  0.00     0.041 A 
ATOM     73  F   UNL     1      -0.273  11.410  -7.912  1.00  0.00    -0.206 F 
ATOM     74  C   UNL     1       3.143  11.100  -9.055  1.00  0.00     0.022 A 
BRANCH  71  75
ATOM     75  S   UNL     1       5.622  10.930  -7.792  1.00  0.00     0.124 S 
ATOM     76  O   UNL     1       5.959  12.174  -7.109  1.00  0.00    -0.237 OA
ATOM     77  O   UNL     1       5.858   9.700  -7.044  1.00  0.00    -0.237 OA
ATOM     78  O   UNL     1       5.990  10.876  -9.206  1.00  0.00    -0.744 OA
ENDBRANCH  71  75
ENDBRANCH  44  68
BRANCH  56  79
ATOM     79  C   UNL     1       1.196  15.618  -1.285  1.00  0.00     0.023 A 
ATOM     80  C   UNL     1       0.818  16.761  -2.008  1.00  0.00     0.031 A 
ATOM     81  C   UNL     1       2.155  15.759  -0.266  1.00  0.00     0.131 A 
ATOM     82  C   UNL     1       1.416  17.996  -1.720  1.00  0.00     0.055 A 
ATOM     83  C   UNL     1       2.711  16.999   0.048  1.00  0.00     0.041 A 
ATOM     84  F   UNL     1       2.547  14.695   0.454  1.00  0.00    -0.206 F 
ATOM     85  C   UNL     1       2.345  18.125  -0.684  1.00  0.00     0.022 A 
BRANCH  82  86
ATOM     86  S   UNL     1       0.985  19.431  -2.740  1.00  0.00     0.124 S 
ATOM     87  O   UNL     1       1.502  19.038  -4.047  1.00  0.00    -0.237 OA
ATOM     88  O   UNL     1      -0.469  19.480  -2.619  1.00  0.00    -0.237 OA
ATOM     89  O   UNL     1       1.696  20.535  -2.097  1.00  0.00    -0.744 OA
ENDBRANCH  82  86
ENDBRANCH  56  79
ENDBRANCH  30  31
ENDBRANCH  23  25
ENDBRANCH  22  23
ENDBRANCH   1  22
TORSDOF 15
