REMARK SMILES CC(C)N1C[C@@H](C(=O)OCCOC(=O)c2ccc(-c3c4nc(c(-c5cc(S(=O)(=O)[O-])ccc5F)c5ccc([nH]5)c(-c5cc(S(=O)(=O)[O-])ccc5F)c5nc(c(-c6cc(S(=O)(=O)[O-])ccc6F)c6ccc3[nH]6)C=C5)C=C4)cc2)CC1=O
REMARK SMILES IDX 11 1 10 2 9 3 7 4 8 5 6 6 4 7 5 8 79 9 78 10 80 11 2 12 1 13
REMARK SMILES IDX 3 14 12 15 13 16 14 17 15 18 16 19 77 20 17 21 76 22 18 23
REMARK SMILES IDX 19 24 20 25 70 26 21 27 75 28 69 29 71 30 22 31 74 32 68 33
REMARK SMILES IDX 67 34 23 36 55 37 35 38 54 39 36 40 39 41 53 42 72 43 37 44
REMARK SMILES IDX 38 45 52 47 73 48 40 49 24 50 25 51 33 52 26 53 32 54 34 55
REMARK SMILES IDX 31 56 27 57 28 58 29 59 30 60 56 61 57 62 65 63 58 64 64 65
REMARK SMILES IDX 66 66 63 67 59 68 60 69 61 70 62 71 41 72 42 73 50 74 43 75
REMARK SMILES IDX 49 76 51 77 48 78 44 79 45 80 46 81 47 82
REMARK H PARENT 71 35 39 46
REMARK Flexibility Score: inf
ROOT
ATOM      1  C   UNL     1      -6.919  -3.045   2.263  1.00  0.00     0.275 C 
ENDROOT
BRANCH   1   2
ATOM      2  C   UNL     1      -5.545  -3.549   2.715  1.00  0.00     0.274 C 
BRANCH   2   3
ATOM      3  O   UNL     1      -4.508  -2.632   2.315  1.00  0.00    -0.462 OA
BRANCH   3   4
ATOM      4  C   UNL     1      -3.718  -3.019   1.285  1.00  0.00     0.311 C 
ATOM      5  O   UNL     1      -3.732  -4.135   0.777  1.00  0.00    -0.252 OA
BRANCH   4   6
ATOM      6  C   UNL     1      -2.798  -1.933   0.798  1.00  0.00     0.128 C 
ATOM      7  N   UNL     1      -0.681  -1.044   1.039  1.00  0.00    -0.339 N 
ATOM      8  C   UNL     1      -1.363  -2.312   1.074  1.00  0.00     0.135 C 
ATOM      9  C   UNL     1      -1.542   0.009   1.321  1.00  0.00     0.223 C 
ATOM     10  C   UNL     1      -2.943  -0.542   1.405  1.00  0.00     0.117 C 
ATOM     11  O   UNL     1      -1.236   1.173   1.524  1.00  0.00    -0.275 OA
BRANCH   7  12
ATOM     12  C   UNL     1       0.774  -0.961   0.962  1.00  0.00     0.078 C 
ATOM     13  C   UNL     1       1.244   0.109  -0.023  1.00  0.00     0.031 C 
ATOM     14  C   UNL     1       1.378  -0.755   2.347  1.00  0.00     0.031 C 
ENDBRANCH   7  12
ENDBRANCH   4   6
ENDBRANCH   3   4
ENDBRANCH   2   3
ENDBRANCH   1   2
BRANCH   1  15
ATOM     15  O   UNL     1      -7.052  -3.055   0.829  1.00  0.00    -0.458 OA
BRANCH  15  16
ATOM     16  C   UNL     1      -6.675  -1.907   0.217  1.00  0.00     0.338 C 
ATOM     17  O   UNL     1      -6.250  -0.897   0.752  1.00  0.00    -0.246 OA
BRANCH  16  18
ATOM     18  C   UNL     1      -6.707  -2.076  -1.242  1.00  0.00     0.060 A 
ATOM     19  C   UNL     1      -5.489  -2.080  -1.921  1.00  0.00     0.016 A 
ATOM     20  C   UNL     1      -7.907  -2.113  -1.950  1.00  0.00     0.016 A 
ATOM     21  C   UNL     1      -5.452  -2.087  -3.308  1.00  0.00     0.010 A 
ATOM     22  C   UNL     1      -7.872  -2.150  -3.350  1.00  0.00     0.010 A 
ATOM     23  C   UNL     1      -6.644  -2.121  -4.038  1.00  0.00    -0.014 A 
BRANCH  23  24
ATOM     24  C   UNL     1      -6.588  -2.078  -5.521  1.00  0.00     0.031 A 
ATOM     25  C   UNL     1      -7.059  -0.853  -6.251  1.00  0.00     0.074 A 
ATOM     26  C   UNL     1      -6.078  -3.123  -6.200  1.00  0.00     0.049 A 
ATOM     27  N   UNL     1      -7.194  -0.656  -7.537  1.00  0.00    -0.248 NA
ATOM     28  C   UNL     1      -7.433   0.301  -5.421  1.00  0.00     0.031 C 
ATOM     29  C   UNL     1      -5.530  -4.338  -5.592  1.00  0.00     0.029 A 
ATOM     30  N   UNL     1      -5.936  -3.333  -7.548  1.00  0.00    -0.354 N 
ATOM     31  C   UNL     1      -7.698   0.633  -7.672  1.00  0.00     0.074 A 
ATOM     32  C   UNL     1      -7.861   1.161  -6.333  1.00  0.00     0.031 C 
ATOM     33  C   UNL     1      -5.107  -5.162  -6.564  1.00  0.00     0.029 A 
ATOM     34  C   UNL     1      -5.415  -4.567  -7.860  1.00  0.00     0.049 A 
ATOM     35  H   UNL     1      -6.182  -2.664  -8.227  1.00  0.00     0.167 HD
ATOM     36  C   UNL     1      -7.996   1.308  -8.811  1.00  0.00     0.034 A 
ATOM     37  C   UNL     1      -5.246  -5.170  -9.054  1.00  0.00     0.034 A 
ATOM     38  C   UNL     1      -7.812   0.763 -10.135  1.00  0.00     0.049 A 
ATOM     39  C   UNL     1      -5.651  -4.428 -10.301  1.00  0.00     0.074 A 
ATOM     40  C   UNL     1      -8.071   1.359 -11.358  1.00  0.00     0.029 A 
ATOM     41  N   UNL     1      -7.324  -0.509 -10.412  1.00  0.00    -0.354 N 
ATOM     42  N   UNL     1      -6.162  -3.223 -10.417  1.00  0.00    -0.248 NA
ATOM     43  C   UNL     1      -5.459  -5.127 -11.578  1.00  0.00     0.031 C 
ATOM     44  C   UNL     1      -7.803   0.427 -12.367  1.00  0.00     0.029 A 
ATOM     45  C   UNL     1      -7.304  -0.726 -11.782  1.00  0.00     0.049 A 
ATOM     46  H   UNL     1      -7.034  -1.161  -9.734  1.00  0.00     0.167 HD
ATOM     47  C   UNL     1      -6.333  -3.014 -11.781  1.00  0.00     0.074 A 
ATOM     48  C   UNL     1      -5.854  -4.208 -12.447  1.00  0.00     0.031 C 
ATOM     49  C   UNL     1      -6.838  -1.931 -12.428  1.00  0.00     0.034 A 
BRANCH  36  50
ATOM     50  C   UNL     1      -8.615   2.677  -8.665  1.00  0.00     0.023 A 
ATOM     51  C   UNL     1      -7.918   3.756  -8.094  1.00  0.00     0.031 A 
ATOM     52  C   UNL     1      -9.943   2.896  -9.076  1.00  0.00     0.131 A 
ATOM     53  C   UNL     1      -8.572   4.981  -7.888  1.00  0.00     0.055 A 
ATOM     54  C   UNL     1     -10.563   4.139  -8.938  1.00  0.00     0.041 A 
ATOM     55  F   UNL     1     -10.667   1.897  -9.606  1.00  0.00    -0.206 F 
ATOM     56  C   UNL     1      -9.882   5.187  -8.328  1.00  0.00     0.022 A 
BRANCH  53  57
ATOM     57  S   UNL     1      -7.736   6.261  -6.911  1.00  0.00     0.124 S 
ATOM     58  O   UNL     1      -7.511   5.565  -5.646  1.00  0.00    -0.237 OA
ATOM     59  O   UNL     1      -6.547   6.539  -7.708  1.00  0.00    -0.237 OA
ATOM     60  O   UNL     1      -8.716   7.343  -6.852  1.00  0.00    -0.744 OA
ENDBRANCH  53  57
ENDBRANCH  36  50
BRANCH  37  61
ATOM     61  C   UNL     1      -4.732  -6.567  -9.125  1.00  0.00     0.023 A 
ATOM     62  C   UNL     1      -3.513  -6.865  -9.753  1.00  0.00     0.031 A 
ATOM     63  C   UNL     1      -5.479  -7.635  -8.593  1.00  0.00     0.131 A 
ATOM     64  C   UNL     1      -3.094  -8.200  -9.867  1.00  0.00     0.055 A 
ATOM     65  C   UNL     1      -5.032  -8.955  -8.662  1.00  0.00     0.041 A 
ATOM     66  F   UNL     1      -6.652  -7.406  -7.983  1.00  0.00    -0.206 F 
ATOM     67  C   UNL     1      -3.837  -9.245  -9.313  1.00  0.00     0.022 A 
BRANCH  64  68
ATOM     68  S   UNL     1      -1.595  -8.562 -10.821  1.00  0.00     0.124 S 
ATOM     69  O   UNL     1      -1.929  -8.002 -12.125  1.00  0.00    -0.237 OA
ATOM     70  O   UNL     1      -0.573  -7.851 -10.060  1.00  0.00    -0.237 OA
ATOM     71  O   UNL     1      -1.504 -10.020 -10.772  1.00  0.00    -0.744 OA
ENDBRANCH  64  68
ENDBRANCH  37  61
BRANCH  49  72
ATOM     72  C   UNL     1      -6.854  -1.986 -13.935  1.00  0.00     0.023 A 
ATOM     73  C   UNL     1      -7.692  -2.873 -14.634  1.00  0.00     0.031 A 
ATOM     74  C   UNL     1      -6.003  -1.151 -14.680  1.00  0.00     0.131 A 
ATOM     75  C   UNL     1      -7.621  -2.942 -16.033  1.00  0.00     0.055 A 
ATOM     76  C   UNL     1      -5.980  -1.183 -16.075  1.00  0.00     0.041 A 
ATOM     77  F   UNL     1      -5.181  -0.287 -14.063  1.00  0.00    -0.206 F 
ATOM     78  C   UNL     1      -6.782  -2.092 -16.759  1.00  0.00     0.022 A 
BRANCH  75  79
ATOM     79  S   UNL     1      -8.577  -4.223 -16.892  1.00  0.00     0.124 S 
ATOM     80  O   UNL     1      -8.051  -5.446 -16.294  1.00  0.00    -0.237 OA
ATOM     81  O   UNL     1      -9.950  -3.879 -16.537  1.00  0.00    -0.237 OA
ATOM     82  O   UNL     1      -8.233  -4.023 -18.298  1.00  0.00    -0.744 OA
ENDBRANCH  75  79
ENDBRANCH  49  72
ENDBRANCH  23  24
ENDBRANCH  16  18
ENDBRANCH  15  16
ENDBRANCH   1  15
TORSDOF 15
