REMARK SMILES O=C(OCCOC(=O)[C@@H](Cc1cccc(F)c1)[C@H]1CCOC2(CCC2)C1)c1ccc(-c2c3nc(c(-c4cc(S(=O)(=O)[O-])ccc4F)c4ccc([nH]4)c(-c4cc(S(=O)(=O)[O-])ccc4F)c4nc(c(-c5cc(S(=O)(=O)[O-])ccc5F)c5ccc2[nH]5)C=C4)C=C3)cc1
REMARK SMILES IDX 4 1 3 2 2 3 1 4 27 5 28 6 89 7 29 8 88 9 30 10 31 11 32 12
REMARK SMILES IDX 82 13 33 14 87 15 81 16 83 17 34 18 86 19 80 20 79 21 35 23
REMARK SMILES IDX 67 24 47 25 66 26 48 27 51 28 65 29 84 30 49 31 50 32 64 34
REMARK SMILES IDX 85 35 52 36 36 37 37 38 45 39 38 40 44 41 46 42 43 43 39 44
REMARK SMILES IDX 40 45 41 46 42 47 68 48 69 49 77 50 70 51 76 52 78 53 75 54
REMARK SMILES IDX 71 55 72 56 73 57 74 58 53 59 54 60 62 61 55 62 61 63 63 64
REMARK SMILES IDX 60 65 56 66 57 67 58 68 59 69 5 70 6 71 7 72 8 73 9 74 10 75
REMARK SMILES IDX 11 76 12 77 17 78 13 79 15 80 14 81 16 82 18 83 19 84 26 85
REMARK SMILES IDX 20 86 22 87 21 88 23 89 25 90 24 91
REMARK H PARENT 83 22 51 33
REMARK Flexibility Score: inf
ROOT
ATOM      1  C   UNL     1       2.139   4.008  -0.213  1.00  0.00     0.275 C 
ENDROOT
BRANCH   1   2
ATOM      2  O   UNL     1       3.089   4.769   0.589  1.00  0.00    -0.458 OA
BRANCH   2   3
ATOM      3  C   UNL     1       2.930   5.516   1.718  1.00  0.00     0.338 C 
ATOM      4  O   UNL     1       3.748   6.393   1.981  1.00  0.00    -0.246 OA
BRANCH   3   5
ATOM      5  C   UNL     1       1.942   5.152   2.782  1.00  0.00     0.060 A 
ATOM      6  C   UNL     1       0.568   5.122   2.588  1.00  0.00     0.016 A 
ATOM      7  C   UNL     1       2.424   4.833   4.069  1.00  0.00     0.016 A 
ATOM      8  C   UNL     1      -0.274   4.595   3.603  1.00  0.00     0.010 A 
ATOM      9  C   UNL     1       1.578   4.273   5.068  1.00  0.00     0.010 A 
ATOM     10  C   UNL     1       0.217   4.040   4.817  1.00  0.00    -0.014 A 
BRANCH  10  11
ATOM     11  C   UNL     1      -0.712   3.290   5.786  1.00  0.00     0.031 A 
ATOM     12  C   UNL     1      -1.921   4.013   6.290  1.00  0.00     0.074 A 
ATOM     13  C   UNL     1      -0.715   1.960   6.103  1.00  0.00     0.049 A 
ATOM     14  N   UNL     1      -2.989   3.498   6.838  1.00  0.00    -0.248 NA
ATOM     15  C   UNL     1      -1.987   5.455   6.037  1.00  0.00     0.031 C 
ATOM     16  C   UNL     1       0.103   0.956   5.483  1.00  0.00     0.029 A 
ATOM     17  N   UNL     1      -1.491   1.170   6.950  1.00  0.00    -0.354 N 
ATOM     18  C   UNL     1      -3.914   4.517   6.860  1.00  0.00     0.074 A 
ATOM     19  C   UNL     1      -3.256   5.696   6.324  1.00  0.00     0.031 C 
ATOM     20  C   UNL     1      -0.150  -0.273   5.938  1.00  0.00     0.029 A 
ATOM     21  C   UNL     1      -1.153  -0.180   6.957  1.00  0.00     0.049 A 
ATOM     22  H   UNL     1      -2.220   1.538   7.500  1.00  0.00     0.167 HD
ATOM     23  C   UNL     1      -5.199   4.477   7.274  1.00  0.00     0.034 A 
ATOM     24  C   UNL     1      -1.574  -1.274   7.627  1.00  0.00     0.034 A 
ATOM     25  C   UNL     1      -5.827   3.389   7.975  1.00  0.00     0.049 A 
ATOM     26  C   UNL     1      -2.795  -1.157   8.457  1.00  0.00     0.074 A 
ATOM     27  C   UNL     1      -7.075   3.380   8.573  1.00  0.00     0.029 A 
ATOM     28  N   UNL     1      -5.252   2.156   8.246  1.00  0.00    -0.354 N 
ATOM     29  N   UNL     1      -3.624  -0.152   8.499  1.00  0.00    -0.248 NA
ATOM     30  C   UNL     1      -3.178  -2.320   9.268  1.00  0.00     0.031 C 
ATOM     31  C   UNL     1      -7.211   2.192   9.299  1.00  0.00     0.029 A 
ATOM     32  C   UNL     1      -6.083   1.422   9.087  1.00  0.00     0.049 A 
ATOM     33  H   UNL     1      -4.386   1.846   7.895  1.00  0.00     0.167 HD
ATOM     34  C   UNL     1      -4.658  -0.572   9.309  1.00  0.00     0.074 A 
ATOM     35  C   UNL     1      -4.343  -1.916   9.752  1.00  0.00     0.031 C 
ATOM     36  C   UNL     1      -5.782   0.113   9.609  1.00  0.00     0.034 A 
BRANCH  23  37
ATOM     37  C   UNL     1      -5.943   5.758   7.091  1.00  0.00     0.023 A 
ATOM     38  C   UNL     1      -6.375   6.171   5.821  1.00  0.00     0.031 A 
ATOM     39  C   UNL     1      -6.076   6.633   8.180  1.00  0.00     0.131 A 
ATOM     40  C   UNL     1      -6.871   7.469   5.661  1.00  0.00     0.055 A 
ATOM     41  C   UNL     1      -6.626   7.899   8.023  1.00  0.00     0.041 A 
ATOM     42  F   UNL     1      -5.616   6.285   9.392  1.00  0.00    -0.206 F 
ATOM     43  C   UNL     1      -7.017   8.328   6.756  1.00  0.00     0.022 A 
BRANCH  40  44
ATOM     44  S   UNL     1      -7.190   8.077   3.983  1.00  0.00     0.124 S 
ATOM     45  O   UNL     1      -5.847   8.072   3.407  1.00  0.00    -0.237 OA
ATOM     46  O   UNL     1      -8.117   7.084   3.454  1.00  0.00    -0.237 OA
ATOM     47  O   UNL     1      -7.760   9.405   4.206  1.00  0.00    -0.744 OA
ENDBRANCH  40  44
ENDBRANCH  23  37
BRANCH  24  48
ATOM     48  C   UNL     1      -0.835  -2.577   7.621  1.00  0.00     0.023 A 
ATOM     49  C   UNL     1      -1.230  -3.685   6.850  1.00  0.00     0.031 A 
ATOM     50  C   UNL     1       0.240  -2.744   8.516  1.00  0.00     0.131 A 
ATOM     51  C   UNL     1      -0.549  -4.913   6.994  1.00  0.00     0.055 A 
ATOM     52  C   UNL     1       0.916  -3.960   8.648  1.00  0.00     0.041 A 
ATOM     53  F   UNL     1       0.652  -1.715   9.274  1.00  0.00    -0.206 F 
ATOM     54  C   UNL     1       0.524  -5.053   7.882  1.00  0.00     0.022 A 
BRANCH  51  55
ATOM     55  S   UNL     1      -1.033  -6.342   5.978  1.00  0.00     0.124 S 
ATOM     56  O   UNL     1      -2.195  -6.842   6.703  1.00  0.00    -0.237 OA
ATOM     57  O   UNL     1      -1.298  -5.732   4.679  1.00  0.00    -0.237 OA
ATOM     58  O   UNL     1       0.149  -7.200   6.021  1.00  0.00    -0.744 OA
ENDBRANCH  51  55
ENDBRANCH  24  48
BRANCH  36  59
ATOM     59  C   UNL     1      -6.762  -0.573  10.507  1.00  0.00     0.023 A 
ATOM     60  C   UNL     1      -6.455  -0.815  11.855  1.00  0.00     0.031 A 
ATOM     61  C   UNL     1      -8.006  -0.996  10.014  1.00  0.00     0.131 A 
ATOM     62  C   UNL     1      -7.374  -1.492  12.665  1.00  0.00     0.055 A 
ATOM     63  C   UNL     1      -8.940  -1.621  10.838  1.00  0.00     0.041 A 
ATOM     64  F   UNL     1      -8.332  -0.805   8.726  1.00  0.00    -0.206 F 
ATOM     65  C   UNL     1      -8.624  -1.876  12.172  1.00  0.00     0.022 A 
BRANCH  62  66
ATOM     66  S   UNL     1      -6.902  -1.892  14.367  1.00  0.00     0.124 S 
ATOM     67  O   UNL     1      -5.912  -2.945  14.163  1.00  0.00    -0.237 OA
ATOM     68  O   UNL     1      -6.385  -0.621  14.864  1.00  0.00    -0.237 OA
ATOM     69  O   UNL     1      -8.158  -2.327  14.975  1.00  0.00    -0.744 OA
ENDBRANCH  62  66
ENDBRANCH  36  59
ENDBRANCH  10  11
ENDBRANCH   3   5
ENDBRANCH   2   3
ENDBRANCH   1   2
BRANCH   1  70
ATOM     70  C   UNL     1       2.770   2.692  -0.731  1.00  0.00     0.274 C 
BRANCH  70  71
ATOM     71  O   UNL     1       2.794   1.690   0.292  1.00  0.00    -0.462 OA
BRANCH  71  72
ATOM     72  C   UNL     1       3.830   1.749   1.167  1.00  0.00     0.309 C 
ATOM     73  O   UNL     1       4.979   2.018   0.860  1.00  0.00    -0.252 OA
BRANCH  72  74
ATOM     74  C   UNL     1       3.334   1.593   2.598  1.00  0.00     0.107 C 
BRANCH  74  75
ATOM     75  C   UNL     1       1.802   1.856   2.623  1.00  0.00     0.051 C 
BRANCH  75  76
ATOM     76  C   UNL     1       0.624   0.996   2.187  1.00  0.00    -0.044 A 
ATOM     77  C   UNL     1       0.680  -0.278   1.640  1.00  0.00     0.004 A 
ATOM     78  C   UNL     1      -0.670   1.543   2.353  1.00  0.00     0.043 A 
ATOM     79  C   UNL     1      -0.508  -0.965   1.306  1.00  0.00     0.003 A 
ATOM     80  C   UNL     1      -1.840   0.868   2.037  1.00  0.00     0.123 A 
ATOM     81  C   UNL     1      -1.770  -0.397   1.508  1.00  0.00     0.039 A 
ATOM     82  F   UNL     1      -3.023   1.459   2.252  1.00  0.00    -0.207 F 
ENDBRANCH  75  76
ENDBRANCH  74  75
BRANCH  74  83
ATOM     83  C   UNL     1       3.858   0.371   3.372  1.00  0.00     0.009 C 
ATOM     84  C   UNL     1       5.392   0.200   3.395  1.00  0.00     0.033 C 
ATOM     85  C   UNL     1       3.478   0.342   4.872  1.00  0.00     0.040 C 
ATOM     86  C   UNL     1       5.785  -1.122   4.079  1.00  0.00     0.161 C 
ATOM     87  C   UNL     1       3.715  -1.085   5.361  1.00  0.00     0.069 C 
ATOM     88  O   UNL     1       5.145  -1.313   5.339  1.00  0.00    -0.375 OA
ATOM     89  C   UNL     1       3.000  -1.538   6.667  1.00  0.00     0.035 C 
ATOM     90  C   UNL     1       2.829  -2.118   4.606  1.00  0.00     0.035 C 
ATOM     91  C   UNL     1       2.560  -2.817   5.925  1.00  0.00     0.006 C 
ENDBRANCH  74  83
ENDBRANCH  72  74
ENDBRANCH  71  72
ENDBRANCH  70  71
ENDBRANCH   1  70
TORSDOF 17
