REMARK SMILES CC(=O)N/N=C/c1ccc(O[C@H](C)C(=O)OCCOC(=O)c2ccc(-c3c4nc(c(-c5cc(S(=O)(=O)[O-])ccc5F)c5ccc([nH]5)c(-c5cc(S(=O)(=O)[O-])ccc5F)c5nc(c(-c6cc(S(=O)(=O)[O-])ccc6F)c6ccc3[nH]6)C=C5)C=C4)cc2)cc1
REMARK SMILES IDX 17 1 16 2 14 3 15 4 12 5 13 6 11 7 10 8 7 9 8 10 86 11 9 12
REMARK SMILES IDX 85 13 6 14 5 15 4 16 1 17 2 18 3 19 18 21 19 22 20 23 21 24
REMARK SMILES IDX 22 25 23 26 84 27 24 28 83 29 25 30 26 31 27 32 77 33 28 34
REMARK SMILES IDX 82 35 76 36 78 37 29 38 81 39 75 40 74 41 30 43 62 44 42 45
REMARK SMILES IDX 61 46 43 47 46 48 60 49 79 50 44 51 45 52 59 54 80 55 47 56
REMARK SMILES IDX 31 57 32 58 40 59 33 60 39 61 41 62 38 63 34 64 35 65 36 66
REMARK SMILES IDX 37 67 63 68 64 69 72 70 65 71 71 72 73 73 70 74 66 75 67 76
REMARK SMILES IDX 68 77 69 78 48 79 49 80 57 81 50 82 56 83 58 84 55 85 51 86
REMARK SMILES IDX 52 87 53 88 54 89
REMARK H PARENT 4 20 78 42 46 53
REMARK Flexibility Score: inf
ROOT
ATOM      1  C   UNL     1       1.041   6.997   3.420  1.00  0.00     0.274 C 
ENDROOT
BRANCH   1   2
ATOM      2  O   UNL     1       2.345   6.767   2.845  1.00  0.00    -0.459 OA
BRANCH   2   3
ATOM      3  C   UNL     1       3.255   7.761   3.051  1.00  0.00     0.347 C 
ATOM      4  O   UNL     1       3.047   8.738   3.766  1.00  0.00    -0.248 OA
BRANCH   3   5
ATOM      5  C   UNL     1       4.530   7.627   2.192  1.00  0.00     0.279 C 
ATOM      6  C   UNL     1       5.105   6.215   2.345  1.00  0.00     0.066 C 
BRANCH   5   7
ATOM      7  O   UNL     1       4.594   7.947   0.803  1.00  0.00    -0.479 OA
BRANCH   7   8
ATOM      8  C   UNL     1       3.562   8.545   0.150  1.00  0.00     0.120 A 
ATOM      9  C   UNL     1       1.390   9.377  -1.379  1.00  0.00    -0.005 A 
ATOM     10  C   UNL     1       1.432   9.666  -0.019  1.00  0.00     0.013 A 
ATOM     11  C   UNL     1       2.477   8.788  -2.016  1.00  0.00     0.013 A 
ATOM     12  C   UNL     1       2.552   9.309   0.722  1.00  0.00     0.047 A 
ATOM     13  C   UNL     1       3.555   8.355  -1.238  1.00  0.00     0.047 A 
BRANCH   9  14
ATOM     14  C   UNL     1       0.134   9.666  -2.071  1.00  0.00     0.141 C 
ATOM     15  N   UNL     1       0.078  10.191  -3.250  1.00  0.00    -0.181 NA
BRANCH  15  16
ATOM     16  N   UNL     1      -1.169  10.496  -3.720  1.00  0.00    -0.247 N 
ATOM     17  C   UNL     1      -2.024  11.656  -1.679  1.00  0.00     0.116 C 
ATOM     18  C   UNL     1      -2.207  11.140  -3.085  1.00  0.00     0.236 C 
ATOM     19  O   UNL     1      -3.281  11.290  -3.672  1.00  0.00    -0.274 OA
ATOM     20  H   UNL     1      -1.351  10.214  -4.646  1.00  0.00     0.193 HD
ENDBRANCH  15  16
ENDBRANCH   9  14
ENDBRANCH   7   8
ENDBRANCH   5   7
ENDBRANCH   3   5
ENDBRANCH   2   3
ENDBRANCH   1   2
BRANCH   1  21
ATOM     21  C   UNL     1       0.876   6.476   4.854  1.00  0.00     0.275 C 
BRANCH  21  22
ATOM     22  O   UNL     1       1.650   7.228   5.805  1.00  0.00    -0.458 OA
BRANCH  22  23
ATOM     23  C   UNL     1       2.912   6.761   5.983  1.00  0.00     0.338 C 
ATOM     24  O   UNL     1       3.373   5.738   5.504  1.00  0.00    -0.246 OA
BRANCH  23  25
ATOM     25  C   UNL     1       3.748   7.773   6.659  1.00  0.00     0.060 A 
ATOM     26  C   UNL     1       5.011   8.014   6.103  1.00  0.00     0.016 A 
ATOM     27  C   UNL     1       3.346   8.444   7.816  1.00  0.00     0.016 A 
ATOM     28  C   UNL     1       5.887   8.903   6.708  1.00  0.00     0.010 A 
ATOM     29  C   UNL     1       4.239   9.323   8.441  1.00  0.00     0.010 A 
ATOM     30  C   UNL     1       5.523   9.529   7.903  1.00  0.00    -0.014 A 
BRANCH  30  31
ATOM     31  C   UNL     1       6.585  10.228   8.661  1.00  0.00     0.031 A 
ATOM     32  C   UNL     1       7.297   9.475   9.748  1.00  0.00     0.074 A 
ATOM     33  C   UNL     1       6.977  11.464   8.309  1.00  0.00     0.049 A 
ATOM     34  N   UNL     1       8.296   9.847  10.505  1.00  0.00    -0.248 NA
ATOM     35  C   UNL     1       6.809   8.114  10.014  1.00  0.00     0.031 C 
ATOM     36  C   UNL     1       6.389  12.259   7.232  1.00  0.00     0.029 A 
ATOM     37  N   UNL     1       7.972  12.259   8.813  1.00  0.00    -0.354 N 
ATOM     38  C   UNL     1       8.556   8.766  11.341  1.00  0.00     0.074 A 
ATOM     39  C   UNL     1       7.579   7.746  11.024  1.00  0.00     0.031 C 
ATOM     40  C   UNL     1       7.031  13.437   7.162  1.00  0.00     0.029 A 
ATOM     41  C   UNL     1       8.056  13.487   8.202  1.00  0.00     0.049 A 
ATOM     42  H   UNL     1       8.570  11.978   9.543  1.00  0.00     0.167 HD
ATOM     43  C   UNL     1       9.527   8.636  12.280  1.00  0.00     0.034 A 
ATOM     44  C   UNL     1       8.859  14.536   8.468  1.00  0.00     0.034 A 
ATOM     45  C   UNL     1      10.473   9.681  12.592  1.00  0.00     0.049 A 
ATOM     46  C   UNL     1       9.896  14.397   9.553  1.00  0.00     0.074 A 
ATOM     47  C   UNL     1      11.491   9.677  13.530  1.00  0.00     0.029 A 
ATOM     48  N   UNL     1      10.507  10.930  11.979  1.00  0.00    -0.354 N 
ATOM     49  N   UNL     1      10.138  13.373  10.341  1.00  0.00    -0.248 NA
ATOM     50  C   UNL     1      10.782  15.546   9.768  1.00  0.00     0.031 C 
ATOM     51  C   UNL     1      12.091  10.942  13.532  1.00  0.00     0.029 A 
ATOM     52  C   UNL     1      11.506  11.714  12.539  1.00  0.00     0.049 A 
ATOM     53  H   UNL     1       9.908  11.217  11.253  1.00  0.00     0.167 HD
ATOM     54  C   UNL     1      11.218  13.750  11.136  1.00  0.00     0.074 A 
ATOM     55  C   UNL     1      11.591  15.086  10.711  1.00  0.00     0.031 C 
ATOM     56  C   UNL     1      11.847  13.057  12.122  1.00  0.00     0.034 A 
BRANCH  43  57
ATOM     57  C   UNL     1       9.537   7.349  13.073  1.00  0.00     0.023 A 
ATOM     58  C   UNL     1       9.726   6.097  12.457  1.00  0.00     0.031 A 
ATOM     59  C   UNL     1       9.250   7.364  14.449  1.00  0.00     0.131 A 
ATOM     60  C   UNL     1       9.519   4.917  13.188  1.00  0.00     0.055 A 
ATOM     61  C   UNL     1       9.139   6.186  15.192  1.00  0.00     0.041 A 
ATOM     62  F   UNL     1       9.033   8.523  15.090  1.00  0.00    -0.206 F 
ATOM     63  C   UNL     1       9.251   4.953  14.558  1.00  0.00     0.022 A 
BRANCH  60  64
ATOM     64  S   UNL     1       9.404   3.346  12.285  1.00  0.00     0.124 S 
ATOM     65  O   UNL     1       8.346   3.637  11.319  1.00  0.00    -0.237 OA
ATOM     66  O   UNL     1      10.747   3.198  11.738  1.00  0.00    -0.237 OA
ATOM     67  O   UNL     1       9.040   2.381  13.321  1.00  0.00    -0.744 OA
ENDBRANCH  60  64
ENDBRANCH  43  57
BRANCH  44  68
ATOM     68  C   UNL     1       8.681  15.814   7.723  1.00  0.00     0.023 A 
ATOM     69  C   UNL     1       9.662  16.304   6.847  1.00  0.00     0.031 A 
ATOM     70  C   UNL     1       7.509  16.574   7.895  1.00  0.00     0.131 A 
ATOM     71  C   UNL     1       9.463  17.532   6.194  1.00  0.00     0.055 A 
ATOM     72  C   UNL     1       7.298  17.771   7.210  1.00  0.00     0.041 A 
ATOM     73  F   UNL     1       6.539  16.147   8.719  1.00  0.00    -0.206 F 
ATOM     74  C   UNL     1       8.282  18.260   6.359  1.00  0.00     0.022 A 
BRANCH  71  75
ATOM     75  S   UNL     1      10.791  18.190   5.147  1.00  0.00     0.124 S 
ATOM     76  O   UNL     1      11.872  18.363   6.110  1.00  0.00    -0.237 OA
ATOM     77  O   UNL     1      10.966  17.121   4.170  1.00  0.00    -0.237 OA
ATOM     78  O   UNL     1      10.223  19.428   4.615  1.00  0.00    -0.744 OA
ENDBRANCH  71  75
ENDBRANCH  44  68
BRANCH  56  79
ATOM     79  C   UNL     1      13.026  13.734  12.781  1.00  0.00     0.023 A 
ATOM     80  C   UNL     1      12.877  14.909  13.540  1.00  0.00     0.031 A 
ATOM     81  C   UNL     1      14.323  13.215  12.618  1.00  0.00     0.131 A 
ATOM     82  C   UNL     1      14.011  15.566  14.042  1.00  0.00     0.055 A 
ATOM     83  C   UNL     1      15.440  13.835  13.178  1.00  0.00     0.041 A 
ATOM     84  F   UNL     1      14.527  12.097  11.902  1.00  0.00    -0.206 F 
ATOM     85  C   UNL     1      15.290  15.028  13.880  1.00  0.00     0.022 A 
BRANCH  82  86
ATOM     86  S   UNL     1      13.805  17.203  14.797  1.00  0.00     0.124 S 
ATOM     87  O   UNL     1      13.107  17.937  13.746  1.00  0.00    -0.237 OA
ATOM     88  O   UNL     1      13.022  16.898  15.990  1.00  0.00    -0.237 OA
ATOM     89  O   UNL     1      15.177  17.638  15.050  1.00  0.00    -0.744 OA
ENDBRANCH  82  86
ENDBRANCH  56  79
ENDBRANCH  30  31
ENDBRANCH  23  25
ENDBRANCH  22  23
ENDBRANCH  21  22
ENDBRANCH   1  21
TORSDOF 18
