REMARK SMILES NS(=O)(=O)c1ccc(-n2nc(C(=O)NCCCC(=O)OCCOC(=O)c3ccc(-c4c5nc(c(-c6cc(S(=O)(=O)[O-])ccc6F)c6ccc([nH]6)c(-c6cc(S(=O)(=O)[O-])ccc6F)c6nc(c(-c7cc(S(=O)(=O)[O-])ccc7F)c7ccc4[nH]7)C=C6)C=C5)cc3)cc2-c2ccccc2)cc1
REMARK SMILES IDX 18 1 19 2 17 3 16 4 15 5 14 6 12 7 13 8 11 10 9 11 10 12
REMARK SMILES IDX 90 13 89 14 8 15 5 16 6 17 98 18 7 19 97 20 2 21 3 22 4 23
REMARK SMILES IDX 1 24 91 27 92 28 96 29 93 30 95 31 94 32 20 33 21 34 22 35
REMARK SMILES IDX 23 36 24 37 25 38 26 39 27 40 88 41 28 42 87 43 29 44 30 45
REMARK SMILES IDX 31 46 81 47 32 48 86 49 80 50 82 51 33 52 85 53 79 54 78 55
REMARK SMILES IDX 34 57 66 58 46 59 65 60 47 61 50 62 64 63 83 64 48 65 49 66
REMARK SMILES IDX 63 68 84 69 51 70 35 71 36 72 44 73 37 74 43 75 45 76 42 77
REMARK SMILES IDX 38 78 39 79 40 80 41 81 67 82 68 83 76 84 69 85 75 86 77 87
REMARK SMILES IDX 74 88 70 89 71 90 72 91 73 92 52 93 53 94 61 95 54 96 60 97
REMARK SMILES IDX 62 98 59 99 55 100 56 101 57 102 58 103
REMARK H PARENT 14 9 1 25 1 26 82 56 50 67
REMARK Flexibility Score: inf
ROOT
ATOM      1  C   UNL     1       4.506   0.510  14.350  1.00  0.00     0.305 C 
ATOM      2  O   UNL     1       5.110   0.379  15.407  1.00  0.00    -0.252 OA
ENDROOT
BRANCH   1   3
ATOM      3  C   UNL     1       4.610   1.749  13.490  1.00  0.00     0.124 C 
BRANCH   3   4
ATOM      4  C   UNL     1       5.054   1.567  12.041  1.00  0.00     0.033 C 
BRANCH   4   5
ATOM      5  C   UNL     1       4.144   0.751  11.122  1.00  0.00     0.117 C 
BRANCH   5   6
ATOM      6  N   UNL     1       2.810   1.309  11.017  1.00  0.00    -0.351 N 
ATOM      7  C   UNL     1       2.008   1.541   9.924  1.00  0.00     0.271 C 
ATOM      8  O   UNL     1       0.952   2.143  10.140  1.00  0.00    -0.267 OA
ATOM      9  H   UNL     1       2.409   1.568  11.878  1.00  0.00     0.163 HD
BRANCH   7  10
ATOM     10  C   UNL     1       2.387   1.069   8.576  1.00  0.00     0.151 A 
ATOM     11  N   UNL     1       2.317   0.907   6.440  1.00  0.00    -0.232 N 
ATOM     12  N   UNL     1       1.906   1.680   7.472  1.00  0.00    -0.162 NA
ATOM     13  C   UNL     1       3.293   0.003   6.827  1.00  0.00     0.075 A 
ATOM     14  C   UNL     1       3.216  -0.023   8.204  1.00  0.00     0.065 A 
BRANCH  11  15
ATOM     15  C   UNL     1       1.738   1.042   5.151  1.00  0.00     0.065 A 
ATOM     16  C   UNL     1       0.846   1.291   2.530  1.00  0.00     0.082 A 
ATOM     17  C   UNL     1       1.091   0.020   3.053  1.00  0.00     0.024 A 
ATOM     18  C   UNL     1       0.987   2.434   3.328  1.00  0.00     0.024 A 
ATOM     19  C   UNL     1       1.549  -0.103   4.361  1.00  0.00     0.030 A 
ATOM     20  C   UNL     1       1.401   2.307   4.658  1.00  0.00     0.030 A 
BRANCH  16  21
ATOM     21  S   UNL     1       0.459   1.463   0.815  1.00  0.00     0.238 S 
ATOM     22  O   UNL     1       1.128   2.647   0.303  1.00  0.00    -0.207 OA
ATOM     23  O   UNL     1      -0.943   1.222   0.626  1.00  0.00    -0.207 OA
BRANCH  21  24
ATOM     24  N   UNL     1       1.264   0.172   0.099  1.00  0.00    -0.225 NA
ATOM     25  H   UNL     1       1.100   0.185  -0.908  1.00  0.00     0.137 HD
ATOM     26  H   UNL     1       0.917  -0.704   0.489  1.00  0.00     0.137 HD
ENDBRANCH  21  24
ENDBRANCH  16  21
ENDBRANCH  11  15
BRANCH  13  27
ATOM     27  C   UNL     1       4.231  -0.682   5.934  1.00  0.00     0.000 A 
ATOM     28  C   UNL     1       4.908   0.033   4.931  1.00  0.00     0.010 A 
ATOM     29  C   UNL     1       4.517  -2.040   6.105  1.00  0.00     0.010 A 
ATOM     30  C   UNL     1       5.838  -0.602   4.107  1.00  0.00     0.001 A 
ATOM     31  C   UNL     1       5.452  -2.673   5.282  1.00  0.00     0.001 A 
ATOM     32  C   UNL     1       6.111  -1.955   4.285  1.00  0.00     0.000 A 
ENDBRANCH  13  27
ENDBRANCH   7  10
ENDBRANCH   5   6
ENDBRANCH   4   5
ENDBRANCH   3   4
ENDBRANCH   1   3
BRANCH   1  33
ATOM     33  O   UNL     1       3.604  -0.380  13.855  1.00  0.00    -0.462 OA
BRANCH  33  34
ATOM     34  C   UNL     1       3.471  -1.624  14.572  1.00  0.00     0.274 C 
BRANCH  34  35
ATOM     35  C   UNL     1       4.435  -2.688  14.063  1.00  0.00     0.275 C 
BRANCH  35  36
ATOM     36  O   UNL     1       5.782  -2.352  14.388  1.00  0.00    -0.458 OA
BRANCH  36  37
ATOM     37  C   UNL     1       6.443  -1.692  13.412  1.00  0.00     0.338 C 
ATOM     38  O   UNL     1       5.959  -1.229  12.394  1.00  0.00    -0.246 OA
BRANCH  37  39
ATOM     39  C   UNL     1       7.886  -1.761  13.637  1.00  0.00     0.060 A 
ATOM     40  C   UNL     1       8.708  -1.050  12.754  1.00  0.00     0.016 A 
ATOM     41  C   UNL     1       8.380  -2.766  14.474  1.00  0.00     0.016 A 
ATOM     42  C   UNL     1      10.001  -1.486  12.567  1.00  0.00     0.010 A 
ATOM     43  C   UNL     1       9.655  -3.220  14.261  1.00  0.00     0.010 A 
ATOM     44  C   UNL     1      10.420  -2.624  13.258  1.00  0.00    -0.014 A 
BRANCH  44  45
ATOM     45  C   UNL     1      11.719  -3.183  12.958  1.00  0.00     0.031 A 
ATOM     46  C   UNL     1      12.828  -2.490  13.643  1.00  0.00     0.074 A 
ATOM     47  C   UNL     1      11.846  -4.334  12.273  1.00  0.00     0.049 A 
ATOM     48  N   UNL     1      13.784  -1.800  13.119  1.00  0.00    -0.248 NA
ATOM     49  C   UNL     1      12.763  -2.403  15.112  1.00  0.00     0.031 C 
ATOM     50  C   UNL     1      10.778  -5.239  11.837  1.00  0.00     0.029 A 
ATOM     51  N   UNL     1      12.977  -5.008  11.940  1.00  0.00    -0.354 N 
ATOM     52  C   UNL     1      14.572  -1.393  14.189  1.00  0.00     0.074 A 
ATOM     53  C   UNL     1      13.770  -1.571  15.366  1.00  0.00     0.031 C 
ATOM     54  C   UNL     1      11.317  -6.435  11.511  1.00  0.00     0.029 A 
ATOM     55  C   UNL     1      12.766  -6.338  11.596  1.00  0.00     0.049 A 
ATOM     56  H   UNL     1      13.869  -4.590  11.941  1.00  0.00     0.167 HD
ATOM     57  C   UNL     1      15.912  -1.211  14.050  1.00  0.00     0.034 A 
ATOM     58  C   UNL     1      13.714  -7.305  11.483  1.00  0.00     0.034 A 
ATOM     59  C   UNL     1      16.271  -1.077  12.656  1.00  0.00     0.049 A 
ATOM     60  C   UNL     1      15.017  -6.615  11.300  1.00  0.00     0.074 A 
ATOM     61  C   UNL     1      15.928  -0.196  11.649  1.00  0.00     0.029 A 
ATOM     62  N   UNL     1      16.813  -2.174  12.022  1.00  0.00    -0.354 N 
ATOM     63  N   UNL     1      15.303  -5.884  10.258  1.00  0.00    -0.248 NA
ATOM     64  C   UNL     1      15.826  -6.341  12.480  1.00  0.00     0.031 C 
ATOM     65  C   UNL     1      15.840  -0.995  10.470  1.00  0.00     0.029 A 
ATOM     66  C   UNL     1      16.196  -2.304  10.802  1.00  0.00     0.049 A 
ATOM     67  H   UNL     1      17.517  -2.761  12.381  1.00  0.00     0.167 HD
ATOM     68  C   UNL     1      15.996  -4.792  10.759  1.00  0.00     0.074 A 
ATOM     69  C   UNL     1      16.390  -5.187  12.110  1.00  0.00     0.031 C 
ATOM     70  C   UNL     1      15.936  -3.573  10.144  1.00  0.00     0.034 A 
BRANCH  57  71
ATOM     71  C   UNL     1      16.930  -1.530  15.126  1.00  0.00     0.023 A 
ATOM     72  C   UNL     1      18.281  -1.303  14.808  1.00  0.00     0.031 A 
ATOM     73  C   UNL     1      16.700  -2.281  16.304  1.00  0.00     0.131 A 
ATOM     74  C   UNL     1      19.311  -1.890  15.562  1.00  0.00     0.055 A 
ATOM     75  C   UNL     1      17.730  -2.801  17.092  1.00  0.00     0.041 A 
ATOM     76  F   UNL     1      15.481  -2.642  16.719  1.00  0.00    -0.206 F 
ATOM     77  C   UNL     1      19.045  -2.638  16.704  1.00  0.00     0.022 A 
BRANCH  74  78
ATOM     78  S   UNL     1      20.997  -1.815  14.909  1.00  0.00     0.124 S 
ATOM     79  O   UNL     1      20.809  -2.321  13.554  1.00  0.00    -0.237 OA
ATOM     80  O   UNL     1      21.300  -0.393  15.032  1.00  0.00    -0.237 OA
ATOM     81  O   UNL     1      21.744  -2.694  15.805  1.00  0.00    -0.744 OA
ENDBRANCH  74  78
ENDBRANCH  57  71
BRANCH  58  82
ATOM     82  C   UNL     1      13.579  -8.729  11.896  1.00  0.00     0.023 A 
ATOM     83  C   UNL     1      14.412  -9.754  11.403  1.00  0.00     0.031 A 
ATOM     84  C   UNL     1      12.743  -9.064  12.987  1.00  0.00     0.131 A 
ATOM     85  C   UNL     1      14.380 -11.042  11.990  1.00  0.00     0.055 A 
ATOM     86  C   UNL     1      12.708 -10.338  13.556  1.00  0.00     0.041 A 
ATOM     87  F   UNL     1      11.986  -8.135  13.593  1.00  0.00    -0.206 F 
ATOM     88  C   UNL     1      13.535 -11.333  13.064  1.00  0.00     0.022 A 
BRANCH  85  89
ATOM     89  S   UNL     1      15.511 -12.349  11.412  1.00  0.00     0.124 S 
ATOM     90  O   UNL     1      15.032 -12.598  10.058  1.00  0.00    -0.237 OA
ATOM     91  O   UNL     1      16.815 -11.708  11.533  1.00  0.00    -0.237 OA
ATOM     92  O   UNL     1      15.279 -13.444  12.356  1.00  0.00    -0.744 OA
ENDBRANCH  85  89
ENDBRANCH  58  82
BRANCH  70  93
ATOM     93  C   UNL     1      15.355  -3.511   8.743  1.00  0.00     0.023 A 
ATOM     94  C   UNL     1      14.035  -3.884   8.397  1.00  0.00     0.031 A 
ATOM     95  C   UNL     1      16.151  -2.929   7.741  1.00  0.00     0.131 A 
ATOM     96  C   UNL     1      13.563  -3.675   7.085  1.00  0.00     0.055 A 
ATOM     97  C   UNL     1      15.675  -2.706   6.450  1.00  0.00     0.041 A 
ATOM     98  F   UNL     1      17.403  -2.526   8.016  1.00  0.00    -0.206 F 
ATOM     99  C   UNL     1      14.379  -3.083   6.115  1.00  0.00     0.022 A 
BRANCH  96 100
ATOM    100  S   UNL     1      11.875  -4.175   6.611  1.00  0.00     0.124 S 
ATOM    101  O   UNL     1      11.784  -5.555   7.074  1.00  0.00    -0.237 OA
ATOM    102  O   UNL     1      11.044  -3.206   7.321  1.00  0.00    -0.237 OA
ATOM    103  O   UNL     1      11.868  -4.022   5.154  1.00  0.00    -0.744 OA
ENDBRANCH  96 100
ENDBRANCH  70  93
ENDBRANCH  44  45
ENDBRANCH  37  39
ENDBRANCH  36  37
ENDBRANCH  35  36
ENDBRANCH  34  35
ENDBRANCH  33  34
ENDBRANCH   1  33
TORSDOF 22
