REMARK SMILES CN1C(=O)C[C@H](C(=O)OCCOC(=O)c2ccc(-c3c4nc(c(-c5cc(S(=O)(=O)[O-])ccc5F)c5ccc([nH]5)c(-c5cc(S(=O)(=O)[O-])ccc5F)c5nc(c(-c6cc(S(=O)(=O)[O-])ccc6F)c6ccc3[nH]6)C=C5)C=C4)cc2)C12CC[NH+](Cc1ccc(Cl)c(F)c1)CC2
REMARK SMILES IDX 11 1 10 2 9 3 7 4 8 5 6 6 1 7 2 8 3 9 78 10 4 11 5 12 79 13
REMARK SMILES IDX 92 14 80 15 91 16 81 17 82 19 83 20 84 21 90 22 85 23 88 24
REMARK SMILES IDX 86 25 89 26 87 27 12 28 13 29 14 30 15 31 16 32 77 33 17 34
REMARK SMILES IDX 76 35 18 36 19 37 20 38 70 39 21 40 75 41 69 42 71 43 22 44
REMARK SMILES IDX 74 45 68 46 67 47 23 49 55 50 35 51 54 52 36 53 39 54 53 55
REMARK SMILES IDX 72 56 37 57 38 58 52 60 73 61 40 62 24 63 25 64 33 65 26 66
REMARK SMILES IDX 32 67 34 68 31 69 27 70 28 71 29 72 30 73 56 74 57 75 65 76
REMARK SMILES IDX 58 77 64 78 66 79 63 80 59 81 60 82 61 83 62 84 41 85 42 86
REMARK SMILES IDX 50 87 43 88 49 89 51 90 48 91 44 92 45 93 46 94 47 95
REMARK H PARENT 81 18 71 48 39 59
REMARK Flexibility Score: inf
ROOT
ATOM      1  C   UNL     1       0.501   7.217   3.818  1.00  0.00     0.275 C 
ENDROOT
BRANCH   1   2
ATOM      2  C   UNL     1      -0.010   6.884   2.413  1.00  0.00     0.274 C 
BRANCH   2   3
ATOM      3  O   UNL     1      -0.725   5.622   2.423  1.00  0.00    -0.462 OA
BRANCH   3   4
ATOM      4  C   UNL     1      -0.559   4.841   1.314  1.00  0.00     0.311 C 
ATOM      5  O   UNL     1       0.040   5.218   0.316  1.00  0.00    -0.252 OA
BRANCH   4   6
ATOM      6  C   UNL     1      -1.190   3.435   1.498  1.00  0.00     0.134 C 
ATOM      7  C   UNL     1      -0.149  -0.083   0.441  1.00  0.00     0.147 C 
ATOM      8  N   UNL     1      -0.769   1.186   0.782  1.00  0.00    -0.339 N 
ATOM      9  C   UNL     1      -1.681   1.722  -0.116  1.00  0.00     0.223 C 
ATOM     10  C   UNL     1      -0.192   2.168   1.744  1.00  0.00     0.067 C 
ATOM     11  O   UNL     1      -2.188   1.155  -1.074  1.00  0.00    -0.275 OA
ATOM     12  C   UNL     1      -1.934   3.154   0.198  1.00  0.00     0.118 C 
ATOM     13  C   UNL     1      -0.324   1.548   3.564  1.00  0.00     0.091 C 
ATOM     14  C   UNL     1       1.419   2.650   1.119  1.00  0.00     0.091 C 
ATOM     15  C   UNL     1       1.238   1.870   4.799  1.00  0.00     0.265 C 
ATOM     16  C   UNL     1       2.616   3.407   2.116  1.00  0.00     0.265 C 
ATOM     17  N   UNL     1       2.937   2.665   3.783  1.00  0.00    -0.331 N 
ATOM     18  H   UNL     1       3.120   3.103   4.686  1.00  0.00     0.348 HD
BRANCH  17  19
ATOM     19  C   UNL     1       4.259   1.946   3.100  1.00  0.00     0.299 C 
BRANCH  19  20
ATOM     20  C   UNL     1       4.205   1.090   1.729  1.00  0.00     0.009 A 
ATOM     21  C   UNL     1       3.644  -0.210   1.581  1.00  0.00     0.011 A 
ATOM     22  C   UNL     1       4.705   1.627   0.529  1.00  0.00     0.050 A 
ATOM     23  C   UNL     1       3.511  -0.897   0.367  1.00  0.00     0.024 A 
ATOM     24  C   UNL     1       4.519   0.972  -0.706  1.00  0.00     0.142 A 
ATOM     25  C   UNL     1       3.915  -0.278  -0.794  1.00  0.00     0.076 A 
ATOM     26  F   UNL     1       4.893   1.612  -1.824  1.00  0.00    -0.205 F 
ATOM     27  Cl  UNL     1       3.603  -1.036  -2.303  1.00  0.00    -0.081 Cl
ENDBRANCH  19  20
ENDBRANCH  17  19
ENDBRANCH   4   6
ENDBRANCH   3   4
ENDBRANCH   2   3
ENDBRANCH   1   2
BRANCH   1  28
ATOM     28  O   UNL     1       1.423   6.192   4.220  1.00  0.00    -0.458 OA
BRANCH  28  29
ATOM     29  C   UNL     1       0.916   5.265   5.062  1.00  0.00     0.338 C 
ATOM     30  O   UNL     1      -0.122   5.312   5.698  1.00  0.00    -0.246 OA
BRANCH  29  31
ATOM     31  C   UNL     1       1.653   4.029   4.827  1.00  0.00     0.060 A 
ATOM     32  C   UNL     1       1.102   3.080   3.449  1.00  0.00     0.016 A 
ATOM     33  C   UNL     1       2.678   3.305   5.952  1.00  0.00     0.016 A 
ATOM     34  C   UNL     1       1.798   1.251   3.169  1.00  0.00     0.010 A 
ATOM     35  C   UNL     1       3.260   1.690   5.811  1.00  0.00     0.010 A 
ATOM     36  C   UNL     1       2.891   0.577   4.508  1.00  0.00    -0.014 A 
BRANCH  36  37
ATOM     37  C   UNL     1       3.522  -0.852   4.823  1.00  0.00     0.031 A 
ATOM     38  C   UNL     1       3.076  -1.675   6.047  1.00  0.00     0.074 A 
ATOM     39  C   UNL     1       4.712  -1.335   4.343  1.00  0.00     0.049 A 
ATOM     40  N   UNL     1       3.489  -2.865   6.434  1.00  0.00    -0.248 NA
ATOM     41  C   UNL     1       2.171  -1.044   7.015  1.00  0.00     0.031 C 
ATOM     42  C   UNL     1       5.739  -0.619   3.611  1.00  0.00     0.029 A 
ATOM     43  N   UNL     1       5.170  -2.640   4.200  1.00  0.00    -0.354 N 
ATOM     44  C   UNL     1       2.958  -3.087   7.704  1.00  0.00     0.074 A 
ATOM     45  C   UNL     1       2.173  -1.913   8.017  1.00  0.00     0.031 C 
ATOM     46  C   UNL     1       6.351  -1.431   2.748  1.00  0.00     0.029 A 
ATOM     47  C   UNL     1       6.053  -2.791   3.131  1.00  0.00     0.049 A 
ATOM     48  H   UNL     1       4.899  -3.379   4.792  1.00  0.00     0.167 HD
ATOM     49  C   UNL     1       3.140  -4.138   8.552  1.00  0.00     0.034 A 
ATOM     50  C   UNL     1       6.645  -3.862   2.557  1.00  0.00     0.034 A 
ATOM     51  C   UNL     1       3.975  -5.285   8.264  1.00  0.00     0.049 A 
ATOM     52  C   UNL     1       6.654  -5.113   3.381  1.00  0.00     0.074 A 
ATOM     53  C   UNL     1       4.179  -6.419   9.036  1.00  0.00     0.029 A 
ATOM     54  N   UNL     1       4.765  -5.443   7.131  1.00  0.00    -0.354 N 
ATOM     55  N   UNL     1       6.066  -5.327   4.532  1.00  0.00    -0.248 NA
ATOM     56  C   UNL     1       7.506  -6.212   2.916  1.00  0.00     0.031 C 
ATOM     57  C   UNL     1       5.131  -7.227   8.404  1.00  0.00     0.029 A 
ATOM     58  C   UNL     1       5.453  -6.649   7.189  1.00  0.00     0.049 A 
ATOM     59  H   UNL     1       4.828  -4.793   6.394  1.00  0.00     0.167 HD
ATOM     60  C   UNL     1       6.530  -6.559   4.962  1.00  0.00     0.074 A 
ATOM     61  C   UNL     1       7.374  -7.082   3.906  1.00  0.00     0.031 C 
ATOM     62  C   UNL     1       6.312  -7.170   6.151  1.00  0.00     0.034 A 
BRANCH  49  63
ATOM     63  C   UNL     1       2.451  -4.077   9.905  1.00  0.00     0.023 A 
ATOM     64  C   UNL     1       1.052  -3.996  10.015  1.00  0.00     0.031 A 
ATOM     65  C   UNL     1       3.196  -4.085  11.101  1.00  0.00     0.131 A 
ATOM     66  C   UNL     1       0.451  -3.837  11.274  1.00  0.00     0.055 A 
ATOM     67  C   UNL     1       2.585  -4.023  12.357  1.00  0.00     0.041 A 
ATOM     68  F   UNL     1       4.537  -4.142  11.072  1.00  0.00    -0.206 F 
ATOM     69  C   UNL     1       1.204  -3.879  12.449  1.00  0.00     0.022 A 
BRANCH  66  70
ATOM     70  S   UNL     1      -1.309  -3.402  11.338  1.00  0.00     0.124 S 
ATOM     71  O   UNL     1      -1.331  -2.163  10.564  1.00  0.00    -0.237 OA
ATOM     72  O   UNL     1      -1.942  -4.557  10.713  1.00  0.00    -0.237 OA
ATOM     73  O   UNL     1      -1.571  -3.241  12.767  1.00  0.00    -0.744 OA
ENDBRANCH  66  70
ENDBRANCH  49  63
BRANCH  50  74
ATOM     74  C   UNL     1       7.382  -3.801   1.244  1.00  0.00     0.023 A 
ATOM     75  C   UNL     1       7.043  -4.689   0.202  1.00  0.00     0.031 A 
ATOM     76  C   UNL     1       8.447  -2.916   0.991  1.00  0.00     0.131 A 
ATOM     77  C   UNL     1       7.751  -4.666  -1.015  1.00  0.00     0.055 A 
ATOM     78  C   UNL     1       9.056  -2.808  -0.262  1.00  0.00     0.041 A 
ATOM     79  F   UNL     1       8.939  -2.136   1.967  1.00  0.00    -0.206 F 
ATOM     80  C   UNL     1       8.716  -3.694  -1.274  1.00  0.00     0.022 A 
BRANCH  77  81
ATOM     81  S   UNL     1       7.523  -6.030  -2.195  1.00  0.00     0.124 S 
ATOM     82  O   UNL     1       7.857  -7.187  -1.371  1.00  0.00    -0.237 OA
ATOM     83  O   UNL     1       6.120  -5.888  -2.563  1.00  0.00    -0.237 OA
ATOM     84  O   UNL     1       8.482  -5.726  -3.256  1.00  0.00    -0.744 OA
ENDBRANCH  77  81
ENDBRANCH  50  74
BRANCH  62  85
ATOM     85  C   UNL     1       6.971  -8.509   6.343  1.00  0.00     0.023 A 
ATOM     86  C   UNL     1       8.370  -8.644   6.412  1.00  0.00     0.031 A 
ATOM     87  C   UNL     1       6.187  -9.673   6.392  1.00  0.00     0.131 A 
ATOM     88  C   UNL     1       8.943  -9.923   6.456  1.00  0.00     0.055 A 
ATOM     89  C   UNL     1       6.761 -10.938   6.506  1.00  0.00     0.041 A 
ATOM     90  F   UNL     1       4.848  -9.598   6.315  1.00  0.00    -0.206 F 
ATOM     91  C   UNL     1       8.147 -11.069   6.522  1.00  0.00     0.022 A 
BRANCH  88  92
ATOM     92  S   UNL     1      10.744 -10.077   6.297  1.00  0.00     0.124 S 
ATOM     93  O   UNL     1      10.990  -9.433   5.011  1.00  0.00    -0.237 OA
ATOM     94  O   UNL     1      11.225  -9.359   7.473  1.00  0.00    -0.237 OA
ATOM     95  O   UNL     1      10.967 -11.522   6.319  1.00  0.00    -0.744 OA
ENDBRANCH  88  92
ENDBRANCH  62  85
ENDBRANCH  36  37
ENDBRANCH  29  31
ENDBRANCH  28  29
ENDBRANCH   1  28
TORSDOF 16
