REMARK SMILES CCc1ccccc1NC(=O)CCCC(=O)OCCOC(=O)c1ccc(-c2c3nc(c(-c4cc(S(=O)(=O)[O-])ccc4F)c4ccc([nH]4)c(-c4cc(S(=O)(=O)[O-])ccc4F)c4nc(c(-c5cc(S(=O)(=O)[O-])ccc5F)c5ccc2[nH]5)C=C4)C=C3)cc1
REMARK SMILES IDX 18 1 17 2 15 3 16 4 14 5 13 6 12 7 10 8 9 9 11 11 8 12 3 13
REMARK SMILES IDX 4 14 5 15 7 16 6 17 2 18 1 19 19 20 20 21 21 22 22 23 23 24
REMARK SMILES IDX 24 25 85 26 25 27 84 28 26 29 27 30 28 31 78 32 29 33 83 34
REMARK SMILES IDX 77 35 79 36 30 37 82 38 76 39 75 40 31 42 63 43 43 44 62 45
REMARK SMILES IDX 44 46 47 47 61 48 80 49 45 50 46 51 60 53 81 54 48 55 32 56
REMARK SMILES IDX 33 57 41 58 34 59 40 60 42 61 39 62 35 63 36 64 37 65 38 66
REMARK SMILES IDX 64 67 65 68 73 69 66 70 72 71 74 72 71 73 67 74 68 75 69 76
REMARK SMILES IDX 70 77 49 78 50 79 58 80 51 81 57 82 59 83 56 84 52 85 53 86
REMARK SMILES IDX 54 87 55 88
REMARK H PARENT 9 10 79 41 47 52
REMARK Flexibility Score: inf
ROOT
ATOM      1  C   UNL     1       0.892   6.730  -1.316  1.00  0.00     0.274 C 
ENDROOT
BRANCH   1   2
ATOM      2  O   UNL     1       0.156   6.475  -0.103  1.00  0.00    -0.462 OA
BRANCH   2   3
ATOM      3  C   UNL     1       0.827   5.830   0.888  1.00  0.00     0.305 C 
ATOM      4  O   UNL     1       2.029   5.591   0.861  1.00  0.00    -0.252 OA
BRANCH   3   5
ATOM      5  C   UNL     1      -0.053   5.412   2.049  1.00  0.00     0.123 C 
BRANCH   5   6
ATOM      6  C   UNL     1      -1.559   5.562   1.867  1.00  0.00     0.022 C 
BRANCH   6   7
ATOM      7  C   UNL     1      -2.187   4.736   0.743  1.00  0.00     0.101 C 
BRANCH   7   8
ATOM      8  C   UNL     1      -2.413   3.278   1.089  1.00  0.00     0.224 C 
ATOM      9  N   UNL     1      -1.470   2.302   0.977  1.00  0.00    -0.326 N 
ATOM     10  H   UNL     1      -1.776   1.435   1.329  1.00  0.00     0.169 HD
ATOM     11  O   UNL     1      -3.500   2.942   1.578  1.00  0.00    -0.275 OA
BRANCH   9  12
ATOM     12  C   UNL     1      -0.156   2.249   0.472  1.00  0.00     0.044 A 
ATOM     13  C   UNL     1       0.742   1.289   0.983  1.00  0.00    -0.025 A 
ATOM     14  C   UNL     1       2.124   1.432   0.742  1.00  0.00     0.006 A 
ATOM     15  C   UNL     1       2.589   2.370  -0.164  1.00  0.00     0.000 A 
ATOM     16  C   UNL     1       0.311   3.098  -0.527  1.00  0.00     0.026 A 
ATOM     17  C   UNL     1       1.670   3.136  -0.864  1.00  0.00     0.002 A 
BRANCH  13  18
ATOM     18  C   UNL     1       0.313  -0.017   1.616  1.00  0.00     0.034 C 
ATOM     19  C   UNL     1       0.436  -1.113   0.555  1.00  0.00     0.009 C 
ENDBRANCH  13  18
ENDBRANCH   9  12
ENDBRANCH   7   8
ENDBRANCH   6   7
ENDBRANCH   5   6
ENDBRANCH   3   5
ENDBRANCH   2   3
ENDBRANCH   1   2
BRANCH   1  20
ATOM     20  C   UNL     1       1.492   8.135  -1.393  1.00  0.00     0.275 C 
BRANCH  20  21
ATOM     21  O   UNL     1       2.570   8.299  -0.461  1.00  0.00    -0.458 OA
BRANCH  21  22
ATOM     22  C   UNL     1       2.171   8.672   0.780  1.00  0.00     0.338 C 
ATOM     23  O   UNL     1       1.043   8.991   1.116  1.00  0.00    -0.246 OA
BRANCH  22  24
ATOM     24  C   UNL     1       3.265   8.448   1.738  1.00  0.00     0.060 A 
ATOM     25  C   UNL     1       2.963   7.707   2.885  1.00  0.00     0.016 A 
ATOM     26  C   UNL     1       4.534   8.998   1.556  1.00  0.00     0.016 A 
ATOM     27  C   UNL     1       3.918   7.515   3.869  1.00  0.00     0.010 A 
ATOM     28  C   UNL     1       5.485   8.844   2.566  1.00  0.00     0.010 A 
ATOM     29  C   UNL     1       5.164   8.129   3.734  1.00  0.00    -0.014 A 
BRANCH  29  30
ATOM     30  C   UNL     1       6.022   8.221   4.929  1.00  0.00     0.031 A 
ATOM     31  C   UNL     1       5.909   9.461   5.767  1.00  0.00     0.074 A 
ATOM     32  C   UNL     1       6.808   7.195   5.289  1.00  0.00     0.049 A 
ATOM     33  N   UNL     1       6.619   9.839   6.794  1.00  0.00    -0.248 NA
ATOM     34  C   UNL     1       4.841  10.403   5.389  1.00  0.00     0.031 C 
ATOM     35  C   UNL     1       6.879   5.906   4.601  1.00  0.00     0.029 A 
ATOM     36  N   UNL     1       7.693   7.075   6.326  1.00  0.00    -0.354 N 
ATOM     37  C   UNL     1       6.098  11.072   7.175  1.00  0.00     0.074 A 
ATOM     38  C   UNL     1       5.024  11.383   6.257  1.00  0.00     0.031 C 
ATOM     39  C   UNL     1       7.779   5.129   5.227  1.00  0.00     0.029 A 
ATOM     40  C   UNL     1       8.383   5.886   6.320  1.00  0.00     0.049 A 
ATOM     41  H   UNL     1       7.823   7.772   7.009  1.00  0.00     0.167 HD
ATOM     42  C   UNL     1       6.492  11.868   8.197  1.00  0.00     0.034 A 
ATOM     43  C   UNL     1       9.416   5.488   7.089  1.00  0.00     0.034 A 
ATOM     44  C   UNL     1       7.584  11.528   9.074  1.00  0.00     0.049 A 
ATOM     45  C   UNL     1       9.918   6.441   8.148  1.00  0.00     0.074 A 
ATOM     46  C   UNL     1       8.128  12.264  10.110  1.00  0.00     0.029 A 
ATOM     47  N   UNL     1       8.307  10.341   9.006  1.00  0.00    -0.354 N 
ATOM     48  N   UNL     1       9.473   7.638   8.462  1.00  0.00    -0.248 NA
ATOM     49  C   UNL     1      11.059   5.992   8.952  1.00  0.00     0.031 C 
ATOM     50  C   UNL     1       9.216  11.549  10.627  1.00  0.00     0.029 A 
ATOM     51  C   UNL     1       9.306  10.333   9.965  1.00  0.00     0.049 A 
ATOM     52  H   UNL     1       8.133   9.611   8.368  1.00  0.00     0.167 HD
ATOM     53  C   UNL     1      10.266   8.074   9.519  1.00  0.00     0.074 A 
ATOM     54  C   UNL     1      11.204   7.003   9.796  1.00  0.00     0.031 C 
ATOM     55  C   UNL     1      10.229   9.247  10.204  1.00  0.00     0.034 A 
BRANCH  42  56
ATOM     56  C   UNL     1       5.796  13.201   8.336  1.00  0.00     0.023 A 
ATOM     57  C   UNL     1       4.424  13.299   8.631  1.00  0.00     0.031 A 
ATOM     58  C   UNL     1       6.501  14.392   8.085  1.00  0.00     0.131 A 
ATOM     59  C   UNL     1       3.786  14.549   8.588  1.00  0.00     0.055 A 
ATOM     60  C   UNL     1       5.876  15.640   8.124  1.00  0.00     0.041 A 
ATOM     61  F   UNL     1       7.804  14.361   7.766  1.00  0.00    -0.206 F 
ATOM     62  C   UNL     1       4.508  15.723   8.360  1.00  0.00     0.022 A 
BRANCH  59  63
ATOM     63  S   UNL     1       1.974  14.605   8.677  1.00  0.00     0.124 S 
ATOM     64  O   UNL     1       1.597  13.798   7.519  1.00  0.00    -0.237 OA
ATOM     65  O   UNL     1       1.703  14.016   9.983  1.00  0.00    -0.237 OA
ATOM     66  O   UNL     1       1.669  16.030   8.560  1.00  0.00    -0.744 OA
ENDBRANCH  59  63
ENDBRANCH  42  56
BRANCH  43  67
ATOM     67  C   UNL     1      10.083   4.177   6.846  1.00  0.00     0.023 A 
ATOM     68  C   UNL     1      10.104   3.176   7.830  1.00  0.00     0.031 A 
ATOM     69  C   UNL     1      10.753   3.922   5.635  1.00  0.00     0.131 A 
ATOM     70  C   UNL     1      10.812   1.984   7.601  1.00  0.00     0.055 A 
ATOM     71  C   UNL     1      11.411   2.715   5.392  1.00  0.00     0.041 A 
ATOM     72  F   UNL     1      10.770   4.845   4.660  1.00  0.00    -0.206 F 
ATOM     73  C   UNL     1      11.453   1.742   6.384  1.00  0.00     0.022 A 
BRANCH  70  74
ATOM     74  S   UNL     1      10.953   0.782   8.952  1.00  0.00     0.124 S 
ATOM     75  O   UNL     1      11.570   1.585  10.002  1.00  0.00    -0.237 OA
ATOM     76  O   UNL     1       9.560   0.405   9.168  1.00  0.00    -0.237 OA
ATOM     77  O   UNL     1      11.800  -0.267   8.388  1.00  0.00    -0.744 OA
ENDBRANCH  70  74
ENDBRANCH  43  67
BRANCH  55  78
ATOM     78  C   UNL     1      11.205   9.395  11.343  1.00  0.00     0.023 A 
ATOM     79  C   UNL     1      12.589   9.493  11.122  1.00  0.00     0.031 A 
ATOM     80  C   UNL     1      10.738   9.425  12.669  1.00  0.00     0.131 A 
ATOM     81  C   UNL     1      13.464   9.556  12.215  1.00  0.00     0.055 A 
ATOM     82  C   UNL     1      11.610   9.551  13.750  1.00  0.00     0.041 A 
ATOM     83  F   UNL     1       9.425   9.336  12.934  1.00  0.00    -0.206 F 
ATOM     84  C   UNL     1      12.983   9.603  13.526  1.00  0.00     0.022 A 
BRANCH  81  85
ATOM     85  S   UNL     1      15.249   9.479  11.903  1.00  0.00     0.124 S 
ATOM     86  O   UNL     1      15.380   8.205  11.202  1.00  0.00    -0.237 OA
ATOM     87  O   UNL     1      15.478  10.675  11.100  1.00  0.00    -0.237 OA
ATOM     88  O   UNL     1      15.833   9.511  13.243  1.00  0.00    -0.744 OA
ENDBRANCH  81  85
ENDBRANCH  55  78
ENDBRANCH  29  30
ENDBRANCH  22  24
ENDBRANCH  21  22
ENDBRANCH  20  21
ENDBRANCH   1  20
TORSDOF 19
