REMARK SMILES CC[C@H](C)[C@H](C(=O)OCCOC(=O)c1ccc(-c2c3nc(c(-c4cc(S(=O)(=O)[O-])ccc4F)c4ccc([nH]4)c(-c4cc(S(=O)(=O)[O-])ccc4F)c4nc(c(-c5cc(S(=O)(=O)[O-])ccc5F)c5ccc2[nH]5)C=C4)C=C3)cc1)N1C(=O)/C(=C/c2ccc(C)o2)SC1=S
REMARK SMILES IDX 10 1 9 2 8 3 6 4 7 5 5 6 3 7 4 8 2 9 1 10 77 11 78 12 89 13
REMARK SMILES IDX 79 14 80 15 88 16 90 17 81 18 82 19 83 20 87 21 84 22 85 23
REMARK SMILES IDX 86 24 11 25 12 26 13 27 14 28 15 29 76 30 16 31 75 32 17 33
REMARK SMILES IDX 18 34 19 35 69 36 20 37 74 38 68 39 70 40 21 41 73 42 67 43
REMARK SMILES IDX 66 44 22 46 54 47 34 48 53 49 35 50 38 51 52 52 71 53 36 54
REMARK SMILES IDX 37 55 51 57 72 58 39 59 23 60 24 61 32 62 25 63 31 64 33 65
REMARK SMILES IDX 30 66 26 67 27 68 28 69 29 70 55 71 56 72 64 73 57 74 63 75
REMARK SMILES IDX 65 76 62 77 58 78 59 79 60 80 61 81 40 82 41 83 49 84 42 85
REMARK SMILES IDX 48 86 50 87 47 88 43 89 44 90 45 91 46 92
REMARK H PARENT 70 45 38 56
REMARK Flexibility Score: inf
ROOT
ATOM      1  C   UNL     1       0.534  -0.404   1.020  1.00  0.00     0.275 C 
ENDROOT
BRANCH   1   2
ATOM      2  C   UNL     1       1.675  -0.358  -0.005  1.00  0.00     0.274 C 
BRANCH   2   3
ATOM      3  O   UNL     1       1.281  -0.843  -1.308  1.00  0.00    -0.461 OA
BRANCH   3   4
ATOM      4  C   UNL     1       1.638  -2.124  -1.616  1.00  0.00     0.329 C 
ATOM      5  O   UNL     1       2.188  -2.868  -0.811  1.00  0.00    -0.250 OA
BRANCH   4   6
ATOM      6  C   UNL     1       1.095  -2.574  -3.011  1.00  0.00     0.204 C 
BRANCH   6   7
ATOM      7  C   UNL     1       1.355  -1.724  -4.307  1.00  0.00     0.020 C 
ATOM      8  C   UNL     1       1.630  -0.244  -4.026  1.00  0.00     0.010 C 
BRANCH   7   9
ATOM      9  C   UNL     1       2.411  -2.234  -5.321  1.00  0.00     0.002 C 
ATOM     10  C   UNL     1       1.877  -3.269  -6.307  1.00  0.00     0.004 C 
ENDBRANCH   7   9
ENDBRANCH   6   7
BRANCH   6  11
ATOM     11  N   UNL     1       1.320  -4.035  -3.184  1.00  0.00    -0.278 N 
ATOM     12  C   UNL     1       2.608  -4.541  -3.070  1.00  0.00     0.267 C 
ATOM     13  C   UNL     1       0.343  -4.950  -3.532  1.00  0.00     0.149 C 
ATOM     14  O   UNL     1       3.631  -3.882  -2.925  1.00  0.00    -0.268 OA
ATOM     15  C   UNL     1       2.609  -6.019  -3.219  1.00  0.00     0.084 C 
ATOM     16  S   UNL     1       1.031  -6.566  -3.596  1.00  0.00    -0.054 SA
ATOM     17  S   UNL     1      -1.260  -4.665  -3.902  1.00  0.00    -0.052 S 
ATOM     18  C   UNL     1       3.740  -6.707  -3.031  1.00  0.00     0.068 C 
BRANCH  18  19
ATOM     19  C   UNL     1       3.891  -8.114  -3.147  1.00  0.00     0.128 A 
ATOM     20  C   UNL     1       3.326  -9.041  -4.016  1.00  0.00     0.050 A 
ATOM     21  O   UNL     1       4.769  -8.797  -2.335  1.00  0.00    -0.462 OA
ATOM     22  C   UNL     1       3.842 -10.317  -3.693  1.00  0.00     0.046 A 
ATOM     23  C   UNL     1       4.711 -10.116  -2.650  1.00  0.00     0.101 A 
ATOM     24  C   UNL     1       5.527 -11.035  -1.836  1.00  0.00     0.087 C 
ENDBRANCH  18  19
ENDBRANCH   6  11
ENDBRANCH   4   6
ENDBRANCH   3   4
ENDBRANCH   2   3
ENDBRANCH   1   2
BRANCH   1  25
ATOM     25  O   UNL     1       0.230  -1.744   1.448  1.00  0.00    -0.458 OA
BRANCH  25  26
ATOM     26  C   UNL     1      -0.699  -2.376   0.692  1.00  0.00     0.338 C 
ATOM     27  O   UNL     1      -1.300  -1.905  -0.261  1.00  0.00    -0.246 OA
BRANCH  26  28
ATOM     28  C   UNL     1      -0.752  -3.807   1.037  1.00  0.00     0.060 A 
ATOM     29  C   UNL     1      -0.465  -4.698   0.004  1.00  0.00     0.016 A 
ATOM     30  C   UNL     1      -1.145  -4.287   2.285  1.00  0.00     0.016 A 
ATOM     31  C   UNL     1      -0.586  -6.068   0.188  1.00  0.00     0.010 A 
ATOM     32  C   UNL     1      -1.258  -5.673   2.478  1.00  0.00     0.010 A 
ATOM     33  C   UNL     1      -0.991  -6.572   1.426  1.00  0.00    -0.014 A 
BRANCH  33  34
ATOM     34  C   UNL     1      -1.212  -8.034   1.565  1.00  0.00     0.031 A 
ATOM     35  C   UNL     1      -2.615  -8.564   1.655  1.00  0.00     0.074 A 
ATOM     36  C   UNL     1      -0.168  -8.885   1.528  1.00  0.00     0.049 A 
ATOM     37  N   UNL     1      -3.030  -9.783   1.881  1.00  0.00    -0.248 NA
ATOM     38  C   UNL     1      -3.695  -7.584   1.463  1.00  0.00     0.031 C 
ATOM     39  C   UNL     1       1.231  -8.497   1.338  1.00  0.00     0.029 A 
ATOM     40  N   UNL     1      -0.121 -10.253   1.635  1.00  0.00    -0.354 N 
ATOM     41  C   UNL     1      -4.419  -9.716   1.888  1.00  0.00     0.074 A 
ATOM     42  C   UNL     1      -4.772  -8.330   1.658  1.00  0.00     0.031 C 
ATOM     43  C   UNL     1       1.996  -9.601   1.335  1.00  0.00     0.029 A 
ATOM     44  C   UNL     1       1.155 -10.766   1.595  1.00  0.00     0.049 A 
ATOM     45  H   UNL     1      -0.925 -10.813   1.732  1.00  0.00     0.167 HD
ATOM     46  C   UNL     1      -5.313 -10.719   2.073  1.00  0.00     0.034 A 
ATOM     47  C   UNL     1       1.599 -12.025   1.790  1.00  0.00     0.034 A 
ATOM     48  C   UNL     1      -4.938 -12.097   2.284  1.00  0.00     0.049 A 
ATOM     49  C   UNL     1       0.591 -13.108   2.088  1.00  0.00     0.074 A 
ATOM     50  C   UNL     1      -5.756 -13.193   2.498  1.00  0.00     0.029 A 
ATOM     51  N   UNL     1      -3.631 -12.570   2.307  1.00  0.00    -0.354 N 
ATOM     52  N   UNL     1      -0.717 -13.022   2.163  1.00  0.00    -0.248 NA
ATOM     53  C   UNL     1       1.121 -14.454   2.337  1.00  0.00     0.031 C 
ATOM     54  C   UNL     1      -4.944 -14.314   2.710  1.00  0.00     0.029 A 
ATOM     55  C   UNL     1      -3.620 -13.934   2.558  1.00  0.00     0.049 A 
ATOM     56  H   UNL     1      -2.829 -12.016   2.165  1.00  0.00     0.167 HD
ATOM     57  C   UNL     1      -1.166 -14.309   2.445  1.00  0.00     0.074 A 
ATOM     58  C   UNL     1       0.009 -15.153   2.511  1.00  0.00     0.031 C 
ATOM     59  C   UNL     1      -2.435 -14.756   2.631  1.00  0.00     0.034 A 
BRANCH  46  60
ATOM     60  C   UNL     1      -6.773 -10.340   2.132  1.00  0.00     0.023 A 
ATOM     61  C   UNL     1      -7.458  -9.817   1.021  1.00  0.00     0.031 A 
ATOM     62  C   UNL     1      -7.479 -10.460   3.344  1.00  0.00     0.131 A 
ATOM     63  C   UNL     1      -8.781  -9.368   1.163  1.00  0.00     0.055 A 
ATOM     64  C   UNL     1      -8.818 -10.083   3.458  1.00  0.00     0.041 A 
ATOM     65  F   UNL     1      -6.871 -10.931   4.444  1.00  0.00    -0.206 F 
ATOM     66  C   UNL     1      -9.473  -9.519   2.368  1.00  0.00     0.022 A 
BRANCH  63  67
ATOM     67  S   UNL     1      -9.541  -8.450  -0.205  1.00  0.00     0.124 S 
ATOM     68  O   UNL     1      -8.613  -7.333  -0.363  1.00  0.00    -0.237 OA
ATOM     69  O   UNL     1      -9.547  -9.435  -1.281  1.00  0.00    -0.237 OA
ATOM     70  O   UNL     1     -10.858  -8.086   0.315  1.00  0.00    -0.744 OA
ENDBRANCH  63  67
ENDBRANCH  46  60
BRANCH  47  71
ATOM     71  C   UNL     1       3.061 -12.322   1.796  1.00  0.00     0.023 A 
ATOM     72  C   UNL     1       3.637 -13.204   0.867  1.00  0.00     0.031 A 
ATOM     73  C   UNL     1       3.900 -11.762   2.778  1.00  0.00     0.131 A 
ATOM     74  C   UNL     1       5.003 -13.523   0.957  1.00  0.00     0.055 A 
ATOM     75  C   UNL     1       5.267 -12.037   2.828  1.00  0.00     0.041 A 
ATOM     76  F   UNL     1       3.400 -10.927   3.704  1.00  0.00    -0.206 F 
ATOM     77  C   UNL     1       5.824 -12.929   1.919  1.00  0.00     0.022 A 
BRANCH  74  78
ATOM     78  S   UNL     1       5.690 -14.776  -0.166  1.00  0.00     0.124 S 
ATOM     79  O   UNL     1       4.920 -15.958   0.202  1.00  0.00    -0.237 OA
ATOM     80  O   UNL     1       5.402 -14.211  -1.480  1.00  0.00    -0.237 OA
ATOM     81  O   UNL     1       7.106 -14.810   0.192  1.00  0.00    -0.744 OA
ENDBRANCH  74  78
ENDBRANCH  47  71
BRANCH  59  82
ATOM     82  C   UNL     1      -2.606 -16.234   2.877  1.00  0.00     0.023 A 
ATOM     83  C   UNL     1      -2.170 -16.841   4.068  1.00  0.00     0.031 A 
ATOM     84  C   UNL     1      -3.197 -17.048   1.894  1.00  0.00     0.131 A 
ATOM     85  C   UNL     1      -2.285 -18.231   4.224  1.00  0.00     0.055 A 
ATOM     86  C   UNL     1      -3.357 -18.422   2.078  1.00  0.00     0.041 A 
ATOM     87  F   UNL     1      -3.628 -16.519   0.738  1.00  0.00    -0.206 F 
ATOM     88  C   UNL     1      -2.889 -19.022   3.243  1.00  0.00     0.022 A 
BRANCH  85  89
ATOM     89  S   UNL     1      -1.559 -19.006   5.695  1.00  0.00     0.124 S 
ATOM     90  O   UNL     1      -0.154 -18.630   5.575  1.00  0.00    -0.237 OA
ATOM     91  O   UNL     1      -2.299 -18.372   6.781  1.00  0.00    -0.237 OA
ATOM     92  O   UNL     1      -1.837 -20.429   5.506  1.00  0.00    -0.744 OA
ENDBRANCH  85  89
ENDBRANCH  59  82
ENDBRANCH  33  34
ENDBRANCH  26  28
ENDBRANCH  25  26
ENDBRANCH   1  25
TORSDOF 18
