REMARK SMILES O=C(OCCOC(=O)[C@H]1CCCCN1C(=O)c1nc(C2CC2)n[nH]1)c1ccc(-c2c3nc(c(-c4cc(S(=O)(=O)[O-])ccc4F)c4ccc([nH]4)c(-c4cc(S(=O)(=O)[O-])ccc4F)c4nc(c(-c5cc(S(=O)(=O)[O-])ccc5F)c5ccc2[nH]5)C=C4)C=C3)cc1
REMARK SMILES IDX 4 1 3 2 2 3 1 4 25 5 26 6 87 7 27 8 86 9 28 10 29 11 30 12
REMARK SMILES IDX 80 13 31 14 85 15 79 16 81 17 32 18 84 19 78 20 77 21 33 23
REMARK SMILES IDX 65 24 45 25 64 26 46 27 49 28 63 29 82 30 47 31 48 32 62 34
REMARK SMILES IDX 83 35 50 36 34 37 35 38 43 39 36 40 42 41 44 42 41 43 37 44
REMARK SMILES IDX 38 45 39 46 40 47 66 48 67 49 75 50 68 51 74 52 76 53 73 54
REMARK SMILES IDX 69 55 70 56 71 57 72 58 51 59 52 60 60 61 53 62 59 63 61 64
REMARK SMILES IDX 58 65 54 66 55 67 56 68 57 69 5 70 6 71 7 72 8 73 9 74 10 75
REMARK SMILES IDX 14 76 11 77 13 78 12 79 15 80 16 81 17 82 18 83 24 84 19 85
REMARK SMILES IDX 23 86 20 88 21 89 22 90
REMARK H PARENT 81 22 49 33 24 87
REMARK Flexibility Score: inf
ROOT
ATOM      1  C   UNL     1       4.622   0.030  -6.578  1.00  0.00     0.275 C 
ENDROOT
BRANCH   1   2
ATOM      2  O   UNL     1       5.597  -0.046  -5.547  1.00  0.00    -0.458 OA
BRANCH   2   3
ATOM      3  C   UNL     1       5.754   0.919  -4.625  1.00  0.00     0.338 C 
ATOM      4  O   UNL     1       6.806   1.007  -3.998  1.00  0.00    -0.246 OA
BRANCH   3   5
ATOM      5  C   UNL     1       4.617   1.792  -4.207  1.00  0.00     0.060 A 
ATOM      6  C   UNL     1       2.879   1.416  -4.341  1.00  0.00     0.016 A 
ATOM      7  C   UNL     1       5.065   2.890  -2.930  1.00  0.00     0.016 A 
ATOM      8  C   UNL     1       1.690   2.145  -2.975  1.00  0.00     0.010 A 
ATOM      9  C   UNL     1       3.966   3.548  -1.776  1.00  0.00     0.010 A 
ATOM     10  C   UNL     1       2.280   3.285  -1.785  1.00  0.00    -0.014 A 
BRANCH  10  11
ATOM     11  C   UNL     1       1.284   4.363  -1.386  1.00  0.00     0.031 A 
ATOM     12  C   UNL     1       1.544   5.836  -1.710  1.00  0.00     0.074 A 
ATOM     13  C   UNL     1       0.016   3.992  -1.093  1.00  0.00     0.049 A 
ATOM     14  N   UNL     1       0.721   6.854  -1.602  1.00  0.00    -0.248 NA
ATOM     15  C   UNL     1       2.845   6.231  -2.273  1.00  0.00     0.031 C 
ATOM     16  C   UNL     1      -0.434   2.605  -0.940  1.00  0.00     0.029 A 
ATOM     17  N   UNL     1      -1.151   4.713  -0.974  1.00  0.00    -0.354 N 
ATOM     18  C   UNL     1       1.419   7.973  -2.060  1.00  0.00     0.074 A 
ATOM     19  C   UNL     1       2.694   7.515  -2.527  1.00  0.00     0.031 C 
ATOM     20  C   UNL     1      -1.770   2.578  -0.945  1.00  0.00     0.029 A 
ATOM     21  C   UNL     1      -2.259   3.925  -0.754  1.00  0.00     0.049 A 
ATOM     22  H   UNL     1      -1.189   5.695  -1.039  1.00  0.00     0.167 HD
ATOM     23  C   UNL     1       1.077   9.282  -2.009  1.00  0.00     0.034 A 
ATOM     24  C   UNL     1      -3.495   4.198  -0.289  1.00  0.00     0.034 A 
ATOM     25  C   UNL     1      -0.143   9.727  -1.398  1.00  0.00     0.049 A 
ATOM     26  C   UNL     1      -3.775   5.631   0.029  1.00  0.00     0.074 A 
ATOM     27  C   UNL     1      -0.537  11.015  -1.093  1.00  0.00     0.029 A 
ATOM     28  N   UNL     1      -1.143   8.877  -0.943  1.00  0.00    -0.354 N 
ATOM     29  N   UNL     1      -3.018   6.673  -0.222  1.00  0.00    -0.248 NA
ATOM     30  C   UNL     1      -5.023   5.934   0.732  1.00  0.00     0.031 C 
ATOM     31  C   UNL     1      -1.711  10.932  -0.341  1.00  0.00     0.029 A 
ATOM     32  C   UNL     1      -2.126   9.608  -0.305  1.00  0.00     0.049 A 
ATOM     33  H   UNL     1      -1.151   7.900  -1.058  1.00  0.00     0.167 HD
ATOM     34  C   UNL     1      -3.702   7.766   0.281  1.00  0.00     0.074 A 
ATOM     35  C   UNL     1      -4.936   7.253   0.850  1.00  0.00     0.031 C 
ATOM     36  C   UNL     1      -3.342   9.071   0.259  1.00  0.00     0.034 A 
BRANCH  23  37
ATOM     37  C   UNL     1       2.157  10.279  -2.380  1.00  0.00     0.023 A 
ATOM     38  C   UNL     1       2.698  10.368  -3.676  1.00  0.00     0.031 A 
ATOM     39  C   UNL     1       2.774  11.028  -1.359  1.00  0.00     0.131 A 
ATOM     40  C   UNL     1       3.882  11.099  -3.886  1.00  0.00     0.055 A 
ATOM     41  C   UNL     1       3.885  11.836  -1.600  1.00  0.00     0.041 A 
ATOM     42  F   UNL     1       2.342  10.940  -0.091  1.00  0.00    -0.206 F 
ATOM     43  C   UNL     1       4.460  11.857  -2.865  1.00  0.00     0.022 A 
BRANCH  40  44
ATOM     44  S   UNL     1       4.793  10.848  -5.439  1.00  0.00     0.124 S 
ATOM     45  O   UNL     1       5.024   9.405  -5.412  1.00  0.00    -0.237 OA
ATOM     46  O   UNL     1       3.847  11.324  -6.441  1.00  0.00    -0.237 OA
ATOM     47  O   UNL     1       5.992  11.666  -5.271  1.00  0.00    -0.744 OA
ENDBRANCH  40  44
ENDBRANCH  23  37
BRANCH  24  48
ATOM     48  C   UNL     1      -4.416   3.081   0.115  1.00  0.00     0.023 A 
ATOM     49  C   UNL     1      -5.706   2.932  -0.412  1.00  0.00     0.031 A 
ATOM     50  C   UNL     1      -3.984   2.111   1.051  1.00  0.00     0.131 A 
ATOM     51  C   UNL     1      -6.500   1.836  -0.017  1.00  0.00     0.055 A 
ATOM     52  C   UNL     1      -4.742   0.988   1.377  1.00  0.00     0.041 A 
ATOM     53  F   UNL     1      -2.773   2.209   1.625  1.00  0.00    -0.206 F 
ATOM     54  C   UNL     1      -6.014   0.848   0.844  1.00  0.00     0.022 A 
BRANCH  51  55
ATOM     55  S   UNL     1      -8.229   1.756  -0.566  1.00  0.00     0.124 S 
ATOM     56  O   UNL     1      -8.754   3.023  -0.069  1.00  0.00    -0.237 OA
ATOM     57  O   UNL     1      -8.092   1.642  -2.014  1.00  0.00    -0.237 OA
ATOM     58  O   UNL     1      -8.748   0.565   0.106  1.00  0.00    -0.744 OA
ENDBRANCH  51  55
ENDBRANCH  24  48
BRANCH  36  59
ATOM     59  C   UNL     1      -4.335  10.059   0.786  1.00  0.00     0.023 A 
ATOM     60  C   UNL     1      -4.651  10.143   2.148  1.00  0.00     0.031 A 
ATOM     61  C   UNL     1      -4.934  10.966  -0.106  1.00  0.00     0.131 A 
ATOM     62  C   UNL     1      -5.577  11.101   2.577  1.00  0.00     0.055 A 
ATOM     63  C   UNL     1      -5.792  11.965   0.338  1.00  0.00     0.041 A 
ATOM     64  F   UNL     1      -4.666  10.907  -1.421  1.00  0.00    -0.206 F 
ATOM     65  C   UNL     1      -6.124  12.031   1.687  1.00  0.00     0.022 A 
BRANCH  62  66
ATOM     66  S   UNL     1      -6.127  11.056   4.301  1.00  0.00     0.124 S 
ATOM     67  O   UNL     1      -6.710   9.721   4.395  1.00  0.00    -0.237 OA
ATOM     68  O   UNL     1      -4.883  11.262   5.034  1.00  0.00    -0.237 OA
ATOM     69  O   UNL     1      -7.084  12.158   4.381  1.00  0.00    -0.744 OA
ENDBRANCH  62  66
ENDBRANCH  36  59
ENDBRANCH  10  11
ENDBRANCH   3   5
ENDBRANCH   2   3
ENDBRANCH   1   2
BRANCH   1  70
ATOM     70  C   UNL     1       3.561  -1.080  -6.439  1.00  0.00     0.274 C 
BRANCH  70  71
ATOM     71  O   UNL     1       2.713  -1.051  -5.255  1.00  0.00    -0.461 OA
BRANCH  71  72
ATOM     72  C   UNL     1       3.236  -1.132  -3.982  1.00  0.00     0.328 C 
ATOM     73  O   UNL     1       4.284  -1.706  -3.723  1.00  0.00    -0.250 OA
BRANCH  72  74
ATOM     74  C   UNL     1       2.447  -0.164  -2.968  1.00  0.00     0.195 C 
ATOM     75  C   UNL     1       3.395   1.468  -2.512  1.00  0.00     0.037 C 
ATOM     76  N   UNL     1       0.894   0.069  -3.534  1.00  0.00    -0.322 N 
ATOM     77  C   UNL     1       3.003   3.189  -3.838  1.00  0.00     0.005 C 
ATOM     78  C   UNL     1       0.457   1.244  -4.776  1.00  0.00     0.121 C 
ATOM     79  C   UNL     1       1.365   2.921  -4.922  1.00  0.00     0.022 C 
BRANCH  76  80
ATOM     80  C   UNL     1      -0.030  -0.566  -2.662  1.00  0.00     0.291 C 
ATOM     81  O   UNL     1       0.359  -1.107  -1.622  1.00  0.00    -0.265 OA
BRANCH  80  82
ATOM     82  C   UNL     1      -1.435  -0.539  -2.919  1.00  0.00     0.214 A 
ATOM     83  N   UNL     1      -2.037  -0.607  -4.081  1.00  0.00    -0.207 NA
ATOM     84  N   UNL     1      -2.374  -0.595  -1.925  1.00  0.00    -0.255 N 
ATOM     85  C   UNL     1      -3.365  -0.592  -3.732  1.00  0.00     0.154 A 
ATOM     86  N   UNL     1      -3.613  -0.527  -2.423  1.00  0.00    -0.158 NA
ATOM     87  H   UNL     1      -2.165  -0.676  -0.967  1.00  0.00     0.192 HD
BRANCH  85  88
ATOM     88  C   UNL     1      -4.455  -0.719  -4.767  1.00  0.00     0.060 C 
ATOM     89  C   UNL     1      -4.021  -0.778  -6.217  1.00  0.00     0.012 C 
ATOM     90  C   UNL     1      -4.535  -2.012  -5.547  1.00  0.00     0.012 C 
ENDBRANCH  85  88
ENDBRANCH  80  82
ENDBRANCH  76  80
ENDBRANCH  72  74
ENDBRANCH  71  72
ENDBRANCH  70  71
ENDBRANCH   1  70
TORSDOF 17
