REMARK SMILES Cc1c(N[C@@H]2CC[C@@H]([NH3+])C2)cccc1C(=O)OCCOC(=O)c1ccc(-c2c3nc(c(-c4cc(S(=O)(=O)[O-])ccc4F)c4ccc([nH]4)c(-c4cc(S(=O)(=O)[O-])ccc4F)c4nc(c(-c5cc(S(=O)(=O)[O-])ccc5F)c5ccc2[nH]5)C=C4)C=C3)cc1
REMARK SMILES IDX 18 1 17 2 15 3 16 4 14 5 1 6 2 7 3 8 11 9 13 10 12 11 4 12
REMARK SMILES IDX 5 14 6 15 10 16 7 17 8 18 9 19 19 23 20 24 21 25 22 26 23 27
REMARK SMILES IDX 24 28 85 29 25 30 84 31 26 32 27 33 28 34 78 35 29 36 83 37
REMARK SMILES IDX 77 38 79 39 30 40 82 41 76 42 75 43 31 45 63 46 43 47 62 48
REMARK SMILES IDX 44 49 47 50 61 51 80 52 45 53 46 54 60 56 81 57 48 58 32 59
REMARK SMILES IDX 33 60 41 61 34 62 40 63 42 64 39 65 35 66 36 67 37 68 38 69
REMARK SMILES IDX 64 70 65 71 73 72 66 73 72 74 74 75 71 76 67 77 68 78 69 79
REMARK SMILES IDX 70 80 49 81 50 82 58 83 51 84 57 85 59 86 56 87 52 88 53 89
REMARK SMILES IDX 54 90 55 91
REMARK H PARENT 4 13 9 20 9 21 9 22 79 44 47 55
REMARK Flexibility Score: inf
ROOT
ATOM      1  C   UNL     1       3.274   3.038  -2.220  1.00  0.00     0.275 C 
ENDROOT
BRANCH   1   2
ATOM      2  O   UNL     1       2.217   2.069  -2.212  1.00  0.00    -0.458 OA
BRANCH   2   3
ATOM      3  C   UNL     1       2.201   1.352  -1.061  1.00  0.00     0.338 C 
ATOM      4  O   UNL     1       3.006   1.471  -0.148  1.00  0.00    -0.246 OA
BRANCH   3   5
ATOM      5  C   UNL     1       1.157   0.308  -1.012  1.00  0.00     0.065 A 
ATOM      6  C   UNL     1       2.973  -1.373  -0.426  1.00  0.00     0.047 C 
ATOM      7  C   UNL     1       1.519  -0.971  -0.543  1.00  0.00    -0.013 A 
ATOM      8  C   UNL     1       0.512  -1.906  -0.217  1.00  0.00     0.038 A 
ATOM      9  C   UNL     1      -0.827  -1.524  -0.369  1.00  0.00     0.026 A 
ATOM     10  C   UNL     1      -0.183   0.620  -1.254  1.00  0.00     0.016 A 
ATOM     11  C   UNL     1      -1.179  -0.281  -0.895  1.00  0.00     0.003 A 
BRANCH   8  12
ATOM     12  N   UNL     1       0.889  -3.181   0.154  1.00  0.00    -0.382 N 
ATOM     13  H   UNL     1       1.754  -3.251   0.619  1.00  0.00     0.160 HD
BRANCH  12  14
ATOM     14  C   UNL     1       0.187  -4.427  -0.046  1.00  0.00     0.085 C 
ATOM     15  C   UNL     1      -0.572  -4.565  -1.373  1.00  0.00     0.031 C 
ATOM     16  C   UNL     1      -0.802  -4.741   1.070  1.00  0.00     0.089 C 
ATOM     17  C   UNL     1      -1.959  -5.082  -0.987  1.00  0.00     0.067 C 
ATOM     18  C   UNL     1      -1.796  -5.692   0.407  1.00  0.00     0.182 C 
BRANCH  18  19
ATOM     19  N   UNL     1      -1.273  -7.059   0.323  1.00  0.00    -0.355 N 
ATOM     20  H   UNL     1      -0.390  -7.054  -0.187  1.00  0.00     0.344 HD
ATOM     21  H   UNL     1      -1.944  -7.651  -0.166  1.00  0.00     0.344 HD
ATOM     22  H   UNL     1      -1.121  -7.423   1.264  1.00  0.00     0.344 HD
ENDBRANCH  18  19
ENDBRANCH  12  14
ENDBRANCH   8  12
ENDBRANCH   3   5
ENDBRANCH   2   3
ENDBRANCH   1   2
BRANCH   1  23
ATOM     23  C   UNL     1       2.936   4.326  -2.982  1.00  0.00     0.275 C 
BRANCH  23  24
ATOM     24  O   UNL     1       1.652   4.986  -2.828  1.00  0.00    -0.458 OA
BRANCH  24  25
ATOM     25  C   UNL     1       0.620   4.427  -2.154  1.00  0.00     0.338 C 
ATOM     26  O   UNL     1      -0.335   3.893  -2.716  1.00  0.00    -0.246 OA
BRANCH  25  27
ATOM     27  C   UNL     1       0.827   4.378  -0.689  1.00  0.00     0.060 A 
ATOM     28  C   UNL     1      -0.013   3.571   0.099  1.00  0.00     0.016 A 
ATOM     29  C   UNL     1       1.991   4.921  -0.157  1.00  0.00     0.016 A 
ATOM     30  C   UNL     1       0.375   3.196   1.377  1.00  0.00     0.010 A 
ATOM     31  C   UNL     1       2.462   4.424   1.028  1.00  0.00     0.010 A 
ATOM     32  C   UNL     1       1.629   3.612   1.812  1.00  0.00    -0.014 A 
BRANCH  32  33
ATOM     33  C   UNL     1       2.018   3.618   3.207  1.00  0.00     0.031 A 
ATOM     34  C   UNL     1       2.598   2.433   3.849  1.00  0.00     0.074 A 
ATOM     35  C   UNL     1       1.885   4.867   3.712  1.00  0.00     0.049 A 
ATOM     36  N   UNL     1       2.637   2.256   5.119  1.00  0.00    -0.248 NA
ATOM     37  C   UNL     1       3.146   1.288   3.124  1.00  0.00     0.031 C 
ATOM     38  C   UNL     1       2.361   5.506   4.920  1.00  0.00     0.029 A 
ATOM     39  N   UNL     1       1.044   5.834   3.155  1.00  0.00    -0.354 N 
ATOM     40  C   UNL     1       3.517   1.221   5.375  1.00  0.00     0.074 A 
ATOM     41  C   UNL     1       3.675   0.553   4.112  1.00  0.00     0.031 C 
ATOM     42  C   UNL     1       1.585   6.588   5.159  1.00  0.00     0.029 A 
ATOM     43  C   UNL     1       0.504   6.594   4.172  1.00  0.00     0.049 A 
ATOM     44  H   UNL     1       0.866   5.954   2.194  1.00  0.00     0.167 HD
ATOM     45  C   UNL     1       4.136   1.204   6.590  1.00  0.00     0.034 A 
ATOM     46  C   UNL     1      -0.824   6.382   4.426  1.00  0.00     0.034 A 
ATOM     47  C   UNL     1       3.594   2.292   7.404  1.00  0.00     0.049 A 
ATOM     48  C   UNL     1      -0.956   5.653   5.744  1.00  0.00     0.074 A 
ATOM     49  C   UNL     1       4.034   3.588   7.615  1.00  0.00     0.029 A 
ATOM     50  N   UNL     1       2.252   2.260   7.755  1.00  0.00    -0.354 N 
ATOM     51  N   UNL     1      -0.114   4.754   6.190  1.00  0.00    -0.248 NA
ATOM     52  C   UNL     1      -1.965   6.034   6.720  1.00  0.00     0.031 C 
ATOM     53  C   UNL     1       2.898   4.366   7.973  1.00  0.00     0.029 A 
ATOM     54  C   UNL     1       1.784   3.539   7.987  1.00  0.00     0.049 A 
ATOM     55  H   UNL     1       1.710   1.442   7.829  1.00  0.00     0.167 HD
ATOM     56  C   UNL     1      -0.376   4.526   7.517  1.00  0.00     0.074 A 
ATOM     57  C   UNL     1      -1.555   5.339   7.791  1.00  0.00     0.031 C 
ATOM     58  C   UNL     1       0.393   3.747   8.341  1.00  0.00     0.034 A 
BRANCH  45  59
ATOM     59  C   UNL     1       5.403   0.470   6.982  1.00  0.00     0.023 A 
ATOM     60  C   UNL     1       6.098   0.928   8.126  1.00  0.00     0.031 A 
ATOM     61  C   UNL     1       6.016  -0.600   6.303  1.00  0.00     0.131 A 
ATOM     62  C   UNL     1       7.341   0.395   8.513  1.00  0.00     0.055 A 
ATOM     63  C   UNL     1       7.260  -1.133   6.686  1.00  0.00     0.041 A 
ATOM     64  F   UNL     1       5.444  -1.201   5.254  1.00  0.00    -0.206 F 
ATOM     65  C   UNL     1       7.934  -0.632   7.790  1.00  0.00     0.022 A 
BRANCH  62  66
ATOM     66  S   UNL     1       8.174   1.087   9.967  1.00  0.00     0.124 S 
ATOM     67  O   UNL     1       8.395   2.473   9.566  1.00  0.00    -0.237 OA
ATOM     68  O   UNL     1       7.192   0.868  11.023  1.00  0.00    -0.237 OA
ATOM     69  O   UNL     1       9.388   0.278  10.079  1.00  0.00    -0.744 OA
ENDBRANCH  62  66
ENDBRANCH  45  59
BRANCH  46  70
ATOM     70  C   UNL     1      -1.679   6.178   3.195  1.00  0.00     0.023 A 
ATOM     71  C   UNL     1      -1.511   7.084   2.116  1.00  0.00     0.031 A 
ATOM     72  C   UNL     1      -2.438   5.030   2.931  1.00  0.00     0.131 A 
ATOM     73  C   UNL     1      -1.952   6.775   0.818  1.00  0.00     0.055 A 
ATOM     74  C   UNL     1      -2.941   4.753   1.642  1.00  0.00     0.041 A 
ATOM     75  F   UNL     1      -2.645   4.109   3.882  1.00  0.00    -0.206 F 
ATOM     76  C   UNL     1      -2.672   5.609   0.571  1.00  0.00     0.022 A 
BRANCH  73  77
ATOM     77  S   UNL     1      -1.341   7.787  -0.568  1.00  0.00     0.124 S 
ATOM     78  O   UNL     1      -2.250   8.928  -0.538  1.00  0.00    -0.237 OA
ATOM     79  O   UNL     1       0.040   8.061  -0.174  1.00  0.00    -0.237 OA
ATOM     80  O   UNL     1      -1.477   6.905  -1.722  1.00  0.00    -0.744 OA
ENDBRANCH  73  77
ENDBRANCH  46  70
BRANCH  58  81
ATOM     81  C   UNL     1      -0.102   3.177   9.646  1.00  0.00     0.023 A 
ATOM     82  C   UNL     1      -1.461   3.147   9.960  1.00  0.00     0.031 A 
ATOM     83  C   UNL     1       0.760   2.549  10.577  1.00  0.00     0.131 A 
ATOM     84  C   UNL     1      -1.906   2.683  11.200  1.00  0.00     0.055 A 
ATOM     85  C   UNL     1       0.296   1.948  11.748  1.00  0.00     0.041 A 
ATOM     86  F   UNL     1       2.086   2.476  10.389  1.00  0.00    -0.206 F 
ATOM     87  C   UNL     1      -1.045   2.046  12.086  1.00  0.00     0.022 A 
BRANCH  84  88
ATOM     88  S   UNL     1      -3.602   3.090  11.663  1.00  0.00     0.124 S 
ATOM     89  O   UNL     1      -3.570   4.551  11.640  1.00  0.00    -0.237 OA
ATOM     90  O   UNL     1      -4.380   2.460  10.602  1.00  0.00    -0.237 OA
ATOM     91  O   UNL     1      -3.748   2.492  12.987  1.00  0.00    -0.744 OA
ENDBRANCH  84  88
ENDBRANCH  58  81
ENDBRANCH  32  33
ENDBRANCH  25  27
ENDBRANCH  24  25
ENDBRANCH  23  24
ENDBRANCH   1  23
TORSDOF 17
