REMARK SMILES NS(=O)(=O)c1ccc(-n2nc(C(F)(F)F)cc2-c2ccc(CC(=O)OCCOC(=O)c3ccc(-c4c5nc(c(-c6cc(S(=O)(=O)[O-])ccc6F)c6ccc([nH]6)c(-c6cc(S(=O)(=O)[O-])ccc6F)c6nc(c(-c7cc(S(=O)(=O)[O-])ccc7F)c7ccc4[nH]7)C=C6)C=C5)cc3)cc2)cc1
REMARK SMILES IDX 26 1 25 2 23 3 24 4 22 5 21 6 18 7 19 8 95 9 20 10 94 11
REMARK SMILES IDX 17 12 9 13 10 14 11 15 16 16 8 17 5 18 6 19 97 20 7 21 96 22
REMARK SMILES IDX 2 23 3 24 4 25 1 26 12 29 13 30 14 31 15 32 27 33 28 34
REMARK SMILES IDX 29 35 30 36 31 37 32 38 93 39 33 40 92 41 34 42 35 43 36 44
REMARK SMILES IDX 86 45 37 46 91 47 85 48 87 49 38 50 90 51 84 52 83 53 39 55
REMARK SMILES IDX 71 56 51 57 70 58 52 59 55 60 69 61 88 62 53 63 54 64 68 66
REMARK SMILES IDX 89 67 56 68 40 69 41 70 49 71 42 72 48 73 50 74 47 75 43 76
REMARK SMILES IDX 44 77 45 78 46 79 72 80 73 81 81 82 74 83 80 84 82 85 79 86
REMARK SMILES IDX 75 87 76 88 77 89 78 90 57 91 58 92 66 93 59 94 65 95 67 96
REMARK SMILES IDX 64 97 60 98 61 99 62 100 63 101
REMARK H PARENT 1 27 1 28 87 54 55 65
REMARK Flexibility Score: inf
ROOT
ATOM      1  C   UNL     1       3.348  -3.385  -2.327  1.00  0.00     0.274 C 
ENDROOT
BRANCH   1   2
ATOM      2  O   UNL     1       3.618  -4.426  -1.362  1.00  0.00    -0.462 OA
BRANCH   2   3
ATOM      3  C   UNL     1       4.888  -4.916  -1.361  1.00  0.00     0.310 C 
ATOM      4  O   UNL     1       5.744  -4.594  -2.184  1.00  0.00    -0.252 OA
BRANCH   3   5
ATOM      5  C   UNL     1       5.154  -5.995  -0.332  1.00  0.00     0.158 C 
BRANCH   5   6
ATOM      6  C   UNL     1       4.426  -5.946   0.991  1.00  0.00    -0.037 A 
ATOM      7  C   UNL     1       3.075  -5.787   3.466  1.00  0.00     0.000 A 
ATOM      8  C   UNL     1       4.214  -5.018   3.238  1.00  0.00     0.010 A 
ATOM      9  C   UNL     1       2.648  -6.680   2.476  1.00  0.00     0.010 A 
ATOM     10  C   UNL     1       4.893  -5.127   2.025  1.00  0.00     0.005 A 
ATOM     11  C   UNL     1       3.303  -6.741   1.240  1.00  0.00     0.005 A 
BRANCH   7  12
ATOM     12  C   UNL     1       2.335  -5.639   4.714  1.00  0.00     0.075 A 
ATOM     13  N   UNL     1       1.680  -4.481   5.127  1.00  0.00    -0.233 N 
ATOM     14  N   UNL     1       1.256  -4.578   6.416  1.00  0.00    -0.163 NA
ATOM     15  C   UNL     1       1.541  -5.838   6.791  1.00  0.00     0.167 A 
ATOM     16  C   UNL     1       2.243  -6.521   5.769  1.00  0.00     0.064 A 
BRANCH  13  17
ATOM     17  C   UNL     1       1.351  -3.333   4.355  1.00  0.00     0.065 A 
ATOM     18  C   UNL     1       0.749  -1.077   2.826  1.00  0.00     0.082 A 
ATOM     19  C   UNL     1       0.679  -2.345   2.244  1.00  0.00     0.024 A 
ATOM     20  C   UNL     1       1.106  -0.928   4.170  1.00  0.00     0.024 A 
ATOM     21  C   UNL     1       0.991  -3.470   3.006  1.00  0.00     0.030 A 
ATOM     22  C   UNL     1       1.379  -2.062   4.946  1.00  0.00     0.030 A 
BRANCH  18  23
ATOM     23  S   UNL     1       0.378   0.339   1.841  1.00  0.00     0.238 S 
ATOM     24  O   UNL     1       1.009   1.514   2.396  1.00  0.00    -0.207 OA
ATOM     25  O   UNL     1      -1.018   0.297   1.481  1.00  0.00    -0.207 OA
BRANCH  23  26
ATOM     26  N   UNL     1       1.216   0.050   0.404  1.00  0.00    -0.225 NA
ATOM     27  H   UNL     1       1.062   0.825  -0.241  1.00  0.00     0.137 HD
ATOM     28  H   UNL     1       0.878  -0.815  -0.018  1.00  0.00     0.137 HD
ENDBRANCH  23  26
ENDBRANCH  18  23
ENDBRANCH  13  17
BRANCH  15  29
ATOM     29  C   UNL     1       1.136  -6.416   8.120  1.00  0.00     0.435 C 
ATOM     30  F   UNL     1       1.518  -5.668   9.185  1.00  0.00    -0.164 F 
ATOM     31  F   UNL     1      -0.212  -6.587   8.211  1.00  0.00    -0.164 F 
ATOM     32  F   UNL     1       1.676  -7.657   8.309  1.00  0.00    -0.164 F 
ENDBRANCH  15  29
ENDBRANCH   7  12
ENDBRANCH   5   6
ENDBRANCH   3   5
ENDBRANCH   2   3
ENDBRANCH   1   2
BRANCH   1  33
ATOM     33  C   UNL     1       3.596  -1.974  -1.798  1.00  0.00     0.275 C 
BRANCH  33  34
ATOM     34  O   UNL     1       4.966  -1.736  -1.475  1.00  0.00    -0.458 OA
BRANCH  34  35
ATOM     35  C   UNL     1       5.250  -2.061  -0.195  1.00  0.00     0.338 C 
ATOM     36  O   UNL     1       4.545  -2.709   0.560  1.00  0.00    -0.246 OA
BRANCH  35  37
ATOM     37  C   UNL     1       6.420  -1.343   0.296  1.00  0.00     0.060 A 
ATOM     38  C   UNL     1       7.032  -1.833   1.456  1.00  0.00     0.016 A 
ATOM     39  C   UNL     1       6.600  -0.031  -0.144  1.00  0.00     0.016 A 
ATOM     40  C   UNL     1       7.662  -0.948   2.297  1.00  0.00     0.010 A 
ATOM     41  C   UNL     1       7.224   0.854   0.700  1.00  0.00     0.010 A 
ATOM     42  C   UNL     1       7.673   0.399   1.943  1.00  0.00    -0.014 A 
BRANCH  42  43
ATOM     43  C   UNL     1       8.315   1.336   2.840  1.00  0.00     0.031 A 
ATOM     44  C   UNL     1       9.792   1.208   2.814  1.00  0.00     0.074 A 
ATOM     45  C   UNL     1       7.617   2.315   3.447  1.00  0.00     0.049 A 
ATOM     46  N   UNL     1      10.583   0.888   3.783  1.00  0.00    -0.248 NA
ATOM     47  C   UNL     1      10.453   1.231   1.494  1.00  0.00     0.031 C 
ATOM     48  C   UNL     1       6.197   2.638   3.281  1.00  0.00     0.029 A 
ATOM     49  N   UNL     1       8.062   3.333   4.226  1.00  0.00    -0.354 N 
ATOM     50  C   UNL     1      11.863   0.938   3.240  1.00  0.00     0.074 A 
ATOM     51  C   UNL     1      11.698   0.887   1.817  1.00  0.00     0.031 C 
ATOM     52  C   UNL     1       5.983   3.907   3.697  1.00  0.00     0.029 A 
ATOM     53  C   UNL     1       7.221   4.442   4.243  1.00  0.00     0.049 A 
ATOM     54  H   UNL     1       8.905   3.291   4.733  1.00  0.00     0.167 HD
ATOM     55  C   UNL     1      12.927   1.332   3.989  1.00  0.00     0.034 A 
ATOM     56  C   UNL     1       7.569   5.722   4.558  1.00  0.00     0.034 A 
ATOM     57  C   UNL     1      12.637   1.216   5.401  1.00  0.00     0.049 A 
ATOM     58  C   UNL     1       8.848   5.639   5.321  1.00  0.00     0.074 A 
ATOM     59  C   UNL     1      12.205   0.177   6.205  1.00  0.00     0.029 A 
ATOM     60  N   UNL     1      12.376   2.367   6.114  1.00  0.00    -0.354 N 
ATOM     61  N   UNL     1       8.945   5.073   6.495  1.00  0.00    -0.248 NA
ATOM     62  C   UNL     1      10.093   5.693   4.563  1.00  0.00     0.031 C 
ATOM     63  C   UNL     1      11.248   0.768   7.080  1.00  0.00     0.029 A 
ATOM     64  C   UNL     1      11.228   2.143   6.836  1.00  0.00     0.049 A 
ATOM     65  H   UNL     1      12.912   3.192   6.108  1.00  0.00     0.167 HD
ATOM     66  C   UNL     1      10.115   4.327   6.445  1.00  0.00     0.074 A 
ATOM     67  C   UNL     1      10.820   4.811   5.258  1.00  0.00     0.031 C 
ATOM     68  C   UNL     1      10.270   3.181   7.176  1.00  0.00     0.034 A 
BRANCH  55  69
ATOM     69  C   UNL     1      14.059   2.184   3.456  1.00  0.00     0.023 A 
ATOM     70  C   UNL     1      15.089   2.504   4.357  1.00  0.00     0.031 A 
ATOM     71  C   UNL     1      14.047   2.927   2.251  1.00  0.00     0.131 A 
ATOM     72  C   UNL     1      15.960   3.576   4.105  1.00  0.00     0.055 A 
ATOM     73  C   UNL     1      14.964   3.942   1.971  1.00  0.00     0.041 A 
ATOM     74  F   UNL     1      13.102   2.792   1.314  1.00  0.00    -0.206 F 
ATOM     75  C   UNL     1      15.906   4.298   2.917  1.00  0.00     0.022 A 
BRANCH  72  76
ATOM     76  S   UNL     1      17.034   4.132   5.450  1.00  0.00     0.124 S 
ATOM     77  O   UNL     1      16.069   4.349   6.522  1.00  0.00    -0.237 OA
ATOM     78  O   UNL     1      17.927   2.989   5.607  1.00  0.00    -0.237 OA
ATOM     79  O   UNL     1      17.653   5.339   4.910  1.00  0.00    -0.744 OA
ENDBRANCH  72  76
ENDBRANCH  55  69
BRANCH  56  80
ATOM     80  C   UNL     1       7.064   6.968   3.894  1.00  0.00     0.023 A 
ATOM     81  C   UNL     1       7.198   8.260   4.453  1.00  0.00     0.031 A 
ATOM     82  C   UNL     1       6.603   6.917   2.556  1.00  0.00     0.131 A 
ATOM     83  C   UNL     1       6.858   9.411   3.692  1.00  0.00     0.055 A 
ATOM     84  C   UNL     1       6.256   8.050   1.817  1.00  0.00     0.041 A 
ATOM     85  F   UNL     1       6.551   5.760   1.877  1.00  0.00    -0.206 F 
ATOM     86  C   UNL     1       6.389   9.306   2.381  1.00  0.00     0.022 A 
BRANCH  83  87
ATOM     87  S   UNL     1       7.103  11.090   4.366  1.00  0.00     0.124 S 
ATOM     88  O   UNL     1       6.097  11.154   5.419  1.00  0.00    -0.237 OA
ATOM     89  O   UNL     1       8.496  11.055   4.797  1.00  0.00    -0.237 OA
ATOM     90  O   UNL     1       6.844  11.961   3.217  1.00  0.00    -0.744 OA
ENDBRANCH  83  87
ENDBRANCH  56  80
BRANCH  68  91
ATOM     91  C   UNL     1       9.265   2.847   8.264  1.00  0.00     0.023 A 
ATOM     92  C   UNL     1       7.866   2.752   8.081  1.00  0.00     0.031 A 
ATOM     93  C   UNL     1       9.781   2.465   9.517  1.00  0.00     0.131 A 
ATOM     94  C   UNL     1       7.045   2.296   9.134  1.00  0.00     0.055 A 
ATOM     95  C   UNL     1       8.970   1.992  10.546  1.00  0.00     0.041 A 
ATOM     96  F   UNL     1      11.104   2.506   9.750  1.00  0.00    -0.206 F 
ATOM     97  C   UNL     1       7.596   1.911  10.361  1.00  0.00     0.022 A 
BRANCH  94  98
ATOM     98  S   UNL     1       5.234   2.215   8.942  1.00  0.00     0.124 S 
ATOM     99  O   UNL     1       4.901   3.487   8.314  1.00  0.00    -0.237 OA
ATOM    100  O   UNL     1       5.060   1.025   8.113  1.00  0.00    -0.237 OA
ATOM    101  O   UNL     1       4.755   2.071  10.318  1.00  0.00    -0.744 OA
ENDBRANCH  94  98
ENDBRANCH  68  91
ENDBRANCH  42  43
ENDBRANCH  35  37
ENDBRANCH  34  35
ENDBRANCH  33  34
ENDBRANCH   1  33
TORSDOF 20
