REMARK SMILES O=C(OCCOC(=O)[C@@H](CCCCl)[P@TB4](=O)(c1ccccc1)c1ccccc1)c1ccc(-c2c3nc(c(-c4cc(S(=O)(=O)[O-])ccc4F)c4ccc([nH]4)c(-c4cc(S(=O)(=O)[O-])ccc4F)c4nc(c(-c5cc(S(=O)(=O)[O-])ccc5F)c5ccc2[nH]5)C=C4)C=C3)cc1
REMARK SMILES IDX 4 1 3 2 2 3 1 4 28 5 29 6 90 7 30 8 89 9 31 10 32 11 33 12
REMARK SMILES IDX 83 13 34 14 88 15 82 16 84 17 35 18 87 19 81 20 80 21 36 23
REMARK SMILES IDX 68 24 48 25 67 26 49 27 52 28 66 29 85 30 50 31 51 32 65 34
REMARK SMILES IDX 86 35 53 36 37 37 38 38 46 39 39 40 45 41 47 42 44 43 40 44
REMARK SMILES IDX 41 45 42 46 43 47 69 48 70 49 78 50 71 51 77 52 79 53 76 54
REMARK SMILES IDX 72 55 73 56 74 57 75 58 54 59 55 60 63 61 56 62 62 63 64 64
REMARK SMILES IDX 61 65 57 66 58 67 59 68 60 69 5 70 6 71 7 72 8 73 9 74 10 75
REMARK SMILES IDX 11 76 12 77 13 78 14 79 15 80 16 81 17 82 21 83 18 84 20 85
REMARK SMILES IDX 19 86 22 87 23 88 27 89 24 90 26 91 25 92
REMARK H PARENT 84 22 52 33
REMARK Flexibility Score: inf
ROOT
ATOM      1  C   UNL     1       4.740   1.556   0.527  1.00  0.00       nan C 
ENDROOT
BRANCH   1   2
ATOM      2  O   UNL     1       4.077   1.077  -0.645  1.00  0.00       nan OA
BRANCH   2   3
ATOM      3  C   UNL     1       4.574   0.379  -1.695  1.00  0.00       nan C 
ATOM      4  O   UNL     1       3.900   0.382  -2.727  1.00  0.00       nan OA
BRANCH   3   5
ATOM      5  C   UNL     1       5.730  -0.604  -1.609  1.00  0.00       nan A 
ATOM      6  C   UNL     1       6.834  -0.664  -0.731  1.00  0.00       nan A 
ATOM      7  C   UNL     1       5.535  -1.738  -2.392  1.00  0.00       nan A 
ATOM      8  C   UNL     1       7.622  -1.876  -0.525  1.00  0.00       nan A 
ATOM      9  C   UNL     1       6.243  -2.927  -2.111  1.00  0.00       nan A 
ATOM     10  C   UNL     1       7.295  -3.093  -1.145  1.00  0.00       nan A 
BRANCH  10  11
ATOM     11  C   UNL     1       7.753  -4.583  -0.752  1.00  0.00       inf A 
ATOM     12  C   UNL     1       7.546  -5.606  -1.869  1.00  0.00     0.074 A 
ATOM     13  C   UNL     1       8.101  -5.168   0.459  1.00  0.00     0.049 A 
ATOM     14  N   UNL     1       7.310  -6.894  -1.807  1.00  0.00    -0.248 NA
ATOM     15  C   UNL     1       7.481  -5.076  -3.252  1.00  0.00     0.031 C 
ATOM     16  C   UNL     1       8.390  -4.535   1.763  1.00  0.00     0.029 A 
ATOM     17  N   UNL     1       8.046  -6.532   0.848  1.00  0.00    -0.354 N 
ATOM     18  C   UNL     1       7.167  -7.243  -3.140  1.00  0.00     0.074 A 
ATOM     19  C   UNL     1       6.788  -6.043  -3.839  1.00  0.00     0.031 C 
ATOM     20  C   UNL     1       8.202  -5.421   2.777  1.00  0.00     0.029 A 
ATOM     21  C   UNL     1       7.877  -6.739   2.236  1.00  0.00     0.049 A 
ATOM     22  H   UNL     1       8.119  -7.273   0.204  1.00  0.00     0.167 HD
ATOM     23  C   UNL     1       7.787  -8.260  -3.793  1.00  0.00     0.034 A 
ATOM     24  C   UNL     1       7.404  -7.821   2.930  1.00  0.00     0.034 A 
ATOM     25  C   UNL     1       8.368  -9.371  -3.117  1.00  0.00     0.049 A 
ATOM     26  C   UNL     1       7.537  -9.162   2.243  1.00  0.00     0.074 A 
ATOM     27  C   UNL     1       9.203 -10.356  -3.602  1.00  0.00     0.029 A 
ATOM     28  N   UNL     1       8.150  -9.639  -1.781  1.00  0.00    -0.354 N 
ATOM     29  N   UNL     1       7.709  -9.423   0.975  1.00  0.00    -0.248 NA
ATOM     30  C   UNL     1       7.615 -10.352   3.118  1.00  0.00     0.031 C 
ATOM     31  C   UNL     1       9.440 -11.264  -2.563  1.00  0.00     0.029 A 
ATOM     32  C   UNL     1       8.794 -10.805  -1.428  1.00  0.00     0.049 A 
ATOM     33  H   UNL     1       7.616  -9.080  -1.171  1.00  0.00     0.167 HD
ATOM     34  C   UNL     1       8.143 -10.743   0.935  1.00  0.00     0.074 A 
ATOM     35  C   UNL     1       8.028 -11.280   2.270  1.00  0.00     0.031 C 
ATOM     36  C   UNL     1       8.729 -11.371  -0.110  1.00  0.00     0.034 A 
BRANCH  23  37
ATOM     37  C   UNL     1       8.051  -8.035  -5.261  1.00  0.00     0.023 A 
ATOM     38  C   UNL     1       8.805  -6.911  -5.669  1.00  0.00     0.031 A 
ATOM     39  C   UNL     1       7.472  -8.832  -6.249  1.00  0.00     0.131 A 
ATOM     40  C   UNL     1       8.789  -6.501  -7.002  1.00  0.00     0.055 A 
ATOM     41  C   UNL     1       7.582  -8.494  -7.601  1.00  0.00     0.041 A 
ATOM     42  F   UNL     1       6.756  -9.917  -5.920  1.00  0.00    -0.206 F 
ATOM     43  C   UNL     1       8.209  -7.304  -7.981  1.00  0.00     0.022 A 
BRANCH  40  44
ATOM     44  S   UNL     1       9.332  -4.810  -7.380  1.00  0.00     0.124 S 
ATOM     45  O   UNL     1       8.366  -4.013  -6.623  1.00  0.00    -0.237 OA
ATOM     46  O   UNL     1      10.699  -4.790  -6.872  1.00  0.00    -0.237 OA
ATOM     47  O   UNL     1       9.200  -4.727  -8.832  1.00  0.00    -0.744 OA
ENDBRANCH  40  44
ENDBRANCH  23  37
BRANCH  24  48
ATOM     48  C   UNL     1       6.854  -7.915   4.348  1.00  0.00     0.023 A 
ATOM     49  C   UNL     1       7.665  -8.060   5.491  1.00  0.00     0.031 A 
ATOM     50  C   UNL     1       5.489  -8.273   4.502  1.00  0.00     0.131 A 
ATOM     51  C   UNL     1       7.115  -8.558   6.704  1.00  0.00     0.055 A 
ATOM     52  C   UNL     1       4.951  -8.753   5.710  1.00  0.00     0.041 A 
ATOM     53  F   UNL     1       4.662  -8.250   3.445  1.00  0.00    -0.206 F 
ATOM     54  C   UNL     1       5.763  -8.888   6.825  1.00  0.00     0.022 A 
BRANCH  51  55
ATOM     55  S   UNL     1       8.214  -8.917   8.113  1.00  0.00     0.124 S 
ATOM     56  O   UNL     1       8.911 -10.108   7.644  1.00  0.00    -0.237 OA
ATOM     57  O   UNL     1       9.011  -7.698   8.203  1.00  0.00    -0.237 OA
ATOM     58  O   UNL     1       7.289  -9.131   9.226  1.00  0.00    -0.744 OA
ENDBRANCH  51  55
ENDBRANCH  24  48
BRANCH  36  59
ATOM     59  C   UNL     1       9.490 -12.626   0.172  1.00  0.00     0.023 A 
ATOM     60  C   UNL     1       8.865 -13.822   0.539  1.00  0.00     0.031 A 
ATOM     61  C   UNL     1      10.895 -12.604   0.070  1.00  0.00     0.131 A 
ATOM     62  C   UNL     1       9.650 -14.947   0.824  1.00  0.00     0.055 A 
ATOM     63  C   UNL     1      11.664 -13.744   0.284  1.00  0.00     0.041 A 
ATOM     64  F   UNL     1      11.540 -11.471  -0.252  1.00  0.00    -0.206 F 
ATOM     65  C   UNL     1      11.040 -14.925   0.670  1.00  0.00     0.022 A 
BRANCH  62  66
ATOM     66  S   UNL     1       8.830 -16.425   1.472  1.00  0.00     0.124 S 
ATOM     67  O   UNL     1       8.284 -15.935   2.734  1.00  0.00    -0.237 OA
ATOM     68  O   UNL     1       7.853 -16.724   0.430  1.00  0.00    -0.237 OA
ATOM     69  O   UNL     1       9.918 -17.393   1.597  1.00  0.00    -0.744 OA
ENDBRANCH  62  66
ENDBRANCH  36  59
ENDBRANCH  10  11
ENDBRANCH   3   5
ENDBRANCH   2   3
ENDBRANCH   1   2
BRANCH   1  70
ATOM     70  C   UNL     1       4.320   0.830   1.809  1.00  0.00       nan C 
BRANCH  70  71
ATOM     71  O   UNL     1       4.055  -0.572   1.637  1.00  0.00       nan OA
BRANCH  71  72
ATOM     72  C   UNL     1       2.734  -0.918   1.530  1.00  0.00       nan C 
ATOM     73  O   UNL     1       1.808  -0.106   1.510  1.00  0.00       nan OA
BRANCH  72  74
ATOM     74  C   UNL     1       2.557  -2.422   1.355  1.00  0.00       nan C 
BRANCH  74  75
ATOM     75  C   UNL     1       3.166  -2.795   0.060  1.00  0.00       nan C 
BRANCH  75  76
ATOM     76  C   UNL     1       4.624  -3.150   0.223  1.00  0.00       nan C 
BRANCH  76  77
ATOM     77  C   UNL     1       5.444  -3.446   1.464  1.00  0.00       nan C 
ATOM     78  Cl  UNL     1       5.309  -5.117   1.963  1.00  0.00       nan Cl
ENDBRANCH  76  77
ENDBRANCH  75  76
ENDBRANCH  74  75
BRANCH  74  79
ATOM     79  P   UNL     1       3.167  -3.255   2.866  1.00  0.00       nan P 
ATOM     80  O   UNL     1       2.079  -2.502   3.678  1.00  0.00       nan OA
BRANCH  79  81
ATOM     81  C   UNL     1       2.221  -5.020   2.127  1.00  0.00       nan A 
ATOM     82  C   UNL     1       1.321  -5.736   2.925  1.00  0.00       nan A 
ATOM     83  C   UNL     1       2.647  -5.654   0.928  1.00  0.00       nan A 
ATOM     84  C   UNL     1       1.058  -7.094   2.626  1.00  0.00       nan A 
ATOM     85  C   UNL     1       2.338  -6.976   0.606  1.00  0.00       nan A 
ATOM     86  C   UNL     1       1.585  -7.717   1.489  1.00  0.00       nan A 
ENDBRANCH  79  81
BRANCH  79  87
ATOM     87  C   UNL     1       3.777  -4.088   4.377  1.00  0.00       nan A 
ATOM     88  C   UNL     1       3.598  -5.387   4.845  1.00  0.00       nan A 
ATOM     89  C   UNL     1       4.343  -3.171   5.305  1.00  0.00       nan A 
ATOM     90  C   UNL     1       3.788  -5.706   6.197  1.00  0.00       nan A 
ATOM     91  C   UNL     1       4.608  -3.508   6.636  1.00  0.00       nan A 
ATOM     92  C   UNL     1       4.295  -4.777   7.092  1.00  0.00       nan A 
ENDBRANCH  79  87
ENDBRANCH  74  79
ENDBRANCH  72  74
ENDBRANCH  71  72
ENDBRANCH  70  71
ENDBRANCH   1  70
TORSDOF 20
