REMARK SMILES O=C(OCCOC(=O)[C@H]1C[C@@H](C(=O)N2CCCC2)C[N@@H+](Cc2cccnc2)C1)c1ccc(-c2c3nc(c(-c4cc(S(=O)(=O)[O-])ccc4F)c4ccc([nH]4)c(-c4cc(S(=O)(=O)[O-])ccc4F)c4nc(c(-c5cc(S(=O)(=O)[O-])ccc5F)c5ccc2[nH]5)C=C4)C=C3)cc1
REMARK SMILES IDX 4 1 3 2 2 3 1 4 29 5 30 6 91 7 31 8 90 9 32 10 33 11 34 12
REMARK SMILES IDX 84 13 35 14 89 15 83 16 85 17 36 18 88 19 82 20 81 21 37 23
REMARK SMILES IDX 69 24 49 25 68 26 50 27 53 28 67 29 86 30 51 31 52 32 66 34
REMARK SMILES IDX 87 35 54 36 38 37 39 38 47 39 40 40 46 41 48 42 45 43 41 44
REMARK SMILES IDX 42 45 43 46 44 47 70 48 71 49 79 50 72 51 78 52 80 53 77 54
REMARK SMILES IDX 73 55 74 56 75 57 76 58 55 59 56 60 64 61 57 62 63 63 65 64
REMARK SMILES IDX 62 65 58 66 59 67 60 68 61 69 5 70 6 71 7 72 8 73 9 74 10 75
REMARK SMILES IDX 28 76 11 77 20 78 19 79 12 81 13 82 14 83 15 84 18 85 16 86
REMARK SMILES IDX 17 87 21 88 22 89 23 90 27 91 24 92 26 93 25 94
REMARK H PARENT 85 22 53 33 20 80
REMARK Flexibility Score: inf
ROOT
ATOM      1  C   UNL     1      -0.761   0.548   3.009  1.00  0.00     0.275 C 
ENDROOT
BRANCH   1   2
ATOM      2  O   UNL     1      -0.117   1.399   3.964  1.00  0.00    -0.458 OA
BRANCH   2   3
ATOM      3  C   UNL     1       1.181   1.437   4.338  1.00  0.00     0.338 C 
ATOM      4  O   UNL     1       1.485   2.203   5.253  1.00  0.00    -0.246 OA
BRANCH   3   5
ATOM      5  C   UNL     1       2.296   0.730   3.616  1.00  0.00     0.060 A 
ATOM      6  C   UNL     1       2.188  -0.253   2.627  1.00  0.00     0.016 A 
ATOM      7  C   UNL     1       3.584   1.210   3.893  1.00  0.00     0.016 A 
ATOM      8  C   UNL     1       3.290  -0.657   1.863  1.00  0.00     0.010 A 
ATOM      9  C   UNL     1       4.669   0.863   3.083  1.00  0.00     0.010 A 
ATOM     10  C   UNL     1       4.538  -0.078   2.058  1.00  0.00    -0.014 A 
BRANCH  10  11
ATOM     11  C   UNL     1       5.731  -0.609   1.350  1.00  0.00     0.031 A 
ATOM     12  C   UNL     1       6.823  -1.206   2.196  1.00  0.00     0.074 A 
ATOM     13  C   UNL     1       5.822  -0.598   0.003  1.00  0.00     0.049 A 
ATOM     14  N   UNL     1       7.971  -1.714   1.840  1.00  0.00    -0.248 NA
ATOM     15  C   UNL     1       6.625  -1.158   3.656  1.00  0.00     0.031 C 
ATOM     16  C   UNL     1       4.852   0.002  -0.919  1.00  0.00     0.029 A 
ATOM     17  N   UNL     1       6.768  -1.140  -0.834  1.00  0.00    -0.354 N 
ATOM     18  C   UNL     1       8.624  -1.999   3.034  1.00  0.00     0.074 A 
ATOM     19  C   UNL     1       7.832  -1.444   4.101  1.00  0.00     0.031 C 
ATOM     20  C   UNL     1       5.217  -0.269  -2.187  1.00  0.00     0.029 A 
ATOM     21  C   UNL     1       6.459  -1.036  -2.175  1.00  0.00     0.049 A 
ATOM     22  H   UNL     1       7.594  -1.564  -0.506  1.00  0.00     0.167 HD
ATOM     23  C   UNL     1       9.731  -2.749   3.243  1.00  0.00     0.034 A 
ATOM     24  C   UNL     1       7.102  -1.533  -3.253  1.00  0.00     0.034 A 
ATOM     25  C   UNL     1      10.459  -3.359   2.169  1.00  0.00     0.049 A 
ATOM     26  C   UNL     1       8.356  -2.349  -3.009  1.00  0.00     0.074 A 
ATOM     27  C   UNL     1      11.584  -4.154   2.225  1.00  0.00     0.029 A 
ATOM     28  N   UNL     1      10.108  -3.242   0.828  1.00  0.00    -0.354 N 
ATOM     29  N   UNL     1       8.933  -2.663  -1.869  1.00  0.00    -0.248 NA
ATOM     30  C   UNL     1       9.030  -2.899  -4.192  1.00  0.00     0.031 C 
ATOM     31  C   UNL     1      11.950  -4.471   0.912  1.00  0.00     0.029 A 
ATOM     32  C   UNL     1      11.005  -3.940   0.043  1.00  0.00     0.049 A 
ATOM     33  H   UNL     1       9.335  -2.737   0.488  1.00  0.00     0.167 HD
ATOM     34  C   UNL     1      10.007  -3.487  -2.198  1.00  0.00     0.074 A 
ATOM     35  C   UNL     1       9.986  -3.630  -3.640  1.00  0.00     0.031 C 
ATOM     36  C   UNL     1      10.928  -4.078  -1.392  1.00  0.00     0.034 A 
BRANCH  23  37
ATOM     37  C   UNL     1      10.174  -2.912   4.677  1.00  0.00     0.023 A 
ATOM     38  C   UNL     1       9.326  -3.486   5.646  1.00  0.00     0.031 A 
ATOM     39  C   UNL     1      11.380  -2.345   5.114  1.00  0.00     0.131 A 
ATOM     40  C   UNL     1       9.625  -3.344   7.008  1.00  0.00     0.055 A 
ATOM     41  C   UNL     1      11.726  -2.311   6.467  1.00  0.00     0.041 A 
ATOM     42  F   UNL     1      12.217  -1.762   4.242  1.00  0.00    -0.206 F 
ATOM     43  C   UNL     1      10.834  -2.785   7.425  1.00  0.00     0.022 A 
BRANCH  40  44
ATOM     44  S   UNL     1       8.314  -3.683   8.219  1.00  0.00     0.124 S 
ATOM     45  O   UNL     1       7.301  -2.701   7.836  1.00  0.00    -0.237 OA
ATOM     46  O   UNL     1       7.983  -5.077   7.948  1.00  0.00    -0.237 OA
ATOM     47  O   UNL     1       8.961  -3.432   9.505  1.00  0.00    -0.744 OA
ENDBRANCH  40  44
ENDBRANCH  23  37
BRANCH  24  48
ATOM     48  C   UNL     1       6.595  -1.322  -4.648  1.00  0.00     0.023 A 
ATOM     49  C   UNL     1       6.236  -2.409  -5.467  1.00  0.00     0.031 A 
ATOM     50  C   UNL     1       6.549  -0.038  -5.221  1.00  0.00     0.131 A 
ATOM     51  C   UNL     1       5.917  -2.203  -6.822  1.00  0.00     0.055 A 
ATOM     52  C   UNL     1       6.177   0.168  -6.554  1.00  0.00     0.041 A 
ATOM     53  F   UNL     1       6.878   1.041  -4.494  1.00  0.00    -0.206 F 
ATOM     54  C   UNL     1       5.876  -0.920  -7.368  1.00  0.00     0.022 A 
BRANCH  51  55
ATOM     55  S   UNL     1       5.664  -3.650  -7.892  1.00  0.00     0.124 S 
ATOM     56  O   UNL     1       6.926  -4.363  -7.731  1.00  0.00    -0.237 OA
ATOM     57  O   UNL     1       4.492  -4.272  -7.286  1.00  0.00    -0.237 OA
ATOM     58  O   UNL     1       5.442  -3.063  -9.212  1.00  0.00    -0.744 OA
ENDBRANCH  51  55
ENDBRANCH  24  48
BRANCH  36  59
ATOM     59  C   UNL     1      11.930  -4.992  -2.046  1.00  0.00     0.023 A 
ATOM     60  C   UNL     1      12.902  -4.510  -2.937  1.00  0.00     0.031 A 
ATOM     61  C   UNL     1      11.921  -6.367  -1.749  1.00  0.00     0.131 A 
ATOM     62  C   UNL     1      13.791  -5.407  -3.545  1.00  0.00     0.055 A 
ATOM     63  C   UNL     1      12.855  -7.242  -2.300  1.00  0.00     0.041 A 
ATOM     64  F   UNL     1      11.012  -6.878  -0.903  1.00  0.00    -0.206 F 
ATOM     65  C   UNL     1      13.789  -6.765  -3.215  1.00  0.00     0.022 A 
BRANCH  62  66
ATOM     66  S   UNL     1      14.882  -4.789  -4.854  1.00  0.00     0.124 S 
ATOM     67  O   UNL     1      13.928  -4.223  -5.801  1.00  0.00    -0.237 OA
ATOM     68  O   UNL     1      15.714  -3.828  -4.137  1.00  0.00    -0.237 OA
ATOM     69  O   UNL     1      15.577  -5.989  -5.314  1.00  0.00    -0.744 OA
ENDBRANCH  62  66
ENDBRANCH  36  59
ENDBRANCH  10  11
ENDBRANCH   3   5
ENDBRANCH   2   3
ENDBRANCH   1   2
BRANCH   1  70
ATOM     70  C   UNL     1      -0.757   1.116   1.584  1.00  0.00     0.274 C 
BRANCH  70  71
ATOM     71  O   UNL     1       0.519   1.631   1.141  1.00  0.00    -0.462 OA
BRANCH  71  72
ATOM     72  C   UNL     1       0.609   2.988   0.990  1.00  0.00     0.314 C 
ATOM     73  O   UNL     1      -0.282   3.769   1.290  1.00  0.00    -0.252 OA
BRANCH  72  74
ATOM     74  C   UNL     1       1.971   3.417   0.431  1.00  0.00     0.155 C 
ATOM     75  C   UNL     1       1.842   4.736  -0.338  1.00  0.00     0.040 C 
ATOM     76  C   UNL     1       2.929   3.587   1.607  1.00  0.00     0.277 C 
ATOM     77  C   UNL     1       3.203   5.382  -0.664  1.00  0.00     0.134 C 
ATOM     78  N   UNL     1       4.224   4.178   1.284  1.00  0.00    -0.330 N 
ATOM     79  C   UNL     1       4.084   5.444   0.585  1.00  0.00     0.276 C 
ATOM     80  H   UNL     1       4.649   3.495   0.658  1.00  0.00     0.348 HD
BRANCH  77  81
ATOM     81  C   UNL     1       2.925   6.767  -1.272  1.00  0.00     0.231 C 
ATOM     82  O   UNL     1       2.226   6.883  -2.281  1.00  0.00    -0.274 OA
ATOM     83  N   UNL     1       3.248   7.865  -0.514  1.00  0.00    -0.342 N 
ATOM     84  C   UNL     1       4.574   8.392  -0.248  1.00  0.00     0.119 C 
ATOM     85  C   UNL     1       2.230   8.607   0.199  1.00  0.00     0.119 C 
ATOM     86  C   UNL     1       4.416   9.027   1.124  1.00  0.00     0.023 C 
ATOM     87  C   UNL     1       3.003   9.604   1.058  1.00  0.00     0.023 C 
ENDBRANCH  77  81
BRANCH  78  88
ATOM     88  C   UNL     1       5.176   4.298   2.413  1.00  0.00     0.300 C 
BRANCH  88  89
ATOM     89  C   UNL     1       4.844   5.217   3.572  1.00  0.00     0.025 A 
ATOM     90  C   UNL     1       3.799   4.972   4.466  1.00  0.00     0.013 A 
ATOM     91  C   UNL     1       5.650   6.317   3.860  1.00  0.00     0.120 A 
ATOM     92  C   UNL     1       3.574   5.817   5.549  1.00  0.00     0.021 A 
ATOM     93  N   UNL     1       5.458   7.166   4.901  1.00  0.00    -0.264 NA
ATOM     94  C   UNL     1       4.424   6.891   5.723  1.00  0.00     0.111 A 
ENDBRANCH  88  89
ENDBRANCH  78  88
ENDBRANCH  72  74
ENDBRANCH  71  72
ENDBRANCH  70  71
ENDBRANCH   1  70
TORSDOF 17
