REMARK SMILES COc1cccc([C@@H]2CN(C(=O)CCSC)C[C@H]2C(=O)OCCOC(=O)c2ccc(-c3c4nc(c(-c5cc(S(=O)(=O)[O-])ccc5F)c5ccc([nH]5)c(-c5cc(S(=O)(=O)[O-])ccc5F)c5nc(c(-c6cc(S(=O)(=O)[O-])ccc6F)c6ccc3[nH]6)C=C5)C=C4)cc2)c1OC
REMARK SMILES IDX 22 1 21 2 19 3 20 4 18 5 8 6 9 7 10 8 17 9 7 10 3 11 4 12
REMARK SMILES IDX 90 13 5 14 6 15 2 16 1 17 91 18 92 19 11 20 12 21 13 22
REMARK SMILES IDX 14 23 15 24 16 25 23 26 24 27 25 28 26 29 27 30 28 31 89 32
REMARK SMILES IDX 29 33 88 34 30 35 31 36 32 37 82 38 33 39 87 40 81 41 83 42
REMARK SMILES IDX 34 43 86 44 80 45 79 46 35 48 67 49 47 50 66 51 48 52 51 53
REMARK SMILES IDX 65 54 84 55 49 56 50 57 64 59 85 60 52 61 36 62 37 63 45 64
REMARK SMILES IDX 38 65 44 66 46 67 43 68 39 69 40 70 41 71 42 72 68 73 69 74
REMARK SMILES IDX 77 75 70 76 76 77 78 78 75 79 71 80 72 81 73 82 74 83 53 84
REMARK SMILES IDX 54 85 62 86 55 87 61 88 63 89 60 90 56 91 57 92 58 93 59 94
REMARK H PARENT 83 47 51 58
REMARK Flexibility Score: inf
ROOT
ATOM      1  C   UNL     1       4.480  -7.194   2.574  1.00  0.00     0.274 C 
ENDROOT
BRANCH   1   2
ATOM      2  O   UNL     1       4.600  -5.788   2.862  1.00  0.00    -0.462 OA
BRANCH   2   3
ATOM      3  C   UNL     1       4.936  -5.005   1.804  1.00  0.00     0.311 C 
ATOM      4  O   UNL     1       5.231  -5.431   0.692  1.00  0.00    -0.252 OA
BRANCH   3   5
ATOM      5  C   UNL     1       5.006  -3.536   2.136  1.00  0.00     0.128 C 
ATOM      6  C   UNL     1       4.180  -3.030   3.335  1.00  0.00     0.059 C 
ATOM      7  C   UNL     1       5.087  -1.994   4.018  1.00  0.00     0.129 C 
ATOM      8  N   UNL     1       6.426  -2.208   3.499  1.00  0.00    -0.341 N 
ATOM      9  C   UNL     1       6.455  -3.238   2.487  1.00  0.00     0.135 C 
BRANCH   6  10
ATOM     10  C   UNL     1       2.804  -2.423   3.063  1.00  0.00     0.004 A 
ATOM     11  C   UNL     1       1.302  -0.761   2.078  1.00  0.00     0.161 A 
ATOM     12  C   UNL     1       0.265  -1.200   2.906  1.00  0.00     0.050 A 
ATOM     13  C   UNL     1       2.571  -1.372   2.141  1.00  0.00     0.164 A 
ATOM     14  C   UNL     1       0.475  -2.255   3.786  1.00  0.00     0.004 A 
ATOM     15  C   UNL     1       1.731  -2.856   3.867  1.00  0.00     0.008 A 
BRANCH  11  16
ATOM     16  O   UNL     1       1.115   0.363   1.313  1.00  0.00    -0.493 OA
ATOM     17  C   UNL     1       0.038   0.227   0.384  1.00  0.00     0.278 C 
ENDBRANCH  11  16
BRANCH  13  18
ATOM     18  O   UNL     1       3.662  -0.976   1.407  1.00  0.00    -0.493 OA
ATOM     19  C   UNL     1       3.413  -0.406   0.124  1.00  0.00     0.278 C 
ENDBRANCH  13  18
ENDBRANCH   6  10
BRANCH   8  20
ATOM     20  C   UNL     1       7.565  -1.512   3.821  1.00  0.00     0.223 C 
ATOM     21  O   UNL     1       8.655  -1.778   3.309  1.00  0.00    -0.275 OA
BRANCH  20  22
ATOM     22  C   UNL     1       7.459  -0.391   4.830  1.00  0.00     0.111 C 
BRANCH  22  23
ATOM     23  C   UNL     1       7.688   0.967   4.176  1.00  0.00     0.079 C 
BRANCH  23  24
ATOM     24  S   UNL     1       6.151   1.743   3.575  1.00  0.00    -0.165 SA
ATOM     25  C   UNL     1       6.140   1.125   1.872  1.00  0.00     0.085 C 
ENDBRANCH  23  24
ENDBRANCH  22  23
ENDBRANCH  20  22
ENDBRANCH   8  20
ENDBRANCH   3   5
ENDBRANCH   2   3
ENDBRANCH   1   2
BRANCH   1  26
ATOM     26  C   UNL     1       3.023  -7.559   2.306  1.00  0.00     0.275 C 
BRANCH  26  27
ATOM     27  O   UNL     1       2.514  -6.779   1.211  1.00  0.00    -0.458 OA
BRANCH  27  28
ATOM     28  C   UNL     1       1.540  -5.892   1.520  1.00  0.00     0.338 C 
ATOM     29  O   UNL     1       1.001  -5.737   2.606  1.00  0.00    -0.246 OA
BRANCH  28  30
ATOM     30  C   UNL     1       1.164  -5.156   0.304  1.00  0.00     0.060 A 
ATOM     31  C   UNL     1       2.040  -4.236  -0.272  1.00  0.00     0.016 A 
ATOM     32  C   UNL     1      -0.096  -5.370  -0.252  1.00  0.00     0.016 A 
ATOM     33  C   UNL     1       1.650  -3.512  -1.397  1.00  0.00     0.010 A 
ATOM     34  C   UNL     1      -0.459  -4.688  -1.415  1.00  0.00     0.010 A 
ATOM     35  C   UNL     1       0.405  -3.743  -1.996  1.00  0.00    -0.014 A 
BRANCH  35  36
ATOM     36  C   UNL     1       0.000  -3.011  -3.227  1.00  0.00     0.031 A 
ATOM     37  C   UNL     1      -1.205  -2.109  -3.212  1.00  0.00     0.074 A 
ATOM     38  C   UNL     1       0.702  -3.172  -4.367  1.00  0.00     0.049 A 
ATOM     39  N   UNL     1      -1.785  -1.484  -4.204  1.00  0.00    -0.248 NA
ATOM     40  C   UNL     1      -1.833  -1.873  -1.905  1.00  0.00     0.031 C 
ATOM     41  C   UNL     1       1.920  -3.973  -4.506  1.00  0.00     0.029 A 
ATOM     42  N   UNL     1       0.481  -2.684  -5.632  1.00  0.00    -0.354 N 
ATOM     43  C   UNL     1      -2.843  -0.776  -3.643  1.00  0.00     0.074 A 
ATOM     44  C   UNL     1      -2.836  -1.069  -2.225  1.00  0.00     0.031 C 
ATOM     45  C   UNL     1       2.337  -3.922  -5.780  1.00  0.00     0.029 A 
ATOM     46  C   UNL     1       1.373  -3.160  -6.566  1.00  0.00     0.049 A 
ATOM     47  H   UNL     1      -0.245  -2.056  -5.849  1.00  0.00     0.167 HD
ATOM     48  C   UNL     1      -3.739   0.039  -4.253  1.00  0.00     0.034 A 
ATOM     49  C   UNL     1       1.382  -3.050  -7.909  1.00  0.00     0.034 A 
ATOM     50  C   UNL     1      -3.772   0.275  -5.675  1.00  0.00     0.049 A 
ATOM     51  C   UNL     1       0.272  -2.291  -8.586  1.00  0.00     0.074 A 
ATOM     52  C   UNL     1      -4.646   1.068  -6.400  1.00  0.00     0.029 A 
ATOM     53  N   UNL     1      -2.911  -0.306  -6.596  1.00  0.00    -0.354 N 
ATOM     54  N   UNL     1      -0.732  -1.641  -8.045  1.00  0.00    -0.248 NA
ATOM     55  C   UNL     1       0.286  -2.268 -10.054  1.00  0.00     0.031 C 
ATOM     56  C   UNL     1      -4.364   0.901  -7.761  1.00  0.00     0.029 A 
ATOM     57  C   UNL     1      -3.265   0.067  -7.884  1.00  0.00     0.049 A 
ATOM     58  H   UNL     1      -2.158  -0.898  -6.368  1.00  0.00     0.167 HD
ATOM     59  C   UNL     1      -1.459  -1.115  -9.109  1.00  0.00     0.074 A 
ATOM     60  C   UNL     1      -0.772  -1.515 -10.320  1.00  0.00     0.031 C 
ATOM     61  C   UNL     1      -2.589  -0.363  -9.085  1.00  0.00     0.034 A 
BRANCH  48  62
ATOM     62  C   UNL     1      -4.795   0.671  -3.382  1.00  0.00     0.023 A 
ATOM     63  C   UNL     1      -4.465   1.609  -2.388  1.00  0.00     0.031 A 
ATOM     64  C   UNL     1      -6.145   0.299  -3.514  1.00  0.00     0.131 A 
ATOM     65  C   UNL     1      -5.458   2.087  -1.520  1.00  0.00     0.055 A 
ATOM     66  C   UNL     1      -7.140   0.836  -2.696  1.00  0.00     0.041 A 
ATOM     67  F   UNL     1      -6.515  -0.611  -4.429  1.00  0.00    -0.206 F 
ATOM     68  C   UNL     1      -6.798   1.725  -1.681  1.00  0.00     0.022 A 
BRANCH  65  69
ATOM     69  S   UNL     1      -4.948   3.064  -0.080  1.00  0.00     0.124 S 
ATOM     70  O   UNL     1      -3.982   2.170   0.556  1.00  0.00    -0.237 OA
ATOM     71  O   UNL     1      -4.397   4.266  -0.696  1.00  0.00    -0.237 OA
ATOM     72  O   UNL     1      -6.192   3.255   0.663  1.00  0.00    -0.744 OA
ENDBRANCH  65  69
ENDBRANCH  48  62
BRANCH  49  73
ATOM     73  C   UNL     1       2.427  -3.750  -8.711  1.00  0.00     0.023 A 
ATOM     74  C   UNL     1       3.348  -3.031  -9.487  1.00  0.00     0.031 A 
ATOM     75  C   UNL     1       2.498  -5.155  -8.734  1.00  0.00     0.131 A 
ATOM     76  C   UNL     1       4.284  -3.720 -10.274  1.00  0.00     0.055 A 
ATOM     77  C   UNL     1       3.463  -5.835  -9.478  1.00  0.00     0.041 A 
ATOM     78  F   UNL     1       1.635  -5.891  -8.015  1.00  0.00    -0.206 F 
ATOM     79  C   UNL     1       4.358  -5.115 -10.262  1.00  0.00     0.022 A 
BRANCH  76  80
ATOM     80  S   UNL     1       5.366  -2.765 -11.373  1.00  0.00     0.124 S 
ATOM     81  O   UNL     1       4.397  -2.087 -12.226  1.00  0.00    -0.237 OA
ATOM     82  O   UNL     1       6.090  -1.923 -10.427  1.00  0.00    -0.237 OA
ATOM     83  O   UNL     1       6.170  -3.791 -12.034  1.00  0.00    -0.744 OA
ENDBRANCH  76  80
ENDBRANCH  49  73
BRANCH  61  84
ATOM     84  C   UNL     1      -3.131   0.095 -10.415  1.00  0.00     0.023 A 
ATOM     85  C   UNL     1      -3.701  -0.807 -11.329  1.00  0.00     0.031 A 
ATOM     86  C   UNL     1      -3.064   1.452 -10.775  1.00  0.00     0.131 A 
ATOM     87  C   UNL     1      -4.142  -0.348 -12.579  1.00  0.00     0.055 A 
ATOM     88  C   UNL     1      -3.553   1.912 -11.998  1.00  0.00     0.041 A 
ATOM     89  F   UNL     1      -2.525   2.355  -9.940  1.00  0.00    -0.206 F 
ATOM     90  C   UNL     1      -4.087   1.008 -12.913  1.00  0.00     0.022 A 
BRANCH  87  91
ATOM     91  S   UNL     1      -4.726  -1.558 -13.797  1.00  0.00     0.124 S 
ATOM     92  O   UNL     1      -3.539  -2.382 -13.999  1.00  0.00    -0.237 OA
ATOM     93  O   UNL     1      -5.835  -2.199 -13.096  1.00  0.00    -0.237 OA
ATOM     94  O   UNL     1      -5.112  -0.735 -14.942  1.00  0.00    -0.744 OA
ENDBRANCH  87  91
ENDBRANCH  61  84
ENDBRANCH  35  36
ENDBRANCH  28  30
ENDBRANCH  27  28
ENDBRANCH  26  27
ENDBRANCH   1  26
TORSDOF 21
