REMARK SMILES C=CCN(CC(=O)OCCOC(=O)c1ccc(-c2c3nc(c(-c4cc(S(=O)(=O)[O-])ccc4F)c4ccc([nH]4)c(-c4cc(S(=O)(=O)[O-])ccc4F)c4nc(c(-c5cc(S(=O)(=O)[O-])ccc5F)c5ccc2[nH]5)C=C4)C=C3)cc1)C(=O)[C@@H]1Oc2ccccc2O[C@H]1C
REMARK SMILES IDX 9 1 8 2 6 3 7 4 5 5 4 6 3 7 2 8 1 9 77 10 78 11 79 12 80 13
REMARK SMILES IDX 88 14 81 15 87 16 89 17 82 18 86 19 83 20 85 21 84 22 10 23
REMARK SMILES IDX 11 24 12 25 13 26 14 27 15 28 76 29 16 30 75 31 17 32 18 33
REMARK SMILES IDX 19 34 69 35 20 36 74 37 68 38 70 39 21 40 73 41 67 42 66 43
REMARK SMILES IDX 22 45 54 46 34 47 53 48 35 49 38 50 52 51 71 52 36 53 37 54
REMARK SMILES IDX 51 56 72 57 39 58 23 59 24 60 32 61 25 62 31 63 33 64 30 65
REMARK SMILES IDX 26 66 27 67 28 68 29 69 55 70 56 71 64 72 57 73 63 74 65 75
REMARK SMILES IDX 62 76 58 77 59 78 60 79 61 80 40 81 41 82 49 83 42 84 48 85
REMARK SMILES IDX 50 86 47 87 43 88 44 89 45 90 46 91
REMARK H PARENT 70 44 38 55
REMARK Flexibility Score: inf
ROOT
ATOM      1  C   UNL     1      -6.039   2.842   0.672  1.00  0.00     0.274 C 
ENDROOT
BRANCH   1   2
ATOM      2  O   UNL     1      -4.646   2.471   0.542  1.00  0.00    -0.461 OA
BRANCH   2   3
ATOM      3  C   UNL     1      -3.877   3.301  -0.215  1.00  0.00     0.325 C 
ATOM      4  O   UNL     1      -4.332   4.217  -0.897  1.00  0.00    -0.250 OA
BRANCH   3   5
ATOM      5  C   UNL     1      -2.371   3.007  -0.174  1.00  0.00     0.242 C 
BRANCH   5   6
ATOM      6  N   UNL     1      -1.870   1.904   0.665  1.00  0.00    -0.325 N 
BRANCH   6   7
ATOM      7  C   UNL     1      -1.357   0.760  -0.068  1.00  0.00     0.147 C 
BRANCH   7   8
ATOM      8  C   UNL     1       0.092   1.004  -0.389  1.00  0.00    -0.014 C 
ATOM      9  C   UNL     1       1.092   0.164  -0.094  1.00  0.00     0.006 C 
ENDBRANCH   7   8
ENDBRANCH   6   7
BRANCH   6  10
ATOM     10  C   UNL     1      -1.435   2.202   1.963  1.00  0.00     0.268 C 
ATOM     11  O   UNL     1      -1.110   3.362   2.247  1.00  0.00    -0.270 OA
BRANCH  10  12
ATOM     12  C   UNL     1      -1.478   1.125   3.106  1.00  0.00     0.302 C 
ATOM     13  O   UNL     1      -1.040  -0.189   2.763  1.00  0.00    -0.473 OA
ATOM     14  C   UNL     1      -2.875   1.224   3.777  1.00  0.00     0.221 C 
ATOM     15  C   UNL     1      -2.026  -1.130   2.725  1.00  0.00     0.162 A 
ATOM     16  O   UNL     1      -3.410   0.004   4.303  1.00  0.00    -0.482 OA
ATOM     17  C   UNL     1      -2.873   2.221   4.943  1.00  0.00     0.057 C 
ATOM     18  C   UNL     1      -1.804  -2.251   1.929  1.00  0.00     0.050 A 
ATOM     19  C   UNL     1      -3.228  -0.993   3.398  1.00  0.00     0.161 A 
ATOM     20  C   UNL     1      -2.838  -3.158   1.704  1.00  0.00     0.004 A 
ATOM     21  C   UNL     1      -4.262  -1.902   3.198  1.00  0.00     0.050 A 
ATOM     22  C   UNL     1      -4.077  -2.969   2.319  1.00  0.00     0.004 A 
ENDBRANCH  10  12
ENDBRANCH   6  10
ENDBRANCH   5   6
ENDBRANCH   3   5
ENDBRANCH   2   3
ENDBRANCH   1   2
BRANCH   1  23
ATOM     23  C   UNL     1      -6.367   3.509   2.022  1.00  0.00     0.275 C 
BRANCH  23  24
ATOM     24  O   UNL     1      -5.761   4.809   2.198  1.00  0.00    -0.458 OA
BRANCH  24  25
ATOM     25  C   UNL     1      -4.482   4.712   2.615  1.00  0.00     0.338 C 
ATOM     26  O   UNL     1      -3.873   3.670   2.759  1.00  0.00    -0.246 OA
BRANCH  25  27
ATOM     27  C   UNL     1      -3.791   5.961   2.893  1.00  0.00     0.060 A 
ATOM     28  C   UNL     1      -2.688   6.266   2.092  1.00  0.00     0.016 A 
ATOM     29  C   UNL     1      -4.010   6.617   4.104  1.00  0.00     0.016 A 
ATOM     30  C   UNL     1      -1.783   7.231   2.504  1.00  0.00     0.010 A 
ATOM     31  C   UNL     1      -3.118   7.613   4.502  1.00  0.00     0.010 A 
ATOM     32  C   UNL     1      -2.004   7.919   3.703  1.00  0.00    -0.014 A 
BRANCH  32  33
ATOM     33  C   UNL     1      -1.145   9.072   4.027  1.00  0.00     0.031 A 
ATOM     34  C   UNL     1      -0.041   8.977   5.029  1.00  0.00     0.074 A 
ATOM     35  C   UNL     1      -1.403  10.211   3.361  1.00  0.00     0.049 A 
ATOM     36  N   UNL     1       0.761   9.918   5.455  1.00  0.00    -0.248 NA
ATOM     37  C   UNL     1       0.192   7.660   5.634  1.00  0.00     0.031 C 
ATOM     38  C   UNL     1      -2.445  10.362   2.339  1.00  0.00     0.029 A 
ATOM     39  N   UNL     1      -0.825  11.445   3.435  1.00  0.00    -0.354 N 
ATOM     40  C   UNL     1       1.597   9.313   6.387  1.00  0.00     0.074 A 
ATOM     41  C   UNL     1       1.186   7.925   6.474  1.00  0.00     0.031 C 
ATOM     42  C   UNL     1      -2.427  11.619   1.879  1.00  0.00     0.029 A 
ATOM     43  C   UNL     1      -1.413  12.368   2.607  1.00  0.00     0.049 A 
ATOM     44  H   UNL     1      -0.062  11.652   4.023  1.00  0.00     0.167 HD
ATOM     45  C   UNL     1       2.605   9.880   7.097  1.00  0.00     0.034 A 
ATOM     46  C   UNL     1      -1.178  13.683   2.471  1.00  0.00     0.034 A 
ATOM     47  C   UNL     1       2.963  11.278   6.992  1.00  0.00     0.049 A 
ATOM     48  C   UNL     1      -0.094  14.296   3.303  1.00  0.00     0.074 A 
ATOM     49  C   UNL     1       3.957  11.975   7.659  1.00  0.00     0.029 A 
ATOM     50  N   UNL     1       2.326  12.202   6.167  1.00  0.00    -0.354 N 
ATOM     51  N   UNL     1       0.675  13.723   4.200  1.00  0.00    -0.248 NA
ATOM     52  C   UNL     1       0.158  15.723   3.101  1.00  0.00     0.031 C 
ATOM     53  C   UNL     1       3.883  13.323   7.280  1.00  0.00     0.029 A 
ATOM     54  C   UNL     1       2.884  13.462   6.329  1.00  0.00     0.049 A 
ATOM     55  H   UNL     1       1.584  11.990   5.555  1.00  0.00     0.167 HD
ATOM     56  C   UNL     1       1.513  14.723   4.671  1.00  0.00     0.074 A 
ATOM     57  C   UNL     1       1.163  15.930   3.941  1.00  0.00     0.031 C 
ATOM     58  C   UNL     1       2.485  14.654   5.616  1.00  0.00     0.034 A 
BRANCH  45  59
ATOM     59  C   UNL     1       3.334   9.002   8.089  1.00  0.00     0.023 A 
ATOM     60  C   UNL     1       4.109   7.900   7.684  1.00  0.00     0.031 A 
ATOM     61  C   UNL     1       3.223   9.253   9.469  1.00  0.00     0.131 A 
ATOM     62  C   UNL     1       4.690   7.057   8.647  1.00  0.00     0.055 A 
ATOM     63  C   UNL     1       3.857   8.449  10.420  1.00  0.00     0.041 A 
ATOM     64  F   UNL     1       2.481  10.276   9.920  1.00  0.00    -0.206 F 
ATOM     65  C   UNL     1       4.584   7.336  10.012  1.00  0.00     0.022 A 
BRANCH  62  66
ATOM     66  S   UNL     1       5.478   5.516   8.101  1.00  0.00     0.124 S 
ATOM     67  O   UNL     1       4.387   4.860   7.385  1.00  0.00    -0.237 OA
ATOM     68  O   UNL     1       6.582   6.000   7.280  1.00  0.00    -0.237 OA
ATOM     69  O   UNL     1       5.870   4.868   9.351  1.00  0.00    -0.744 OA
ENDBRANCH  62  66
ENDBRANCH  45  59
BRANCH  46  70
ATOM     70  C   UNL     1      -2.011  14.477   1.535  1.00  0.00     0.023 A 
ATOM     71  C   UNL     1      -1.486  14.951   0.326  1.00  0.00     0.031 A 
ATOM     72  C   UNL     1      -3.372  14.708   1.810  1.00  0.00     0.131 A 
ATOM     73  C   UNL     1      -2.319  15.641  -0.568  1.00  0.00     0.055 A 
ATOM     74  C   UNL     1      -4.202  15.366   0.904  1.00  0.00     0.041 A 
ATOM     75  F   UNL     1      -3.921  14.250   2.946  1.00  0.00    -0.206 F 
ATOM     76  C   UNL     1      -3.675  15.841  -0.292  1.00  0.00     0.022 A 
BRANCH  73  77
ATOM     77  S   UNL     1      -1.599  16.286  -2.101  1.00  0.00     0.124 S 
ATOM     78  O   UNL     1      -0.571  17.187  -1.594  1.00  0.00    -0.237 OA
ATOM     79  O   UNL     1      -1.123  15.069  -2.749  1.00  0.00    -0.237 OA
ATOM     80  O   UNL     1      -2.730  16.937  -2.760  1.00  0.00    -0.744 OA
ENDBRANCH  73  77
ENDBRANCH  46  70
BRANCH  58  81
ATOM     81  C   UNL     1       3.228  15.935   5.880  1.00  0.00     0.023 A 
ATOM     82  C   UNL     1       2.609  17.014   6.534  1.00  0.00     0.031 A 
ATOM     83  C   UNL     1       4.542  16.100   5.412  1.00  0.00     0.131 A 
ATOM     84  C   UNL     1       3.283  18.238   6.645  1.00  0.00     0.055 A 
ATOM     85  C   UNL     1       5.226  17.305   5.571  1.00  0.00     0.041 A 
ATOM     86  F   UNL     1       5.171  15.099   4.776  1.00  0.00    -0.206 F 
ATOM     87  C   UNL     1       4.592  18.387   6.177  1.00  0.00     0.022 A 
BRANCH  84  88
ATOM     88  S   UNL     1       2.389  19.664   7.319  1.00  0.00     0.124 S 
ATOM     89  O   UNL     1       1.267  19.785   6.393  1.00  0.00    -0.237 OA
ATOM     90  O   UNL     1       2.057  19.217   8.668  1.00  0.00    -0.237 OA
ATOM     91  O   UNL     1       3.368  20.747   7.250  1.00  0.00    -0.744 OA
ENDBRANCH  84  88
ENDBRANCH  58  81
ENDBRANCH  32  33
ENDBRANCH  25  27
ENDBRANCH  24  25
ENDBRANCH  23  24
ENDBRANCH   1  23
TORSDOF 19
