REMARK SMILES Cc1ccc(OCC(=O)NNC(=O)[C@H]2CCCC[C@@H]2C(=O)OCCOC(=O)c2ccc(-c3c4nc(c(-c5cc(S(=O)(=O)[O-])ccc5F)c5ccc([nH]5)c(-c5cc(S(=O)(=O)[O-])ccc5F)c5nc(c(-c6cc(S(=O)(=O)[O-])ccc6F)c6ccc3[nH]6)C=C5)C=C4)cc2)cc1
REMARK SMILES IDX 23 1 22 2 20 3 21 4 19 5 14 6 15 7 16 8 18 9 17 10 12 11
REMARK SMILES IDX 11 12 13 14 10 15 8 16 9 17 7 19 6 20 5 21 1 22 2 23 3 24
REMARK SMILES IDX 92 25 4 26 91 27 24 28 25 29 26 30 27 31 28 32 29 33 90 34
REMARK SMILES IDX 30 35 89 36 31 37 32 38 33 39 83 40 34 41 88 42 82 43 84 44
REMARK SMILES IDX 35 45 87 46 81 47 80 48 36 50 68 51 48 52 67 53 49 54 52 55
REMARK SMILES IDX 66 56 85 57 50 58 51 59 65 61 86 62 53 63 37 64 38 65 46 66
REMARK SMILES IDX 39 67 45 68 47 69 44 70 40 71 41 72 42 73 43 74 69 75 70 76
REMARK SMILES IDX 78 77 71 78 77 79 79 80 76 81 72 82 73 83 74 84 75 85 54 86
REMARK SMILES IDX 55 87 63 88 56 89 62 90 64 91 61 92 57 93 58 94 59 95 60 96
REMARK H PARENT 11 13 10 18 84 49 52 60
REMARK Flexibility Score: inf
ROOT
ATOM      1  C   UNL     1      -6.068   4.991   4.174  1.00  0.00     0.274 C 
ENDROOT
BRANCH   1   2
ATOM      2  O   UNL     1      -4.846   4.304   4.503  1.00  0.00    -0.462 OA
BRANCH   2   3
ATOM      3  C   UNL     1      -5.017   3.315   5.429  1.00  0.00     0.309 C 
ATOM      4  O   UNL     1      -6.106   3.025   5.911  1.00  0.00    -0.252 OA
BRANCH   3   5
ATOM      5  C   UNL     1      -3.699   2.703   5.891  1.00  0.00     0.111 C 
ATOM      6  C   UNL     1      -3.695   1.162   5.827  1.00  0.00     0.094 C 
ATOM      7  C   UNL     1      -4.640   0.520   6.864  1.00  0.00     0.014 C 
ATOM      8  C   UNL     1      -4.497   1.076   8.282  1.00  0.00     0.001 C 
ATOM      9  C   UNL     1      -3.440   3.200   7.321  1.00  0.00     0.016 C 
ATOM     10  C   UNL     1      -4.396   2.595   8.353  1.00  0.00     0.001 C 
BRANCH   6  11
ATOM     11  C   UNL     1      -2.281   0.608   6.030  1.00  0.00     0.242 C 
ATOM     12  N   UNL     1      -1.438   0.428   4.973  1.00  0.00    -0.267 N 
ATOM     13  H   UNL     1      -0.602  -0.059   5.158  1.00  0.00     0.191 HD
ATOM     14  O   UNL     1      -1.836   0.313   7.143  1.00  0.00    -0.273 OA
BRANCH  12  15
ATOM     15  N   UNL     1      -1.626   0.854   3.669  1.00  0.00    -0.265 N 
ATOM     16  C   UNL     1      -0.573   1.236   2.865  1.00  0.00     0.276 C 
ATOM     17  O   UNL     1      -0.743   1.476   1.670  1.00  0.00    -0.269 OA
ATOM     18  H   UNL     1      -2.540   0.885   3.304  1.00  0.00     0.191 HD
BRANCH  16  19
ATOM     19  C   UNL     1       0.837   1.274   3.474  1.00  0.00     0.331 C 
BRANCH  19  20
ATOM     20  O   UNL     1       0.977   1.878   4.750  1.00  0.00    -0.484 OA
BRANCH  20  21
ATOM     21  C   UNL     1       0.852   3.237   4.827  1.00  0.00     0.120 A 
ATOM     22  C   UNL     1       0.577   7.489   5.513  1.00  0.00     0.044 C 
ATOM     23  C   UNL     1       0.660   6.011   5.273  1.00  0.00    -0.051 A 
ATOM     24  C   UNL     1       0.868   5.135   6.342  1.00  0.00     0.007 A 
ATOM     25  C   UNL     1       0.542   5.486   3.982  1.00  0.00     0.007 A 
ATOM     26  C   UNL     1       0.960   3.759   6.118  1.00  0.00     0.047 A 
ATOM     27  C   UNL     1       0.637   4.108   3.760  1.00  0.00     0.047 A 
ENDBRANCH  20  21
ENDBRANCH  19  20
ENDBRANCH  16  19
ENDBRANCH  12  15
ENDBRANCH   6  11
ENDBRANCH   3   5
ENDBRANCH   2   3
ENDBRANCH   1   2
BRANCH   1  28
ATOM     28  C   UNL     1      -6.033   5.680   2.800  1.00  0.00     0.275 C 
BRANCH  28  29
ATOM     29  O   UNL     1      -5.751   4.926   1.594  1.00  0.00    -0.458 OA
BRANCH  29  30
ATOM     30  C   UNL     1      -5.294   3.650   1.663  1.00  0.00     0.338 C 
ATOM     31  O   UNL     1      -4.120   3.355   1.518  1.00  0.00    -0.246 OA
BRANCH  30  32
ATOM     32  C   UNL     1      -6.346   2.706   2.111  1.00  0.00     0.060 A 
ATOM     33  C   UNL     1      -5.933   1.570   2.814  1.00  0.00     0.016 A 
ATOM     34  C   UNL     1      -7.696   3.066   2.071  1.00  0.00     0.016 A 
ATOM     35  C   UNL     1      -6.836   0.903   3.636  1.00  0.00     0.010 A 
ATOM     36  C   UNL     1      -8.588   2.420   2.909  1.00  0.00     0.010 A 
ATOM     37  C   UNL     1      -8.148   1.377   3.734  1.00  0.00    -0.014 A 
BRANCH  37  38
ATOM     38  C   UNL     1      -9.164   0.661   4.498  1.00  0.00     0.031 A 
ATOM     39  C   UNL     1      -9.198   0.630   5.978  1.00  0.00     0.074 A 
ATOM     40  C   UNL     1      -9.948  -0.161   3.770  1.00  0.00     0.049 A 
ATOM     41  N   UNL     1      -9.448  -0.437   6.664  1.00  0.00    -0.248 NA
ATOM     42  C   UNL     1      -8.910   1.794   6.816  1.00  0.00     0.031 C 
ATOM     43  C   UNL     1     -11.043  -1.010   4.205  1.00  0.00     0.029 A 
ATOM     44  N   UNL     1      -9.664  -0.605   2.476  1.00  0.00    -0.354 N 
ATOM     45  C   UNL     1      -9.617  -0.052   7.976  1.00  0.00     0.074 A 
ATOM     46  C   UNL     1      -9.156   1.315   8.044  1.00  0.00     0.031 C 
ATOM     47  C   UNL     1     -11.107  -2.056   3.359  1.00  0.00     0.029 A 
ATOM     48  C   UNL     1      -9.945  -1.966   2.476  1.00  0.00     0.049 A 
ATOM     49  H   UNL     1      -9.332  -0.066   1.722  1.00  0.00     0.167 HD
ATOM     50  C   UNL     1     -10.305  -0.843   8.846  1.00  0.00     0.034 A 
ATOM     51  C   UNL     1      -9.000  -2.933   2.281  1.00  0.00     0.034 A 
ATOM     52  C   UNL     1     -10.854  -2.014   8.186  1.00  0.00     0.049 A 
ATOM     53  C   UNL     1      -9.079  -4.013   3.335  1.00  0.00     0.074 A 
ATOM     54  C   UNL     1     -12.094  -2.252   7.616  1.00  0.00     0.029 A 
ATOM     55  N   UNL     1     -10.022  -3.035   7.769  1.00  0.00    -0.354 N 
ATOM     56  N   UNL     1      -9.492  -3.806   4.554  1.00  0.00    -0.248 NA
ATOM     57  C   UNL     1      -8.642  -5.386   3.111  1.00  0.00     0.031 C 
ATOM     58  C   UNL     1     -12.005  -3.439   6.850  1.00  0.00     0.029 A 
ATOM     59  C   UNL     1     -10.717  -3.924   6.973  1.00  0.00     0.049 A 
ATOM     60  H   UNL     1      -9.070  -3.118   8.006  1.00  0.00     0.167 HD
ATOM     61  C   UNL     1      -9.501  -4.999   5.231  1.00  0.00     0.074 A 
ATOM     62  C   UNL     1      -8.872  -5.935   4.316  1.00  0.00     0.031 C 
ATOM     63  C   UNL     1     -10.058  -5.115   6.473  1.00  0.00     0.034 A 
BRANCH  50  64
ATOM     64  C   UNL     1     -10.783  -0.375  10.195  1.00  0.00     0.023 A 
ATOM     65  C   UNL     1     -12.100  -0.676  10.598  1.00  0.00     0.031 A 
ATOM     66  C   UNL     1     -10.010   0.366  11.106  1.00  0.00     0.131 A 
ATOM     67  C   UNL     1     -12.633  -0.185  11.800  1.00  0.00     0.055 A 
ATOM     68  C   UNL     1     -10.544   0.868  12.304  1.00  0.00     0.041 A 
ATOM     69  F   UNL     1      -8.715   0.625  10.863  1.00  0.00    -0.206 F 
ATOM     70  C   UNL     1     -11.868   0.607  12.649  1.00  0.00     0.022 A 
BRANCH  67  71
ATOM     71  S   UNL     1     -14.363  -0.565  12.199  1.00  0.00     0.124 S 
ATOM     72  O   UNL     1     -15.067  -0.087  11.013  1.00  0.00    -0.237 OA
ATOM     73  O   UNL     1     -14.328  -2.010  12.388  1.00  0.00    -0.237 OA
ATOM     74  O   UNL     1     -14.609   0.212  13.413  1.00  0.00    -0.744 OA
ENDBRANCH  67  71
ENDBRANCH  50  64
BRANCH  51  75
ATOM     75  C   UNL     1      -7.715  -2.538   1.614  1.00  0.00     0.023 A 
ATOM     76  C   UNL     1      -7.746  -1.774   0.426  1.00  0.00     0.031 A 
ATOM     77  C   UNL     1      -6.466  -2.700   2.235  1.00  0.00     0.131 A 
ATOM     78  C   UNL     1      -6.596  -1.109  -0.030  1.00  0.00     0.055 A 
ATOM     79  C   UNL     1      -5.306  -2.085   1.743  1.00  0.00     0.041 A 
ATOM     80  F   UNL     1      -6.349  -3.392   3.377  1.00  0.00    -0.206 F 
ATOM     81  C   UNL     1      -5.372  -1.261   0.623  1.00  0.00     0.022 A 
BRANCH  78  82
ATOM     82  S   UNL     1      -6.756   0.140  -1.343  1.00  0.00     0.124 S 
ATOM     83  O   UNL     1      -6.608  -0.668  -2.547  1.00  0.00    -0.237 OA
ATOM     84  O   UNL     1      -8.086   0.691  -1.099  1.00  0.00    -0.237 OA
ATOM     85  O   UNL     1      -5.660   1.061  -1.056  1.00  0.00    -0.744 OA
ENDBRANCH  78  82
ENDBRANCH  51  75
BRANCH  63  86
ATOM     86  C   UNL     1     -10.111  -6.360   7.322  1.00  0.00     0.023 A 
ATOM     87  C   UNL     1     -10.068  -7.656   6.797  1.00  0.00     0.031 A 
ATOM     88  C   UNL     1     -10.264  -6.268   8.729  1.00  0.00     0.131 A 
ATOM     89  C   UNL     1     -10.067  -8.778   7.644  1.00  0.00     0.055 A 
ATOM     90  C   UNL     1     -10.340  -7.385   9.563  1.00  0.00     0.041 A 
ATOM     91  F   UNL     1     -10.323  -5.087   9.361  1.00  0.00    -0.206 F 
ATOM     92  C   UNL     1     -10.215  -8.654   9.024  1.00  0.00     0.022 A 
BRANCH  89  93
ATOM     93  S   UNL     1      -9.795 -10.406   6.902  1.00  0.00     0.124 S 
ATOM     94  O   UNL     1     -10.891 -10.501   5.944  1.00  0.00    -0.237 OA
ATOM     95  O   UNL     1      -8.462 -10.252   6.324  1.00  0.00    -0.237 OA
ATOM     96  O   UNL     1      -9.876 -11.322   8.037  1.00  0.00    -0.744 OA
ENDBRANCH  89  93
ENDBRANCH  63  86
ENDBRANCH  37  38
ENDBRANCH  30  32
ENDBRANCH  29  30
ENDBRANCH  28  29
ENDBRANCH   1  28
TORSDOF 19
