REMARK SMILES CCN(CC(C)(C)O)C(=O)Nc1ccc(C(=O)OCCOC(=O)c2ccc(-c3c4nc(c(-c5cc(S(=O)(=O)[O-])ccc5F)c5ccc([nH]5)c(-c5cc(S(=O)(=O)[O-])ccc5F)c5nc(c(-c6cc(S(=O)(=O)[O-])ccc6F)c6ccc3[nH]6)C=C5)C=C4)cc2)c(O)c1
REMARK SMILES IDX 19 1 18 2 16 3 17 4 15 5 12 6 13 7 89 8 14 9 87 10 11 11
REMARK SMILES IDX 9 12 10 13 3 15 2 16 1 17 4 18 5 19 6 20 7 21 8 22 88 24
REMARK SMILES IDX 20 26 21 27 22 28 23 29 24 30 25 31 86 32 26 33 85 34 27 35
REMARK SMILES IDX 28 36 29 37 79 38 30 39 84 40 78 41 80 42 31 43 83 44 77 45
REMARK SMILES IDX 76 46 32 48 64 49 44 50 63 51 45 52 48 53 62 54 81 55 46 56
REMARK SMILES IDX 47 57 61 59 82 60 49 61 33 62 34 63 42 64 35 65 41 66 43 67
REMARK SMILES IDX 40 68 36 69 37 70 38 71 39 72 65 73 66 74 74 75 67 76 73 77
REMARK SMILES IDX 75 78 72 79 68 80 69 81 70 82 71 83 50 84 51 85 59 86 52 87
REMARK SMILES IDX 58 88 60 89 57 90 53 91 54 92 55 93 56 94
REMARK H PARENT 11 14 8 23 88 25 80 47 48 58
REMARK Flexibility Score: inf
ROOT
ATOM      1  C   UNL     1      -1.528   7.726  -7.076  1.00  0.00     0.275 C 
ENDROOT
BRANCH   1   2
ATOM      2  O   UNL     1      -0.502   6.814  -6.628  1.00  0.00    -0.458 OA
BRANCH   2   3
ATOM      3  C   UNL     1       0.188   7.227  -5.540  1.00  0.00     0.342 C 
ATOM      4  O   UNL     1       0.155   8.337  -5.032  1.00  0.00    -0.246 OA
BRANCH   3   5
ATOM      5  C   UNL     1       0.878   6.081  -4.921  1.00  0.00     0.101 A 
ATOM      6  C   UNL     1       2.027   3.922  -3.496  1.00  0.00     0.046 A 
ATOM      7  C   UNL     1       1.373   4.951  -2.848  1.00  0.00     0.027 A 
ATOM      8  C   UNL     1       2.195   4.043  -4.885  1.00  0.00     0.073 A 
ATOM      9  C   UNL     1       0.784   6.009  -3.535  1.00  0.00     0.022 A 
ATOM     10  C   UNL     1       1.614   5.107  -5.597  1.00  0.00     0.132 A 
BRANCH   6  11
ATOM     11  N   UNL     1       2.619   2.830  -2.844  1.00  0.00    -0.308 N 
ATOM     12  C   UNL     1       2.627   2.203  -1.645  1.00  0.00     0.321 C 
ATOM     13  O   UNL     1       3.637   1.501  -1.474  1.00  0.00    -0.248 OA
ATOM     14  H   UNL     1       3.231   2.368  -3.462  1.00  0.00     0.171 HD
BRANCH  12  15
ATOM     15  N   UNL     1       1.616   2.196  -0.721  1.00  0.00    -0.322 N 
BRANCH  15  16
ATOM     16  C   UNL     1       1.767   1.259   0.409  1.00  0.00     0.118 C 
ATOM     17  C   UNL     1       1.481  -0.184   0.006  1.00  0.00     0.027 C 
ENDBRANCH  15  16
BRANCH  15  18
ATOM     18  C   UNL     1       0.294   2.828  -0.766  1.00  0.00     0.155 C 
BRANCH  18  19
ATOM     19  C   UNL     1       0.072   3.950   0.312  1.00  0.00     0.077 C 
ATOM     20  C   UNL     1       1.333   4.694   0.788  1.00  0.00     0.043 C 
ATOM     21  C   UNL     1      -0.988   4.926  -0.194  1.00  0.00     0.043 C 
BRANCH  19  22
ATOM     22  O   UNL     1      -0.478   3.344   1.495  1.00  0.00    -0.389 OA
ATOM     23  H   UNL     1       0.159   2.710   1.860  1.00  0.00     0.211 HD
ENDBRANCH  19  22
ENDBRANCH  18  19
ENDBRANCH  15  18
ENDBRANCH  12  15
ENDBRANCH   6  11
BRANCH  10  24
ATOM     24  O   UNL     1       1.837   5.132  -6.947  1.00  0.00    -0.507 OA
ATOM     25  H   UNL     1       1.473   5.819  -7.469  1.00  0.00     0.293 HD
ENDBRANCH  10  24
ENDBRANCH   3   5
ENDBRANCH   2   3
ENDBRANCH   1   2
BRANCH   1  26
ATOM     26  C   UNL     1      -2.912   7.184  -6.716  1.00  0.00     0.275 C 
BRANCH  26  27
ATOM     27  O   UNL     1      -3.151   7.271  -5.294  1.00  0.00    -0.458 OA
BRANCH  27  28
ATOM     28  C   UNL     1      -3.473   6.102  -4.686  1.00  0.00     0.338 C 
ATOM     29  O   UNL     1      -3.482   4.995  -5.199  1.00  0.00    -0.246 OA
BRANCH  28  30
ATOM     30  C   UNL     1      -3.880   6.324  -3.282  1.00  0.00     0.060 A 
ATOM     31  C   UNL     1      -3.018   6.941  -2.386  1.00  0.00     0.016 A 
ATOM     32  C   UNL     1      -5.073   5.766  -2.814  1.00  0.00     0.016 A 
ATOM     33  C   UNL     1      -3.300   6.878  -1.013  1.00  0.00     0.010 A 
ATOM     34  C   UNL     1      -5.382   5.786  -1.441  1.00  0.00     0.010 A 
ATOM     35  C   UNL     1      -4.463   6.268  -0.494  1.00  0.00    -0.014 A 
BRANCH  35  36
ATOM     36  C   UNL     1      -4.651   6.041   0.996  1.00  0.00     0.031 A 
ATOM     37  C   UNL     1      -5.106   4.688   1.542  1.00  0.00     0.074 A 
ATOM     38  C   UNL     1      -4.353   6.994   1.911  1.00  0.00     0.049 A 
ATOM     39  N   UNL     1      -5.516   4.371   2.750  1.00  0.00    -0.248 NA
ATOM     40  C   UNL     1      -5.116   3.553   0.609  1.00  0.00     0.031 C 
ATOM     41  C   UNL     1      -3.857   8.336   1.611  1.00  0.00     0.029 A 
ATOM     42  N   UNL     1      -4.396   6.971   3.291  1.00  0.00    -0.354 N 
ATOM     43  C   UNL     1      -5.920   3.036   2.692  1.00  0.00     0.074 A 
ATOM     44  C   UNL     1      -5.695   2.602   1.329  1.00  0.00     0.031 C 
ATOM     45  C   UNL     1      -3.545   8.962   2.753  1.00  0.00     0.029 A 
ATOM     46  C   UNL     1      -3.970   8.142   3.881  1.00  0.00     0.049 A 
ATOM     47  H   UNL     1      -4.703   6.190   3.806  1.00  0.00     0.167 HD
ATOM     48  C   UNL     1      -6.433   2.244   3.673  1.00  0.00     0.034 A 
ATOM     49  C   UNL     1      -3.977   8.563   5.164  1.00  0.00     0.034 A 
ATOM     50  C   UNL     1      -6.554   2.632   5.062  1.00  0.00     0.049 A 
ATOM     51  C   UNL     1      -4.564   7.683   6.235  1.00  0.00     0.074 A 
ATOM     52  C   UNL     1      -7.029   1.881   6.128  1.00  0.00     0.029 A 
ATOM     53  N   UNL     1      -6.175   3.857   5.590  1.00  0.00    -0.354 N 
ATOM     54  N   UNL     1      -5.066   6.476   6.128  1.00  0.00    -0.248 NA
ATOM     55  C   UNL     1      -4.616   8.239   7.595  1.00  0.00     0.031 C 
ATOM     56  C   UNL     1      -6.995   2.671   7.283  1.00  0.00     0.029 A 
ATOM     57  C   UNL     1      -6.427   3.889   6.956  1.00  0.00     0.049 A 
ATOM     58  H   UNL     1      -5.784   4.597   5.072  1.00  0.00     0.167 HD
ATOM     59  C   UNL     1      -5.497   6.133   7.408  1.00  0.00     0.074 A 
ATOM     60  C   UNL     1      -5.163   7.242   8.275  1.00  0.00     0.031 C 
ATOM     61  C   UNL     1      -6.124   5.003   7.822  1.00  0.00     0.034 A 
BRANCH  48  62
ATOM     62  C   UNL     1      -6.978   0.885   3.280  1.00  0.00     0.023 A 
ATOM     63  C   UNL     1      -6.165  -0.159   2.809  1.00  0.00     0.031 A 
ATOM     64  C   UNL     1      -8.359   0.632   3.408  1.00  0.00     0.131 A 
ATOM     65  C   UNL     1      -6.746  -1.383   2.430  1.00  0.00     0.055 A 
ATOM     66  C   UNL     1      -8.918  -0.610   3.104  1.00  0.00     0.041 A 
ATOM     67  F   UNL     1      -9.191   1.593   3.839  1.00  0.00    -0.206 F 
ATOM     68  C   UNL     1      -8.112  -1.623   2.600  1.00  0.00     0.022 A 
BRANCH  65  69
ATOM     69  S   UNL     1      -5.714  -2.616   1.590  1.00  0.00     0.124 S 
ATOM     70  O   UNL     1      -5.211  -1.853   0.450  1.00  0.00    -0.237 OA
ATOM     71  O   UNL     1      -4.735  -2.958   2.615  1.00  0.00    -0.237 OA
ATOM     72  O   UNL     1      -6.658  -3.679   1.249  1.00  0.00    -0.744 OA
ENDBRANCH  65  69
ENDBRANCH  48  62
BRANCH  49  73
ATOM     73  C   UNL     1      -3.513   9.944   5.502  1.00  0.00     0.023 A 
ATOM     74  C   UNL     1      -2.421  10.163   6.356  1.00  0.00     0.031 A 
ATOM     75  C   UNL     1      -4.189  11.070   4.996  1.00  0.00     0.131 A 
ATOM     76  C   UNL     1      -2.053  11.476   6.694  1.00  0.00     0.055 A 
ATOM     77  C   UNL     1      -3.777  12.371   5.280  1.00  0.00     0.041 A 
ATOM     78  F   UNL     1      -5.251  10.919   4.188  1.00  0.00    -0.206 F 
ATOM     79  C   UNL     1      -2.708  12.580   6.143  1.00  0.00     0.022 A 
BRANCH  76  80
ATOM     80  S   UNL     1      -0.753  11.726   7.935  1.00  0.00     0.124 S 
ATOM     81  O   UNL     1      -1.316  11.046   9.096  1.00  0.00    -0.237 OA
ATOM     82  O   UNL     1       0.394  11.080   7.306  1.00  0.00    -0.237 OA
ATOM     83  O   UNL     1      -0.663  13.181   8.044  1.00  0.00    -0.744 OA
ENDBRANCH  76  80
ENDBRANCH  49  73
BRANCH  61  84
ATOM     84  C   UNL     1      -6.460   4.906   9.291  1.00  0.00     0.023 A 
ATOM     85  C   UNL     1      -7.420   5.745   9.885  1.00  0.00     0.031 A 
ATOM     86  C   UNL     1      -5.780   3.993  10.117  1.00  0.00     0.131 A 
ATOM     87  C   UNL     1      -7.629   5.698  11.272  1.00  0.00     0.055 A 
ATOM     88  C   UNL     1      -6.033   3.912  11.487  1.00  0.00     0.041 A 
ATOM     89  F   UNL     1      -4.850   3.171   9.605  1.00  0.00    -0.206 F 
ATOM     90  C   UNL     1      -6.951   4.777  12.075  1.00  0.00     0.022 A 
BRANCH  87  91
ATOM     91  S   UNL     1      -8.726   6.928  12.032  1.00  0.00     0.124 S 
ATOM     92  O   UNL     1      -8.098   8.183  11.631  1.00  0.00    -0.237 OA
ATOM     93  O   UNL     1     -10.010   6.629  11.408  1.00  0.00    -0.237 OA
ATOM     94  O   UNL     1      -8.646   6.625  13.460  1.00  0.00    -0.744 OA
ENDBRANCH  87  91
ENDBRANCH  61  84
ENDBRANCH  35  36
ENDBRANCH  28  30
ENDBRANCH  27  28
ENDBRANCH  26  27
ENDBRANCH   1  26
TORSDOF 21
