REMARK SMILES Cc1cccc(C[C@H](CC(=O)OCCOC(=O)c2ccc(-c3c4nc(c(-c5cc(S(=O)(=O)[O-])ccc5F)c5ccc([nH]5)c(-c5cc(S(=O)(=O)[O-])ccc5F)c5nc(c(-c6cc(S(=O)(=O)[O-])ccc6F)c6ccc3[nH]6)C=C5)C=C4)cc2)NC(=O)OC(C)(C)C)c1
REMARK SMILES IDX 13 1 12 2 10 3 11 4 9 5 8 6 7 7 6 8 1 9 2 10 3 11 89 12 4 13
REMARK SMILES IDX 5 14 81 15 82 16 83 18 84 19 85 20 86 21 87 22 88 23 14 24
REMARK SMILES IDX 15 25 16 26 17 27 18 28 19 29 80 30 20 31 79 32 21 33 22 34
REMARK SMILES IDX 23 35 73 36 24 37 78 38 72 39 74 40 25 41 77 42 71 43 70 44
REMARK SMILES IDX 26 46 58 47 38 48 57 49 39 50 42 51 56 52 75 53 40 54 41 55
REMARK SMILES IDX 55 57 76 58 43 59 27 60 28 61 36 62 29 63 35 64 37 65 34 66
REMARK SMILES IDX 30 67 31 68 32 69 33 70 59 71 60 72 68 73 61 74 67 75 69 76
REMARK SMILES IDX 66 77 62 78 63 79 64 80 65 81 44 82 45 83 53 84 46 85 52 86
REMARK SMILES IDX 54 87 51 88 47 89 48 90 49 91 50 92
REMARK H PARENT 81 17 74 45 42 56
REMARK Flexibility Score: inf
ROOT
ATOM      1  C   UNL     1      -5.575   1.349   1.660  1.00  0.00     0.274 C 
ENDROOT
BRANCH   1   2
ATOM      2  O   UNL     1      -4.573   1.874   0.787  1.00  0.00    -0.462 OA
BRANCH   2   3
ATOM      3  C   UNL     1      -4.232   3.178   0.870  1.00  0.00     0.308 C 
ATOM      4  O   UNL     1      -4.738   3.994   1.623  1.00  0.00    -0.252 OA
BRANCH   3   5
ATOM      5  C   UNL     1      -3.146   3.481  -0.139  1.00  0.00     0.148 C 
BRANCH   5   6
ATOM      6  C   UNL     1      -3.592   3.376  -1.589  1.00  0.00     0.101 C 
BRANCH   6   7
ATOM      7  C   UNL     1      -4.429   2.118  -1.913  1.00  0.00     0.061 C 
BRANCH   7   8
ATOM      8  C   UNL     1      -4.860   1.871  -3.336  1.00  0.00    -0.046 A 
ATOM      9  C   UNL     1      -5.444  -1.119  -5.633  1.00  0.00     0.044 C 
ATOM     10  C   UNL     1      -5.370   0.285  -5.115  1.00  0.00    -0.051 A 
ATOM     11  C   UNL     1      -5.867   1.335  -5.895  1.00  0.00     0.003 A 
ATOM     12  C   UNL     1      -4.847   0.562  -3.845  1.00  0.00     0.007 A 
ATOM     13  C   UNL     1      -5.901   2.628  -5.391  1.00  0.00     0.001 A 
ATOM     14  C   UNL     1      -5.431   2.884  -4.110  1.00  0.00     0.004 A 
ENDBRANCH   7   8
ENDBRANCH   6   7
BRANCH   6  15
ATOM     15  N   UNL     1      -4.241   4.644  -1.884  1.00  0.00    -0.318 N 
ATOM     16  C   UNL     1      -3.728   5.599  -2.701  1.00  0.00     0.407 C 
ATOM     17  H   UNL     1      -5.113   4.822  -1.462  1.00  0.00     0.167 HD
ATOM     18  O   UNL     1      -4.234   6.717  -2.762  1.00  0.00    -0.225 OA
BRANCH  16  19
ATOM     19  O   UNL     1      -2.702   5.140  -3.451  1.00  0.00    -0.444 OA
BRANCH  19  20
ATOM     20  C   UNL     1      -2.235   5.895  -4.588  1.00  0.00     0.106 C 
ATOM     21  C   UNL     1      -3.389   6.155  -5.564  1.00  0.00     0.056 C 
ATOM     22  C   UNL     1      -1.528   7.173  -4.134  1.00  0.00     0.056 C 
ATOM     23  C   UNL     1      -1.213   4.989  -5.295  1.00  0.00     0.056 C 
ENDBRANCH  19  20
ENDBRANCH  16  19
ENDBRANCH   6  15
ENDBRANCH   5   6
ENDBRANCH   3   5
ENDBRANCH   2   3
ENDBRANCH   1   2
BRANCH   1  24
ATOM     24  C   UNL     1      -5.810  -0.131   1.282  1.00  0.00     0.275 C 
BRANCH  24  25
ATOM     25  O   UNL     1      -4.691  -1.062   1.319  1.00  0.00    -0.458 OA
BRANCH  25  26
ATOM     26  C   UNL     1      -3.539  -0.780   0.637  1.00  0.00     0.338 C 
ATOM     27  O   UNL     1      -3.403  -0.912  -0.568  1.00  0.00    -0.246 OA
BRANCH  26  28
ATOM     28  C   UNL     1      -2.592  -0.066   1.534  1.00  0.00     0.060 A 
ATOM     29  C   UNL     1      -1.514   0.683   1.026  1.00  0.00     0.016 A 
ATOM     30  C   UNL     1      -3.054   0.155   2.822  1.00  0.00     0.016 A 
ATOM     31  C   UNL     1      -0.982   1.732   1.786  1.00  0.00     0.010 A 
ATOM     32  C   UNL     1      -2.759   1.350   3.402  1.00  0.00     0.010 A 
ATOM     33  C   UNL     1      -1.658   2.090   2.945  1.00  0.00    -0.014 A 
BRANCH  33  34
ATOM     34  C   UNL     1      -1.180   2.970   3.999  1.00  0.00     0.031 A 
ATOM     35  C   UNL     1      -1.439   4.414   4.011  1.00  0.00     0.074 A 
ATOM     36  C   UNL     1      -0.900   2.199   5.079  1.00  0.00     0.049 A 
ATOM     37  N   UNL     1      -1.143   5.167   5.002  1.00  0.00    -0.248 NA
ATOM     38  C   UNL     1      -2.045   5.175   2.927  1.00  0.00     0.031 C 
ATOM     39  C   UNL     1      -0.923   2.425   6.509  1.00  0.00     0.029 A 
ATOM     40  N   UNL     1      -0.436   0.882   4.981  1.00  0.00    -0.354 N 
ATOM     41  C   UNL     1      -1.806   6.369   4.852  1.00  0.00     0.074 A 
ATOM     42  C   UNL     1      -2.261   6.372   3.490  1.00  0.00     0.031 C 
ATOM     43  C   UNL     1      -0.180   1.459   7.097  1.00  0.00     0.029 A 
ATOM     44  C   UNL     1       0.448   0.680   6.030  1.00  0.00     0.049 A 
ATOM     45  H   UNL     1      -0.691   0.223   4.295  1.00  0.00     0.167 HD
ATOM     46  C   UNL     1      -1.974   7.121   5.975  1.00  0.00     0.034 A 
ATOM     47  C   UNL     1       1.763   0.715   5.647  1.00  0.00     0.034 A 
ATOM     48  C   UNL     1      -1.195   6.518   7.060  1.00  0.00     0.049 A 
ATOM     49  C   UNL     1       2.402   2.023   6.104  1.00  0.00     0.074 A 
ATOM     50  C   UNL     1      -1.497   5.674   8.111  1.00  0.00     0.029 A 
ATOM     51  N   UNL     1       0.172   6.448   6.888  1.00  0.00    -0.354 N 
ATOM     52  N   UNL     1       1.741   3.107   6.425  1.00  0.00    -0.248 NA
ATOM     53  C   UNL     1       3.838   2.192   6.256  1.00  0.00     0.031 C 
ATOM     54  C   UNL     1      -0.281   5.011   8.486  1.00  0.00     0.029 A 
ATOM     55  C   UNL     1       0.743   5.471   7.672  1.00  0.00     0.049 A 
ATOM     56  H   UNL     1       0.680   7.028   6.276  1.00  0.00     0.167 HD
ATOM     57  C   UNL     1       2.591   4.053   6.923  1.00  0.00     0.074 A 
ATOM     58  C   UNL     1       3.908   3.461   6.697  1.00  0.00     0.031 C 
ATOM     59  C   UNL     1       2.169   5.221   7.511  1.00  0.00     0.034 A 
BRANCH  46  60
ATOM     60  C   UNL     1      -2.926   8.265   6.225  1.00  0.00     0.023 A 
ATOM     61  C   UNL     1      -3.022   8.734   7.554  1.00  0.00     0.031 A 
ATOM     62  C   UNL     1      -3.810   8.870   5.312  1.00  0.00     0.131 A 
ATOM     63  C   UNL     1      -3.972   9.689   7.946  1.00  0.00     0.055 A 
ATOM     64  C   UNL     1      -4.749   9.845   5.698  1.00  0.00     0.041 A 
ATOM     65  F   UNL     1      -3.827   8.550   4.014  1.00  0.00    -0.206 F 
ATOM     66  C   UNL     1      -4.844  10.251   7.023  1.00  0.00     0.022 A 
BRANCH  63  67
ATOM     67  S   UNL     1      -4.071  10.134   9.700  1.00  0.00     0.124 S 
ATOM     68  O   UNL     1      -4.405   8.858  10.323  1.00  0.00    -0.237 OA
ATOM     69  O   UNL     1      -2.732  10.651   9.964  1.00  0.00    -0.237 OA
ATOM     70  O   UNL     1      -5.136  11.135   9.737  1.00  0.00    -0.744 OA
ENDBRANCH  63  67
ENDBRANCH  46  60
BRANCH  47  71
ATOM     71  C   UNL     1       1.975   0.027   4.298  1.00  0.00     0.023 A 
ATOM     72  C   UNL     1       1.360  -1.244   4.096  1.00  0.00     0.031 A 
ATOM     73  C   UNL     1       2.382   0.711   3.143  1.00  0.00     0.131 A 
ATOM     74  C   UNL     1       1.020  -1.694   2.806  1.00  0.00     0.055 A 
ATOM     75  C   UNL     1       2.127   0.206   1.852  1.00  0.00     0.041 A 
ATOM     76  F   UNL     1       2.933   1.930   3.226  1.00  0.00    -0.206 F 
ATOM     77  C   UNL     1       1.412  -0.980   1.677  1.00  0.00     0.022 A 
BRANCH  74  78
ATOM     78  S   UNL     1      -0.200  -3.043   2.643  1.00  0.00     0.124 S 
ATOM     79  O   UNL     1       0.603  -4.223   2.945  1.00  0.00    -0.237 OA
ATOM     80  O   UNL     1      -1.205  -2.680   3.641  1.00  0.00    -0.237 OA
ATOM     81  O   UNL     1      -0.653  -2.931   1.258  1.00  0.00    -0.744 OA
ENDBRANCH  74  78
ENDBRANCH  47  71
BRANCH  59  82
ATOM     82  C   UNL     1       3.128   6.280   7.986  1.00  0.00     0.023 A 
ATOM     83  C   UNL     1       4.352   5.926   8.548  1.00  0.00     0.031 A 
ATOM     84  C   UNL     1       2.857   7.668   7.905  1.00  0.00     0.131 A 
ATOM     85  C   UNL     1       5.321   6.900   8.803  1.00  0.00     0.055 A 
ATOM     86  C   UNL     1       3.771   8.641   8.303  1.00  0.00     0.041 A 
ATOM     87  F   UNL     1       1.724   8.157   7.384  1.00  0.00    -0.206 F 
ATOM     88  C   UNL     1       5.035   8.259   8.714  1.00  0.00     0.022 A 
BRANCH  85  89
ATOM     89  S   UNL     1       7.007   6.328   9.090  1.00  0.00     0.124 S 
ATOM     90  O   UNL     1       6.835   5.348  10.157  1.00  0.00    -0.237 OA
ATOM     91  O   UNL     1       7.354   5.780   7.780  1.00  0.00    -0.237 OA
ATOM     92  O   UNL     1       7.722   7.545   9.465  1.00  0.00    -0.744 OA
ENDBRANCH  85  89
ENDBRANCH  59  82
ENDBRANCH  33  34
ENDBRANCH  26  28
ENDBRANCH  25  26
ENDBRANCH  24  25
ENDBRANCH   1  24
TORSDOF 20
