REMARK SMILES CC[NH2+][C@@]1(C(=O)OCCOC(=O)c2ccc(-c3c4nc(c(-c5cc(S(=O)(=O)[O-])ccc5F)c5ccc([nH]5)c(-c5cc(S(=O)(=O)[O-])ccc5F)c5nc(c(-c6cc(S(=O)(=O)[O-])ccc6F)c6ccc3[nH]6)C=C5)C=C4)cc2)CC[C@@H](Oc2cccc(OC)c2)C1
REMARK SMILES IDX 8 1 7 2 5 3 6 4 4 5 76 6 88 7 77 8 78 9 3 10 2 13 1 14 79 15
REMARK SMILES IDX 80 16 81 17 87 18 82 19 84 20 83 21 85 22 86 23 9 24 10 25
REMARK SMILES IDX 11 26 12 27 13 28 14 29 75 30 15 31 74 32 16 33 17 34 18 35
REMARK SMILES IDX 68 36 19 37 73 38 67 39 69 40 20 41 72 42 66 43 65 44 21 46
REMARK SMILES IDX 53 47 33 48 52 49 34 50 37 51 51 52 70 53 35 54 36 55 50 57
REMARK SMILES IDX 71 58 38 59 22 60 23 61 31 62 24 63 30 64 32 65 29 66 25 67
REMARK SMILES IDX 26 68 27 69 28 70 54 71 55 72 63 73 56 74 62 75 64 76 61 77
REMARK SMILES IDX 57 78 58 79 59 80 60 81 39 82 40 83 48 84 41 85 47 86 49 87
REMARK SMILES IDX 46 88 42 89 43 90 44 91 45 92
REMARK H PARENT 3 11 3 12 69 45 37 56
REMARK Flexibility Score: inf
ROOT
ATOM      1  C   UNL     1      -3.030   1.707  -4.557  1.00  0.00     0.274 C 
ENDROOT
BRANCH   1   2
ATOM      2  O   UNL     1      -1.636   2.030  -4.396  1.00  0.00    -0.457 OA
BRANCH   2   3
ATOM      3  C   UNL     1      -1.186   2.178  -3.114  1.00  0.00     0.368 C 
ATOM      4  O   UNL     1      -1.935   2.228  -2.145  1.00  0.00    -0.245 OA
BRANCH   3   5
ATOM      5  C   UNL     1       0.372   2.354  -3.053  1.00  0.00     0.198 C 
ATOM      6  C   UNL     1       0.731   3.836  -2.877  1.00  0.00     0.085 C 
ATOM      7  C   UNL     1       1.056   1.968  -4.388  1.00  0.00     0.126 C 
ATOM      8  C   UNL     1       0.713   4.406  -4.289  1.00  0.00     0.052 C 
ATOM      9  C   UNL     1       1.246   3.274  -5.173  1.00  0.00     0.180 C 
BRANCH   5  10
ATOM     10  N   UNL     1       0.943   1.487  -1.988  1.00  0.00    -0.332 N 
ATOM     11  H   UNL     1       0.565   0.548  -2.115  1.00  0.00     0.347 HD
ATOM     12  H   UNL     1       1.955   1.552  -2.098  1.00  0.00     0.347 HD
BRANCH  10  13
ATOM     13  C   UNL     1       0.674   1.893  -0.607  1.00  0.00     0.257 C 
ATOM     14  C   UNL     1       1.156   0.791   0.328  1.00  0.00     0.071 C 
ENDBRANCH  10  13
ENDBRANCH   5  10
BRANCH   9  15
ATOM     15  O   UNL     1       2.559   3.485  -5.724  1.00  0.00    -0.490 OA
BRANCH  15  16
ATOM     16  C   UNL     1       3.595   3.618  -4.841  1.00  0.00     0.123 A 
ATOM     17  C   UNL     1       4.054   4.894  -4.519  1.00  0.00     0.047 A 
ATOM     18  C   UNL     1       4.289   2.493  -4.392  1.00  0.00     0.092 A 
ATOM     19  C   UNL     1       5.154   5.043  -3.675  1.00  0.00     0.008 A 
ATOM     20  C   UNL     1       5.356   2.634  -3.505  1.00  0.00     0.122 A 
ATOM     21  C   UNL     1       5.792   3.914  -3.159  1.00  0.00     0.046 A 
BRANCH  20  22
ATOM     22  O   UNL     1       6.060   1.606  -2.942  1.00  0.00    -0.497 OA
ATOM     23  C   UNL     1       5.420   0.332  -2.934  1.00  0.00     0.278 C 
ENDBRANCH  20  22
ENDBRANCH  15  16
ENDBRANCH   9  15
ENDBRANCH   3   5
ENDBRANCH   2   3
ENDBRANCH   1   2
BRANCH   1  24
ATOM     24  C   UNL     1      -3.178   0.312  -5.166  1.00  0.00     0.275 C 
BRANCH  24  25
ATOM     25  O   UNL     1      -2.619  -0.686  -4.290  1.00  0.00    -0.458 OA
BRANCH  25  26
ATOM     26  C   UNL     1      -1.476  -1.269  -4.730  1.00  0.00     0.338 C 
ATOM     27  O   UNL     1      -0.924  -1.088  -5.801  1.00  0.00    -0.246 OA
BRANCH  26  28
ATOM     28  C   UNL     1      -0.888  -2.080  -3.651  1.00  0.00     0.060 A 
ATOM     29  C   UNL     1       0.305  -1.629  -3.087  1.00  0.00     0.016 A 
ATOM     30  C   UNL     1      -1.443  -3.296  -3.248  1.00  0.00     0.016 A 
ATOM     31  C   UNL     1       0.942  -2.376  -2.101  1.00  0.00     0.010 A 
ATOM     32  C   UNL     1      -0.791  -4.059  -2.266  1.00  0.00     0.010 A 
ATOM     33  C   UNL     1       0.408  -3.603  -1.690  1.00  0.00    -0.014 A 
BRANCH  33  34
ATOM     34  C   UNL     1       1.169  -4.416  -0.708  1.00  0.00     0.031 A 
ATOM     35  C   UNL     1       2.083  -5.505  -1.195  1.00  0.00     0.074 A 
ATOM     36  C   UNL     1       1.120  -4.111   0.603  1.00  0.00     0.049 A 
ATOM     37  N   UNL     1       2.866  -6.298  -0.510  1.00  0.00    -0.248 NA
ATOM     38  C   UNL     1       2.126  -5.721  -2.649  1.00  0.00     0.031 C 
ATOM     39  C   UNL     1       0.317  -3.035   1.185  1.00  0.00     0.029 A 
ATOM     40  N   UNL     1       1.775  -4.658   1.677  1.00  0.00    -0.354 N 
ATOM     41  C   UNL     1       3.507  -7.101  -1.446  1.00  0.00     0.074 A 
ATOM     42  C   UNL     1       2.995  -6.718  -2.747  1.00  0.00     0.031 C 
ATOM     43  C   UNL     1       0.543  -2.989   2.509  1.00  0.00     0.029 A 
ATOM     44  C   UNL     1       1.471  -4.055   2.877  1.00  0.00     0.049 A 
ATOM     45  H   UNL     1       2.404  -5.411   1.598  1.00  0.00     0.167 HD
ATOM     46  C   UNL     1       4.441  -8.063  -1.242  1.00  0.00     0.034 A 
ATOM     47  C   UNL     1       1.883  -4.343   4.129  1.00  0.00     0.034 A 
ATOM     48  C   UNL     1       4.922  -8.461   0.059  1.00  0.00     0.049 A 
ATOM     49  C   UNL     1       2.853  -5.483   4.333  1.00  0.00     0.074 A 
ATOM     50  C   UNL     1       5.819  -9.466   0.379  1.00  0.00     0.029 A 
ATOM     51  N   UNL     1       4.543  -7.874   1.259  1.00  0.00    -0.354 N 
ATOM     52  N   UNL     1       3.424  -6.257   3.438  1.00  0.00    -0.248 NA
ATOM     53  C   UNL     1       3.237  -5.783   5.719  1.00  0.00     0.031 C 
ATOM     54  C   UNL     1       5.944  -9.520   1.773  1.00  0.00     0.029 A 
ATOM     55  C   UNL     1       5.174  -8.507   2.321  1.00  0.00     0.049 A 
ATOM     56  H   UNL     1       3.918  -7.119   1.345  1.00  0.00     0.167 HD
ATOM     57  C   UNL     1       4.248  -7.120   4.156  1.00  0.00     0.074 A 
ATOM     58  C   UNL     1       4.126  -6.750   5.550  1.00  0.00     0.031 C 
ATOM     59  C   UNL     1       5.032  -8.134   3.707  1.00  0.00     0.034 A 
BRANCH  46  60
ATOM     60  C   UNL     1       4.957  -8.786  -2.459  1.00  0.00     0.023 A 
ATOM     61  C   UNL     1       5.758  -8.137  -3.415  1.00  0.00     0.031 A 
ATOM     62  C   UNL     1       4.624 -10.134  -2.680  1.00  0.00     0.131 A 
ATOM     63  C   UNL     1       6.155  -8.821  -4.574  1.00  0.00     0.055 A 
ATOM     64  C   UNL     1       5.076 -10.828  -3.803  1.00  0.00     0.041 A 
ATOM     65  F   UNL     1       3.843 -10.795  -1.811  1.00  0.00    -0.206 F 
ATOM     66  C   UNL     1       5.838 -10.169  -4.764  1.00  0.00     0.022 A 
BRANCH  63  67
ATOM     67  S   UNL     1       7.002  -7.896  -5.884  1.00  0.00     0.124 S 
ATOM     68  O   UNL     1       5.988  -6.909  -6.250  1.00  0.00    -0.237 OA
ATOM     69  O   UNL     1       8.178  -7.378  -5.196  1.00  0.00    -0.237 OA
ATOM     70  O   UNL     1       7.270  -8.911  -6.901  1.00  0.00    -0.744 OA
ENDBRANCH  63  67
ENDBRANCH  46  60
BRANCH  47  71
ATOM     71  C   UNL     1       1.353  -3.591   5.304  1.00  0.00     0.023 A 
ATOM     72  C   UNL     1       2.210  -2.876   6.157  1.00  0.00     0.031 A 
ATOM     73  C   UNL     1      -0.008  -3.663   5.650  1.00  0.00     0.131 A 
ATOM     74  C   UNL     1       1.711  -2.320   7.346  1.00  0.00     0.055 A 
ATOM     75  C   UNL     1      -0.511  -3.055   6.802  1.00  0.00     0.041 A 
ATOM     76  F   UNL     1      -0.872  -4.339   4.875  1.00  0.00    -0.206 F 
ATOM     77  C   UNL     1       0.354  -2.395   7.668  1.00  0.00     0.022 A 
BRANCH  74  78
ATOM     78  S   UNL     1       2.885  -1.607   8.532  1.00  0.00     0.124 S 
ATOM     79  O   UNL     1       3.821  -2.708   8.724  1.00  0.00    -0.237 OA
ATOM     80  O   UNL     1       3.393  -0.454   7.797  1.00  0.00    -0.237 OA
ATOM     81  O   UNL     1       2.049  -1.289   9.688  1.00  0.00    -0.744 OA
ENDBRANCH  74  78
ENDBRANCH  47  71
BRANCH  59  82
ATOM     82  C   UNL     1       5.835  -8.881   4.744  1.00  0.00     0.023 A 
ATOM     83  C   UNL     1       5.215  -9.674   5.726  1.00  0.00     0.031 A 
ATOM     84  C   UNL     1       7.236  -8.762   4.777  1.00  0.00     0.131 A 
ATOM     85  C   UNL     1       5.985 -10.263   6.739  1.00  0.00     0.055 A 
ATOM     86  C   UNL     1       8.003  -9.398   5.755  1.00  0.00     0.041 A 
ATOM     87  F   UNL     1       7.881  -8.018   3.865  1.00  0.00    -0.206 F 
ATOM     88  C   UNL     1       7.377 -10.140   6.753  1.00  0.00     0.022 A 
BRANCH  85  89
ATOM     89  S   UNL     1       5.134 -11.105   8.103  1.00  0.00     0.124 S 
ATOM     90  O   UNL     1       4.249 -10.059   8.604  1.00  0.00    -0.237 OA
ATOM     91  O   UNL     1       4.482 -12.219   7.421  1.00  0.00    -0.237 OA
ATOM     92  O   UNL     1       6.221 -11.483   9.005  1.00  0.00    -0.744 OA
ENDBRANCH  85  89
ENDBRANCH  59  82
ENDBRANCH  33  34
ENDBRANCH  26  28
ENDBRANCH  25  26
ENDBRANCH  24  25
ENDBRANCH   1  24
TORSDOF 19
