REMARK SMILES O=C(C[C@H]1S/C(=[NH+]\N=C\c2cc(Br)ccc2OCc2ccccc2)NC1=O)OCCOC(=O)c1ccc(-c2c3nc(c(-c4cc(S(=O)(=O)[O-])ccc4F)c4ccc([nH]4)c(-c4cc(S(=O)(=O)[O-])ccc4F)c4nc(c(-c5cc(S(=O)(=O)[O-])ccc5F)c5ccc2[nH]5)C=C4)C=C3)cc1
REMARK SMILES IDX 28 1 2 2 1 3 3 4 4 5 5 6 26 7 6 8 25 9 27 10 7 11 8 14 9 15
REMARK SMILES IDX 10 16 11 17 16 18 12 19 15 20 13 21 14 22 17 23 18 24 19 25
REMARK SMILES IDX 20 26 24 27 21 28 23 29 22 30 29 31 30 32 31 33 32 34 33 35
REMARK SMILES IDX 34 36 35 37 96 38 36 39 95 40 37 41 38 42 39 43 89 44 40 45
REMARK SMILES IDX 94 46 88 47 90 48 41 49 93 50 87 51 86 52 42 54 74 55 54 56
REMARK SMILES IDX 73 57 55 58 58 59 72 60 91 61 56 62 57 63 71 65 92 66 59 67
REMARK SMILES IDX 43 68 44 69 52 70 45 71 51 72 53 73 50 74 46 75 47 76 48 77
REMARK SMILES IDX 49 78 75 79 76 80 84 81 77 82 83 83 85 84 82 85 78 86 79 87
REMARK SMILES IDX 80 88 81 89 60 90 61 91 69 92 62 93 68 94 70 95 67 96 63 97
REMARK SMILES IDX 64 98 65 99 66 100
REMARK H PARENT 25 12 7 13 90 53 58 64
REMARK Flexibility Score: inf
ROOT
ATOM      1  O   UNL     1       3.303   0.886  -0.927  1.00  0.00    -0.462 OA
ENDROOT
BRANCH   1   2
ATOM      2  C   UNL     1       2.703  -0.312  -0.765  1.00  0.00     0.307 C 
ATOM      3  O   UNL     1       1.621  -0.548  -1.297  1.00  0.00    -0.252 OA
BRANCH   2   4
ATOM      4  C   UNL     1       3.372  -1.361   0.082  1.00  0.00     0.150 C 
BRANCH   4   5
ATOM      5  C   UNL     1       4.314  -2.240  -0.718  1.00  0.00     0.184 C 
ATOM      6  S   UNL     1       4.933  -3.558   0.393  1.00  0.00    -0.020 SA
ATOM      7  C   UNL     1       3.574  -3.007  -1.790  1.00  0.00     0.322 C 
ATOM      8  C   UNL     1       3.730  -4.679  -0.186  1.00  0.00     0.337 C 
ATOM      9  N   UNL     1       3.153  -4.213  -1.319  1.00  0.00    -0.202 N 
ATOM     10  O   UNL     1       3.400  -2.608  -2.932  1.00  0.00    -0.246 OA
ATOM     11  N   UNL     1       3.384  -5.826   0.284  1.00  0.00    -0.142 N 
ATOM     12  H   UNL     1       2.456  -4.727  -1.786  1.00  0.00     0.316 HD
ATOM     13  H   UNL     1       2.652  -6.356  -0.105  1.00  0.00     0.343 HD
BRANCH  11  14
ATOM     14  N   UNL     1       4.118  -6.263   1.382  1.00  0.00    -0.093 NA
ATOM     15  C   UNL     1       3.590  -7.342   1.864  1.00  0.00     0.170 C 
BRANCH  15  16
ATOM     16  C   UNL     1       4.243  -8.107   2.923  1.00  0.00     0.040 A 
ATOM     17  C   UNL     1       4.246  -7.494   4.186  1.00  0.00     0.029 A 
ATOM     18  C   UNL     1       4.769  -9.393   2.737  1.00  0.00     0.128 A 
ATOM     19  C   UNL     1       4.757  -8.179   5.283  1.00  0.00     0.018 A 
ATOM     20  C   UNL     1       5.260 -10.063   3.869  1.00  0.00     0.048 A 
ATOM     21  Br  UNL     1       4.776  -7.357   6.984  1.00  0.00    -0.051 Br
ATOM     22  C   UNL     1       5.252  -9.469   5.134  1.00  0.00     0.019 A 
BRANCH  18  23
ATOM     23  O   UNL     1       4.911 -10.151   1.610  1.00  0.00    -0.488 OA
BRANCH  23  24
ATOM     24  C   UNL     1       4.605  -9.668   0.301  1.00  0.00     0.265 C 
BRANCH  24  25
ATOM     25  C   UNL     1       3.153  -9.886  -0.058  1.00  0.00    -0.011 A 
ATOM     26  C   UNL     1       2.441 -10.984   0.445  1.00  0.00     0.007 A 
ATOM     27  C   UNL     1       2.484  -8.967  -0.881  1.00  0.00     0.007 A 
ATOM     28  C   UNL     1       1.072 -11.107   0.212  1.00  0.00     0.000 A 
ATOM     29  C   UNL     1       1.111  -9.084  -1.103  1.00  0.00     0.000 A 
ATOM     30  C   UNL     1       0.404 -10.146  -0.544  1.00  0.00     0.000 A 
ENDBRANCH  24  25
ENDBRANCH  23  24
ENDBRANCH  18  23
ENDBRANCH  15  16
ENDBRANCH  11  14
ENDBRANCH   4   5
ENDBRANCH   2   4
ENDBRANCH   1   2
BRANCH   1  31
ATOM     31  C   UNL     1       4.617   1.241  -0.449  1.00  0.00     0.274 C 
BRANCH  31  32
ATOM     32  C   UNL     1       4.569   2.048   0.850  1.00  0.00     0.275 C 
BRANCH  32  33
ATOM     33  O   UNL     1       4.116   1.230   1.943  1.00  0.00    -0.458 OA
BRANCH  33  34
ATOM     34  C   UNL     1       2.787   1.313   2.211  1.00  0.00     0.338 C 
ATOM     35  O   UNL     1       1.998   2.074   1.674  1.00  0.00    -0.246 OA
BRANCH  34  36
ATOM     36  C   UNL     1       2.375   0.225   3.130  1.00  0.00     0.060 A 
ATOM     37  C   UNL     1       1.073  -0.274   2.998  1.00  0.00     0.016 A 
ATOM     38  C   UNL     1       3.224  -0.297   4.114  1.00  0.00     0.016 A 
ATOM     39  C   UNL     1       0.594  -1.235   3.889  1.00  0.00     0.010 A 
ATOM     40  C   UNL     1       2.744  -1.268   5.003  1.00  0.00     0.010 A 
ATOM     41  C   UNL     1       1.411  -1.706   4.926  1.00  0.00    -0.014 A 
BRANCH  41  42
ATOM     42  C   UNL     1       0.794  -2.487   6.030  1.00  0.00     0.031 A 
ATOM     43  C   UNL     1       0.405  -1.759   7.293  1.00  0.00     0.074 A 
ATOM     44  C   UNL     1       0.519  -3.798   5.897  1.00  0.00     0.049 A 
ATOM     45  N   UNL     1      -0.220  -2.203   8.353  1.00  0.00    -0.248 NA
ATOM     46  C   UNL     1       0.777  -0.338   7.365  1.00  0.00     0.031 C 
ATOM     47  C   UNL     1       0.823  -4.612   4.720  1.00  0.00     0.029 A 
ATOM     48  N   UNL     1      -0.095  -4.672   6.760  1.00  0.00    -0.354 N 
ATOM     49  C   UNL     1      -0.328  -1.114   9.213  1.00  0.00     0.074 A 
ATOM     50  C   UNL     1       0.350  -0.006   8.573  1.00  0.00     0.031 C 
ATOM     51  C   UNL     1       0.382  -5.865   4.932  1.00  0.00     0.029 A 
ATOM     52  C   UNL     1      -0.216  -5.949   6.265  1.00  0.00     0.049 A 
ATOM     53  H   UNL     1      -0.418  -4.409   7.652  1.00  0.00     0.167 HD
ATOM     54  C   UNL     1      -0.950  -1.034  10.416  1.00  0.00     0.034 A 
ATOM     55  C   UNL     1      -0.749  -7.056   6.824  1.00  0.00     0.034 A 
ATOM     56  C   UNL     1      -1.608  -2.146  11.055  1.00  0.00     0.049 A 
ATOM     57  C   UNL     1      -1.364  -6.964   8.203  1.00  0.00     0.074 A 
ATOM     58  C   UNL     1      -2.285  -2.171  12.262  1.00  0.00     0.029 A 
ATOM     59  N   UNL     1      -1.659  -3.438  10.547  1.00  0.00    -0.354 N 
ATOM     60  N   UNL     1      -1.495  -5.918   8.986  1.00  0.00    -0.248 NA
ATOM     61  C   UNL     1      -1.917  -8.205   8.764  1.00  0.00     0.031 C 
ATOM     62  C   UNL     1      -2.682  -3.489  12.517  1.00  0.00     0.029 A 
ATOM     63  C   UNL     1      -2.326  -4.273  11.431  1.00  0.00     0.049 A 
ATOM     64  H   UNL     1      -1.278  -3.720   9.684  1.00  0.00     0.167 HD
ATOM     65  C   UNL     1      -2.187  -6.368  10.110  1.00  0.00     0.074 A 
ATOM     66  C   UNL     1      -2.447  -7.777   9.899  1.00  0.00     0.031 C 
ATOM     67  C   UNL     1      -2.581  -5.678  11.212  1.00  0.00     0.034 A 
BRANCH  54  68
ATOM     68  C   UNL     1      -0.900   0.296  11.130  1.00  0.00     0.023 A 
ATOM     69  C   UNL     1      -1.506   1.447  10.594  1.00  0.00     0.031 A 
ATOM     70  C   UNL     1      -0.199   0.426  12.341  1.00  0.00     0.131 A 
ATOM     71  C   UNL     1      -1.333   2.688  11.225  1.00  0.00     0.055 A 
ATOM     72  C   UNL     1      -0.100   1.649  13.007  1.00  0.00     0.041 A 
ATOM     73  F   UNL     1       0.420  -0.631  12.890  1.00  0.00    -0.206 F 
ATOM     74  C   UNL     1      -0.655   2.793  12.441  1.00  0.00     0.022 A 
BRANCH  71  75
ATOM     75  S   UNL     1      -1.874   4.186  10.356  1.00  0.00     0.124 S 
ATOM     76  O   UNL     1      -1.105   4.103   9.117  1.00  0.00    -0.237 OA
ATOM     77  O   UNL     1      -3.312   3.978  10.233  1.00  0.00    -0.237 OA
ATOM     78  O   UNL     1      -1.475   5.267  11.255  1.00  0.00    -0.744 OA
ENDBRANCH  71  75
ENDBRANCH  54  68
BRANCH  55  79
ATOM     79  C   UNL     1      -0.713  -8.365   6.105  1.00  0.00     0.023 A 
ATOM     80  C   UNL     1      -1.892  -9.028   5.728  1.00  0.00     0.031 A 
ATOM     81  C   UNL     1       0.511  -9.009   5.855  1.00  0.00     0.131 A 
ATOM     82  C   UNL     1      -1.823 -10.315   5.170  1.00  0.00     0.055 A 
ATOM     83  C   UNL     1       0.579 -10.265   5.252  1.00  0.00     0.041 A 
ATOM     84  F   UNL     1       1.665  -8.421   6.202  1.00  0.00    -0.206 F 
ATOM     85  C   UNL     1      -0.595 -10.933   4.920  1.00  0.00     0.022 A 
BRANCH  82  86
ATOM     86  S   UNL     1      -3.368 -11.215   4.858  1.00  0.00     0.124 S 
ATOM     87  O   UNL     1      -3.963 -11.256   6.188  1.00  0.00    -0.237 OA
ATOM     88  O   UNL     1      -4.028 -10.354   3.883  1.00  0.00    -0.237 OA
ATOM     89  O   UNL     1      -2.911 -12.503   4.338  1.00  0.00    -0.744 OA
ENDBRANCH  82  86
ENDBRANCH  55  79
BRANCH  67  90
ATOM     90  C   UNL     1      -3.400  -6.425  12.240  1.00  0.00     0.023 A 
ATOM     91  C   UNL     1      -2.866  -7.484  12.996  1.00  0.00     0.031 A 
ATOM     92  C   UNL     1      -4.747  -6.079  12.451  1.00  0.00     0.131 A 
ATOM     93  C   UNL     1      -3.690  -8.197  13.881  1.00  0.00     0.055 A 
ATOM     94  C   UNL     1      -5.545  -6.752  13.377  1.00  0.00     0.041 A 
ATOM     95  F   UNL     1      -5.312  -5.077  11.758  1.00  0.00    -0.206 F 
ATOM     96  C   UNL     1      -5.022  -7.828  14.087  1.00  0.00     0.022 A 
BRANCH  93  97
ATOM     97  S   UNL     1      -3.030  -9.685  14.684  1.00  0.00     0.124 S 
ATOM     98  O   UNL     1      -2.592 -10.480  13.541  1.00  0.00    -0.237 OA
ATOM     99  O   UNL     1      -1.969  -9.140  15.525  1.00  0.00    -0.237 OA
ATOM    100  O   UNL     1      -4.180 -10.223  15.408  1.00  0.00    -0.744 OA
ENDBRANCH  93  97
ENDBRANCH  67  90
ENDBRANCH  41  42
ENDBRANCH  34  36
ENDBRANCH  33  34
ENDBRANCH  32  33
ENDBRANCH  31  32
ENDBRANCH   1  31
TORSDOF 20
