REMARK SMILES COc1ccc([C@H]2C[NH2+]C[C@@H]2C(=O)OCCOC(=O)c2ccc(-c3c4nc(c(-c5cc(S(=O)(=O)[O-])ccc5F)c5ccc([nH]5)c(-c5cc(S(=O)(=O)[O-])ccc5F)c5nc(c(-c6cc(S(=O)(=O)[O-])ccc6F)c6ccc3[nH]6)C=C5)C=C4)cc2)cc1
REMARK SMILES IDX 16 1 15 2 14 3 12 4 13 5 11 6 7 7 8 8 9 9 10 10 6 13 3 14
REMARK SMILES IDX 4 15 84 16 5 17 83 18 2 19 1 20 17 21 18 22 19 23 20 24
REMARK SMILES IDX 21 25 82 26 22 27 81 28 23 29 24 30 25 31 75 32 26 33 80 34
REMARK SMILES IDX 74 35 76 36 27 37 79 38 73 39 72 40 28 42 60 43 40 44 59 45
REMARK SMILES IDX 41 46 44 47 58 48 77 49 42 50 43 51 57 53 78 54 45 55 29 56
REMARK SMILES IDX 30 57 38 58 31 59 37 60 39 61 36 62 32 63 33 64 34 65 35 66
REMARK SMILES IDX 61 67 62 68 70 69 63 70 69 71 71 72 68 73 64 74 65 75 66 76
REMARK SMILES IDX 67 77 46 78 47 79 55 80 48 81 54 82 56 83 53 84 49 85 50 86
REMARK SMILES IDX 51 87 52 88
REMARK H PARENT 9 11 9 12 76 41 44 52
REMARK Flexibility Score: inf
ROOT
ATOM      1  C   UNL     1       4.925   2.744   1.644  1.00  0.00     0.275 C 
ENDROOT
BRANCH   1   2
ATOM      2  C   UNL     1       3.884   2.870   2.754  1.00  0.00     0.274 C 
BRANCH   2   3
ATOM      3  O   UNL     1       2.961   3.948   2.471  1.00  0.00    -0.462 OA
BRANCH   3   4
ATOM      4  C   UNL     1       3.105   5.055   3.248  1.00  0.00     0.315 C 
ATOM      5  O   UNL     1       3.911   5.139   4.170  1.00  0.00    -0.252 OA
BRANCH   4   6
ATOM      6  C   UNL     1       2.081   6.146   2.960  1.00  0.00     0.167 C 
ATOM      7  C   UNL     1       1.467   6.195   1.548  1.00  0.00     0.094 C 
ATOM      8  C   UNL     1       2.567   6.955   0.799  1.00  0.00     0.269 C 
ATOM      9  N   UNL     1       2.993   8.015   1.723  1.00  0.00    -0.345 N 
ATOM     10  C   UNL     1       2.784   7.505   3.087  1.00  0.00     0.276 C 
ATOM     11  H   UNL     1       2.433   8.855   1.574  1.00  0.00     0.346 HD
ATOM     12  H   UNL     1       3.971   8.261   1.571  1.00  0.00     0.346 HD
BRANCH   7  13
ATOM     13  C   UNL     1       0.151   6.974   1.400  1.00  0.00    -0.038 A 
ATOM     14  C   UNL     1      -1.999   8.749   0.972  1.00  0.00     0.118 A 
ATOM     15  C   UNL     1      -1.433   8.069  -0.102  1.00  0.00     0.047 A 
ATOM     16  C   UNL     1      -1.567   8.471   2.265  1.00  0.00     0.047 A 
ATOM     17  C   UNL     1      -0.371   7.184   0.110  1.00  0.00     0.008 A 
ATOM     18  C   UNL     1      -0.504   7.589   2.477  1.00  0.00     0.008 A 
BRANCH  14  19
ATOM     19  O   UNL     1      -2.982   9.652   0.676  1.00  0.00    -0.497 OA
ATOM     20  C   UNL     1      -2.913  10.846   1.456  1.00  0.00     0.278 C 
ENDBRANCH  14  19
ENDBRANCH   7  13
ENDBRANCH   4   6
ENDBRANCH   3   4
ENDBRANCH   2   3
ENDBRANCH   1   2
BRANCH   1  21
ATOM     21  O   UNL     1       5.586   4.007   1.479  1.00  0.00    -0.458 OA
BRANCH  21  22
ATOM     22  C   UNL     1       5.986   4.301   0.216  1.00  0.00     0.338 C 
ATOM     23  O   UNL     1       5.984   3.532  -0.730  1.00  0.00    -0.246 OA
BRANCH  22  24
ATOM     24  C   UNL     1       6.363   5.737   0.119  1.00  0.00     0.060 A 
ATOM     25  C   UNL     1       5.973   6.653   1.095  1.00  0.00     0.016 A 
ATOM     26  C   UNL     1       7.009   6.205  -1.028  1.00  0.00     0.016 A 
ATOM     27  C   UNL     1       6.107   8.024   0.867  1.00  0.00     0.010 A 
ATOM     28  C   UNL     1       7.245   7.580  -1.195  1.00  0.00     0.010 A 
ATOM     29  C   UNL     1       6.759   8.520  -0.269  1.00  0.00    -0.014 A 
BRANCH  29  30
ATOM     30  C   UNL     1       6.886   9.993  -0.514  1.00  0.00     0.031 A 
ATOM     31  C   UNL     1       6.481  10.577  -1.849  1.00  0.00     0.074 A 
ATOM     32  C   UNL     1       7.351  10.834   0.436  1.00  0.00     0.049 A 
ATOM     33  N   UNL     1       6.803  11.728  -2.385  1.00  0.00    -0.248 NA
ATOM     34  C   UNL     1       5.620   9.743  -2.701  1.00  0.00     0.031 C 
ATOM     35  C   UNL     1       7.710  10.462   1.806  1.00  0.00     0.029 A 
ATOM     36  N   UNL     1       7.601  12.187   0.394  1.00  0.00    -0.354 N 
ATOM     37  C   UNL     1       6.268  11.715  -3.671  1.00  0.00     0.074 A 
ATOM     38  C   UNL     1       5.579  10.450  -3.823  1.00  0.00     0.031 C 
ATOM     39  C   UNL     1       8.083  11.558   2.482  1.00  0.00     0.029 A 
ATOM     40  C   UNL     1       8.125  12.689   1.565  1.00  0.00     0.049 A 
ATOM     41  H   UNL     1       7.422  12.744  -0.398  1.00  0.00     0.167 HD
ATOM     42  C   UNL     1       6.363  12.664  -4.636  1.00  0.00     0.034 A 
ATOM     43  C   UNL     1       8.655  13.893   1.859  1.00  0.00     0.034 A 
ATOM     44  C   UNL     1       6.971  13.959  -4.437  1.00  0.00     0.049 A 
ATOM     45  C   UNL     1       8.761  14.930   0.774  1.00  0.00     0.074 A 
ATOM     46  C   UNL     1       7.109  14.997  -5.345  1.00  0.00     0.029 A 
ATOM     47  N   UNL     1       7.516  14.407  -3.242  1.00  0.00    -0.354 N 
ATOM     48  N   UNL     1       8.386  14.852  -0.481  1.00  0.00    -0.248 NA
ATOM     49  C   UNL     1       9.392  16.206   1.137  1.00  0.00     0.031 C 
ATOM     50  C   UNL     1       7.774  16.053  -4.712  1.00  0.00     0.029 A 
ATOM     51  C   UNL     1       7.998  15.699  -3.392  1.00  0.00     0.049 A 
ATOM     52  H   UNL     1       7.554  13.884  -2.409  1.00  0.00     0.167 HD
ATOM     53  C   UNL     1       8.738  16.069  -1.056  1.00  0.00     0.074 A 
ATOM     54  C   UNL     1       9.326  16.874  -0.005  1.00  0.00     0.031 C 
ATOM     55  C   UNL     1       8.598  16.482  -2.340  1.00  0.00     0.034 A 
BRANCH  42  56
ATOM     56  C   UNL     1       5.870  12.315  -6.019  1.00  0.00     0.023 A 
ATOM     57  C   UNL     1       4.510  12.134  -6.319  1.00  0.00     0.031 A 
ATOM     58  C   UNL     1       6.801  12.168  -7.066  1.00  0.00     0.131 A 
ATOM     59  C   UNL     1       4.125  11.770  -7.620  1.00  0.00     0.055 A 
ATOM     60  C   UNL     1       6.406  11.873  -8.371  1.00  0.00     0.041 A 
ATOM     61  F   UNL     1       8.116  12.311  -6.834  1.00  0.00    -0.206 F 
ATOM     62  C   UNL     1       5.061  11.662  -8.653  1.00  0.00     0.022 A 
BRANCH  59  63
ATOM     63  S   UNL     1       2.390  11.338  -7.928  1.00  0.00     0.124 S 
ATOM     64  O   UNL     1       2.204  10.201  -7.030  1.00  0.00    -0.237 OA
ATOM     65  O   UNL     1       1.689  12.563  -7.561  1.00  0.00    -0.237 OA
ATOM     66  O   UNL     1       2.365  11.009  -9.352  1.00  0.00    -0.744 OA
ENDBRANCH  59  63
ENDBRANCH  42  56
BRANCH  43  67
ATOM     67  C   UNL     1       9.237  14.149   3.210  1.00  0.00     0.023 A 
ATOM     68  C   UNL     1       8.709  15.136   4.056  1.00  0.00     0.031 A 
ATOM     69  C   UNL     1      10.363  13.431   3.656  1.00  0.00     0.131 A 
ATOM     70  C   UNL     1       9.323  15.399   5.291  1.00  0.00     0.055 A 
ATOM     71  C   UNL     1      10.933  13.654   4.910  1.00  0.00     0.041 A 
ATOM     72  F   UNL     1      10.915  12.483   2.883  1.00  0.00    -0.206 F 
ATOM     73  C   UNL     1      10.419  14.652   5.731  1.00  0.00     0.022 A 
BRANCH  70  74
ATOM     74  S   UNL     1       8.724  16.795   6.281  1.00  0.00     0.124 S 
ATOM     75  O   UNL     1       8.872  17.907   5.349  1.00  0.00    -0.237 OA
ATOM     76  O   UNL     1       7.356  16.388   6.583  1.00  0.00    -0.237 OA
ATOM     77  O   UNL     1       9.633  16.815   7.426  1.00  0.00    -0.744 OA
ENDBRANCH  70  74
ENDBRANCH  43  67
BRANCH  55  78
ATOM     78  C   UNL     1       9.062  17.880  -2.656  1.00  0.00     0.023 A 
ATOM     79  C   UNL     1      10.426  18.218  -2.663  1.00  0.00     0.031 A 
ATOM     80  C   UNL     1       8.124  18.894  -2.917  1.00  0.00     0.131 A 
ATOM     81  C   UNL     1      10.814  19.550  -2.874  1.00  0.00     0.055 A 
ATOM     82  C   UNL     1       8.518  20.207  -3.175  1.00  0.00     0.041 A 
ATOM     83  F   UNL     1       6.809  18.623  -2.919  1.00  0.00    -0.206 F 
ATOM     84  C   UNL     1       9.868  20.544  -3.142  1.00  0.00     0.022 A 
BRANCH  81  85
ATOM     85  S   UNL     1      12.567  19.985  -2.712  1.00  0.00     0.124 S 
ATOM     86  O   UNL     1      12.853  19.588  -1.337  1.00  0.00    -0.237 OA
ATOM     87  O   UNL     1      13.189  19.172  -3.752  1.00  0.00    -0.237 OA
ATOM     88  O   UNL     1      12.588  21.425  -2.958  1.00  0.00    -0.744 OA
ENDBRANCH  81  85
ENDBRANCH  55  78
ENDBRANCH  29  30
ENDBRANCH  22  24
ENDBRANCH  21  22
ENDBRANCH   1  21
TORSDOF 16
