REMARK SMILES Cc1cc(C)nc(N2CCCC[C@H]2C(=O)OCCOC(=O)c2ccc(-c3c4nc(c(-c5cc(S(=O)(=O)[O-])ccc5F)c5ccc([nH]5)c(-c5cc(S(=O)(=O)[O-])ccc5F)c5nc(c(-c6cc(S(=O)(=O)[O-])ccc6F)c6ccc3[nH]6)C=C5)C=C4)cc2)n1
REMARK SMILES IDX 18 1 17 2 16 3 14 4 15 5 13 6 8 7 9 8 10 9 12 10 11 11 7 12
REMARK SMILES IDX 1 13 2 14 3 15 85 16 4 17 5 18 6 19 19 20 20 21 21 22 22 23
REMARK SMILES IDX 23 24 84 25 24 26 83 27 25 28 26 29 27 30 77 31 28 32 82 33
REMARK SMILES IDX 76 34 78 35 29 36 81 37 75 38 74 39 30 41 62 42 42 43 61 44
REMARK SMILES IDX 43 45 46 46 60 47 79 48 44 49 45 50 59 52 80 53 47 54 31 55
REMARK SMILES IDX 32 56 40 57 33 58 39 59 41 60 38 61 34 62 35 63 36 64 37 65
REMARK SMILES IDX 63 66 64 67 72 68 65 69 71 70 73 71 70 72 66 73 67 74 68 75
REMARK SMILES IDX 69 76 48 77 49 78 57 79 50 80 56 81 58 82 55 83 51 84 52 85
REMARK SMILES IDX 53 86 54 87
REMARK H PARENT 78 40 46 51
REMARK Flexibility Score: inf
ROOT
ATOM      1  C   UNL     1       5.114  -3.608   1.604  1.00  0.00     0.275 C 
ENDROOT
BRANCH   1   2
ATOM      2  C   UNL     1       4.258  -3.078   0.460  1.00  0.00     0.274 C 
BRANCH   2   3
ATOM      3  O   UNL     1       2.904  -2.857   0.901  1.00  0.00    -0.461 OA
BRANCH   3   4
ATOM      4  C   UNL     1       1.950  -3.670   0.356  1.00  0.00     0.328 C 
ATOM      5  O   UNL     1       2.197  -4.628  -0.370  1.00  0.00    -0.250 OA
BRANCH   4   6
ATOM      6  C   UNL     1       0.532  -3.205   0.745  1.00  0.00     0.195 C 
ATOM      7  N   UNL     1      -0.177  -2.663  -0.408  1.00  0.00    -0.327 N 
ATOM      8  C   UNL     1      -0.584  -3.536  -1.488  1.00  0.00     0.120 C 
ATOM      9  C   UNL     1      -1.378  -4.726  -0.939  1.00  0.00     0.022 C 
ATOM     10  C   UNL     1      -0.373  -4.297   1.334  1.00  0.00     0.037 C 
ATOM     11  C   UNL     1      -0.748  -5.362   0.303  1.00  0.00     0.005 C 
BRANCH   7  12
ATOM     12  C   UNL     1      -0.124  -1.310  -0.568  1.00  0.00     0.226 A 
ATOM     13  C   UNL     1       2.397   1.301  -0.115  1.00  0.00     0.067 C 
ATOM     14  C   UNL     1       1.064   0.642  -0.296  1.00  0.00     0.043 A 
ATOM     15  C   UNL     1      -0.098   1.381  -0.286  1.00  0.00     0.047 A 
ATOM     16  N   UNL     1       1.059  -0.697  -0.413  1.00  0.00    -0.218 NA
ATOM     17  C   UNL     1      -1.271   0.673  -0.446  1.00  0.00     0.043 A 
ATOM     18  C   UNL     1      -2.598   1.359  -0.337  1.00  0.00     0.067 C 
ATOM     19  N   UNL     1      -1.291  -0.659  -0.635  1.00  0.00    -0.218 NA
ENDBRANCH   7  12
ENDBRANCH   4   6
ENDBRANCH   3   4
ENDBRANCH   2   3
ENDBRANCH   1   2
BRANCH   1  20
ATOM     20  O   UNL     1       4.622  -4.900   1.996  1.00  0.00    -0.458 OA
BRANCH  20  21
ATOM     21  C   UNL     1       4.161  -4.994   3.262  1.00  0.00     0.338 C 
ATOM     22  O   UNL     1       4.230  -4.155   4.147  1.00  0.00    -0.246 OA
BRANCH  21  23
ATOM     23  C   UNL     1       3.453  -6.272   3.409  1.00  0.00     0.060 A 
ATOM     24  C   UNL     1       2.229  -6.421   2.763  1.00  0.00     0.016 A 
ATOM     25  C   UNL     1       3.921  -7.263   4.265  1.00  0.00     0.016 A 
ATOM     26  C   UNL     1       1.415  -7.514   3.033  1.00  0.00     0.010 A 
ATOM     27  C   UNL     1       3.141  -8.408   4.470  1.00  0.00     0.010 A 
ATOM     28  C   UNL     1       1.863  -8.527   3.887  1.00  0.00    -0.014 A 
BRANCH  28  29
ATOM     29  C   UNL     1       0.970  -9.664   4.236  1.00  0.00     0.031 A 
ATOM     30  C   UNL     1       0.540  -9.852   5.666  1.00  0.00     0.074 A 
ATOM     31  C   UNL     1       0.515 -10.505   3.286  1.00  0.00     0.049 A 
ATOM     32  N   UNL     1      -0.054 -10.872   6.229  1.00  0.00    -0.248 NA
ATOM     33  C   UNL     1       0.827  -8.739   6.585  1.00  0.00     0.031 C 
ATOM     34  C   UNL     1       0.772 -10.382   1.850  1.00  0.00     0.029 A 
ATOM     35  N   UNL     1      -0.264 -11.632   3.387  1.00  0.00    -0.354 N 
ATOM     36  C   UNL     1      -0.165 -10.548   7.578  1.00  0.00     0.074 A 
ATOM     37  C   UNL     1       0.428  -9.238   7.745  1.00  0.00     0.031 C 
ATOM     38  C   UNL     1       0.146 -11.379   1.204  1.00  0.00     0.029 A 
ATOM     39  C   UNL     1      -0.476 -12.264   2.184  1.00  0.00     0.049 A 
ATOM     40  H   UNL     1      -0.634 -11.956   4.239  1.00  0.00     0.167 HD
ATOM     41  C   UNL     1      -0.705 -11.283   8.582  1.00  0.00     0.034 A 
ATOM     42  C   UNL     1      -1.056 -13.449   1.905  1.00  0.00     0.034 A 
ATOM     43  C   UNL     1      -1.320 -12.574   8.389  1.00  0.00     0.049 A 
ATOM     44  C   UNL     1      -1.573 -14.289   3.045  1.00  0.00     0.074 A 
ATOM     45  C   UNL     1      -1.884 -13.414   9.334  1.00  0.00     0.029 A 
ATOM     46  N   UNL     1      -1.459 -13.210   7.162  1.00  0.00    -0.354 N 
ATOM     47  N   UNL     1      -1.583 -14.021   4.331  1.00  0.00    -0.248 NA
ATOM     48  C   UNL     1      -2.135 -15.600   2.698  1.00  0.00     0.031 C 
ATOM     49  C   UNL     1      -2.314 -14.579   8.686  1.00  0.00     0.029 A 
ATOM     50  C   UNL     1      -2.076 -14.440   7.328  1.00  0.00     0.049 A 
ATOM     51  H   UNL     1      -1.161 -12.841   6.299  1.00  0.00     0.167 HD
ATOM     52  C   UNL     1      -2.165 -15.127   4.943  1.00  0.00     0.074 A 
ATOM     53  C   UNL     1      -2.508 -16.055   3.885  1.00  0.00     0.031 C 
ATOM     54  C   UNL     1      -2.395 -15.358   6.261  1.00  0.00     0.034 A 
BRANCH  41  55
ATOM     55  C   UNL     1      -0.575 -10.736   9.982  1.00  0.00     0.023 A 
ATOM     56  C   UNL     1      -1.230  -9.562  10.393  1.00  0.00     0.031 A 
ATOM     57  C   UNL     1       0.268 -11.379  10.907  1.00  0.00     0.131 A 
ATOM     58  C   UNL     1      -0.976  -9.031  11.668  1.00  0.00     0.055 A 
ATOM     59  C   UNL     1       0.458 -10.885  12.199  1.00  0.00     0.041 A 
ATOM     60  F   UNL     1       0.938 -12.490  10.563  1.00  0.00    -0.206 F 
ATOM     61  C   UNL     1      -0.154  -9.696  12.580  1.00  0.00     0.022 A 
BRANCH  58  62
ATOM     62  S   UNL     1      -1.623  -7.383  12.067  1.00  0.00     0.124 S 
ATOM     63  O   UNL     1      -1.017  -6.565  11.019  1.00  0.00    -0.237 OA
ATOM     64  O   UNL     1      -3.064  -7.578  11.973  1.00  0.00    -0.237 OA
ATOM     65  O   UNL     1      -1.113  -7.132  13.414  1.00  0.00    -0.744 OA
ENDBRANCH  58  62
ENDBRANCH  41  55
BRANCH  42  66
ATOM     66  C   UNL     1      -1.101 -13.960   0.505  1.00  0.00     0.023 A 
ATOM     67  C   UNL     1      -2.323 -14.180  -0.150  1.00  0.00     0.031 A 
ATOM     68  C   UNL     1       0.084 -14.285  -0.182  1.00  0.00     0.131 A 
ATOM     69  C   UNL     1      -2.334 -14.742  -1.437  1.00  0.00     0.055 A 
ATOM     70  C   UNL     1       0.068 -14.793  -1.481  1.00  0.00     0.041 A 
ATOM     71  F   UNL     1       1.279 -14.101   0.401  1.00  0.00    -0.206 F 
ATOM     72  C   UNL     1      -1.147 -15.036  -2.112  1.00  0.00     0.022 A 
BRANCH  69  73
ATOM     73  S   UNL     1      -3.931 -15.159  -2.190  1.00  0.00     0.124 S 
ATOM     74  O   UNL     1      -4.484 -16.094  -1.216  1.00  0.00    -0.237 OA
ATOM     75  O   UNL     1      -4.580 -13.855  -2.269  1.00  0.00    -0.237 OA
ATOM     76  O   UNL     1      -3.558 -15.746  -3.475  1.00  0.00    -0.744 OA
ENDBRANCH  69  73
ENDBRANCH  42  66
BRANCH  54  77
ATOM     77  C   UNL     1      -3.085 -16.651   6.612  1.00  0.00     0.023 A 
ATOM     78  C   UNL     1      -2.438 -17.891   6.480  1.00  0.00     0.031 A 
ATOM     79  C   UNL     1      -4.416 -16.639   7.066  1.00  0.00     0.131 A 
ATOM     80  C   UNL     1      -3.139 -19.075   6.752  1.00  0.00     0.055 A 
ATOM     81  C   UNL     1      -5.092 -17.817   7.382  1.00  0.00     0.041 A 
ATOM     82  F   UNL     1      -5.079 -15.480   7.207  1.00  0.00    -0.206 F 
ATOM     83  C   UNL     1      -4.457 -19.045   7.215  1.00  0.00     0.022 A 
BRANCH  80  84
ATOM     84  S   UNL     1      -2.330 -20.665   6.422  1.00  0.00     0.124 S 
ATOM     85  O   UNL     1      -2.051 -20.573   4.992  1.00  0.00    -0.237 OA
ATOM     86  O   UNL     1      -1.167 -20.613   7.302  1.00  0.00    -0.237 OA
ATOM     87  O   UNL     1      -3.343 -21.650   6.794  1.00  0.00    -0.744 OA
ENDBRANCH  80  84
ENDBRANCH  54  77
ENDBRANCH  28  29
ENDBRANCH  21  23
ENDBRANCH  20  21
ENDBRANCH   1  20
TORSDOF 15
