REMARK SMILES O=C(CCC(=O)OCCOC(=O)c1ccc(-c2c3nc(c(-c4cc(S(=O)(=O)[O-])ccc4F)c4ccc([nH]4)c(-c4cc(S(=O)(=O)[O-])ccc4F)c4nc(c(-c5cc(S(=O)(=O)[O-])ccc5F)c5ccc2[nH]5)C=C4)C=C3)cc1)/[NH+]=C1\S[C@H]2CS(=O)(=O)C[C@@H]2N1c1ccc2c(c1)OCO2
REMARK SMILES IDX 8 1 7 2 5 3 6 4 4 5 3 6 2 7 1 8 76 9 77 10 78 12 86 13 79 14
REMARK SMILES IDX 85 15 80 16 84 17 81 18 82 19 83 20 87 21 88 22 92 23 89 24
REMARK SMILES IDX 91 25 90 26 93 27 95 28 94 29 9 30 10 31 11 32 12 33 13 34
REMARK SMILES IDX 14 35 75 36 15 37 74 38 16 39 17 40 18 41 68 42 19 43 73 44
REMARK SMILES IDX 67 45 69 46 20 47 72 48 66 49 65 50 21 52 53 53 33 54 52 55
REMARK SMILES IDX 34 56 37 57 51 58 70 59 35 60 36 61 50 63 71 64 38 65 22 66
REMARK SMILES IDX 23 67 31 68 24 69 30 70 32 71 29 72 25 73 26 74 27 75 28 76
REMARK SMILES IDX 54 77 55 78 63 79 56 80 62 81 64 82 61 83 57 84 58 85 59 86
REMARK SMILES IDX 60 87 39 88 40 89 48 90 41 91 47 92 49 93 46 94 42 95 43 96
REMARK SMILES IDX 44 97 45 98
REMARK H PARENT 76 11 69 51 37 62
REMARK Flexibility Score: inf
ROOT
ATOM      1  C   UNL     1       5.169  -1.931   2.678  1.00  0.00     0.274 C 
ENDROOT
BRANCH   1   2
ATOM      2  O   UNL     1       3.971  -1.478   2.022  1.00  0.00    -0.462 OA
BRANCH   2   3
ATOM      3  C   UNL     1       3.542  -0.248   2.379  1.00  0.00     0.306 C 
ATOM      4  O   UNL     1       3.946   0.367   3.360  1.00  0.00    -0.252 OA
BRANCH   3   5
ATOM      5  C   UNL     1       2.448   0.261   1.479  1.00  0.00     0.135 C 
BRANCH   5   6
ATOM      6  C   UNL     1       2.681   0.324  -0.028  1.00  0.00     0.139 C 
BRANCH   6   7
ATOM      7  C   UNL     1       2.719  -0.930  -0.900  1.00  0.00     0.308 C 
ATOM      8  O   UNL     1       1.809  -1.102  -1.714  1.00  0.00    -0.247 OA
ATOM      9  N   UNL     1       3.700  -1.879  -0.772  1.00  0.00    -0.204 N 
ATOM     10  C   UNL     1       4.820  -1.811  -1.420  1.00  0.00     0.319 C 
ATOM     11  H   UNL     1       3.548  -2.640  -0.166  1.00  0.00     0.316 HD
ATOM     12  S   UNL     1       5.508  -0.382  -2.249  1.00  0.00    -0.029 SA
ATOM     13  N   UNL     1       5.732  -2.876  -1.515  1.00  0.00    -0.216 N 
ATOM     14  C   UNL     1       7.137  -1.177  -2.475  1.00  0.00     0.120 C 
ATOM     15  C   UNL     1       7.101  -2.386  -1.542  1.00  0.00     0.212 C 
ATOM     16  C   UNL     1       8.435  -0.509  -2.062  1.00  0.00     0.156 C 
ATOM     17  C   UNL     1       8.301  -3.218  -1.920  1.00  0.00     0.188 C 
ATOM     18  S   UNL     1       9.564  -1.923  -1.922  1.00  0.00     0.155 S 
ATOM     19  O   UNL     1      10.342  -2.036  -3.136  1.00  0.00    -0.229 OA
ATOM     20  O   UNL     1      10.171  -1.897  -0.608  1.00  0.00    -0.229 OA
BRANCH  13  21
ATOM     21  C   UNL     1       5.434  -3.944  -2.383  1.00  0.00     0.132 A 
ATOM     22  C   UNL     1       5.512  -5.273  -1.913  1.00  0.00     0.056 A 
ATOM     23  C   UNL     1       5.031  -3.706  -3.708  1.00  0.00     0.102 A 
ATOM     24  C   UNL     1       5.148  -6.349  -2.732  1.00  0.00     0.055 A 
ATOM     25  C   UNL     1       4.670  -4.779  -4.486  1.00  0.00     0.170 A 
ATOM     26  C   UNL     1       4.713  -6.066  -4.008  1.00  0.00     0.166 A 
ATOM     27  O   UNL     1       4.208  -4.708  -5.761  1.00  0.00    -0.453 OA
ATOM     28  O   UNL     1       4.255  -6.963  -4.923  1.00  0.00    -0.454 OA
ATOM     29  C   UNL     1       3.764  -6.066  -5.945  1.00  0.00     0.468 C 
ENDBRANCH  13  21
ENDBRANCH   6   7
ENDBRANCH   5   6
ENDBRANCH   3   5
ENDBRANCH   2   3
ENDBRANCH   1   2
BRANCH   1  30
ATOM     30  C   UNL     1       6.392  -1.369   1.966  1.00  0.00     0.275 C 
BRANCH  30  31
ATOM     31  O   UNL     1       6.713  -0.006   2.289  1.00  0.00    -0.458 OA
BRANCH  31  32
ATOM     32  C   UNL     1       6.265   0.893   1.394  1.00  0.00     0.338 C 
ATOM     33  O   UNL     1       5.508   0.674   0.454  1.00  0.00    -0.246 OA
BRANCH  32  34
ATOM     34  C   UNL     1       6.947   2.161   1.494  1.00  0.00     0.060 A 
ATOM     35  C   UNL     1       6.515   3.124   2.396  1.00  0.00     0.016 A 
ATOM     36  C   UNL     1       7.991   2.397   0.595  1.00  0.00     0.016 A 
ATOM     37  C   UNL     1       7.203   4.327   2.437  1.00  0.00     0.010 A 
ATOM     38  C   UNL     1       8.720   3.563   0.685  1.00  0.00     0.010 A 
ATOM     39  C   UNL     1       8.337   4.521   1.623  1.00  0.00    -0.014 A 
BRANCH  39  40
ATOM     40  C   UNL     1       9.207   5.682   1.855  1.00  0.00     0.031 A 
ATOM     41  C   UNL     1       9.302   6.767   0.834  1.00  0.00     0.074 A 
ATOM     42  C   UNL     1       9.899   5.682   3.010  1.00  0.00     0.049 A 
ATOM     43  N   UNL     1       9.948   7.897   0.902  1.00  0.00    -0.248 NA
ATOM     44  C   UNL     1       8.606   6.545  -0.444  1.00  0.00     0.031 C 
ATOM     45  C   UNL     1       9.896   4.582   3.985  1.00  0.00     0.029 A 
ATOM     46  N   UNL     1      10.698   6.626   3.584  1.00  0.00    -0.354 N 
ATOM     47  C   UNL     1       9.732   8.529  -0.317  1.00  0.00     0.074 A 
ATOM     48  C   UNL     1       8.949   7.626  -1.130  1.00  0.00     0.031 C 
ATOM     49  C   UNL     1      10.583   4.954   5.073  1.00  0.00     0.029 A 
ATOM     50  C   UNL     1      11.114   6.290   4.853  1.00  0.00     0.049 A 
ATOM     51  H   UNL     1      10.952   7.465   3.136  1.00  0.00     0.167 HD
ATOM     52  C   UNL     1      10.142   9.764  -0.692  1.00  0.00     0.034 A 
ATOM     53  C   UNL     1      11.829   7.006   5.739  1.00  0.00     0.034 A 
ATOM     54  C   UNL     1      10.930  10.606   0.175  1.00  0.00     0.049 A 
ATOM     55  C   UNL     1      12.213   8.399   5.317  1.00  0.00     0.074 A 
ATOM     56  C   UNL     1      11.443  11.867  -0.061  1.00  0.00     0.029 A 
ATOM     57  N   UNL     1      11.316  10.254   1.468  1.00  0.00    -0.354 N 
ATOM     58  N   UNL     1      11.975   9.004   4.172  1.00  0.00    -0.248 NA
ATOM     59  C   UNL     1      12.933   9.213   6.297  1.00  0.00     0.031 C 
ATOM     60  C   UNL     1      12.169  12.259   1.072  1.00  0.00     0.029 A 
ATOM     61  C   UNL     1      12.057  11.272   2.041  1.00  0.00     0.049 A 
ATOM     62  H   UNL     1      11.092   9.404   1.910  1.00  0.00     0.167 HD
ATOM     63  C   UNL     1      12.507  10.278   4.299  1.00  0.00     0.074 A 
ATOM     64  C   UNL     1      13.040  10.363   5.648  1.00  0.00     0.031 C 
ATOM     65  C   UNL     1      12.569  11.288   3.392  1.00  0.00     0.034 A 
BRANCH  52  66
ATOM     66  C   UNL     1       9.770  10.231  -2.080  1.00  0.00     0.023 A 
ATOM     67  C   UNL     1       8.426  10.392  -2.468  1.00  0.00     0.031 A 
ATOM     68  C   UNL     1      10.761  10.472  -3.047  1.00  0.00     0.131 A 
ATOM     69  C   UNL     1       8.109  10.706  -3.800  1.00  0.00     0.055 A 
ATOM     70  C   UNL     1      10.441  10.860  -4.352  1.00  0.00     0.041 A 
ATOM     71  F   UNL     1      12.060  10.311  -2.749  1.00  0.00    -0.206 F 
ATOM     72  C   UNL     1       9.108  10.965  -4.739  1.00  0.00     0.022 A 
BRANCH  69  73
ATOM     73  S   UNL     1       6.371  10.643  -4.320  1.00  0.00     0.124 S 
ATOM     74  O   UNL     1       6.058   9.229  -4.125  1.00  0.00    -0.237 OA
ATOM     75  O   UNL     1       5.729  11.572  -3.397  1.00  0.00    -0.237 OA
ATOM     76  O   UNL     1       6.415  11.079  -5.714  1.00  0.00    -0.744 OA
ENDBRANCH  69  73
ENDBRANCH  52  66
BRANCH  53  77
ATOM     77  C   UNL     1      12.183   6.439   7.074  1.00  0.00     0.023 A 
ATOM     78  C   UNL     1      11.741   7.036   8.265  1.00  0.00     0.031 A 
ATOM     79  C   UNL     1      12.977   5.281   7.181  1.00  0.00     0.131 A 
ATOM     80  C   UNL     1      12.131   6.504   9.506  1.00  0.00     0.055 A 
ATOM     81  C   UNL     1      13.313   4.722   8.415  1.00  0.00     0.041 A 
ATOM     82  F   UNL     1      13.421   4.657   6.077  1.00  0.00    -0.206 F 
ATOM     83  C   UNL     1      12.903   5.344   9.588  1.00  0.00     0.022 A 
BRANCH  80  84
ATOM     84  S   UNL     1      11.703   7.412  11.018  1.00  0.00     0.124 S 
ATOM     85  O   UNL     1      12.172   8.757  10.705  1.00  0.00    -0.237 OA
ATOM     86  O   UNL     1      10.257   7.233  11.077  1.00  0.00    -0.237 OA
ATOM     87  O   UNL     1      12.460   6.715  12.057  1.00  0.00    -0.744 OA
ENDBRANCH  80  84
ENDBRANCH  53  77
BRANCH  65  88
ATOM     88  C   UNL     1      13.221  12.555   3.870  1.00  0.00     0.023 A 
ATOM     89  C   UNL     1      14.596  12.601   4.151  1.00  0.00     0.031 A 
ATOM     90  C   UNL     1      12.453  13.713   4.073  1.00  0.00     0.131 A 
ATOM     91  C   UNL     1      15.152  13.765   4.692  1.00  0.00     0.055 A 
ATOM     92  C   UNL     1      13.026  14.890   4.550  1.00  0.00     0.041 A 
ATOM     93  F   UNL     1      11.135  13.713   3.817  1.00  0.00    -0.206 F 
ATOM     94  C   UNL     1      14.380  14.915   4.878  1.00  0.00     0.022 A 
BRANCH  91  95
ATOM     95  S   UNL     1      16.875  13.717   5.249  1.00  0.00     0.124 S 
ATOM     96  O   UNL     1      16.841  12.651   6.246  1.00  0.00    -0.237 OA
ATOM     97  O   UNL     1      17.594  13.412   4.016  1.00  0.00    -0.237 OA
ATOM     98  O   UNL     1      17.100  15.059   5.782  1.00  0.00    -0.744 OA
ENDBRANCH  91  95
ENDBRANCH  65  88
ENDBRANCH  39  40
ENDBRANCH  32  34
ENDBRANCH  31  32
ENDBRANCH  30  31
ENDBRANCH   1  30
TORSDOF 17
