REMARK SMILES CC[C@@](C)(NC(=O)c1cccc(Br)c1C)C(=O)OCCOC(=O)c1ccc(-c2c3nc(c(-c4cc(S(=O)(=O)[O-])ccc4F)c4ccc([nH]4)c(-c4cc(S(=O)(=O)[O-])ccc4F)c4nc(c(-c5cc(S(=O)(=O)[O-])ccc5F)c5ccc2[nH]5)C=C4)C=C3)cc1
REMARK SMILES IDX 20 1 19 2 18 3 16 4 17 5 3 6 4 7 2 8 1 9 5 10 6 11 7 13 8 14
REMARK SMILES IDX 9 15 14 16 10 17 12 18 15 19 11 20 13 21 21 22 22 23 23 24
REMARK SMILES IDX 24 25 25 26 86 27 26 28 85 29 27 30 28 31 29 32 79 33 30 34
REMARK SMILES IDX 84 35 78 36 80 37 31 38 83 39 77 40 76 41 32 43 64 44 44 45
REMARK SMILES IDX 63 46 45 47 48 48 62 49 81 50 46 51 47 52 61 54 82 55 49 56
REMARK SMILES IDX 33 57 34 58 42 59 35 60 41 61 43 62 40 63 36 64 37 65 38 66
REMARK SMILES IDX 39 67 65 68 66 69 74 70 67 71 73 72 75 73 72 74 68 75 69 76
REMARK SMILES IDX 70 77 71 78 50 79 51 80 59 81 52 82 58 83 60 84 57 85 53 86
REMARK SMILES IDX 54 87 55 88 56 89
REMARK H PARENT 5 12 80 42 48 53
REMARK Flexibility Score: inf
ROOT
ATOM      1  C   UNL     1       5.703   1.998  -0.186  1.00  0.00     0.275 C 
ENDROOT
BRANCH   1   2
ATOM      2  C   UNL     1       4.743   1.597  -1.299  1.00  0.00     0.274 C 
BRANCH   2   3
ATOM      3  O   UNL     1       3.441   2.182  -1.067  1.00  0.00    -0.460 OA
BRANCH   3   4
ATOM      4  C   UNL     1       2.381   1.412  -1.418  1.00  0.00     0.331 C 
ATOM      5  O   UNL     1       2.499   0.255  -1.814  1.00  0.00    -0.249 OA
BRANCH   4   6
ATOM      6  C   UNL     1       1.006   2.144  -1.358  1.00  0.00     0.135 C 
ATOM      7  C   UNL     1       0.398   2.007  -2.768  1.00  0.00     0.047 C 
BRANCH   6   8
ATOM      8  C   UNL     1       0.053   1.405  -0.352  1.00  0.00     0.037 C 
ATOM      9  C   UNL     1      -0.043  -0.114  -0.408  1.00  0.00     0.007 C 
ENDBRANCH   6   8
BRANCH   6  10
ATOM     10  N   UNL     1       0.922   3.581  -0.924  1.00  0.00    -0.336 N 
ATOM     11  C   UNL     1       1.454   4.753  -1.389  1.00  0.00     0.252 C 
ATOM     12  H   UNL     1       0.357   3.707  -0.127  1.00  0.00     0.165 HD
ATOM     13  O   UNL     1       0.723   5.734  -1.513  1.00  0.00    -0.269 OA
BRANCH  11  14
ATOM     14  C   UNL     1       2.905   4.969  -1.505  1.00  0.00     0.043 A 
ATOM     15  C   UNL     1       3.526   5.511  -0.367  1.00  0.00     0.014 A 
ATOM     16  C   UNL     1       3.612   4.835  -2.714  1.00  0.00    -0.024 A 
ATOM     17  C   UNL     1       4.871   5.872  -0.400  1.00  0.00     0.002 A 
ATOM     18  C   UNL     1       4.987   5.144  -2.702  1.00  0.00     0.021 A 
ATOM     19  C   UNL     1       2.928   4.349  -3.955  1.00  0.00     0.046 C 
ATOM     20  C   UNL     1       5.606   5.670  -1.562  1.00  0.00     0.016 A 
ATOM     21  Br  UNL     1       6.101   4.846  -4.216  1.00  0.00    -0.051 Br
ENDBRANCH  11  14
ENDBRANCH   6  10
ENDBRANCH   4   6
ENDBRANCH   3   4
ENDBRANCH   2   3
ENDBRANCH   1   2
BRANCH   1  22
ATOM     22  O   UNL     1       5.201   1.443   1.036  1.00  0.00    -0.458 OA
BRANCH  22  23
ATOM     23  C   UNL     1       4.649   2.334   1.890  1.00  0.00     0.338 C 
ATOM     24  O   UNL     1       4.732   3.546   1.880  1.00  0.00    -0.246 OA
BRANCH  23  25
ATOM     25  C   UNL     1       3.822   1.580   2.831  1.00  0.00     0.060 A 
ATOM     26  C   UNL     1       2.593   1.089   2.390  1.00  0.00     0.016 A 
ATOM     27  C   UNL     1       4.231   1.421   4.149  1.00  0.00     0.016 A 
ATOM     28  C   UNL     1       1.732   0.471   3.287  1.00  0.00     0.010 A 
ATOM     29  C   UNL     1       3.393   0.746   5.035  1.00  0.00     0.010 A 
ATOM     30  C   UNL     1       2.129   0.288   4.616  1.00  0.00    -0.014 A 
BRANCH  30  31
ATOM     31  C   UNL     1       1.208  -0.337   5.595  1.00  0.00     0.031 A 
ATOM     32  C   UNL     1       0.675   0.490   6.729  1.00  0.00     0.074 A 
ATOM     33  C   UNL     1       0.872  -1.633   5.462  1.00  0.00     0.049 A 
ATOM     34  N   UNL     1       0.024   0.114   7.797  1.00  0.00    -0.248 NA
ATOM     35  C   UNL     1       0.932   1.936   6.656  1.00  0.00     0.031 C 
ATOM     36  C   UNL     1       1.291  -2.505   4.362  1.00  0.00     0.029 A 
ATOM     37  N   UNL     1       0.104  -2.445   6.255  1.00  0.00    -0.354 N 
ATOM     38  C   UNL     1      -0.163   1.268   8.552  1.00  0.00     0.074 A 
ATOM     39  C   UNL     1       0.453   2.353   7.818  1.00  0.00     0.031 C 
ATOM     40  C   UNL     1       0.757  -3.724   4.540  1.00  0.00     0.029 A 
ATOM     41  C   UNL     1       0.029  -3.742   5.802  1.00  0.00     0.049 A 
ATOM     42  H   UNL     1      -0.349  -2.131   7.070  1.00  0.00     0.167 HD
ATOM     43  C   UNL     1      -0.783   1.396   9.752  1.00  0.00     0.034 A 
ATOM     44  C   UNL     1      -0.532  -4.829   6.367  1.00  0.00     0.034 A 
ATOM     45  C   UNL     1      -1.399   0.287  10.444  1.00  0.00     0.049 A 
ATOM     46  C   UNL     1      -1.196  -4.667   7.710  1.00  0.00     0.074 A 
ATOM     47  C   UNL     1      -2.037   0.275  11.672  1.00  0.00     0.029 A 
ATOM     48  N   UNL     1      -1.457  -1.015   9.956  1.00  0.00    -0.354 N 
ATOM     49  N   UNL     1      -1.310  -3.586   8.449  1.00  0.00    -0.248 NA
ATOM     50  C   UNL     1      -1.800  -5.868   8.295  1.00  0.00     0.031 C 
ATOM     51  C   UNL     1      -2.433  -1.040  11.947  1.00  0.00     0.029 A 
ATOM     52  C   UNL     1      -2.106  -1.839  10.862  1.00  0.00     0.049 A 
ATOM     53  H   UNL     1      -1.089  -1.309   9.091  1.00  0.00     0.167 HD
ATOM     54  C   UNL     1      -2.019  -3.975   9.581  1.00  0.00     0.074 A 
ATOM     55  C   UNL     1      -2.323  -5.383   9.411  1.00  0.00     0.031 C 
ATOM     56  C   UNL     1      -2.384  -3.243  10.665  1.00  0.00     0.034 A 
BRANCH  43  57
ATOM     57  C   UNL     1      -0.742   2.757  10.409  1.00  0.00     0.023 A 
ATOM     58  C   UNL     1      -1.351   3.886   9.834  1.00  0.00     0.031 A 
ATOM     59  C   UNL     1      -0.016   2.941  11.601  1.00  0.00     0.131 A 
ATOM     60  C   UNL     1      -1.151   5.156  10.400  1.00  0.00     0.055 A 
ATOM     61  C   UNL     1       0.109   4.194  12.205  1.00  0.00     0.041 A 
ATOM     62  F   UNL     1       0.610   1.907  12.187  1.00  0.00    -0.206 F 
ATOM     63  C   UNL     1      -0.444   5.315  11.594  1.00  0.00     0.022 A 
BRANCH  60  64
ATOM     64  S   UNL     1      -1.687   6.618   9.467  1.00  0.00     0.124 S 
ATOM     65  O   UNL     1      -0.925   6.472   8.229  1.00  0.00    -0.237 OA
ATOM     66  O   UNL     1      -3.127   6.412   9.360  1.00  0.00    -0.237 OA
ATOM     67  O   UNL     1      -1.278   7.736  10.315  1.00  0.00    -0.744 OA
ENDBRANCH  60  64
ENDBRANCH  43  57
BRANCH  44  68
ATOM     68  C   UNL     1      -0.454  -6.158   5.696  1.00  0.00     0.023 A 
ATOM     69  C   UNL     1      -1.614  -6.820   5.263  1.00  0.00     0.031 A 
ATOM     70  C   UNL     1       0.782  -6.799   5.494  1.00  0.00     0.131 A 
ATOM     71  C   UNL     1      -1.518  -8.095   4.682  1.00  0.00     0.055 A 
ATOM     72  C   UNL     1       0.877  -8.043   4.868  1.00  0.00     0.041 A 
ATOM     73  F   UNL     1       1.924  -6.211   5.886  1.00  0.00    -0.206 F 
ATOM     74  C   UNL     1      -0.279  -8.704   4.468  1.00  0.00     0.022 A 
BRANCH  71  75
ATOM     75  S   UNL     1      -3.046  -8.981   4.272  1.00  0.00     0.124 S 
ATOM     76  O   UNL     1      -3.721  -9.024   5.565  1.00  0.00    -0.237 OA
ATOM     77  O   UNL     1      -3.642  -8.107   3.267  1.00  0.00    -0.237 OA
ATOM     78  O   UNL     1      -2.570 -10.269   3.773  1.00  0.00    -0.744 OA
ENDBRANCH  71  75
ENDBRANCH  44  68
BRANCH  56  79
ATOM     79  C   UNL     1      -3.193  -3.961  11.714  1.00  0.00     0.023 A 
ATOM     80  C   UNL     1      -2.639  -4.988  12.498  1.00  0.00     0.031 A 
ATOM     81  C   UNL     1      -4.549  -3.641  11.899  1.00  0.00     0.131 A 
ATOM     82  C   UNL     1      -3.456  -5.707  13.381  1.00  0.00     0.055 A 
ATOM     83  C   UNL     1      -5.342  -4.319  12.824  1.00  0.00     0.041 A 
ATOM     84  F   UNL     1      -5.127  -2.669  11.175  1.00  0.00    -0.206 F 
ATOM     85  C   UNL     1      -4.801  -5.370  13.560  1.00  0.00     0.022 A 
BRANCH  82  86
ATOM     86  S   UNL     1      -2.766  -7.165  14.211  1.00  0.00     0.124 S 
ATOM     87  O   UNL     1      -2.323  -7.976  13.081  1.00  0.00    -0.237 OA
ATOM     88  O   UNL     1      -1.708  -6.584  15.032  1.00  0.00    -0.237 OA
ATOM     89  O   UNL     1      -3.902  -7.706  14.955  1.00  0.00    -0.744 OA
ENDBRANCH  82  86
ENDBRANCH  56  79
ENDBRANCH  30  31
ENDBRANCH  23  25
ENDBRANCH  22  23
ENDBRANCH   1  22
TORSDOF 17
