REMARK SMILES C[C@]12CCC(=O)N1c1ccccc1C(=O)N2CCCC(=O)OCCOC(=O)c1ccc(-c2c3nc(c(-c4cc(S(=O)(=O)[O-])ccc4F)c4ccc([nH]4)c(-c4cc(S(=O)(=O)[O-])ccc4F)c4nc(c(-c5cc(S(=O)(=O)[O-])ccc5F)c5ccc2[nH]5)C=C4)C=C3)cc1
REMARK SMILES IDX 23 1 22 2 20 3 21 4 19 5 18 6 17 7 16 8 1 9 2 10 3 11 7 12
REMARK SMILES IDX 4 13 5 14 8 15 14 16 6 17 9 18 13 19 15 20 10 21 12 22 11 23
REMARK SMILES IDX 24 24 25 25 26 26 27 27 28 28 29 29 90 30 30 31 89 32 31 33
REMARK SMILES IDX 32 34 33 35 83 36 34 37 88 38 82 39 84 40 35 41 87 42 81 43
REMARK SMILES IDX 80 44 36 46 68 47 48 48 67 49 49 50 52 51 66 52 85 53 50 54
REMARK SMILES IDX 51 55 65 57 86 58 53 59 37 60 38 61 46 62 39 63 45 64 47 65
REMARK SMILES IDX 44 66 40 67 41 68 42 69 43 70 69 71 70 72 78 73 71 74 77 75
REMARK SMILES IDX 79 76 76 77 72 78 73 79 74 80 75 81 54 82 55 83 63 84 56 85
REMARK SMILES IDX 62 86 64 87 61 88 57 89 58 90 59 91 60 92
REMARK H PARENT 84 45 52 56
REMARK Flexibility Score: inf
ROOT
ATOM      1  C   UNL     1       4.754   5.506  -1.662  1.00  0.00     0.274 C 
ENDROOT
BRANCH   1   2
ATOM      2  O   UNL     1       3.588   4.709  -1.911  1.00  0.00    -0.462 OA
BRANCH   2   3
ATOM      3  C   UNL     1       2.462   5.319  -2.344  1.00  0.00     0.305 C 
ATOM      4  O   UNL     1       2.349   6.519  -2.555  1.00  0.00    -0.252 OA
BRANCH   3   5
ATOM      5  C   UNL     1       1.336   4.331  -2.584  1.00  0.00     0.124 C 
BRANCH   5   6
ATOM      6  C   UNL     1       1.678   2.838  -2.452  1.00  0.00     0.033 C 
BRANCH   6   7
ATOM      7  C   UNL     1       2.177   2.342  -1.076  1.00  0.00     0.123 C 
BRANCH   7   8
ATOM      8  N   UNL     1       1.126   2.383  -0.062  1.00  0.00    -0.315 N 
ATOM      9  C   UNL     1       0.742  -0.087  -0.342  1.00  0.00     0.060 C 
ATOM     10  C   UNL     1       0.490   1.192   0.498  1.00  0.00     0.120 C 
ATOM     11  C   UNL     1       0.946   0.928   1.942  1.00  0.00     0.061 C 
ATOM     12  N   UNL     1      -0.937   1.370   0.702  1.00  0.00    -0.288 N 
ATOM     13  C   UNL     1      -0.180   0.058   2.500  1.00  0.00     0.105 C 
ATOM     14  C   UNL     1      -1.400   0.549   1.743  1.00  0.00     0.229 C 
ATOM     15  C   UNL     1      -1.561   2.615   0.456  1.00  0.00     0.059 A 
ATOM     16  C   UNL     1       0.703   3.629   0.364  1.00  0.00     0.257 C 
ATOM     17  O   UNL     1      -2.550   0.315   2.078  1.00  0.00    -0.274 OA
ATOM     18  C   UNL     1      -2.947   2.745   0.358  1.00  0.00     0.027 A 
ATOM     19  C   UNL     1      -0.769   3.766   0.396  1.00  0.00     0.063 A 
ATOM     20  O   UNL     1       1.439   4.600   0.488  1.00  0.00    -0.269 OA
ATOM     21  C   UNL     1      -3.523   4.007   0.181  1.00  0.00     0.002 A 
ATOM     22  C   UNL     1      -1.342   5.034   0.251  1.00  0.00     0.016 A 
ATOM     23  C   UNL     1      -2.724   5.151   0.136  1.00  0.00     0.001 A 
ENDBRANCH   7   8
ENDBRANCH   6   7
ENDBRANCH   5   6
ENDBRANCH   3   5
ENDBRANCH   2   3
ENDBRANCH   1   2
BRANCH   1  24
ATOM     24  C   UNL     1       5.880   5.020  -2.574  1.00  0.00     0.275 C 
BRANCH  24  25
ATOM     25  O   UNL     1       5.612   5.405  -3.933  1.00  0.00    -0.458 OA
BRANCH  25  26
ATOM     26  C   UNL     1       4.875   4.530  -4.660  1.00  0.00     0.338 C 
ATOM     27  O   UNL     1       4.566   3.389  -4.361  1.00  0.00    -0.246 OA
BRANCH  26  28
ATOM     28  C   UNL     1       4.311   5.274  -5.797  1.00  0.00     0.060 A 
ATOM     29  C   UNL     1       5.136   5.921  -6.718  1.00  0.00     0.016 A 
ATOM     30  C   UNL     1       2.922   5.374  -5.894  1.00  0.00     0.016 A 
ATOM     31  C   UNL     1       4.557   6.715  -7.707  1.00  0.00     0.010 A 
ATOM     32  C   UNL     1       2.344   6.177  -6.869  1.00  0.00     0.010 A 
ATOM     33  C   UNL     1       3.161   6.869  -7.769  1.00  0.00    -0.014 A 
BRANCH  33  34
ATOM     34  C   UNL     1       2.538   7.730  -8.795  1.00  0.00     0.031 A 
ATOM     35  C   UNL     1       2.002   9.081  -8.429  1.00  0.00     0.074 A 
ATOM     36  C   UNL     1       2.427   7.258 -10.049  1.00  0.00     0.049 A 
ATOM     37  N   UNL     1       1.474   9.991  -9.204  1.00  0.00    -0.248 NA
ATOM     38  C   UNL     1       2.056   9.457  -7.007  1.00  0.00     0.031 C 
ATOM     39  C   UNL     1       2.872   5.932 -10.478  1.00  0.00     0.029 A 
ATOM     40  N   UNL     1       1.908   7.825 -11.182  1.00  0.00    -0.354 N 
ATOM     41  C   UNL     1       1.158  11.059  -8.373  1.00  0.00     0.074 A 
ATOM     42  C   UNL     1       1.489  10.656  -7.024  1.00  0.00     0.031 C 
ATOM     43  C   UNL     1       2.630   5.796 -11.790  1.00  0.00     0.029 A 
ATOM     44  C   UNL     1       1.991   7.013 -12.288  1.00  0.00     0.049 A 
ATOM     45  H   UNL     1       1.514   8.727 -11.203  1.00  0.00     0.167 HD
ATOM     46  C   UNL     1       0.665  12.273  -8.716  1.00  0.00     0.034 A 
ATOM     47  C   UNL     1       1.605   7.231 -13.562  1.00  0.00     0.034 A 
ATOM     48  C   UNL     1       0.321  12.633 -10.069  1.00  0.00     0.049 A 
ATOM     49  C   UNL     1       1.024   8.574 -13.918  1.00  0.00     0.074 A 
ATOM     50  C   UNL     1      -0.153  13.845 -10.538  1.00  0.00     0.029 A 
ATOM     51  N   UNL     1       0.405  11.785 -11.166  1.00  0.00    -0.354 N 
ATOM     52  N   UNL     1       0.826   9.616 -13.143  1.00  0.00    -0.248 NA
ATOM     53  C   UNL     1       0.625   8.784 -15.315  1.00  0.00     0.031 C 
ATOM     54  C   UNL     1      -0.410  13.712 -11.904  1.00  0.00     0.029 A 
ATOM     55  C   UNL     1      -0.034  12.438 -12.305  1.00  0.00     0.049 A 
ATOM     56  H   UNL     1       0.729  10.856 -11.137  1.00  0.00     0.167 HD
ATOM     57  C   UNL     1       0.298  10.611 -13.960  1.00  0.00     0.074 A 
ATOM     58  C   UNL     1       0.227  10.051 -15.295  1.00  0.00     0.031 C 
ATOM     59  C   UNL     1      -0.093  11.868 -13.633  1.00  0.00     0.034 A 
BRANCH  46  60
ATOM     60  C   UNL     1       0.503  13.316  -7.637  1.00  0.00     0.023 A 
ATOM     61  C   UNL     1      -0.764  13.852  -7.338  1.00  0.00     0.031 A 
ATOM     62  C   UNL     1       1.624  13.862  -6.985  1.00  0.00     0.131 A 
ATOM     63  C   UNL     1      -0.874  14.912  -6.428  1.00  0.00     0.055 A 
ATOM     64  C   UNL     1       1.504  14.891  -6.051  1.00  0.00     0.041 A 
ATOM     65  F   UNL     1       2.857  13.393  -7.241  1.00  0.00    -0.206 F 
ATOM     66  C   UNL     1       0.251  15.429  -5.777  1.00  0.00     0.022 A 
BRANCH  63  67
ATOM     67  S   UNL     1      -2.471  15.708  -6.095  1.00  0.00     0.124 S 
ATOM     68  O   UNL     1      -2.628  15.474  -4.660  1.00  0.00    -0.237 OA
ATOM     69  O   UNL     1      -2.208  17.093  -6.474  1.00  0.00    -0.237 OA
ATOM     70  O   UNL     1      -3.408  14.987  -6.949  1.00  0.00    -0.744 OA
ENDBRANCH  63  67
ENDBRANCH  46  60
BRANCH  47  71
ATOM     71  C   UNL     1       1.864   6.171 -14.578  1.00  0.00     0.023 A 
ATOM     72  C   UNL     1       1.259   4.904 -14.478  1.00  0.00     0.031 A 
ATOM     73  C   UNL     1       2.837   6.364 -15.572  1.00  0.00     0.131 A 
ATOM     74  C   UNL     1       1.691   3.860 -15.306  1.00  0.00     0.055 A 
ATOM     75  C   UNL     1       3.216   5.338 -16.440  1.00  0.00     0.041 A 
ATOM     76  F   UNL     1       3.454   7.549 -15.694  1.00  0.00    -0.206 F 
ATOM     77  C   UNL     1       2.655   4.072 -16.296  1.00  0.00     0.022 A 
BRANCH  74  78
ATOM     78  S   UNL     1       1.119   2.159 -15.035  1.00  0.00     0.124 S 
ATOM     79  O   UNL     1       0.535   1.822 -16.329  1.00  0.00    -0.237 OA
ATOM     80  O   UNL     1       2.369   1.474 -14.710  1.00  0.00    -0.237 OA
ATOM     81  O   UNL     1       0.175   2.283 -13.930  1.00  0.00    -0.744 OA
ENDBRANCH  74  78
ENDBRANCH  47  71
BRANCH  59  82
ATOM     82  C   UNL     1      -0.652  12.755 -14.718  1.00  0.00     0.023 A 
ATOM     83  C   UNL     1       0.016  13.945 -15.067  1.00  0.00     0.031 A 
ATOM     84  C   UNL     1      -1.925  12.519 -15.265  1.00  0.00     0.131 A 
ATOM     85  C   UNL     1      -0.618  14.881 -15.893  1.00  0.00     0.055 A 
ATOM     86  C   UNL     1      -2.531  13.433 -16.127  1.00  0.00     0.041 A 
ATOM     87  F   UNL     1      -2.603  11.403 -14.954  1.00  0.00    -0.206 F 
ATOM     88  C   UNL     1      -1.885  14.628 -16.431  1.00  0.00     0.022 A 
BRANCH  85  89
ATOM     89  S   UNL     1       0.134  16.498 -16.224  1.00  0.00     0.124 S 
ATOM     90  O   UNL     1       0.199  16.510 -17.684  1.00  0.00    -0.237 OA
ATOM     91  O   UNL     1      -0.839  17.414 -15.636  1.00  0.00    -0.237 OA
ATOM     92  O   UNL     1       1.425  16.432 -15.548  1.00  0.00    -0.744 OA
ENDBRANCH  85  89
ENDBRANCH  59  82
ENDBRANCH  33  34
ENDBRANCH  26  28
ENDBRANCH  25  26
ENDBRANCH  24  25
ENDBRANCH   1  24
TORSDOF 17
