REMARK SMILES C[C@H](CC#N)[N@@H+](C)Cc1cc(F)cc(/C=C/C(=O)OCCOC(=O)c2ccc(-c3c4nc(c(-c5cc(S(=O)(=O)[O-])ccc5F)c5ccc([nH]5)c(-c5cc(S(=O)(=O)[O-])ccc5F)c5nc(c(-c6cc(S(=O)(=O)[O-])ccc6F)c6ccc3[nH]6)C=C5)C=C4)cc2)c1
REMARK SMILES IDX 19 1 17 2 18 3 16 4 15 5 14 6 9 7 10 8 88 9 11 10 12 11
REMARK SMILES IDX 13 12 8 13 6 14 7 15 2 17 1 18 3 19 4 20 5 21 20 22 21 23
REMARK SMILES IDX 22 24 23 25 24 26 25 27 26 28 87 29 27 30 86 31 28 32 29 33
REMARK SMILES IDX 30 34 80 35 31 36 85 37 79 38 81 39 32 40 84 41 78 42 77 43
REMARK SMILES IDX 33 45 65 46 45 47 64 48 46 49 49 50 63 51 82 52 47 53 48 54
REMARK SMILES IDX 62 56 83 57 50 58 34 59 35 60 43 61 36 62 42 63 44 64 41 65
REMARK SMILES IDX 37 66 38 67 39 68 40 69 66 70 67 71 75 72 68 73 74 74 76 75
REMARK SMILES IDX 73 76 69 77 70 78 71 79 72 80 51 81 52 82 60 83 53 84 59 85
REMARK SMILES IDX 61 86 58 87 54 88 55 89 56 90 57 91
REMARK H PARENT 6 16 81 44 49 55
REMARK Flexibility Score: inf
ROOT
ATOM      1  O   UNL     1       2.958   4.578   5.930  1.00  0.00    -0.459 OA
ENDROOT
BRANCH   1   2
ATOM      2  C   UNL     1       1.896   5.388   6.172  1.00  0.00     0.330 C 
ATOM      3  O   UNL     1       1.780   6.159   7.112  1.00  0.00    -0.247 OA
BRANCH   2   4
ATOM      4  C   UNL     1       0.841   5.243   5.145  1.00  0.00     0.094 C 
ATOM      5  C   UNL     1       1.007   4.500   4.043  1.00  0.00     0.016 C 
BRANCH   5   6
ATOM      6  C   UNL     1      -0.000   4.310   3.001  1.00  0.00    -0.022 A 
ATOM      7  C   UNL     1      -1.258   2.648   1.729  1.00  0.00     0.010 A 
ATOM      8  C   UNL     1      -1.530   3.637   0.771  1.00  0.00     0.048 A 
ATOM      9  C   UNL     1      -0.574   3.038   2.885  1.00  0.00     0.018 A 
ATOM     10  C   UNL     1      -1.056   4.937   0.944  1.00  0.00     0.124 A 
ATOM     11  F   UNL     1      -1.324   5.862   0.013  1.00  0.00    -0.207 F 
ATOM     12  C   UNL     1      -0.268   5.278   2.037  1.00  0.00     0.047 A 
BRANCH   7  13
ATOM     13  C   UNL     1      -1.750   1.235   1.516  1.00  0.00     0.299 C 
BRANCH  13  14
ATOM     14  N   UNL     1      -0.891   0.090   1.888  1.00  0.00    -0.331 N 
ATOM     15  C   UNL     1      -1.216  -0.427   3.215  1.00  0.00     0.333 C 
ATOM     16  H   UNL     1      -1.189  -0.543   1.145  1.00  0.00     0.348 HD
BRANCH  14  17
ATOM     17  C   UNL     1       0.539  -0.018   1.521  1.00  0.00     0.195 C 
ATOM     18  C   UNL     1       1.527   0.883   2.274  1.00  0.00     0.076 C 
BRANCH  17  19
ATOM     19  C   UNL     1       0.963  -0.088   0.030  1.00  0.00     0.184 C 
BRANCH  19  20
ATOM     20  C   UNL     1       0.026   0.618  -0.935  1.00  0.00     0.068 C 
ATOM     21  N   UNL     1      -0.752   1.204  -1.736  1.00  0.00    -0.198 NA
ENDBRANCH  19  20
ENDBRANCH  17  19
ENDBRANCH  14  17
ENDBRANCH  13  14
ENDBRANCH   7  13
ENDBRANCH   5   6
ENDBRANCH   2   4
ENDBRANCH   1   2
BRANCH   1  22
ATOM     22  C   UNL     1       4.094   4.729   6.798  1.00  0.00     0.275 C 
BRANCH  22  23
ATOM     23  C   UNL     1       5.244   5.446   6.086  1.00  0.00     0.275 C 
BRANCH  23  24
ATOM     24  O   UNL     1       4.864   6.766   5.659  1.00  0.00    -0.458 OA
BRANCH  24  25
ATOM     25  C   UNL     1       4.383   6.837   4.392  1.00  0.00     0.338 C 
ATOM     26  O   UNL     1       4.308   5.924   3.587  1.00  0.00    -0.246 OA
BRANCH  25  27
ATOM     27  C   UNL     1       3.803   8.173   4.160  1.00  0.00     0.060 A 
ATOM     28  C   UNL     1       2.499   8.235   3.661  1.00  0.00     0.016 A 
ATOM     29  C   UNL     1       4.524   9.346   4.399  1.00  0.00     0.016 A 
ATOM     30  C   UNL     1       1.900   9.468   3.418  1.00  0.00     0.010 A 
ATOM     31  C   UNL     1       3.926  10.585   4.144  1.00  0.00     0.010 A 
ATOM     32  C   UNL     1       2.610  10.653   3.655  1.00  0.00    -0.014 A 
BRANCH  32  33
ATOM     33  C   UNL     1       1.965  11.958   3.374  1.00  0.00     0.031 A 
ATOM     34  C   UNL     1       2.286  12.698   2.108  1.00  0.00     0.074 A 
ATOM     35  C   UNL     1       1.057  12.450   4.237  1.00  0.00     0.049 A 
ATOM     36  N   UNL     1       1.857  13.865   1.704  1.00  0.00    -0.248 NA
ATOM     37  C   UNL     1       3.208  12.036   1.173  1.00  0.00     0.031 C 
ATOM     38  C   UNL     1       0.622  11.787   5.468  1.00  0.00     0.029 A 
ATOM     39  N   UNL     1       0.326  13.610   4.206  1.00  0.00    -0.354 N 
ATOM     40  C   UNL     1       2.453  14.082   0.467  1.00  0.00     0.074 A 
ATOM     41  C   UNL     1       3.292  12.932   0.199  1.00  0.00     0.031 C 
ATOM     42  C   UNL     1      -0.311  12.546   6.066  1.00  0.00     0.029 A 
ATOM     43  C   UNL     1      -0.506  13.767   5.288  1.00  0.00     0.049 A 
ATOM     44  H   UNL     1       0.392  14.269   3.477  1.00  0.00     0.167 HD
ATOM     45  C   UNL     1       2.310  15.142  -0.364  1.00  0.00     0.034 A 
ATOM     46  C   UNL     1      -1.319  14.788   5.628  1.00  0.00     0.034 A 
ATOM     47  C   UNL     1       1.476  16.284  -0.081  1.00  0.00     0.049 A 
ATOM     48  C   UNL     1      -1.396  15.993   4.728  1.00  0.00     0.074 A 
ATOM     49  C   UNL     1       1.276  17.416  -0.851  1.00  0.00     0.029 A 
ATOM     50  N   UNL     1       0.703  16.441   1.062  1.00  0.00    -0.354 N 
ATOM     51  N   UNL     1      -0.777  16.212   3.592  1.00  0.00    -0.248 NA
ATOM     52  C   UNL     1      -2.272  17.091   5.160  1.00  0.00     0.031 C 
ATOM     53  C   UNL     1       0.428  18.281  -0.150  1.00  0.00     0.029 A 
ATOM     54  C   UNL     1       0.046  17.661   1.028  1.00  0.00     0.049 A 
ATOM     55  H   UNL     1       0.633  15.782   1.790  1.00  0.00     0.167 HD
ATOM     56  C   UNL     1      -1.202  17.465   3.164  1.00  0.00     0.074 A 
ATOM     57  C   UNL     1      -2.131  17.954   4.163  1.00  0.00     0.031 C 
ATOM     58  C   UNL     1      -0.861  18.144   2.041  1.00  0.00     0.034 A 
BRANCH  45  59
ATOM     59  C   UNL     1       3.115  15.142  -1.636  1.00  0.00     0.023 A 
ATOM     60  C   UNL     1       2.824  14.269  -2.697  1.00  0.00     0.031 A 
ATOM     61  C   UNL     1       4.183  16.044  -1.792  1.00  0.00     0.131 A 
ATOM     62  C   UNL     1       3.617  14.291  -3.855  1.00  0.00     0.055 A 
ATOM     63  C   UNL     1       4.932  16.100  -2.968  1.00  0.00     0.041 A 
ATOM     64  F   UNL     1       4.516  16.885  -0.800  1.00  0.00    -0.206 F 
ATOM     65  C   UNL     1       4.654  15.216  -4.006  1.00  0.00     0.022 A 
BRANCH  62  66
ATOM     66  S   UNL     1       3.324  13.045  -5.140  1.00  0.00     0.124 S 
ATOM     67  O   UNL     1       3.691  11.815  -4.444  1.00  0.00    -0.237 OA
ATOM     68  O   UNL     1       1.906  13.217  -5.433  1.00  0.00    -0.237 OA
ATOM     69  O   UNL     1       4.234  13.441  -6.214  1.00  0.00    -0.744 OA
ENDBRANCH  62  66
ENDBRANCH  45  59
BRANCH  46  70
ATOM     70  C   UNL     1      -2.087  14.731   6.900  1.00  0.00     0.023 A 
ATOM     71  C   UNL     1      -3.484  14.593   6.902  1.00  0.00     0.031 A 
ATOM     72  C   UNL     1      -1.425  14.810   8.139  1.00  0.00     0.131 A 
ATOM     73  C   UNL     1      -4.177  14.553   8.122  1.00  0.00     0.055 A 
ATOM     74  C   UNL     1      -2.115  14.732   9.349  1.00  0.00     0.041 A 
ATOM     75  F   UNL     1      -0.090  14.938   8.186  1.00  0.00    -0.206 F 
ATOM     76  C   UNL     1      -3.501  14.607   9.344  1.00  0.00     0.022 A 
BRANCH  73  77
ATOM     77  S   UNL     1      -5.988  14.444   8.097  1.00  0.00     0.124 S 
ATOM     78  O   UNL     1      -6.353  15.726   7.506  1.00  0.00    -0.237 OA
ATOM     79  O   UNL     1      -6.213  13.266   7.266  1.00  0.00    -0.237 OA
ATOM     80  O   UNL     1      -6.338  14.283   9.506  1.00  0.00    -0.744 OA
ENDBRANCH  73  77
ENDBRANCH  46  70
BRANCH  58  81
ATOM     81  C   UNL     1      -1.518  19.479   1.813  1.00  0.00     0.023 A 
ATOM     82  C   UNL     1      -1.157  20.615   2.556  1.00  0.00     0.031 A 
ATOM     83  C   UNL     1      -2.494  19.619   0.810  1.00  0.00     0.131 A 
ATOM     84  C   UNL     1      -1.788  21.842   2.301  1.00  0.00     0.055 A 
ATOM     85  C   UNL     1      -3.088  20.850   0.533  1.00  0.00     0.041 A 
ATOM     86  F   UNL     1      -2.870  18.563   0.072  1.00  0.00    -0.206 F 
ATOM     87  C   UNL     1      -2.739  21.970   1.284  1.00  0.00     0.022 A 
BRANCH  84  88
ATOM     88  S   UNL     1      -1.369  23.274   3.333  1.00  0.00     0.124 S 
ATOM     89  O   UNL     1      -1.879  22.864   4.638  1.00  0.00    -0.237 OA
ATOM     90  O   UNL     1       0.083  23.341   3.208  1.00  0.00    -0.237 OA
ATOM     91  O   UNL     1      -2.095  24.375   2.702  1.00  0.00    -0.744 OA
ENDBRANCH  84  88
ENDBRANCH  58  81
ENDBRANCH  32  33
ENDBRANCH  25  27
ENDBRANCH  24  25
ENDBRANCH  23  24
ENDBRANCH  22  23
ENDBRANCH   1  22
TORSDOF 20
