REMARK SMILES CCc1cc(Nc2ccc(C(=O)OCCOC(=O)c3ccc(-c4c5nc(c(-c6cc(S(=O)(=O)[O-])ccc6F)c6ccc([nH]6)c(-c6cc(S(=O)(=O)[O-])ccc6F)c6nc(c(-c7cc(S(=O)(=O)[O-])ccc7F)c7ccc4[nH]7)C=C6)C=C5)cc3)cc2)nc(C(C)C)n1
REMARK SMILES IDX 14 1 13 2 11 3 12 4 10 5 7 6 8 7 83 8 9 9 82 10 6 11 5 13
REMARK SMILES IDX 3 14 4 15 89 16 85 17 84 18 2 19 1 20 86 21 87 22 88 23
REMARK SMILES IDX 15 24 16 25 17 26 18 27 19 28 20 29 81 30 21 31 80 32 22 33
REMARK SMILES IDX 23 34 24 35 74 36 25 37 79 38 73 39 75 40 26 41 78 42 72 43
REMARK SMILES IDX 71 44 27 46 59 47 39 48 58 49 40 50 43 51 57 52 76 53 41 54
REMARK SMILES IDX 42 55 56 57 77 58 44 59 28 60 29 61 37 62 30 63 36 64 38 65
REMARK SMILES IDX 35 66 31 67 32 68 33 69 34 70 60 71 61 72 69 73 62 74 68 75
REMARK SMILES IDX 70 76 67 77 63 78 64 79 65 80 66 81 45 82 46 83 54 84 47 85
REMARK SMILES IDX 53 86 55 87 52 88 48 89 49 90 50 91 51 92
REMARK H PARENT 6 12 75 45 43 56
REMARK Flexibility Score: inf
ROOT
ATOM      1  C   UNL     1       2.309   6.131 -11.149  1.00  0.00     0.275 C 
ENDROOT
BRANCH   1   2
ATOM      2  O   UNL     1       1.720   5.885  -9.857  1.00  0.00    -0.458 OA
BRANCH   2   3
ATOM      3  C   UNL     1       2.604   5.819  -8.831  1.00  0.00     0.338 C 
ATOM      4  O   UNL     1       3.818   5.910  -8.910  1.00  0.00    -0.246 OA
BRANCH   3   5
ATOM      5  C   UNL     1       1.901   5.655  -7.543  1.00  0.00     0.060 A 
ATOM      6  C   UNL     1       0.846   5.125  -4.999  1.00  0.00     0.040 A 
ATOM      7  C   UNL     1       1.870   6.061  -5.153  1.00  0.00     0.027 A 
ATOM      8  C   UNL     1       0.322   4.495  -6.139  1.00  0.00     0.027 A 
ATOM      9  C   UNL     1       2.412   6.304  -6.413  1.00  0.00     0.018 A 
ATOM     10  C   UNL     1       0.830   4.770  -7.412  1.00  0.00     0.018 A 
BRANCH   6  11
ATOM     11  N   UNL     1       0.527   4.670  -3.702  1.00  0.00    -0.340 N 
ATOM     12  H   UNL     1       0.092   5.296  -3.080  1.00  0.00     0.168 HD
BRANCH  11  13
ATOM     13  C   UNL     1       0.802   3.359  -3.254  1.00  0.00     0.134 A 
ATOM     14  C   UNL     1       0.785   1.712  -1.568  1.00  0.00     0.046 A 
ATOM     15  C   UNL     1       0.478   3.002  -1.962  1.00  0.00     0.071 A 
ATOM     16  N   UNL     1       1.355   0.821  -2.406  1.00  0.00    -0.238 NA
ATOM     17  C   UNL     1       1.635   1.249  -3.648  1.00  0.00     0.133 A 
ATOM     18  N   UNL     1       1.358   2.477  -4.102  1.00  0.00    -0.216 NA
BRANCH  14  19
ATOM     19  C   UNL     1       0.459   1.275  -0.160  1.00  0.00     0.053 C 
ATOM     20  C   UNL     1       0.975  -0.111   0.207  1.00  0.00     0.011 C 
ENDBRANCH  14  19
BRANCH  17  21
ATOM     21  C   UNL     1       2.265   0.293  -4.634  1.00  0.00     0.051 C 
ATOM     22  C   UNL     1       3.556  -0.313  -4.088  1.00  0.00     0.016 C 
ATOM     23  C   UNL     1       1.266  -0.788  -5.038  1.00  0.00     0.016 C 
ENDBRANCH  17  21
ENDBRANCH  11  13
ENDBRANCH   6  11
ENDBRANCH   3   5
ENDBRANCH   2   3
ENDBRANCH   1   2
BRANCH   1  24
ATOM     24  C   UNL     1       2.311   7.624 -11.472  1.00  0.00     0.275 C 
BRANCH  24  25
ATOM     25  O   UNL     1       3.151   8.325 -10.538  1.00  0.00    -0.458 OA
BRANCH  25  26
ATOM     26  C   UNL     1       2.652   9.491 -10.067  1.00  0.00     0.338 C 
ATOM     27  O   UNL     1       1.613  10.029 -10.412  1.00  0.00    -0.246 OA
BRANCH  26  28
ATOM     28  C   UNL     1       3.555  10.072  -9.050  1.00  0.00     0.060 A 
ATOM     29  C   UNL     1       4.087   9.286  -8.029  1.00  0.00     0.016 A 
ATOM     30  C   UNL     1       3.762  11.450  -9.035  1.00  0.00     0.016 A 
ATOM     31  C   UNL     1       4.703   9.885  -6.926  1.00  0.00     0.010 A 
ATOM     32  C   UNL     1       4.475  12.038  -7.983  1.00  0.00     0.010 A 
ATOM     33  C   UNL     1       4.896  11.273  -6.878  1.00  0.00    -0.014 A 
BRANCH  33  34
ATOM     34  C   UNL     1       5.420  11.946  -5.647  1.00  0.00     0.031 A 
ATOM     35  C   UNL     1       4.602  13.034  -4.987  1.00  0.00     0.074 A 
ATOM     36  C   UNL     1       6.598  11.593  -5.092  1.00  0.00     0.049 A 
ATOM     37  N   UNL     1       4.950  13.897  -4.064  1.00  0.00    -0.248 NA
ATOM     38  C   UNL     1       3.216  13.188  -5.454  1.00  0.00     0.031 C 
ATOM     39  C   UNL     1       7.487  10.536  -5.576  1.00  0.00     0.029 A 
ATOM     40  N   UNL     1       7.247  12.086  -3.985  1.00  0.00    -0.354 N 
ATOM     41  C   UNL     1       3.859  14.749  -3.908  1.00  0.00     0.074 A 
ATOM     42  C   UNL     1       2.841  14.295  -4.831  1.00  0.00     0.031 C 
ATOM     43  C   UNL     1       8.536  10.427  -4.745  1.00  0.00     0.029 A 
ATOM     44  C   UNL     1       8.444  11.460  -3.719  1.00  0.00     0.049 A 
ATOM     45  H   UNL     1       6.889  12.819  -3.433  1.00  0.00     0.167 HD
ATOM     46  C   UNL     1       3.721  15.815  -3.077  1.00  0.00     0.034 A 
ATOM     47  C   UNL     1       9.380  11.707  -2.780  1.00  0.00     0.034 A 
ATOM     48  C   UNL     1       4.708  16.210  -2.100  1.00  0.00     0.049 A 
ATOM     49  C   UNL     1       9.184  12.859  -1.829  1.00  0.00     0.074 A 
ATOM     50  C   UNL     1       4.675  17.276  -1.217  1.00  0.00     0.029 A 
ATOM     51  N   UNL     1       5.893  15.531  -1.853  1.00  0.00    -0.354 N 
ATOM     52  N   UNL     1       8.200  13.726  -1.774  1.00  0.00    -0.248 NA
ATOM     53  C   UNL     1      10.231  13.069  -0.821  1.00  0.00     0.031 C 
ATOM     54  C   UNL     1       5.852  17.258  -0.457  1.00  0.00     0.029 A 
ATOM     55  C   UNL     1       6.594  16.150  -0.828  1.00  0.00     0.049 A 
ATOM     56  H   UNL     1       6.193  14.726  -2.335  1.00  0.00     0.167 HD
ATOM     57  C   UNL     1       8.513  14.585  -0.724  1.00  0.00     0.074 A 
ATOM     58  C   UNL     1       9.757  14.111  -0.153  1.00  0.00     0.031 C 
ATOM     59  C   UNL     1       7.838  15.674  -0.277  1.00  0.00     0.034 A 
BRANCH  46  60
ATOM     60  C   UNL     1       2.482  16.663  -3.241  1.00  0.00     0.023 A 
ATOM     61  C   UNL     1       1.195  16.177  -2.957  1.00  0.00     0.031 A 
ATOM     62  C   UNL     1       2.595  17.975  -3.741  1.00  0.00     0.131 A 
ATOM     63  C   UNL     1       0.070  16.965  -3.247  1.00  0.00     0.055 A 
ATOM     64  C   UNL     1       1.476  18.783  -3.952  1.00  0.00     0.041 A 
ATOM     65  F   UNL     1       3.797  18.488  -4.048  1.00  0.00    -0.206 F 
ATOM     66  C   UNL     1       0.203  18.273  -3.721  1.00  0.00     0.022 A 
BRANCH  63  67
ATOM     67  S   UNL     1      -1.573  16.205  -3.136  1.00  0.00     0.124 S 
ATOM     68  O   UNL     1      -1.455  15.106  -4.091  1.00  0.00    -0.237 OA
ATOM     69  O   UNL     1      -1.650  15.824  -1.730  1.00  0.00    -0.237 OA
ATOM     70  O   UNL     1      -2.477  17.280  -3.541  1.00  0.00    -0.744 OA
ENDBRANCH  63  67
ENDBRANCH  46  60
BRANCH  47  71
ATOM     71  C   UNL     1      10.621  10.885  -2.722  1.00  0.00     0.023 A 
ATOM     72  C   UNL     1      10.885  10.050  -1.625  1.00  0.00     0.031 A 
ATOM     73  C   UNL     1      11.580  10.954  -3.748  1.00  0.00     0.131 A 
ATOM     74  C   UNL     1      12.095   9.341  -1.563  1.00  0.00     0.055 A 
ATOM     75  C   UNL     1      12.760  10.210  -3.704  1.00  0.00     0.041 A 
ATOM     76  F   UNL     1      11.374  11.738  -4.818  1.00  0.00    -0.206 F 
ATOM     77  C   UNL     1      13.027   9.405  -2.601  1.00  0.00     0.022 A 
BRANCH  74  78
ATOM     78  S   UNL     1      12.464   8.381  -0.069  1.00  0.00     0.124 S 
ATOM     79  O   UNL     1      12.446   9.413   0.961  1.00  0.00    -0.237 OA
ATOM     80  O   UNL     1      11.361   7.427  -0.040  1.00  0.00    -0.237 OA
ATOM     81  O   UNL     1      13.777   7.803  -0.351  1.00  0.00    -0.744 OA
ENDBRANCH  74  78
ENDBRANCH  47  71
BRANCH  59  82
ATOM     82  C   UNL     1       8.425  16.393   0.910  1.00  0.00     0.023 A 
ATOM     83  C   UNL     1       9.622  17.124   0.811  1.00  0.00     0.031 A 
ATOM     84  C   UNL     1       7.798  16.312   2.166  1.00  0.00     0.131 A 
ATOM     85  C   UNL     1      10.187  17.697   1.960  1.00  0.00     0.055 A 
ATOM     86  C   UNL     1       8.341  16.924   3.296  1.00  0.00     0.041 A 
ATOM     87  F   UNL     1       6.654  15.626   2.314  1.00  0.00    -0.206 F 
ATOM     88  C   UNL     1       9.550  17.608   3.200  1.00  0.00     0.022 A 
BRANCH  85  89
ATOM     89  S   UNL     1      11.822  18.474   1.834  1.00  0.00     0.124 S 
ATOM     90  O   UNL     1      12.625  17.407   1.246  1.00  0.00    -0.237 OA
ATOM     91  O   UNL     1      11.554  19.620   0.970  1.00  0.00    -0.237 OA
ATOM     92  O   UNL     1      12.152  18.806   3.219  1.00  0.00    -0.744 OA
ENDBRANCH  85  89
ENDBRANCH  59  82
ENDBRANCH  33  34
ENDBRANCH  26  28
ENDBRANCH  25  26
ENDBRANCH  24  25
ENDBRANCH   1  24
TORSDOF 18
