REMARK SMILES O=C(OCCOC(=O)c1ccc(-c2c3nc(c(-c4cc(S(=O)(=O)[O-])ccc4F)c4ccc([nH]4)c(-c4cc(S(=O)(=O)[O-])ccc4F)c4nc(c(-c5cc(S(=O)(=O)[O-])ccc5F)c5ccc2[nH]5)C=C4)C=C3)cc1)C1=Cc2cc(Cl)ccc2O[C@@H]1C(F)(F)F
REMARK SMILES IDX 5 1 4 2 3 3 2 4 1 5 72 6 73 7 82 8 74 9 81 10 75 11 80 12
REMARK SMILES IDX 76 13 79 14 77 15 78 16 83 17 84 18 85 19 86 20 6 21 7 22
REMARK SMILES IDX 8 23 9 24 10 25 71 26 11 27 70 28 12 29 13 30 14 31 64 32
REMARK SMILES IDX 15 33 69 34 63 35 65 36 16 37 68 38 62 39 61 40 17 42 49 43
REMARK SMILES IDX 29 44 48 45 30 46 33 47 47 48 66 49 31 50 32 51 46 53 67 54
REMARK SMILES IDX 34 55 18 56 19 57 27 58 20 59 26 60 28 61 25 62 21 63 22 64
REMARK SMILES IDX 23 65 24 66 50 67 51 68 59 69 52 70 58 71 60 72 57 73 53 74
REMARK SMILES IDX 54 75 55 76 56 77 35 78 36 79 44 80 37 81 43 82 45 83 42 84
REMARK SMILES IDX 38 85 39 86 40 87 41 88
REMARK H PARENT 65 41 33 52
REMARK Flexibility Score: inf
ROOT
ATOM      1  C   UNL     1       4.739   0.054  -0.925  1.00  0.00     0.275 C 
ENDROOT
BRANCH   1   2
ATOM      2  C   UNL     1       3.897   0.277   1.060  1.00  0.00     0.275 C 
BRANCH   2   3
ATOM      3  O   UNL     1       3.023   1.451   1.572  1.00  0.00    -0.459 OA
BRANCH   3   4
ATOM      4  C   UNL     1       3.299   2.609   0.959  1.00  0.00     0.338 C 
ATOM      5  O   UNL     1       2.755   3.679   1.048  1.00  0.00    -0.246 OA
BRANCH   4   6
ATOM      6  C   UNL     1       4.157   2.025  -0.046  1.00  0.00     0.087 C 
ATOM      7  C   UNL     1       5.498   1.764   0.438  1.00  0.00     0.027 C 
ATOM      8  C   UNL     1       2.889   0.709  -0.634  1.00  0.00     0.316 C 
ATOM      9  C   UNL     1       6.113   0.123   0.765  1.00  0.00     0.019 A 
ATOM     10  O   UNL     1       3.492  -1.085  -0.193  1.00  0.00    -0.475 OA
ATOM     11  C   UNL     1       7.345   0.021   1.343  1.00  0.00     0.032 A 
ATOM     12  C   UNL     1       5.135  -1.299   0.599  1.00  0.00     0.128 A 
ATOM     13  C   UNL     1       7.685  -1.273   1.756  1.00  0.00     0.041 A 
ATOM     14  C   UNL     1       5.546  -2.529   1.024  1.00  0.00     0.048 A 
ATOM     15  Cl  UNL     1       9.232  -1.446   2.525  1.00  0.00    -0.084 Cl
ATOM     16  C   UNL     1       6.843  -2.465   1.615  1.00  0.00     0.024 A 
BRANCH   8  17
ATOM     17  C   UNL     1       2.711   1.571  -1.975  1.00  0.00     0.430 C 
ATOM     18  F   UNL     1       1.767   1.154  -2.783  1.00  0.00    -0.167 F 
ATOM     19  F   UNL     1       2.277   2.817  -1.619  1.00  0.00    -0.167 F 
ATOM     20  F   UNL     1       3.834   1.802  -2.696  1.00  0.00    -0.167 F 
ENDBRANCH   8  17
ENDBRANCH   4   6
ENDBRANCH   3   4
ENDBRANCH   2   3
ENDBRANCH   1   2
BRANCH   1  21
ATOM     21  O   UNL     1       3.826  -0.570  -2.299  1.00  0.00    -0.458 OA
BRANCH  21  22
ATOM     22  C   UNL     1       2.938  -1.593  -2.617  1.00  0.00     0.338 C 
ATOM     23  O   UNL     1       2.605  -2.559  -1.955  1.00  0.00    -0.246 OA
BRANCH  22  24
ATOM     24  C   UNL     1       2.185  -1.164  -3.845  1.00  0.00     0.060 A 
ATOM     25  C   UNL     1       0.845  -0.724  -3.740  1.00  0.00     0.016 A 
ATOM     26  C   UNL     1       2.934  -0.820  -4.964  1.00  0.00     0.016 A 
ATOM     27  C   UNL     1       0.394   0.319  -4.590  1.00  0.00     0.010 A 
ATOM     28  C   UNL     1       2.471   0.187  -5.813  1.00  0.00     0.010 A 
ATOM     29  C   UNL     1       1.256   0.853  -5.565  1.00  0.00    -0.014 A 
BRANCH  29  30
ATOM     30  C   UNL     1       0.873   1.963  -6.492  1.00  0.00     0.031 A 
ATOM     31  C   UNL     1       0.239   1.522  -7.775  1.00  0.00     0.074 A 
ATOM     32  C   UNL     1       1.202   3.267  -6.316  1.00  0.00     0.049 A 
ATOM     33  N   UNL     1       0.026   2.187  -8.876  1.00  0.00    -0.248 NA
ATOM     34  C   UNL     1      -0.154   0.104  -7.828  1.00  0.00     0.031 C 
ATOM     35  C   UNL     1       1.815   3.850  -5.122  1.00  0.00     0.029 A 
ATOM     36  N   UNL     1       1.091   4.351  -7.172  1.00  0.00    -0.354 N 
ATOM     37  C   UNL     1      -0.492   1.256  -9.765  1.00  0.00     0.074 A 
ATOM     38  C   UNL     1      -0.520  -0.020  -9.088  1.00  0.00     0.031 C 
ATOM     39  C   UNL     1       2.036   5.166  -5.325  1.00  0.00     0.029 A 
ATOM     40  C   UNL     1       1.626   5.531  -6.681  1.00  0.00     0.049 A 
ATOM     41  H   UNL     1       0.666   4.287  -8.058  1.00  0.00     0.167 HD
ATOM     42  C   UNL     1      -0.912   1.445 -11.035  1.00  0.00     0.034 A 
ATOM     43  C   UNL     1       1.788   6.745  -7.268  1.00  0.00     0.034 A 
ATOM     44  C   UNL     1      -0.876   2.712 -11.706  1.00  0.00     0.049 A 
ATOM     45  C   UNL     1       1.354   6.913  -8.719  1.00  0.00     0.074 A 
ATOM     46  C   UNL     1      -1.320   3.018 -12.977  1.00  0.00     0.029 A 
ATOM     47  N   UNL     1      -0.349   3.877 -11.168  1.00  0.00    -0.354 N 
ATOM     48  N   UNL     1       0.795   6.037  -9.524  1.00  0.00    -0.248 NA
ATOM     49  C   UNL     1       1.581   8.228  -9.346  1.00  0.00     0.031 C 
ATOM     50  C   UNL     1      -0.993   4.350 -13.239  1.00  0.00     0.029 A 
ATOM     51  C   UNL     1      -0.421   4.897 -12.100  1.00  0.00     0.049 A 
ATOM     52  H   UNL     1       0.021   3.965 -10.260  1.00  0.00     0.167 HD
ATOM     53  C   UNL     1       0.571   6.708 -10.727  1.00  0.00     0.074 A 
ATOM     54  C   UNL     1       1.038   8.063 -10.543  1.00  0.00     0.031 C 
ATOM     55  C   UNL     1       0.032   6.249 -11.885  1.00  0.00     0.034 A 
BRANCH  42  56
ATOM     56  C   UNL     1      -1.387   0.226 -11.774  1.00  0.00     0.023 A 
ATOM     57  C   UNL     1      -2.521  -0.488 -11.353  1.00  0.00     0.031 A 
ATOM     58  C   UNL     1      -0.646  -0.274 -12.857  1.00  0.00     0.131 A 
ATOM     59  C   UNL     1      -2.831  -1.713 -11.955  1.00  0.00     0.055 A 
ATOM     60  C   UNL     1      -1.015  -1.447 -13.512  1.00  0.00     0.041 A 
ATOM     61  F   UNL     1       0.466   0.353 -13.273  1.00  0.00    -0.206 F 
ATOM     62  C   UNL     1      -2.104  -2.183 -13.052  1.00  0.00     0.022 A 
BRANCH  59  63
ATOM     63  S   UNL     1      -4.096  -2.756 -11.183  1.00  0.00     0.124 S 
ATOM     64  O   UNL     1      -3.490  -3.040  -9.884  1.00  0.00    -0.237 OA
ATOM     65  O   UNL     1      -5.262  -1.880 -11.165  1.00  0.00    -0.237 OA
ATOM     66  O   UNL     1      -4.191  -3.902 -12.084  1.00  0.00    -0.744 OA
ENDBRANCH  59  63
ENDBRANCH  42  56
BRANCH  43  67
ATOM     67  C   UNL     1       2.442   7.910  -6.569  1.00  0.00     0.023 A 
ATOM     68  C   UNL     1       1.782   9.150  -6.431  1.00  0.00     0.031 A 
ATOM     69  C   UNL     1       3.793   7.859  -6.178  1.00  0.00     0.131 A 
ATOM     70  C   UNL     1       2.488  10.292  -6.000  1.00  0.00     0.055 A 
ATOM     71  C   UNL     1       4.471   8.981  -5.685  1.00  0.00     0.041 A 
ATOM     72  F   UNL     1       4.494   6.721  -6.301  1.00  0.00    -0.206 F 
ATOM     73  C   UNL     1       3.826  10.211  -5.613  1.00  0.00     0.022 A 
BRANCH  70  74
ATOM     74  S   UNL     1       1.681  11.920  -6.099  1.00  0.00     0.124 S 
ATOM     75  O   UNL     1       1.315  11.983  -7.510  1.00  0.00    -0.237 OA
ATOM     76  O   UNL     1       0.578  11.771  -5.155  1.00  0.00    -0.237 OA
ATOM     77  O   UNL     1       2.731  12.849  -5.686  1.00  0.00    -0.744 OA
ENDBRANCH  70  74
ENDBRANCH  43  67
BRANCH  55  78
ATOM     78  C   UNL     1      -0.142   7.224 -13.023  1.00  0.00     0.023 A 
ATOM     79  C   UNL     1       0.955   7.757 -13.721  1.00  0.00     0.031 A 
ATOM     80  C   UNL     1      -1.435   7.568 -13.459  1.00  0.00     0.131 A 
ATOM     81  C   UNL     1       0.738   8.625 -14.802  1.00  0.00     0.055 A 
ATOM     82  C   UNL     1      -1.645   8.384 -14.570  1.00  0.00     0.041 A 
ATOM     83  F   UNL     1      -2.519   7.085 -12.829  1.00  0.00    -0.206 F 
ATOM     84  C   UNL     1      -0.554   8.923 -15.245  1.00  0.00     0.022 A 
BRANCH  81  85
ATOM     85  S   UNL     1       2.170   9.404 -15.599  1.00  0.00     0.124 S 
ATOM     86  O   UNL     1       2.757  10.159 -14.497  1.00  0.00    -0.237 OA
ATOM     87  O   UNL     1       2.936   8.252 -16.062  1.00  0.00    -0.237 OA
ATOM     88  O   UNL     1       1.573  10.215 -16.659  1.00  0.00    -0.744 OA
ENDBRANCH  81  85
ENDBRANCH  55  78
ENDBRANCH  29  30
ENDBRANCH  22  24
ENDBRANCH  21  22
ENDBRANCH   1  21
TORSDOF 15
