REMARK SMILES O=C(OCCOC(=O)[C@H]1CC[C@@H](CNc2ccccc2C(F)(F)F)O1)c1ccc(-c2c3nc(c(-c4cc(S(=O)(=O)[O-])ccc4F)c4ccc([nH]4)c(-c4cc(S(=O)(=O)[O-])ccc4F)c4nc(c(-c5cc(S(=O)(=O)[O-])ccc5F)c5ccc2[nH]5)C=C4)C=C3)cc1
REMARK SMILES IDX 5 1 4 2 3 3 2 4 1 5 26 6 27 7 88 8 28 9 87 10 29 11 30 12
REMARK SMILES IDX 31 13 81 14 32 15 86 16 80 17 82 18 33 19 85 20 79 21 78 22
REMARK SMILES IDX 34 24 66 25 46 26 65 27 47 28 50 29 64 30 83 31 48 32 49 33
REMARK SMILES IDX 63 35 84 36 51 37 35 38 36 39 44 40 37 41 43 42 45 43 42 44
REMARK SMILES IDX 38 45 39 46 40 47 41 48 67 49 68 50 76 51 69 52 75 53 77 54
REMARK SMILES IDX 74 55 70 56 71 57 72 58 73 59 52 60 53 61 61 62 54 63 60 64
REMARK SMILES IDX 62 65 59 66 55 67 56 68 57 69 58 70 6 71 7 72 8 73 9 74
REMARK SMILES IDX 10 75 25 76 11 77 12 78 13 79 14 80 15 82 16 83 20 84 17 85
REMARK SMILES IDX 19 86 18 87 21 88 22 89 23 90 24 91
REMARK H PARENT 82 23 50 34 14 81
REMARK Flexibility Score: inf
ROOT
ATOM      1  C   UNL     1      -0.397  -1.547  -4.641  1.00  0.00     0.274 C 
ENDROOT
BRANCH   1   2
ATOM      2  C   UNL     1      -1.313  -1.434  -3.420  1.00  0.00     0.275 C 
BRANCH   2   3
ATOM      3  O   UNL     1      -1.264  -0.137  -2.798  1.00  0.00    -0.458 OA
BRANCH   3   4
ATOM      4  C   UNL     1      -0.599   0.256  -1.683  1.00  0.00     0.338 C 
ATOM      5  O   UNL     1      -1.007   1.246  -1.077  1.00  0.00    -0.246 OA
BRANCH   4   6
ATOM      6  C   UNL     1       0.713  -0.337  -1.260  1.00  0.00     0.060 A 
ATOM      7  C   UNL     1       1.131  -1.657  -1.458  1.00  0.00     0.016 A 
ATOM      8  C   UNL     1       1.612   0.544  -0.628  1.00  0.00     0.016 A 
ATOM      9  C   UNL     1       2.433  -2.062  -1.147  1.00  0.00     0.010 A 
ATOM     10  C   UNL     1       2.913   0.145  -0.304  1.00  0.00     0.010 A 
ATOM     11  C   UNL     1       3.334  -1.161  -0.579  1.00  0.00    -0.014 A 
BRANCH  11  12
ATOM     12  C   UNL     1       4.632  -1.647  -0.068  1.00  0.00     0.031 A 
ATOM     13  C   UNL     1       4.684  -2.035   1.375  1.00  0.00     0.074 A 
ATOM     14  C   UNL     1       5.715  -1.748  -0.860  1.00  0.00     0.049 A 
ATOM     15  N   UNL     1       5.694  -2.448   2.088  1.00  0.00    -0.248 NA
ATOM     16  C   UNL     1       3.412  -1.946   2.108  1.00  0.00     0.031 C 
ATOM     17  C   UNL     1       5.740  -1.466  -2.292  1.00  0.00     0.029 A 
ATOM     18  N   UNL     1       7.010  -2.097  -0.570  1.00  0.00    -0.354 N 
ATOM     19  C   UNL     1       5.176  -2.679   3.356  1.00  0.00     0.074 A 
ATOM     20  C   UNL     1       3.780  -2.304   3.324  1.00  0.00     0.031 C 
ATOM     21  C   UNL     1       6.997  -1.599  -2.749  1.00  0.00     0.029 A 
ATOM     22  C   UNL     1       7.870  -1.960  -1.637  1.00  0.00     0.049 A 
ATOM     23  H   UNL     1       7.296  -2.416   0.316  1.00  0.00     0.167 HD
ATOM     24  C   UNL     1       5.812  -3.173   4.445  1.00  0.00     0.034 A 
ATOM     25  C   UNL     1       9.212  -2.082  -1.693  1.00  0.00     0.034 A 
ATOM     26  C   UNL     1       7.221  -3.464   4.456  1.00  0.00     0.049 A 
ATOM     27  C   UNL     1       9.936  -2.499  -0.437  1.00  0.00     0.074 A 
ATOM     28  C   UNL     1       8.001  -3.927   5.497  1.00  0.00     0.029 A 
ATOM     29  N   UNL     1       8.071  -3.279   3.369  1.00  0.00    -0.354 N 
ATOM     30  N   UNL     1       9.438  -2.740   0.756  1.00  0.00    -0.248 NA
ATOM     31  C   UNL     1      11.389  -2.681  -0.529  1.00  0.00     0.031 C 
ATOM     32  C   UNL     1       9.332  -3.941   5.066  1.00  0.00     0.029 A 
ATOM     33  C   UNL     1       9.373  -3.580   3.725  1.00  0.00     0.049 A 
ATOM     34  H   UNL     1       7.786  -2.977   2.476  1.00  0.00     0.167 HD
ATOM     35  C   UNL     1      10.511  -3.143   1.546  1.00  0.00     0.074 A 
ATOM     36  C   UNL     1      11.684  -3.102   0.695  1.00  0.00     0.031 C 
ATOM     37  C   UNL     1      10.522  -3.530   2.847  1.00  0.00     0.034 A 
BRANCH  24  38
ATOM     38  C   UNL     1       4.980  -3.315   5.696  1.00  0.00     0.023 A 
ATOM     39  C   UNL     1       3.837  -4.137   5.725  1.00  0.00     0.031 A 
ATOM     40  C   UNL     1       5.237  -2.506   6.815  1.00  0.00     0.131 A 
ATOM     41  C   UNL     1       2.927  -4.029   6.786  1.00  0.00     0.055 A 
ATOM     42  C   UNL     1       4.380  -2.484   7.917  1.00  0.00     0.041 A 
ATOM     43  F   UNL     1       6.295  -1.681   6.834  1.00  0.00    -0.206 F 
ATOM     44  C   UNL     1       3.202  -3.226   7.894  1.00  0.00     0.022 A 
BRANCH  41  45
ATOM     45  S   UNL     1       1.278  -4.763   6.582  1.00  0.00     0.124 S 
ATOM     46  O   UNL     1       0.810  -4.106   5.363  1.00  0.00    -0.237 OA
ATOM     47  O   UNL     1       1.578  -6.186   6.464  1.00  0.00    -0.237 OA
ATOM     48  O   UNL     1       0.575  -4.371   7.801  1.00  0.00    -0.744 OA
ENDBRANCH  41  45
ENDBRANCH  24  38
BRANCH  25  49
ATOM     49  C   UNL     1       9.946  -1.765  -2.954  1.00  0.00     0.023 A 
ATOM     50  C   UNL     1      10.639  -2.748  -3.678  1.00  0.00     0.031 A 
ATOM     51  C   UNL     1       9.966  -0.448  -3.454  1.00  0.00     0.131 A 
ATOM     52  C   UNL     1      11.342  -2.396  -4.844  1.00  0.00     0.055 A 
ATOM     53  C   UNL     1      10.633  -0.111  -4.633  1.00  0.00     0.041 A 
ATOM     54  F   UNL     1       9.316   0.533  -2.807  1.00  0.00    -0.206 F 
ATOM     55  C   UNL     1      11.334  -1.087  -5.332  1.00  0.00     0.022 A 
BRANCH  52  56
ATOM     56  S   UNL     1      12.315  -3.668  -5.700  1.00  0.00     0.124 S 
ATOM     57  O   UNL     1      13.255  -4.072  -4.661  1.00  0.00    -0.237 OA
ATOM     58  O   UNL     1      11.290  -4.644  -6.055  1.00  0.00    -0.237 OA
ATOM     59  O   UNL     1      12.902  -2.947  -6.828  1.00  0.00    -0.744 OA
ENDBRANCH  52  56
ENDBRANCH  25  49
BRANCH  37  60
ATOM     60  C   UNL     1      11.832  -4.009   3.418  1.00  0.00     0.023 A 
ATOM     61  C   UNL     1      12.900  -3.135   3.673  1.00  0.00     0.031 A 
ATOM     62  C   UNL     1      11.975  -5.362   3.780  1.00  0.00     0.131 A 
ATOM     63  C   UNL     1      14.076  -3.630   4.258  1.00  0.00     0.055 A 
ATOM     64  C   UNL     1      13.122  -5.835   4.413  1.00  0.00     0.041 A 
ATOM     65  F   UNL     1      10.982  -6.237   3.553  1.00  0.00    -0.206 F 
ATOM     66  C   UNL     1      14.183  -4.967   4.652  1.00  0.00     0.022 A 
BRANCH  63  67
ATOM     67  S   UNL     1      15.488  -2.511   4.461  1.00  0.00     0.124 S 
ATOM     68  O   UNL     1      15.782  -2.143   3.080  1.00  0.00    -0.237 OA
ATOM     69  O   UNL     1      14.934  -1.453   5.300  1.00  0.00    -0.237 OA
ATOM     70  O   UNL     1      16.498  -3.348   5.107  1.00  0.00    -0.744 OA
ENDBRANCH  63  67
ENDBRANCH  37  60
ENDBRANCH  11  12
ENDBRANCH   4   6
ENDBRANCH   3   4
ENDBRANCH   2   3
ENDBRANCH   1   2
BRANCH   1  71
ATOM     71  O   UNL     1       0.957  -1.183  -4.335  1.00  0.00    -0.460 OA
BRANCH  71  72
ATOM     72  C   UNL     1       1.337   0.085  -4.685  1.00  0.00     0.335 C 
ATOM     73  O   UNL     1       0.686   0.838  -5.393  1.00  0.00    -0.249 OA
BRANCH  72  74
ATOM     74  C   UNL     1       2.666   0.443  -4.003  1.00  0.00     0.228 C 
ATOM     75  C   UNL     1       3.794   0.725  -4.966  1.00  0.00     0.047 C 
ATOM     76  O   UNL     1       2.524   1.628  -3.212  1.00  0.00    -0.361 OA
ATOM     77  C   UNL     1       3.611   2.196  -5.238  1.00  0.00     0.037 C 
ATOM     78  C   UNL     1       3.118   2.742  -3.905  1.00  0.00     0.138 C 
BRANCH  78  79
ATOM     79  C   UNL     1       2.087   3.885  -3.955  1.00  0.00     0.145 C 
BRANCH  79  80
ATOM     80  N   UNL     1       2.248   4.782  -5.102  1.00  0.00    -0.382 N 
ATOM     81  H   UNL     1       2.983   5.435  -5.121  1.00  0.00     0.160 HD
BRANCH  80  82
ATOM     82  C   UNL     1       1.351   4.703  -6.165  1.00  0.00     0.046 A 
ATOM     83  C   UNL     1       1.883   4.396  -7.433  1.00  0.00     0.026 A 
ATOM     84  C   UNL     1      -0.046   4.803  -6.041  1.00  0.00     0.079 A 
ATOM     85  C   UNL     1       1.069   4.149  -8.539  1.00  0.00     0.002 A 
ATOM     86  C   UNL     1      -0.859   4.548  -7.171  1.00  0.00     0.015 A 
ATOM     87  C   UNL     1      -0.308   4.219  -8.407  1.00  0.00     0.001 A 
BRANCH  84  88
ATOM     88  C   UNL     1      -0.770   5.202  -4.776  1.00  0.00     0.418 C 
ATOM     89  F   UNL     1      -1.718   6.162  -5.023  1.00  0.00    -0.166 F 
ATOM     90  F   UNL     1      -1.461   4.165  -4.222  1.00  0.00    -0.166 F 
ATOM     91  F   UNL     1      -0.008   5.725  -3.776  1.00  0.00    -0.166 F 
ENDBRANCH  84  88
ENDBRANCH  80  82
ENDBRANCH  79  80
ENDBRANCH  78  79
ENDBRANCH  72  74
ENDBRANCH  71  72
ENDBRANCH   1  71
TORSDOF 18
