REMARK SMILES CCNC(=O)c1ccc(N(CC(=O)OCCOC(=O)c2ccc(-c3c4nc(c(-c5cc(S(=O)(=O)[O-])ccc5F)c5ccc([nH]5)c(-c5cc(S(=O)(=O)[O-])ccc5F)c5nc(c(-c6cc(S(=O)(=O)[O-])ccc6F)c6ccc3[nH]6)C=C5)C=C4)cc2)C(C)(C)C)nn1
REMARK SMILES IDX 15 1 14 2 12 3 13 4 11 5 10 6 9 7 6 8 7 9 88 10 8 11 87 12
REMARK SMILES IDX 4 13 3 14 5 16 2 17 1 18 83 19 84 20 85 21 86 22 16 23 17 24
REMARK SMILES IDX 18 25 19 26 20 27 21 28 82 29 22 30 81 31 23 32 24 33 25 34
REMARK SMILES IDX 75 35 26 36 80 37 74 38 76 39 27 40 79 41 73 42 72 43 28 45
REMARK SMILES IDX 60 46 40 47 59 48 41 49 44 50 58 51 77 52 42 53 43 54 57 56
REMARK SMILES IDX 78 57 45 58 29 59 30 60 38 61 31 62 37 63 39 64 36 65 32 66
REMARK SMILES IDX 33 67 34 68 35 69 61 70 62 71 70 72 63 73 69 74 71 75 68 76
REMARK SMILES IDX 64 77 65 78 66 79 67 80 46 81 47 82 55 83 48 84 54 85 56 86
REMARK SMILES IDX 53 87 49 88 50 89 51 90 52 91
REMARK H PARENT 3 15 76 44 44 55
REMARK Flexibility Score: inf
ROOT
ATOM      1  C   UNL     1      -6.654  -0.222  -2.417  1.00  0.00     0.274 C 
ENDROOT
BRANCH   1   2
ATOM      2  O   UNL     1      -6.248   0.714  -1.396  1.00  0.00    -0.461 OA
BRANCH   2   3
ATOM      3  C   UNL     1      -6.364   2.031  -1.734  1.00  0.00     0.325 C 
ATOM      4  O   UNL     1      -6.745   2.424  -2.836  1.00  0.00    -0.250 OA
BRANCH   3   5
ATOM      5  C   UNL     1      -6.127   3.001  -0.576  1.00  0.00     0.241 C 
BRANCH   5   6
ATOM      6  N   UNL     1      -5.347   2.479   0.578  1.00  0.00    -0.339 N 
BRANCH   6   7
ATOM      7  C   UNL     1      -3.969   2.563   0.369  1.00  0.00     0.152 A 
ATOM      8  C   UNL     1      -1.263   2.953  -0.135  1.00  0.00     0.150 A 
ATOM      9  C   UNL     1      -1.671   2.675   1.150  1.00  0.00     0.040 A 
ATOM     10  N   UNL     1      -2.143   3.032  -1.142  1.00  0.00    -0.143 NA
ATOM     11  C   UNL     1      -3.025   2.439   1.381  1.00  0.00     0.051 A 
ATOM     12  N   UNL     1      -3.494   2.834  -0.873  1.00  0.00    -0.132 NA
BRANCH   8  13
ATOM     13  C   UNL     1       0.169   3.164  -0.449  1.00  0.00     0.271 C 
ATOM     14  N   UNL     1       1.104   2.240  -0.028  1.00  0.00    -0.351 N 
ATOM     15  H   UNL     1       2.044   2.519  -0.117  1.00  0.00     0.163 HD
ATOM     16  O   UNL     1       0.546   4.167  -1.048  1.00  0.00    -0.267 OA
BRANCH  14  17
ATOM     17  C   UNL     1       0.896   0.914   0.528  1.00  0.00     0.113 C 
ATOM     18  C   UNL     1       1.496  -0.150  -0.368  1.00  0.00     0.027 C 
ENDBRANCH  14  17
ENDBRANCH   8  13
ENDBRANCH   6   7
BRANCH   6  19
ATOM     19  C   UNL     1      -6.019   2.144   1.874  1.00  0.00     0.034 C 
ATOM     20  C   UNL     1      -5.638   0.714   2.317  1.00  0.00     0.034 C 
ATOM     21  C   UNL     1      -5.729   3.211   2.950  1.00  0.00     0.034 C 
ATOM     22  C   UNL     1      -7.560   2.111   1.768  1.00  0.00     0.034 C 
ENDBRANCH   6  19
ENDBRANCH   5   6
ENDBRANCH   3   5
ENDBRANCH   2   3
ENDBRANCH   1   2
BRANCH   1  23
ATOM     23  C   UNL     1      -7.999  -0.851  -2.057  1.00  0.00     0.275 C 
BRANCH  23  24
ATOM     24  O   UNL     1      -8.943   0.184  -1.736  1.00  0.00    -0.458 OA
BRANCH  24  25
ATOM     25  C   UNL     1      -9.661  -0.010  -0.603  1.00  0.00     0.338 C 
ATOM     26  O   UNL     1      -9.679  -1.022   0.078  1.00  0.00    -0.246 OA
BRANCH  25  27
ATOM     27  C   UNL     1     -10.416   1.217  -0.248  1.00  0.00     0.060 A 
ATOM     28  C   UNL     1      -9.983   2.489  -0.637  1.00  0.00     0.016 A 
ATOM     29  C   UNL     1     -11.530   1.095   0.587  1.00  0.00     0.016 A 
ATOM     30  C   UNL     1     -10.619   3.629  -0.141  1.00  0.00     0.010 A 
ATOM     31  C   UNL     1     -12.226   2.236   0.998  1.00  0.00     0.010 A 
ATOM     32  C   UNL     1     -11.772   3.519   0.652  1.00  0.00    -0.014 A 
BRANCH  32  33
ATOM     33  C   UNL     1     -12.543   4.725   1.071  1.00  0.00     0.031 A 
ATOM     34  C   UNL     1     -12.817   5.006   2.527  1.00  0.00     0.074 A 
ATOM     35  C   UNL     1     -13.060   5.541   0.131  1.00  0.00     0.049 A 
ATOM     36  N   UNL     1     -13.630   5.881   3.064  1.00  0.00    -0.248 NA
ATOM     37  C   UNL     1     -12.094   4.181   3.505  1.00  0.00     0.031 C 
ATOM     38  C   UNL     1     -12.870   5.396  -1.315  1.00  0.00     0.029 A 
ATOM     39  N   UNL     1     -13.864   6.649   0.246  1.00  0.00    -0.354 N 
ATOM     40  C   UNL     1     -13.553   5.685   4.440  1.00  0.00     0.074 A 
ATOM     41  C   UNL     1     -12.622   4.593   4.649  1.00  0.00     0.031 C 
ATOM     42  C   UNL     1     -13.513   6.387  -1.947  1.00  0.00     0.029 A 
ATOM     43  C   UNL     1     -14.236   7.184  -0.965  1.00  0.00     0.049 A 
ATOM     44  H   UNL     1     -14.147   7.022   1.112  1.00  0.00     0.167 HD
ATOM     45  C   UNL     1     -14.200   6.351   5.432  1.00  0.00     0.034 A 
ATOM     46  C   UNL     1     -15.100   8.172  -1.266  1.00  0.00     0.034 A 
ATOM     47  C   UNL     1     -15.106   7.455   5.209  1.00  0.00     0.049 A 
ATOM     48  C   UNL     1     -15.840   8.862  -0.158  1.00  0.00     0.074 A 
ATOM     49  C   UNL     1     -15.768   8.231   6.146  1.00  0.00     0.029 A 
ATOM     50  N   UNL     1     -15.484   7.940   3.963  1.00  0.00    -0.354 N 
ATOM     51  N   UNL     1     -15.780   8.645   1.135  1.00  0.00    -0.248 NA
ATOM     52  C   UNL     1     -16.775   9.923  -0.553  1.00  0.00     0.031 C 
ATOM     53  C   UNL     1     -16.592   9.139   5.469  1.00  0.00     0.029 A 
ATOM     54  C   UNL     1     -16.394   8.979   4.108  1.00  0.00     0.049 A 
ATOM     55  H   UNL     1     -15.155   7.596   3.101  1.00  0.00     0.167 HD
ATOM     56  C   UNL     1     -16.667   9.548   1.710  1.00  0.00     0.074 A 
ATOM     57  C   UNL     1     -17.231  10.326   0.624  1.00  0.00     0.031 C 
ATOM     58  C   UNL     1     -16.984   9.720   3.018  1.00  0.00     0.034 A 
BRANCH  45  59
ATOM     59  C   UNL     1     -13.990   5.867   6.849  1.00  0.00     0.023 A 
ATOM     60  C   UNL     1     -12.739   5.936   7.486  1.00  0.00     0.031 A 
ATOM     61  C   UNL     1     -15.064   5.311   7.569  1.00  0.00     0.131 A 
ATOM     62  C   UNL     1     -12.577   5.398   8.773  1.00  0.00     0.055 A 
ATOM     63  C   UNL     1     -14.914   4.846   8.877  1.00  0.00     0.041 A 
ATOM     64  F   UNL     1     -16.279   5.201   7.008  1.00  0.00    -0.206 F 
ATOM     65  C   UNL     1     -13.661   4.874   9.482  1.00  0.00     0.022 A 
BRANCH  62  66
ATOM     66  S   UNL     1     -10.900   5.262   9.452  1.00  0.00     0.124 S 
ATOM     67  O   UNL     1     -10.216   4.499   8.410  1.00  0.00    -0.237 OA
ATOM     68  O   UNL     1     -10.501   6.658   9.587  1.00  0.00    -0.237 OA
ATOM     69  O   UNL     1     -11.096   4.543  10.710  1.00  0.00    -0.744 OA
ENDBRANCH  62  66
ENDBRANCH  45  59
BRANCH  46  70
ATOM     70  C   UNL     1     -15.355   8.521  -2.690  1.00  0.00     0.023 A 
ATOM     71  C   UNL     1     -14.940   9.754  -3.214  1.00  0.00     0.031 A 
ATOM     72  C   UNL     1     -16.014   7.621  -3.547  1.00  0.00     0.131 A 
ATOM     73  C   UNL     1     -15.206  10.064  -4.556  1.00  0.00     0.055 A 
ATOM     74  C   UNL     1     -16.235   7.915  -4.892  1.00  0.00     0.041 A 
ATOM     75  F   UNL     1     -16.423   6.426  -3.091  1.00  0.00    -0.206 F 
ATOM     76  C   UNL     1     -15.836   9.147  -5.402  1.00  0.00     0.022 A 
BRANCH  73  77
ATOM     77  S   UNL     1     -14.752  11.707  -5.173  1.00  0.00     0.124 S 
ATOM     78  O   UNL     1     -15.559  12.576  -4.324  1.00  0.00    -0.237 OA
ATOM     79  O   UNL     1     -13.313  11.734  -4.934  1.00  0.00    -0.237 OA
ATOM     80  O   UNL     1     -15.148  11.664  -6.579  1.00  0.00    -0.744 OA
ENDBRANCH  73  77
ENDBRANCH  46  70
BRANCH  58  81
ATOM     81  C   UNL     1     -17.975  10.813   3.331  1.00  0.00     0.023 A 
ATOM     82  C   UNL     1     -19.326  10.709   2.953  1.00  0.00     0.031 A 
ATOM     83  C   UNL     1     -17.553  11.993   3.966  1.00  0.00     0.131 A 
ATOM     84  C   UNL     1     -20.194  11.792   3.159  1.00  0.00     0.055 A 
ATOM     85  C   UNL     1     -18.433  13.046   4.217  1.00  0.00     0.041 A 
ATOM     86  F   UNL     1     -16.273  12.146   4.343  1.00  0.00    -0.206 F 
ATOM     87  C   UNL     1     -19.759  12.955   3.800  1.00  0.00     0.022 A 
BRANCH  84  88
ATOM     88  S   UNL     1     -21.877  11.700   2.489  1.00  0.00     0.124 S 
ATOM     89  O   UNL     1     -21.626  11.500   1.065  1.00  0.00    -0.237 OA
ATOM     90  O   UNL     1     -22.437  10.559   3.205  1.00  0.00    -0.237 OA
ATOM     91  O   UNL     1     -22.457  12.996   2.839  1.00  0.00    -0.744 OA
ENDBRANCH  84  88
ENDBRANCH  58  81
ENDBRANCH  32  33
ENDBRANCH  25  27
ENDBRANCH  24  25
ENDBRANCH  23  24
ENDBRANCH   1  23
TORSDOF 19
