REMARK SMILES CC[NH2+][C@@]1(C(=O)OCCOC(=O)c2ccc(-c3c4nc(c(-c5cc(S(=O)(=O)[O-])ccc5F)c5ccc([nH]5)c(-c5cc(S(=O)(=O)[O-])ccc5F)c5nc(c(-c6cc(S(=O)(=O)[O-])ccc6F)c6ccc3[nH]6)C=C5)C=C4)cc2)CC[C@H](Oc2ccc3c(c2)OCO3)C1
REMARK SMILES IDX 9 1 8 2 7 3 5 4 6 5 4 6 76 7 89 8 77 9 78 10 3 11 2 14 1 15
REMARK SMILES IDX 79 16 80 17 81 18 85 19 82 20 84 21 83 22 86 23 88 24 87 25
REMARK SMILES IDX 10 26 11 27 12 28 13 29 14 30 75 31 15 32 74 33 16 34 17 35
REMARK SMILES IDX 18 36 68 37 19 38 73 39 67 40 69 41 20 42 72 43 66 44 65 45
REMARK SMILES IDX 21 47 53 48 33 49 52 50 34 51 37 52 51 53 70 54 35 55 36 56
REMARK SMILES IDX 50 58 71 59 38 60 22 61 23 62 31 63 24 64 30 65 32 66 29 67
REMARK SMILES IDX 25 68 26 69 27 70 28 71 54 72 55 73 63 74 56 75 62 76 64 77
REMARK SMILES IDX 61 78 57 79 58 80 59 81 60 82 39 83 40 84 48 85 41 86 47 87
REMARK SMILES IDX 49 88 46 89 42 90 43 91 44 92 45 93
REMARK H PARENT 3 12 3 13 69 46 37 57
REMARK Flexibility Score: inf
ROOT
ATOM      1  C   UNL     1       2.900   0.081   6.791  1.00  0.00     0.275 C 
ENDROOT
BRANCH   1   2
ATOM      2  C   UNL     1       1.389  -0.065   6.653  1.00  0.00     0.274 C 
BRANCH   2   3
ATOM      3  O   UNL     1       1.085  -0.797   5.451  1.00  0.00    -0.457 OA
BRANCH   3   4
ATOM      4  C   UNL     1       0.254  -0.214   4.552  1.00  0.00     0.368 C 
ATOM      5  O   UNL     1      -0.191   0.924   4.673  1.00  0.00    -0.245 OA
BRANCH   4   6
ATOM      6  C   UNL     1      -0.101  -1.161   3.346  1.00  0.00     0.198 C 
ATOM      7  C   UNL     1      -1.619  -1.381   3.412  1.00  0.00     0.085 C 
ATOM      8  C   UNL     1       0.415  -2.604   3.480  1.00  0.00     0.126 C 
ATOM      9  C   UNL     1      -1.780  -2.397   4.546  1.00  0.00     0.052 C 
ATOM     10  C   UNL     1      -0.521  -3.278   4.499  1.00  0.00     0.180 C 
BRANCH   6  11
ATOM     11  N   UNL     1       0.435  -0.506   2.136  1.00  0.00    -0.332 N 
ATOM     12  H   UNL     1       0.291   0.497   2.245  1.00  0.00     0.347 HD
ATOM     13  H   UNL     1       1.407  -0.814   2.091  1.00  0.00     0.347 HD
BRANCH  11  14
ATOM     14  C   UNL     1      -0.123  -0.885   0.845  1.00  0.00     0.257 C 
ATOM     15  C   UNL     1       0.589  -0.102  -0.253  1.00  0.00     0.071 C 
ENDBRANCH  11  14
ENDBRANCH   6  11
BRANCH  10  16
ATOM     16  O   UNL     1       0.177  -3.270   5.738  1.00  0.00    -0.490 OA
BRANCH  16  17
ATOM     17  C   UNL     1      -0.199  -4.071   6.767  1.00  0.00     0.123 A 
ATOM     18  C   UNL     1      -1.368  -4.842   6.835  1.00  0.00     0.050 A 
ATOM     19  C   UNL     1       0.704  -4.056   7.836  1.00  0.00     0.097 A 
ATOM     20  C   UNL     1      -1.643  -5.604   7.979  1.00  0.00     0.054 A 
ATOM     21  C   UNL     1       0.415  -4.820   8.941  1.00  0.00     0.169 A 
ATOM     22  C   UNL     1      -0.729  -5.575   9.011  1.00  0.00     0.166 A 
ATOM     23  O   UNL     1       1.185  -4.929  10.056  1.00  0.00    -0.453 OA
ATOM     24  O   UNL     1      -0.824  -6.258  10.184  1.00  0.00    -0.454 OA
ATOM     25  C   UNL     1       0.431  -5.903  10.803  1.00  0.00     0.468 C 
ENDBRANCH  16  17
ENDBRANCH  10  16
ENDBRANCH   4   6
ENDBRANCH   3   4
ENDBRANCH   2   3
ENDBRANCH   1   2
BRANCH   1  26
ATOM     26  O   UNL     1       3.398   0.870   5.699  1.00  0.00    -0.458 OA
BRANCH  26  27
ATOM     27  C   UNL     1       3.894   0.153   4.665  1.00  0.00     0.338 C 
ATOM     28  O   UNL     1       4.083  -1.050   4.608  1.00  0.00    -0.246 OA
BRANCH  27  29
ATOM     29  C   UNL     1       4.142   1.054   3.537  1.00  0.00     0.060 A 
ATOM     30  C   UNL     1       3.064   1.498   2.772  1.00  0.00     0.016 A 
ATOM     31  C   UNL     1       5.450   1.347   3.165  1.00  0.00     0.016 A 
ATOM     32  C   UNL     1       3.297   2.157   1.568  1.00  0.00     0.010 A 
ATOM     33  C   UNL     1       5.675   2.096   2.010  1.00  0.00     0.010 A 
ATOM     34  C   UNL     1       4.604   2.479   1.179  1.00  0.00    -0.014 A 
BRANCH  34  35
ATOM     35  C   UNL     1       4.884   3.181  -0.103  1.00  0.00     0.031 A 
ATOM     36  C   UNL     1       5.790   2.535  -1.115  1.00  0.00     0.074 A 
ATOM     37  C   UNL     1       4.365   4.400  -0.350  1.00  0.00     0.049 A 
ATOM     38  N   UNL     1       6.424   3.068  -2.126  1.00  0.00    -0.248 NA
ATOM     39  C   UNL     1       6.030   1.093  -0.947  1.00  0.00     0.031 C 
ATOM     40  C   UNL     1       3.405   5.105   0.502  1.00  0.00     0.029 A 
ATOM     41  N   UNL     1       4.587   5.272  -1.387  1.00  0.00    -0.354 N 
ATOM     42  C   UNL     1       7.186   2.044  -2.680  1.00  0.00     0.074 A 
ATOM     43  C   UNL     1       6.933   0.858  -1.888  1.00  0.00     0.031 C 
ATOM     44  C   UNL     1       3.112   6.291  -0.053  1.00  0.00     0.029 A 
ATOM     45  C   UNL     1       3.942   6.478  -1.236  1.00  0.00     0.049 A 
ATOM     46  H   UNL     1       5.152   5.055  -2.164  1.00  0.00     0.167 HD
ATOM     47  C   UNL     1       8.025   2.099  -3.744  1.00  0.00     0.034 A 
ATOM     48  C   UNL     1       4.058   7.629  -1.927  1.00  0.00     0.034 A 
ATOM     49  C   UNL     1       8.230   3.290  -4.534  1.00  0.00     0.049 A 
ATOM     50  C   UNL     1       5.047   7.695  -3.060  1.00  0.00     0.074 A 
ATOM     51  C   UNL     1       9.069   3.478  -5.619  1.00  0.00     0.029 A 
ATOM     52  N   UNL     1       7.574   4.498  -4.329  1.00  0.00    -0.354 N 
ATOM     53  N   UNL     1       5.851   6.758  -3.508  1.00  0.00    -0.248 NA
ATOM     54  C   UNL     1       5.163   8.977  -3.766  1.00  0.00     0.031 C 
ATOM     55  C   UNL     1       8.954   4.808  -6.040  1.00  0.00     0.029 A 
ATOM     56  C   UNL     1       7.996   5.434  -5.259  1.00  0.00     0.049 A 
ATOM     57  H   UNL     1       6.905   4.663  -3.626  1.00  0.00     0.167 HD
ATOM     58  C   UNL     1       6.550   7.332  -4.564  1.00  0.00     0.074 A 
ATOM     59  C   UNL     1       6.071   8.694  -4.689  1.00  0.00     0.031 C 
ATOM     60  C   UNL     1       7.501   6.785  -5.362  1.00  0.00     0.034 A 
BRANCH  47  61
ATOM     61  C   UNL     1       8.829   0.863  -4.063  1.00  0.00     0.023 A 
ATOM     62  C   UNL     1       8.227  -0.330  -4.497  1.00  0.00     0.031 A 
ATOM     63  C   UNL     1      10.226   0.870  -3.895  1.00  0.00     0.131 A 
ATOM     64  C   UNL     1       9.008  -1.482  -4.683  1.00  0.00     0.055 A 
ATOM     65  C   UNL     1      11.008  -0.258  -4.154  1.00  0.00     0.041 A 
ATOM     66  F   UNL     1      10.856   1.973  -3.460  1.00  0.00    -0.206 F 
ATOM     67  C   UNL     1      10.397  -1.447  -4.537  1.00  0.00     0.022 A 
BRANCH  64  68
ATOM     68  S   UNL     1       8.170  -3.062  -4.987  1.00  0.00     0.124 S 
ATOM     69  O   UNL     1       7.339  -3.191  -3.792  1.00  0.00    -0.237 OA
ATOM     70  O   UNL     1       7.458  -2.807  -6.234  1.00  0.00    -0.237 OA
ATOM     71  O   UNL     1       9.268  -4.022  -5.080  1.00  0.00    -0.744 OA
ENDBRANCH  64  68
ENDBRANCH  47  61
BRANCH  48  72
ATOM     72  C   UNL     1       3.284   8.834  -1.513  1.00  0.00     0.023 A 
ATOM     73  C   UNL     1       2.314   9.396  -2.357  1.00  0.00     0.031 A 
ATOM     74  C   UNL     1       3.520   9.456  -0.273  1.00  0.00     0.131 A 
ATOM     75  C   UNL     1       1.635  10.560  -1.962  1.00  0.00     0.055 A 
ATOM     76  C   UNL     1       2.804  10.581   0.138  1.00  0.00     0.041 A 
ATOM     77  F   UNL     1       4.440   8.961   0.571  1.00  0.00    -0.206 F 
ATOM     78  C   UNL     1       1.862  11.146  -0.714  1.00  0.00     0.022 A 
BRANCH  75  79
ATOM     79  S   UNL     1       0.501  11.346  -3.139  1.00  0.00     0.124 S 
ATOM     80  O   UNL     1       1.379  11.597  -4.276  1.00  0.00    -0.237 OA
ATOM     81  O   UNL     1      -0.510  10.309  -3.324  1.00  0.00    -0.237 OA
ATOM     82  O   UNL     1       0.044  12.538  -2.428  1.00  0.00    -0.744 OA
ENDBRANCH  75  79
ENDBRANCH  48  72
BRANCH  60  83
ATOM     83  C   UNL     1       8.028   7.646  -6.478  1.00  0.00     0.023 A 
ATOM     84  C   UNL     1       8.897   8.722  -6.235  1.00  0.00     0.031 A 
ATOM     85  C   UNL     1       7.650   7.376  -7.805  1.00  0.00     0.131 A 
ATOM     86  C   UNL     1       9.332   9.517  -7.306  1.00  0.00     0.055 A 
ATOM     87  C   UNL     1       8.121   8.143  -8.870  1.00  0.00     0.041 A 
ATOM     88  F   UNL     1       6.822   6.357  -8.085  1.00  0.00    -0.206 F 
ATOM     89  C   UNL     1       8.961   9.226  -8.622  1.00  0.00     0.022 A 
BRANCH  86  90
ATOM     90  S   UNL     1      10.358  10.971  -6.955  1.00  0.00     0.124 S 
ATOM     91  O   UNL     1       9.452  11.798  -6.166  1.00  0.00    -0.237 OA
ATOM     92  O   UNL     1      11.487  10.393  -6.232  1.00  0.00    -0.237 OA
ATOM     93  O   UNL     1      10.678  11.493  -8.282  1.00  0.00    -0.744 OA
ENDBRANCH  86  90
ENDBRANCH  60  83
ENDBRANCH  34  35
ENDBRANCH  27  29
ENDBRANCH  26  27
ENDBRANCH   1  26
TORSDOF 18
