REMARK SMILES O=C(OCCOC(=O)[C@]1(Cl)C=CC=C(c2ccccc2)C1)c1ccc(-c2c3nc(c(-c4cc(S(=O)(=O)[O-])ccc4F)c4ccc([nH]4)c(-c4cc(S(=O)(=O)[O-])ccc4F)c4nc(c(-c5cc(S(=O)(=O)[O-])ccc5F)c5ccc2[nH]5)C=C4)C=C3)cc1
REMARK SMILES IDX 4 1 3 2 2 3 1 4 22 5 23 6 84 7 24 8 83 9 25 10 26 11 27 12
REMARK SMILES IDX 77 13 28 14 82 15 76 16 78 17 29 18 81 19 75 20 74 21 30 23
REMARK SMILES IDX 62 24 42 25 61 26 43 27 46 28 60 29 79 30 44 31 45 32 59 34
REMARK SMILES IDX 80 35 47 36 31 37 32 38 40 39 33 40 39 41 41 42 38 43 34 44
REMARK SMILES IDX 35 45 36 46 37 47 63 48 64 49 72 50 65 51 71 52 73 53 70 54
REMARK SMILES IDX 66 55 67 56 68 57 69 58 48 59 49 60 57 61 50 62 56 63 58 64
REMARK SMILES IDX 55 65 51 66 52 67 53 68 54 69 5 70 6 71 7 72 8 73 9 74 11 75
REMARK SMILES IDX 21 76 10 77 12 78 14 79 13 80 15 81 16 82 20 83 17 84 19 85
REMARK SMILES IDX 18 86
REMARK H PARENT 78 22 46 33
REMARK Flexibility Score: inf
ROOT
ATOM      1  C   UNL     1      -1.100   0.438  -4.688  1.00  0.00     0.275 C 
ENDROOT
BRANCH   1   2
ATOM      2  O   UNL     1      -1.476   1.271  -3.582  1.00  0.00    -0.458 OA
BRANCH   2   3
ATOM      3  C   UNL     1      -1.149   1.183  -2.271  1.00  0.00     0.338 C 
ATOM      4  O   UNL     1      -1.688   1.974  -1.496  1.00  0.00    -0.246 OA
BRANCH   3   5
ATOM      5  C   UNL     1      -0.070   0.295  -1.719  1.00  0.00     0.060 A 
ATOM      6  C   UNL     1       0.434  -0.883  -2.287  1.00  0.00     0.016 A 
ATOM      7  C   UNL     1       0.507   0.728  -0.512  1.00  0.00     0.016 A 
ATOM      8  C   UNL     1       1.534  -1.557  -1.729  1.00  0.00     0.010 A 
ATOM      9  C   UNL     1       1.620   0.083   0.034  1.00  0.00     0.010 A 
ATOM     10  C   UNL     1       2.148  -1.068  -0.577  1.00  0.00    -0.014 A 
BRANCH  10  11
ATOM     11  C   UNL     1       3.175  -1.850   0.153  1.00  0.00     0.031 A 
ATOM     12  C   UNL     1       2.697  -2.534   1.397  1.00  0.00     0.074 A 
ATOM     13  C   UNL     1       4.473  -1.903  -0.212  1.00  0.00     0.049 A 
ATOM     14  N   UNL     1       3.372  -3.181   2.304  1.00  0.00    -0.248 NA
ATOM     15  C   UNL     1       1.247  -2.464   1.648  1.00  0.00     0.031 C 
ATOM     16  C   UNL     1       5.043  -1.371  -1.445  1.00  0.00     0.029 A 
ATOM     17  N   UNL     1       5.569  -2.401   0.451  1.00  0.00    -0.354 N 
ATOM     18  C   UNL     1       2.420  -3.622   3.213  1.00  0.00     0.074 A 
ATOM     19  C   UNL     1       1.154  -3.045   2.828  1.00  0.00     0.031 C 
ATOM     20  C   UNL     1       6.384  -1.443  -1.397  1.00  0.00     0.029 A 
ATOM     21  C   UNL     1       6.771  -2.092  -0.153  1.00  0.00     0.049 A 
ATOM     22  H   UNL     1       5.503  -2.929   1.280  1.00  0.00     0.167 HD
ATOM     23  C   UNL     1       2.576  -4.495   4.234  1.00  0.00     0.034 A 
ATOM     24  C   UNL     1       8.037  -2.323   0.248  1.00  0.00     0.034 A 
ATOM     25  C   UNL     1       3.860  -5.016   4.611  1.00  0.00     0.049 A 
ATOM     26  C   UNL     1       8.228  -3.162   1.485  1.00  0.00     0.074 A 
ATOM     27  C   UNL     1       4.177  -5.887   5.634  1.00  0.00     0.029 A 
ATOM     28  N   UNL     1       5.055  -4.681   3.980  1.00  0.00    -0.354 N 
ATOM     29  N   UNL     1       7.315  -3.635   2.304  1.00  0.00    -0.248 NA
ATOM     30  C   UNL     1       9.601  -3.557   1.817  1.00  0.00     0.031 C 
ATOM     31  C   UNL     1       5.570  -6.022   5.665  1.00  0.00     0.029 A 
ATOM     32  C   UNL     1       6.116  -5.303   4.611  1.00  0.00     0.049 A 
ATOM     33  H   UNL     1       5.133  -4.087   3.199  1.00  0.00     0.167 HD
ATOM     34  C   UNL     1       7.995  -4.449   3.202  1.00  0.00     0.074 A 
ATOM     35  C   UNL     1       9.398  -4.377   2.839  1.00  0.00     0.031 C 
ATOM     36  C   UNL     1       7.503  -5.213   4.212  1.00  0.00     0.034 A 
BRANCH  23  37
ATOM     37  C   UNL     1       1.321  -4.863   4.984  1.00  0.00     0.023 A 
ATOM     38  C   UNL     1       0.227  -5.454   4.316  1.00  0.00     0.031 A 
ATOM     39  C   UNL     1       1.142  -4.465   6.316  1.00  0.00     0.131 A 
ATOM     40  C   UNL     1      -1.030  -5.489   4.934  1.00  0.00     0.055 A 
ATOM     41  C   UNL     1      -0.088  -4.607   6.962  1.00  0.00     0.041 A 
ATOM     42  F   UNL     1       2.137  -3.872   6.993  1.00  0.00    -0.206 F 
ATOM     43  C   UNL     1      -1.191  -5.093   6.262  1.00  0.00     0.022 A 
BRANCH  40  44
ATOM     44  S   UNL     1      -2.487  -5.828   3.902  1.00  0.00     0.124 S 
ATOM     45  O   UNL     1      -2.420  -4.740   2.930  1.00  0.00    -0.237 OA
ATOM     46  O   UNL     1      -2.206  -7.163   3.384  1.00  0.00    -0.237 OA
ATOM     47  O   UNL     1      -3.601  -5.745   4.844  1.00  0.00    -0.744 OA
ENDBRANCH  40  44
ENDBRANCH  23  37
BRANCH  24  48
ATOM     48  C   UNL     1       9.200  -1.811  -0.536  1.00  0.00     0.023 A 
ATOM     49  C   UNL     1      10.054  -2.676  -1.241  1.00  0.00     0.031 A 
ATOM     50  C   UNL     1       9.493  -0.434  -0.570  1.00  0.00     0.131 A 
ATOM     51  C   UNL     1      11.178  -2.164  -1.914  1.00  0.00     0.055 A 
ATOM     52  C   UNL     1      10.593   0.074  -1.268  1.00  0.00     0.041 A 
ATOM     53  F   UNL     1       8.710   0.442   0.079  1.00  0.00    -0.206 F 
ATOM     54  C   UNL     1      11.449  -0.795  -1.938  1.00  0.00     0.022 A 
BRANCH  51  55
ATOM     55  S   UNL     1      12.321  -3.325  -2.716  1.00  0.00     0.124 S 
ATOM     56  O   UNL     1      12.717  -4.174  -1.599  1.00  0.00    -0.237 OA
ATOM     57  O   UNL     1      11.465  -3.945  -3.722  1.00  0.00    -0.237 OA
ATOM     58  O   UNL     1      13.373  -2.459  -3.245  1.00  0.00    -0.744 OA
ENDBRANCH  51  55
ENDBRANCH  24  48
BRANCH  36  59
ATOM     59  C   UNL     1       8.480  -6.090   4.946  1.00  0.00     0.023 A 
ATOM     60  C   UNL     1       9.474  -5.558   5.780  1.00  0.00     0.031 A 
ATOM     61  C   UNL     1       8.375  -7.489   4.836  1.00  0.00     0.131 A 
ATOM     62  C   UNL     1      10.351  -6.423   6.449  1.00  0.00     0.055 A 
ATOM     63  C   UNL     1       9.207  -8.344   5.555  1.00  0.00     0.041 A 
ATOM     64  F   UNL     1       7.442  -8.044   4.046  1.00  0.00    -0.206 F 
ATOM     65  C   UNL     1      10.208  -7.811   6.362  1.00  0.00     0.022 A 
BRANCH  62  66
ATOM     66  S   UNL     1      11.726  -5.707   7.386  1.00  0.00     0.124 S 
ATOM     67  O   UNL     1      12.457  -4.988   6.348  1.00  0.00    -0.237 OA
ATOM     68  O   UNL     1      11.037  -4.879   8.371  1.00  0.00    -0.237 OA
ATOM     69  O   UNL     1      12.413  -6.876   7.933  1.00  0.00    -0.744 OA
ENDBRANCH  62  66
ENDBRANCH  36  59
ENDBRANCH  10  11
ENDBRANCH   3   5
ENDBRANCH   2   3
ENDBRANCH   1   2
BRANCH   1  70
ATOM     70  C   UNL     1       0.229   0.820  -5.340  1.00  0.00     0.274 C 
BRANCH  70  71
ATOM     71  O   UNL     1       1.260   1.139  -4.396  1.00  0.00    -0.461 OA
BRANCH  71  72
ATOM     72  C   UNL     1       1.475   2.466  -4.136  1.00  0.00     0.331 C 
ATOM     73  O   UNL     1       0.834   3.363  -4.677  1.00  0.00    -0.250 OA
BRANCH  72  74
ATOM     74  C   UNL     1       2.639   2.724  -3.153  1.00  0.00     0.164 C 
ATOM     75  C   UNL     1       2.154   3.535  -1.974  1.00  0.00     0.008 C 
ATOM     76  C   UNL     1       3.800   3.351  -3.932  1.00  0.00     0.075 C 
ATOM     77  Cl  UNL     1       3.307   1.216  -2.518  1.00  0.00    -0.102 Cl
ATOM     78  C   UNL     1       2.572   4.783  -1.721  1.00  0.00    -0.002 C 
ATOM     79  C   UNL     1       4.037   4.812  -3.650  1.00  0.00    -0.038 C 
ATOM     80  C   UNL     1       3.482   5.457  -2.613  1.00  0.00     0.004 C 
BRANCH  79  81
ATOM     81  C   UNL     1       4.976   5.420  -4.590  1.00  0.00    -0.022 A 
ATOM     82  C   UNL     1       6.271   5.747  -4.184  1.00  0.00     0.008 A 
ATOM     83  C   UNL     1       4.636   5.453  -5.949  1.00  0.00     0.008 A 
ATOM     84  C   UNL     1       7.231   6.069  -5.142  1.00  0.00     0.001 A 
ATOM     85  C   UNL     1       5.599   5.762  -6.903  1.00  0.00     0.001 A 
ATOM     86  C   UNL     1       6.898   6.062  -6.498  1.00  0.00     0.000 A 
ENDBRANCH  79  81
ENDBRANCH  72  74
ENDBRANCH  71  72
ENDBRANCH  70  71
ENDBRANCH   1  70
TORSDOF 15
