REMARK SMILES C[C@@H]1CCC[C@H](NC(=O)N(C)CC(=O)OCCOC(=O)c2ccc(-c3c4nc(c(-c5cc(S(=O)(=O)[O-])ccc5F)c5ccc([nH]5)c(-c5cc(S(=O)(=O)[O-])ccc5F)c5nc(c(-c6cc(S(=O)(=O)[O-])ccc6F)c6ccc3[nH]6)C=C5)C=C4)cc2)C1
REMARK SMILES IDX 16 1 15 2 13 3 14 4 12 5 10 6 11 7 8 8 7 9 9 11 6 12 1 13
REMARK SMILES IDX 2 14 3 15 84 16 4 17 5 18 17 19 18 20 19 21 20 22 21 23
REMARK SMILES IDX 22 24 83 25 23 26 82 27 24 28 25 29 26 30 76 31 27 32 81 33
REMARK SMILES IDX 75 34 77 35 28 36 80 37 74 38 73 39 29 41 61 42 41 43 60 44
REMARK SMILES IDX 42 45 45 46 59 47 78 48 43 49 44 50 58 52 79 53 46 54 30 55
REMARK SMILES IDX 31 56 39 57 32 58 38 59 40 60 37 61 33 62 34 63 35 64 36 65
REMARK SMILES IDX 62 66 63 67 71 68 64 69 70 70 72 71 69 72 65 73 66 74 67 75
REMARK SMILES IDX 68 76 47 77 48 78 56 79 49 80 55 81 57 82 54 83 50 84 51 85
REMARK SMILES IDX 52 86 53 87
REMARK H PARENT 7 10 77 40 45 51
REMARK Flexibility Score: inf
ROOT
ATOM      1  C   UNL     1      -0.302  -6.390   3.356  1.00  0.00     0.274 C 
ENDROOT
BRANCH   1   2
ATOM      2  O   UNL     1      -1.091  -5.608   2.439  1.00  0.00    -0.461 OA
BRANCH   2   3
ATOM      3  C   UNL     1      -2.441  -5.795   2.512  1.00  0.00     0.325 C 
ATOM      4  O   UNL     1      -2.985  -6.682   3.163  1.00  0.00    -0.250 OA
BRANCH   3   5
ATOM      5  C   UNL     1      -3.232  -4.816   1.643  1.00  0.00     0.243 C 
BRANCH   5   6
ATOM      6  N   UNL     1      -2.451  -3.765   0.977  1.00  0.00    -0.317 N 
ATOM      7  C   UNL     1      -1.974  -4.096  -0.349  1.00  0.00     0.149 C 
BRANCH   6   8
ATOM      8  C   UNL     1      -2.227  -2.631   1.700  1.00  0.00     0.317 C 
ATOM      9  N   UNL     1      -1.714  -1.504   1.184  1.00  0.00    -0.335 N 
ATOM     10  H   UNL     1      -1.598  -0.806   1.868  1.00  0.00     0.165 HD
ATOM     11  O   UNL     1      -2.519  -2.576   2.897  1.00  0.00    -0.249 OA
BRANCH   9  12
ATOM     12  C   UNL     1      -1.287  -1.052  -0.132  1.00  0.00     0.084 C 
ATOM     13  C   UNL     1       1.163  -0.078   1.891  1.00  0.00     0.008 C 
ATOM     14  C   UNL     1       1.024   0.043   0.371  1.00  0.00    -0.012 C 
ATOM     15  C   UNL     1       0.423   1.394  -0.034  1.00  0.00     0.003 C 
ATOM     16  C   UNL     1       0.243  -1.124  -0.264  1.00  0.00     0.028 C 
ATOM     17  C   UNL     1      -1.074   1.478   0.245  1.00  0.00     0.002 C 
ATOM     18  C   UNL     1      -1.834   0.349  -0.443  1.00  0.00     0.025 C 
ENDBRANCH   9  12
ENDBRANCH   6   8
ENDBRANCH   5   6
ENDBRANCH   3   5
ENDBRANCH   2   3
ENDBRANCH   1   2
BRANCH   1  19
ATOM     19  C   UNL     1       0.086  -5.541   4.562  1.00  0.00     0.275 C 
BRANCH  19  20
ATOM     20  O   UNL     1      -1.107  -5.053   5.192  1.00  0.00    -0.458 OA
BRANCH  20  21
ATOM     21  C   UNL     1      -1.047  -3.779   5.644  1.00  0.00     0.338 C 
ATOM     22  O   UNL     1      -0.055  -3.061   5.673  1.00  0.00    -0.246 OA
BRANCH  21  23
ATOM     23  C   UNL     1      -2.353  -3.404   6.218  1.00  0.00     0.060 A 
ATOM     24  C   UNL     1      -3.542  -3.645   5.525  1.00  0.00     0.016 A 
ATOM     25  C   UNL     1      -2.383  -2.753   7.450  1.00  0.00     0.016 A 
ATOM     26  C   UNL     1      -4.755  -3.176   6.028  1.00  0.00     0.010 A 
ATOM     27  C   UNL     1      -3.608  -2.358   7.993  1.00  0.00     0.010 A 
ATOM     28  C   UNL     1      -4.804  -2.540   7.275  1.00  0.00    -0.014 A 
BRANCH  28  29
ATOM     29  C   UNL     1      -6.089  -2.024   7.818  1.00  0.00     0.031 A 
ATOM     30  C   UNL     1      -6.259  -0.549   8.068  1.00  0.00     0.074 A 
ATOM     31  C   UNL     1      -7.096  -2.875   8.102  1.00  0.00     0.049 A 
ATOM     32  N   UNL     1      -7.220   0.084   8.691  1.00  0.00    -0.248 NA
ATOM     33  C   UNL     1      -5.192   0.327   7.561  1.00  0.00     0.031 C 
ATOM     34  C   UNL     1      -7.074  -4.320   7.866  1.00  0.00     0.029 A 
ATOM     35  N   UNL     1      -8.331  -2.648   8.655  1.00  0.00    -0.354 N 
ATOM     36  C   UNL     1      -6.857   1.427   8.685  1.00  0.00     0.074 A 
ATOM     37  C   UNL     1      -5.574   1.510   8.019  1.00  0.00     0.031 C 
ATOM     38  C   UNL     1      -8.246  -4.846   8.255  1.00  0.00     0.029 A 
ATOM     39  C   UNL     1      -9.071  -3.793   8.838  1.00  0.00     0.049 A 
ATOM     40  H   UNL     1      -8.657  -1.751   8.898  1.00  0.00     0.167 HD
ATOM     41  C   UNL     1      -7.535   2.490   9.186  1.00  0.00     0.034 A 
ATOM     42  C   UNL     1     -10.260  -3.983   9.444  1.00  0.00     0.034 A 
ATOM     43  C   UNL     1      -8.826   2.390   9.827  1.00  0.00     0.049 A 
ATOM     44  C   UNL     1     -10.966  -2.797  10.047  1.00  0.00     0.074 A 
ATOM     45  C   UNL     1      -9.608   3.401  10.358  1.00  0.00     0.029 A 
ATOM     46  N   UNL     1      -9.527   1.206  10.025  1.00  0.00    -0.354 N 
ATOM     47  N   UNL     1     -10.594  -1.538  10.073  1.00  0.00    -0.248 NA
ATOM     48  C   UNL     1     -12.251  -3.060  10.706  1.00  0.00     0.031 C 
ATOM     49  C   UNL     1     -10.749   2.824  10.928  1.00  0.00     0.029 A 
ATOM     50  C   UNL     1     -10.717   1.460  10.691  1.00  0.00     0.049 A 
ATOM     51  H   UNL     1      -9.223   0.316   9.734  1.00  0.00     0.167 HD
ATOM     52  C   UNL     1     -11.611  -0.857  10.735  1.00  0.00     0.074 A 
ATOM     53  C   UNL     1     -12.619  -1.841  11.072  1.00  0.00     0.031 C 
ATOM     54  C   UNL     1     -11.705   0.464  11.037  1.00  0.00     0.034 A 
BRANCH  41  55
ATOM     55  C   UNL     1      -6.864   3.842   9.107  1.00  0.00     0.023 A 
ATOM     56  C   UNL     1      -6.582   4.466   7.879  1.00  0.00     0.031 A 
ATOM     57  C   UNL     1      -6.472   4.504  10.285  1.00  0.00     0.131 A 
ATOM     58  C   UNL     1      -5.867   5.674   7.854  1.00  0.00     0.055 A 
ATOM     59  C   UNL     1      -5.830   5.743  10.257  1.00  0.00     0.041 A 
ATOM     60  F   UNL     1      -6.696   3.949  11.487  1.00  0.00    -0.206 F 
ATOM     61  C   UNL     1      -5.510   6.329   9.036  1.00  0.00     0.022 A 
BRANCH  58  62
ATOM     62  S   UNL     1      -5.290   6.313   6.257  1.00  0.00     0.124 S 
ATOM     63  O   UNL     1      -4.461   5.210   5.777  1.00  0.00    -0.237 OA
ATOM     64  O   UNL     1      -6.538   6.535   5.536  1.00  0.00    -0.237 OA
ATOM     65  O   UNL     1      -4.554   7.524   6.616  1.00  0.00    -0.744 OA
ENDBRANCH  58  62
ENDBRANCH  41  55
BRANCH  42  66
ATOM     66  C   UNL     1     -10.835  -5.354   9.563  1.00  0.00     0.023 A 
ATOM     67  C   UNL     1     -12.043  -5.689   8.934  1.00  0.00     0.031 A 
ATOM     68  C   UNL     1     -10.200  -6.338  10.343  1.00  0.00     0.131 A 
ATOM     69  C   UNL     1     -12.601  -6.963   9.127  1.00  0.00     0.055 A 
ATOM     70  C   UNL     1     -10.731  -7.620  10.487  1.00  0.00     0.041 A 
ATOM     71  F   UNL     1      -9.043  -6.069  10.967  1.00  0.00    -0.206 F 
ATOM     72  C   UNL     1     -11.945  -7.935   9.886  1.00  0.00     0.022 A 
BRANCH  69  73
ATOM     73  S   UNL     1     -14.241  -7.308   8.433  1.00  0.00     0.124 S 
ATOM     74  O   UNL     1     -15.056  -6.281   9.071  1.00  0.00    -0.237 OA
ATOM     75  O   UNL     1     -14.006  -7.144   7.002  1.00  0.00    -0.237 OA
ATOM     76  O   UNL     1     -14.512  -8.678   8.864  1.00  0.00    -0.744 OA
ENDBRANCH  69  73
ENDBRANCH  42  66
BRANCH  54  77
ATOM     77  C   UNL     1     -12.967   0.912  11.732  1.00  0.00     0.023 A 
ATOM     78  C   UNL     1     -13.269   0.513  13.046  1.00  0.00     0.031 A 
ATOM     79  C   UNL     1     -13.895   1.724  11.057  1.00  0.00     0.131 A 
ATOM     80  C   UNL     1     -14.496   0.875  13.622  1.00  0.00     0.055 A 
ATOM     81  C   UNL     1     -15.088   2.130  11.656  1.00  0.00     0.041 A 
ATOM     82  F   UNL     1     -13.659   2.131   9.800  1.00  0.00    -0.206 F 
ATOM     83  C   UNL     1     -15.401   1.693  12.940  1.00  0.00     0.022 A 
BRANCH  80  84
ATOM     84  S   UNL     1     -14.941   0.179  15.237  1.00  0.00     0.124 S 
ATOM     85  O   UNL     1     -14.886  -1.255  14.977  1.00  0.00    -0.237 OA
ATOM     86  O   UNL     1     -13.896   0.711  16.105  1.00  0.00    -0.237 OA
ATOM     87  O   UNL     1     -16.280   0.713  15.483  1.00  0.00    -0.744 OA
ENDBRANCH  80  84
ENDBRANCH  54  77
ENDBRANCH  28  29
ENDBRANCH  21  23
ENDBRANCH  20  21
ENDBRANCH  19  20
ENDBRANCH   1  19
TORSDOF 17
