REMARK SMILES O=C(OCCOC(=O)c1cccn1CC(=O)N1CCS(=O)CC1)c1ccc(-c2c3nc(c(-c4cc(S(=O)(=O)[O-])ccc4F)c4ccc([nH]4)c(-c4cc(S(=O)(=O)[O-])ccc4F)c4nc(c(-c5cc(S(=O)(=O)[O-])ccc5F)c5ccc2[nH]5)C=C4)C=C3)cc1
REMARK SMILES IDX 4 1 3 2 2 3 1 4 24 5 25 6 86 7 26 8 85 9 27 10 28 11 29 12
REMARK SMILES IDX 79 13 30 14 84 15 78 16 80 17 31 18 83 19 77 20 76 21 32 23
REMARK SMILES IDX 64 24 44 25 63 26 45 27 48 28 62 29 81 30 46 31 47 32 61 34
REMARK SMILES IDX 82 35 49 36 33 37 34 38 42 39 35 40 41 41 43 42 40 43 36 44
REMARK SMILES IDX 37 45 38 46 39 47 65 48 66 49 74 50 67 51 73 52 75 53 72 54
REMARK SMILES IDX 68 55 69 56 70 57 71 58 50 59 51 60 59 61 52 62 58 63 60 64
REMARK SMILES IDX 57 65 53 66 54 67 55 68 56 69 5 70 6 71 7 72 8 73 9 74 10 75
REMARK SMILES IDX 13 76 11 77 12 78 14 79 15 80 16 81 17 82 18 83 23 84 19 85
REMARK SMILES IDX 22 86 20 87 21 88
REMARK H PARENT 80 22 48 33
REMARK Flexibility Score: inf
ROOT
ATOM      1  C   UNL     1       5.322   1.670  -1.161  1.00  0.00     0.275 C 
ENDROOT
BRANCH   1   2
ATOM      2  O   UNL     1       5.816   0.849  -0.100  1.00  0.00    -0.458 OA
BRANCH   2   3
ATOM      3  C   UNL     1       4.922  -0.035   0.361  1.00  0.00     0.338 C 
ATOM      4  O   UNL     1       3.778  -0.196  -0.031  1.00  0.00    -0.246 OA
BRANCH   3   5
ATOM      5  C   UNL     1       5.463  -0.810   1.472  1.00  0.00     0.060 A 
ATOM      6  C   UNL     1       6.251  -1.924   1.201  1.00  0.00     0.016 A 
ATOM      7  C   UNL     1       4.825  -0.672   2.691  1.00  0.00     0.016 A 
ATOM      8  C   UNL     1       6.182  -3.022   2.059  1.00  0.00     0.010 A 
ATOM      9  C   UNL     1       4.757  -1.782   3.515  1.00  0.00     0.010 A 
ATOM     10  C   UNL     1       5.262  -3.039   3.112  1.00  0.00    -0.014 A 
BRANCH  10  11
ATOM     11  C   UNL     1       4.793  -4.324   3.777  1.00  0.00     0.031 A 
ATOM     12  C   UNL     1       4.219  -4.053   5.154  1.00  0.00     0.074 A 
ATOM     13  C   UNL     1       4.838  -5.565   3.184  1.00  0.00     0.049 A 
ATOM     14  N   UNL     1       4.877  -3.983   6.271  1.00  0.00    -0.248 NA
ATOM     15  C   UNL     1       2.880  -3.415   5.256  1.00  0.00     0.031 C 
ATOM     16  C   UNL     1       5.076  -5.829   1.750  1.00  0.00     0.029 A 
ATOM     17  N   UNL     1       4.687  -6.865   3.654  1.00  0.00    -0.354 N 
ATOM     18  C   UNL     1       3.970  -3.512   7.235  1.00  0.00     0.074 A 
ATOM     19  C   UNL     1       2.903  -2.899   6.492  1.00  0.00     0.031 C 
ATOM     20  C   UNL     1       5.210  -7.151   1.497  1.00  0.00     0.029 A 
ATOM     21  C   UNL     1       5.044  -7.896   2.727  1.00  0.00     0.049 A 
ATOM     22  H   UNL     1       4.358  -7.062   4.561  1.00  0.00     0.167 HD
ATOM     23  C   UNL     1       3.868  -4.047   8.490  1.00  0.00     0.034 A 
ATOM     24  C   UNL     1       5.245  -9.241   2.933  1.00  0.00     0.034 A 
ATOM     25  C   UNL     1       4.392  -5.386   8.429  1.00  0.00     0.049 A 
ATOM     26  C   UNL     1       4.884  -9.477   4.340  1.00  0.00     0.074 A 
ATOM     27  C   UNL     1       5.642  -5.896   8.203  1.00  0.00     0.029 A 
ATOM     28  N   UNL     1       3.454  -6.385   8.220  1.00  0.00    -0.354 N 
ATOM     29  N   UNL     1       3.673  -9.537   4.804  1.00  0.00    -0.248 NA
ATOM     30  C   UNL     1       5.962  -9.579   5.334  1.00  0.00     0.031 C 
ATOM     31  C   UNL     1       5.389  -7.043   7.427  1.00  0.00     0.029 A 
ATOM     32  C   UNL     1       4.024  -7.357   7.441  1.00  0.00     0.049 A 
ATOM     33  H   UNL     1       2.535  -6.395   8.573  1.00  0.00     0.167 HD
ATOM     34  C   UNL     1       3.861  -9.342   6.153  1.00  0.00     0.074 A 
ATOM     35  C   UNL     1       5.232  -9.705   6.440  1.00  0.00     0.031 C 
ATOM     36  C   UNL     1       3.184  -8.321   6.743  1.00  0.00     0.034 A 
BRANCH  23  37
ATOM     37  C   UNL     1       3.001  -3.755   9.685  1.00  0.00     0.023 A 
ATOM     38  C   UNL     1       3.400  -4.396  10.886  1.00  0.00     0.031 A 
ATOM     39  C   UNL     1       1.781  -3.075   9.727  1.00  0.00     0.131 A 
ATOM     40  C   UNL     1       2.561  -4.459  12.002  1.00  0.00     0.055 A 
ATOM     41  C   UNL     1       0.954  -3.107  10.859  1.00  0.00     0.041 A 
ATOM     42  F   UNL     1       1.302  -2.397   8.681  1.00  0.00    -0.206 F 
ATOM     43  C   UNL     1       1.327  -3.823  11.992  1.00  0.00     0.022 A 
BRANCH  40  44
ATOM     44  S   UNL     1       3.073  -5.481  13.408  1.00  0.00     0.124 S 
ATOM     45  O   UNL     1       3.289  -6.781  12.784  1.00  0.00    -0.237 OA
ATOM     46  O   UNL     1       4.273  -4.787  13.867  1.00  0.00    -0.237 OA
ATOM     47  O   UNL     1       1.930  -5.406  14.314  1.00  0.00    -0.744 OA
ENDBRANCH  40  44
ENDBRANCH  23  37
BRANCH  24  48
ATOM     48  C   UNL     1       5.779 -10.468   2.186  1.00  0.00     0.023 A 
ATOM     49  C   UNL     1       5.957 -10.610   0.797  1.00  0.00     0.031 A 
ATOM     50  C   UNL     1       6.161 -11.628   2.942  1.00  0.00     0.131 A 
ATOM     51  C   UNL     1       6.528 -11.807   0.262  1.00  0.00     0.055 A 
ATOM     52  C   UNL     1       6.788 -12.759   2.422  1.00  0.00     0.041 A 
ATOM     53  F   UNL     1       5.934 -11.743   4.255  1.00  0.00    -0.206 F 
ATOM     54  C   UNL     1       6.985 -12.851   1.070  1.00  0.00     0.022 A 
BRANCH  51  55
ATOM     55  S   UNL     1       6.714 -12.086  -1.527  1.00  0.00     0.124 S 
ATOM     56  O   UNL     1       5.513 -12.855  -1.839  1.00  0.00    -0.237 OA
ATOM     57  O   UNL     1       6.773 -10.735  -2.073  1.00  0.00    -0.237 OA
ATOM     58  O   UNL     1       7.967 -12.837  -1.612  1.00  0.00    -0.744 OA
ENDBRANCH  51  55
ENDBRANCH  24  48
BRANCH  36  59
ATOM     59  C   UNL     1       1.782  -8.118   6.188  1.00  0.00     0.023 A 
ATOM     60  C   UNL     1       0.872  -9.196   6.122  1.00  0.00     0.031 A 
ATOM     61  C   UNL     1       1.359  -6.921   5.597  1.00  0.00     0.131 A 
ATOM     62  C   UNL     1      -0.379  -9.055   5.486  1.00  0.00     0.055 A 
ATOM     63  C   UNL     1       0.102  -6.763   4.994  1.00  0.00     0.041 A 
ATOM     64  F   UNL     1       2.186  -5.878   5.549  1.00  0.00    -0.206 F 
ATOM     65  C   UNL     1      -0.776  -7.837   4.936  1.00  0.00     0.022 A 
BRANCH  62  66
ATOM     66  S   UNL     1      -1.500 -10.482   5.392  1.00  0.00     0.124 S 
ATOM     67  O   UNL     1      -0.887 -11.299   4.350  1.00  0.00    -0.237 OA
ATOM     68  O   UNL     1      -1.443 -11.024   6.746  1.00  0.00    -0.237 OA
ATOM     69  O   UNL     1      -2.783  -9.881   5.029  1.00  0.00    -0.744 OA
ENDBRANCH  62  66
ENDBRANCH  36  59
ENDBRANCH  10  11
ENDBRANCH   3   5
ENDBRANCH   2   3
ENDBRANCH   1   2
BRANCH   1  70
ATOM     70  C   UNL     1       4.067   2.535  -0.876  1.00  0.00     0.275 C 
BRANCH  70  71
ATOM     71  O   UNL     1       3.518   2.420   0.451  1.00  0.00    -0.457 OA
BRANCH  71  72
ATOM     72  C   UNL     1       2.205   2.005   0.528  1.00  0.00     0.355 C 
ATOM     73  O   UNL     1       1.451   1.887  -0.415  1.00  0.00    -0.244 OA
BRANCH  72  74
ATOM     74  C   UNL     1       1.868   1.701   1.913  1.00  0.00     0.128 A 
ATOM     75  C   UNL     1       2.271   2.388   3.050  1.00  0.00     0.035 A 
ATOM     76  N   UNL     1       1.040   0.662   2.346  1.00  0.00    -0.333 N 
ATOM     77  C   UNL     1       1.664   1.787   4.173  1.00  0.00     0.020 A 
ATOM     78  C   UNL     1       0.910   0.732   3.713  1.00  0.00     0.087 A 
BRANCH  76  79
ATOM     79  C   UNL     1       0.319  -0.271   1.473  1.00  0.00     0.222 C 
BRANCH  79  80
ATOM     80  C   UNL     1       0.049  -1.693   1.983  1.00  0.00     0.242 C 
ATOM     81  O   UNL     1      -0.907  -1.929   2.724  1.00  0.00    -0.273 OA
ATOM     82  N   UNL     1       0.826  -2.718   1.447  1.00  0.00    -0.339 N 
ATOM     83  C   UNL     1       0.364  -4.094   1.378  1.00  0.00     0.133 C 
ATOM     84  C   UNL     1       2.252  -2.593   1.289  1.00  0.00     0.133 C 
ATOM     85  C   UNL     1       0.802  -4.875   0.134  1.00  0.00     0.126 C 
ATOM     86  C   UNL     1       2.656  -2.748  -0.146  1.00  0.00     0.126 C 
ATOM     87  S   UNL     1       2.115  -4.255  -0.942  1.00  0.00     0.025 S 
ATOM     88  O   UNL     1       3.264  -5.215  -0.940  1.00  0.00    -0.259 OA
ENDBRANCH  79  80
ENDBRANCH  76  79
ENDBRANCH  72  74
ENDBRANCH  71  72
ENDBRANCH  70  71
ENDBRANCH   1  70
TORSDOF 16
