REMARK SMILES O=C(Cc1cccn(C(F)F)c1=O)OCCOC(=O)c1ccc(-c2c3nc(c(-c4cc(S(=O)(=O)[O-])ccc4F)c4ccc([nH]4)c(-c4cc(S(=O)(=O)[O-])ccc4F)c4nc(c(-c5cc(S(=O)(=O)[O-])ccc5F)c5ccc2[nH]5)C=C4)C=C3)cc1
REMARK SMILES IDX 16 1 15 2 14 3 2 4 1 5 3 6 4 7 5 8 12 9 6 10 8 11 13 12 7 13
REMARK SMILES IDX 9 14 10 15 11 16 17 17 18 18 19 19 20 20 21 21 82 22 22 23
REMARK SMILES IDX 81 24 23 25 24 26 25 27 75 28 26 29 80 30 74 31 76 32 27 33
REMARK SMILES IDX 79 34 73 35 72 36 28 38 60 39 40 40 59 41 41 42 44 43 58 44
REMARK SMILES IDX 77 45 42 46 43 47 57 49 78 50 45 51 29 52 30 53 38 54 31 55
REMARK SMILES IDX 37 56 39 57 36 58 32 59 33 60 34 61 35 62 61 63 62 64 70 65
REMARK SMILES IDX 63 66 69 67 71 68 68 69 64 70 65 71 66 72 67 73 46 74 47 75
REMARK SMILES IDX 55 76 48 77 54 78 56 79 53 80 49 81 50 82 51 83 52 84
REMARK H PARENT 76 37 44 48
REMARK Flexibility Score: inf
ROOT
ATOM      1  C   UNL     1       4.172   2.287   0.365  1.00  0.00     0.275 C 
ENDROOT
BRANCH   1   2
ATOM      2  C   UNL     1       4.111   1.208  -0.719  1.00  0.00     0.274 C 
BRANCH   2   3
ATOM      3  O   UNL     1       2.783   0.674  -0.883  1.00  0.00    -0.462 OA
BRANCH   3   4
ATOM      4  C   UNL     1       2.494  -0.637  -0.659  1.00  0.00     0.310 C 
ATOM      5  O   UNL     1       1.684  -1.216  -1.376  1.00  0.00    -0.252 OA
BRANCH   4   6
ATOM      6  C   UNL     1       3.132  -1.291   0.554  1.00  0.00     0.164 C 
BRANCH   6   7
ATOM      7  C   UNL     1       4.026  -2.439   0.206  1.00  0.00     0.029 A 
ATOM      8  C   UNL     1       5.360  -2.325   0.081  1.00  0.00     0.011 A 
ATOM      9  C   UNL     1       3.404  -3.803   0.146  1.00  0.00     0.258 A 
ATOM     10  C   UNL     1       6.189  -3.469  -0.184  1.00  0.00     0.019 A 
ATOM     11  N   UNL     1       4.280  -4.857  -0.046  1.00  0.00    -0.258 N 
ATOM     12  O   UNL     1       2.196  -3.939   0.311  1.00  0.00    -0.269 OA
ATOM     13  C   UNL     1       5.638  -4.685  -0.232  1.00  0.00     0.095 A 
BRANCH  11  14
ATOM     14  C   UNL     1       3.719  -6.185  -0.085  1.00  0.00     0.451 C 
ATOM     15  F   UNL     1       3.686  -6.611  -1.377  1.00  0.00    -0.185 F 
ATOM     16  F   UNL     1       4.540  -7.049   0.572  1.00  0.00    -0.185 F 
ENDBRANCH  11  14
ENDBRANCH   6   7
ENDBRANCH   4   6
ENDBRANCH   3   4
ENDBRANCH   2   3
ENDBRANCH   1   2
BRANCH   1  17
ATOM     17  O   UNL     1       3.896   1.722   1.657  1.00  0.00    -0.458 OA
BRANCH  17  18
ATOM     18  C   UNL     1       2.602   1.803   2.066  1.00  0.00     0.338 C 
ATOM     19  O   UNL     1       1.711   2.424   1.510  1.00  0.00    -0.246 OA
BRANCH  18  20
ATOM     20  C   UNL     1       2.377   0.854   3.186  1.00  0.00     0.060 A 
ATOM     21  C   UNL     1       3.392   0.513   4.087  1.00  0.00     0.016 A 
ATOM     22  C   UNL     1       1.117   0.250   3.297  1.00  0.00     0.016 A 
ATOM     23  C   UNL     1       3.139  -0.417   5.100  1.00  0.00     0.010 A 
ATOM     24  C   UNL     1       0.864  -0.674   4.316  1.00  0.00     0.010 A 
ATOM     25  C   UNL     1       1.869  -1.007   5.234  1.00  0.00    -0.014 A 
BRANCH  25  26
ATOM     26  C   UNL     1       1.558  -1.823   6.437  1.00  0.00     0.031 A 
ATOM     27  C   UNL     1       1.462  -3.319   6.392  1.00  0.00     0.074 A 
ATOM     28  C   UNL     1       1.352  -1.175   7.600  1.00  0.00     0.049 A 
ATOM     29  N   UNL     1       1.350  -4.157   7.391  1.00  0.00    -0.248 NA
ATOM     30  C   UNL     1       1.490  -3.959   5.069  1.00  0.00     0.031 C 
ATOM     31  C   UNL     1       1.365   0.281   7.752  1.00  0.00     0.029 A 
ATOM     32  N   UNL     1       1.103  -1.642   8.866  1.00  0.00    -0.354 N 
ATOM     33  C   UNL     1       1.312  -5.426   6.828  1.00  0.00     0.074 A 
ATOM     34  C   UNL     1       1.369  -5.243   5.391  1.00  0.00     0.031 C 
ATOM     35  C   UNL     1       1.169   0.587   9.042  1.00  0.00     0.029 A 
ATOM     36  C   UNL     1       0.993  -0.645   9.808  1.00  0.00     0.049 A 
ATOM     37  H   UNL     1       1.013  -2.599   9.080  1.00  0.00     0.167 HD
ATOM     38  C   UNL     1       1.252  -6.625   7.457  1.00  0.00     0.034 A 
ATOM     39  C   UNL     1       0.793  -0.708  11.140  1.00  0.00     0.034 A 
ATOM     40  C   UNL     1       1.179  -6.787   8.890  1.00  0.00     0.049 A 
ATOM     41  C   UNL     1       0.720  -2.055  11.811  1.00  0.00     0.074 A 
ATOM     42  C   UNL     1       1.196  -7.967   9.616  1.00  0.00     0.029 A 
ATOM     43  N   UNL     1       1.057  -5.759   9.814  1.00  0.00    -0.354 N 
ATOM     44  N   UNL     1       0.842  -3.248  11.279  1.00  0.00    -0.248 NA
ATOM     45  C   UNL     1       0.505  -2.068  13.265  1.00  0.00     0.031 C 
ATOM     46  C   UNL     1       1.009  -7.659  10.964  1.00  0.00     0.029 A 
ATOM     47  C   UNL     1       0.959  -6.281  11.095  1.00  0.00     0.049 A 
ATOM     48  H   UNL     1       1.042  -4.800   9.592  1.00  0.00     0.167 HD
ATOM     49  C   UNL     1       0.758  -4.150  12.337  1.00  0.00     0.074 A 
ATOM     50  C   UNL     1       0.593  -3.363  13.541  1.00  0.00     0.031 C 
ATOM     51  C   UNL     1       0.816  -5.505  12.305  1.00  0.00     0.034 A 
BRANCH  38  52
ATOM     52  C   UNL     1       1.300  -7.889   6.631  1.00  0.00     0.023 A 
ATOM     53  C   UNL     1       0.229  -8.803   6.671  1.00  0.00     0.031 A 
ATOM     54  C   UNL     1       2.479  -8.274   5.968  1.00  0.00     0.131 A 
ATOM     55  C   UNL     1       0.377 -10.074   6.101  1.00  0.00     0.055 A 
ATOM     56  C   UNL     1       2.606  -9.528   5.367  1.00  0.00     0.041 A 
ATOM     57  F   UNL     1       3.533  -7.443   5.912  1.00  0.00    -0.206 F 
ATOM     58  C   UNL     1       1.558 -10.440   5.447  1.00  0.00     0.022 A 
BRANCH  55  59
ATOM     59  S   UNL     1      -0.920 -11.334   6.262  1.00  0.00     0.124 S 
ATOM     60  O   UNL     1      -1.223 -11.631   4.864  1.00  0.00    -0.237 OA
ATOM     61  O   UNL     1      -0.227 -12.394   6.989  1.00  0.00    -0.237 OA
ATOM     62  O   UNL     1      -1.981 -10.654   6.996  1.00  0.00    -0.744 OA
ENDBRANCH  55  59
ENDBRANCH  38  52
BRANCH  39  63
ATOM     63  C   UNL     1       0.754   0.560  11.924  1.00  0.00     0.023 A 
ATOM     64  C   UNL     1      -0.242   1.526  11.695  1.00  0.00     0.031 A 
ATOM     65  C   UNL     1       1.780   0.868  12.833  1.00  0.00     0.131 A 
ATOM     66  C   UNL     1      -0.152   2.777  12.319  1.00  0.00     0.055 A 
ATOM     67  C   UNL     1       1.826   2.090  13.506  1.00  0.00     0.041 A 
ATOM     68  F   UNL     1       2.763  -0.015  13.069  1.00  0.00    -0.206 F 
ATOM     69  C   UNL     1       0.865   3.058  13.236  1.00  0.00     0.022 A 
BRANCH  66  70
ATOM     70  S   UNL     1      -1.271   4.128  11.856  1.00  0.00     0.124 S 
ATOM     71  O   UNL     1      -1.941   4.415  13.120  1.00  0.00    -0.237 OA
ATOM     72  O   UNL     1      -0.332   5.148  11.393  1.00  0.00    -0.237 OA
ATOM     73  O   UNL     1      -2.109   3.541  10.816  1.00  0.00    -0.744 OA
ENDBRANCH  66  70
ENDBRANCH  39  63
BRANCH  51  74
ATOM     74  C   UNL     1       0.721  -6.269  13.607  1.00  0.00     0.023 A 
ATOM     75  C   UNL     1       1.789  -7.091  14.019  1.00  0.00     0.031 A 
ATOM     76  C   UNL     1      -0.465  -6.300  14.360  1.00  0.00     0.131 A 
ATOM     77  C   UNL     1       1.637  -7.935  15.127  1.00  0.00     0.055 A 
ATOM     78  C   UNL     1      -0.595  -7.107  15.493  1.00  0.00     0.041 A 
ATOM     79  F   UNL     1      -1.518  -5.546  14.006  1.00  0.00    -0.206 F 
ATOM     80  C   UNL     1       0.453  -7.940  15.872  1.00  0.00     0.022 A 
BRANCH  77  81
ATOM     81  S   UNL     1       2.931  -9.121  15.590  1.00  0.00     0.124 S 
ATOM     82  O   UNL     1       3.297  -8.661  16.928  1.00  0.00    -0.237 OA
ATOM     83  O   UNL     1       2.215 -10.393  15.543  1.00  0.00    -0.237 OA
ATOM     84  O   UNL     1       3.957  -8.940  14.568  1.00  0.00    -0.744 OA
ENDBRANCH  77  81
ENDBRANCH  51  74
ENDBRANCH  25  26
ENDBRANCH  18  20
ENDBRANCH  17  18
ENDBRANCH   1  17
TORSDOF 16
