REMARK SMILES COc1ccc(CCN2C(=O)C[C@@H](C(=O)OCCOC(=O)c3ccc(-c4c5nc(c(-c6cc(S(=O)(=O)[O-])ccc6F)c6ccc([nH]6)c(-c6cc(S(=O)(=O)[O-])ccc6F)c6nc(c(-c7cc(S(=O)(=O)[O-])ccc7F)c7ccc4[nH]7)C=C6)C=C5)cc3)S/C2=[NH+]\c2ccc(F)cc2)cc1OC
REMARK SMILES IDX 17 1 16 2 14 3 15 4 13 5 9 6 10 7 86 8 11 9 12 10 85 11
REMARK SMILES IDX 87 12 8 14 7 15 6 16 3 17 4 18 96 19 5 20 95 21 2 22 1 23
REMARK SMILES IDX 97 24 98 25 88 26 89 27 94 28 90 29 93 30 91 31 92 32 18 33
REMARK SMILES IDX 19 34 20 35 21 36 22 37 23 38 84 39 24 40 83 41 25 42 26 43
REMARK SMILES IDX 27 44 77 45 28 46 82 47 76 48 78 49 29 50 81 51 75 52 74 53
REMARK SMILES IDX 30 55 62 56 42 57 61 58 43 59 46 60 60 61 79 62 44 63 45 64
REMARK SMILES IDX 59 66 80 67 47 68 31 69 32 70 40 71 33 72 39 73 41 74 38 75
REMARK SMILES IDX 34 76 35 77 36 78 37 79 63 80 64 81 72 82 65 83 71 84 73 85
REMARK SMILES IDX 70 86 66 87 67 88 68 89 69 90 48 91 49 92 57 93 50 94 56 95
REMARK SMILES IDX 58 96 55 97 51 98 52 99 53 100 54 101
REMARK H PARENT 87 13 78 54 46 65
REMARK Flexibility Score: inf
ROOT
ATOM      1  C   UNL     1      -3.901  -2.470   2.347  1.00  0.00     0.274 C 
ENDROOT
BRANCH   1   2
ATOM      2  O   UNL     1      -2.888  -2.808   3.315  1.00  0.00    -0.461 OA
BRANCH   2   3
ATOM      3  C   UNL     1      -2.915  -2.119   4.495  1.00  0.00     0.320 C 
ATOM      4  O   UNL     1      -3.559  -1.092   4.675  1.00  0.00    -0.251 OA
BRANCH   3   5
ATOM      5  C   UNL     1      -2.014  -2.725   5.575  1.00  0.00     0.180 C 
ATOM      6  N   UNL     1       0.619  -4.043   5.885  1.00  0.00    -0.191 N 
ATOM      7  C   UNL     1       0.536  -2.663   5.978  1.00  0.00     0.311 C 
ATOM      8  C   UNL     1      -0.422  -4.943   6.078  1.00  0.00     0.319 C 
ATOM      9  O   UNL     1       1.498  -1.970   6.329  1.00  0.00    -0.247 OA
ATOM     10  C   UNL     1      -0.724  -1.960   5.584  1.00  0.00     0.155 C 
ATOM     11  S   UNL     1      -1.949  -4.506   5.389  1.00  0.00    -0.022 SA
ATOM     12  N   UNL     1      -0.191  -6.092   6.637  1.00  0.00    -0.235 N 
ATOM     13  H   UNL     1       0.725  -6.324   6.915  1.00  0.00     0.313 HD
BRANCH   6  14
ATOM     14  C   UNL     1       1.963  -4.580   5.644  1.00  0.00     0.251 C 
BRANCH  14  15
ATOM     15  C   UNL     1       2.171  -4.886   4.139  1.00  0.00     0.082 C 
BRANCH  15  16
ATOM     16  C   UNL     1       1.938  -3.715   3.200  1.00  0.00    -0.040 A 
ATOM     17  C   UNL     1       1.454  -1.453   1.562  1.00  0.00     0.160 A 
ATOM     18  C   UNL     1       0.408  -2.301   1.932  1.00  0.00     0.051 A 
ATOM     19  C   UNL     1       2.759  -1.764   1.977  1.00  0.00     0.160 A 
ATOM     20  C   UNL     1       0.656  -3.440   2.707  1.00  0.00     0.008 A 
ATOM     21  C   UNL     1       2.984  -2.864   2.823  1.00  0.00     0.054 A 
BRANCH  17  22
ATOM     22  O   UNL     1       1.253  -0.288   0.870  1.00  0.00    -0.493 OA
ATOM     23  C   UNL     1       0.157  -0.265  -0.035  1.00  0.00     0.278 C 
ENDBRANCH  17  22
BRANCH  19  24
ATOM     24  O   UNL     1       3.898  -1.070   1.645  1.00  0.00    -0.493 OA
ATOM     25  C   UNL     1       3.908  -0.487   0.344  1.00  0.00     0.278 C 
ENDBRANCH  19  24
ENDBRANCH  15  16
ENDBRANCH  14  15
ENDBRANCH   6  14
BRANCH  12  26
ATOM     26  C   UNL     1      -1.237  -7.011   6.850  1.00  0.00     0.125 A 
ATOM     27  C   UNL     1      -1.948  -7.014   8.060  1.00  0.00     0.055 A 
ATOM     28  C   UNL     1      -1.578  -7.937   5.857  1.00  0.00     0.055 A 
ATOM     29  C   UNL     1      -3.021  -7.891   8.250  1.00  0.00     0.043 A 
ATOM     30  C   UNL     1      -2.654  -8.807   6.042  1.00  0.00     0.043 A 
ATOM     31  C   UNL     1      -3.372  -8.770   7.232  1.00  0.00     0.123 A 
ATOM     32  F   UNL     1      -4.416  -9.591   7.391  1.00  0.00    -0.207 F 
ENDBRANCH  12  26
ENDBRANCH   3   5
ENDBRANCH   2   3
ENDBRANCH   1   2
BRANCH   1  33
ATOM     33  C   UNL     1      -5.081  -3.434   2.468  1.00  0.00     0.275 C 
BRANCH  33  34
ATOM     34  O   UNL     1      -5.636  -3.325   3.789  1.00  0.00    -0.458 OA
BRANCH  34  35
ATOM     35  C   UNL     1      -5.942  -4.489   4.404  1.00  0.00     0.338 C 
ATOM     36  O   UNL     1      -5.893  -5.613   3.925  1.00  0.00    -0.246 OA
BRANCH  35  37
ATOM     37  C   UNL     1      -6.368  -4.195   5.783  1.00  0.00     0.060 A 
ATOM     38  C   UNL     1      -5.490  -3.549   6.653  1.00  0.00     0.016 A 
ATOM     39  C   UNL     1      -7.615  -4.613   6.237  1.00  0.00     0.016 A 
ATOM     40  C   UNL     1      -5.823  -3.356   7.988  1.00  0.00     0.010 A 
ATOM     41  C   UNL     1      -7.983  -4.353   7.561  1.00  0.00     0.010 A 
ATOM     42  C   UNL     1      -7.082  -3.741   8.455  1.00  0.00    -0.014 A 
BRANCH  42  43
ATOM     43  C   UNL     1      -7.435  -3.570   9.889  1.00  0.00     0.031 A 
ATOM     44  C   UNL     1      -7.721  -4.785  10.727  1.00  0.00     0.074 A 
ATOM     45  C   UNL     1      -7.486  -2.341  10.442  1.00  0.00     0.049 A 
ATOM     46  N   UNL     1      -8.241  -4.865  11.923  1.00  0.00    -0.248 NA
ATOM     47  C   UNL     1      -7.389  -6.086  10.125  1.00  0.00     0.031 C 
ATOM     48  C   UNL     1      -7.155  -1.088   9.759  1.00  0.00     0.029 A 
ATOM     49  N   UNL     1      -7.836  -1.943  11.709  1.00  0.00    -0.354 N 
ATOM     50  C   UNL     1      -8.350  -6.224  12.198  1.00  0.00     0.074 A 
ATOM     51  C   UNL     1      -7.848  -6.929  11.037  1.00  0.00     0.031 C 
ATOM     52  C   UNL     1      -7.300  -0.067  10.618  1.00  0.00     0.029 A 
ATOM     53  C   UNL     1      -7.818  -0.578  11.883  1.00  0.00     0.049 A 
ATOM     54  H   UNL     1      -8.078  -2.575  12.424  1.00  0.00     0.167 HD
ATOM     55  C   UNL     1      -8.831  -6.823  13.316  1.00  0.00     0.034 A 
ATOM     56  C   UNL     1      -8.220   0.179  12.923  1.00  0.00     0.034 A 
ATOM     57  C   UNL     1      -9.295  -6.099  14.474  1.00  0.00     0.049 A 
ATOM     58  C   UNL     1      -8.806  -0.506  14.131  1.00  0.00     0.074 A 
ATOM     59  C   UNL     1      -9.806  -6.599  15.659  1.00  0.00     0.029 A 
ATOM     60  N   UNL     1      -9.296  -4.714  14.597  1.00  0.00    -0.354 N 
ATOM     61  N   UNL     1      -8.980  -1.789  14.349  1.00  0.00    -0.248 NA
ATOM     62  C   UNL     1      -9.261   0.360  15.226  1.00  0.00     0.031 C 
ATOM     63  C   UNL     1     -10.163  -5.519  16.475  1.00  0.00     0.029 A 
ATOM     64  C   UNL     1      -9.815  -4.344  15.828  1.00  0.00     0.049 A 
ATOM     65  H   UNL     1      -8.975  -4.087  13.909  1.00  0.00     0.167 HD
ATOM     66  C   UNL     1      -9.550  -1.883  15.616  1.00  0.00     0.074 A 
ATOM     67  C   UNL     1      -9.671  -0.529  16.118  1.00  0.00     0.031 C 
ATOM     68  C   UNL     1      -9.938  -2.987  16.303  1.00  0.00     0.034 A 
BRANCH  55  69
ATOM     69  C   UNL     1      -8.938  -8.328  13.303  1.00  0.00     0.023 A 
ATOM     70  C   UNL     1      -7.804  -9.156  13.243  1.00  0.00     0.031 A 
ATOM     71  C   UNL     1     -10.203  -8.942  13.308  1.00  0.00     0.131 A 
ATOM     72  C   UNL     1      -7.960 -10.546  13.123  1.00  0.00     0.055 A 
ATOM     73  C   UNL     1     -10.350 -10.329  13.262  1.00  0.00     0.041 A 
ATOM     74  F   UNL     1     -11.322  -8.200  13.341  1.00  0.00    -0.206 F 
ATOM     75  C   UNL     1      -9.225 -11.140  13.154  1.00  0.00     0.022 A 
BRANCH  72  76
ATOM     76  S   UNL     1      -6.492 -11.557  12.784  1.00  0.00     0.124 S 
ATOM     77  O   UNL     1      -5.994 -10.949  11.552  1.00  0.00    -0.237 OA
ATOM     78  O   UNL     1      -5.680 -11.341  13.975  1.00  0.00    -0.237 OA
ATOM     79  O   UNL     1      -7.033 -12.906  12.632  1.00  0.00    -0.744 OA
ENDBRANCH  72  76
ENDBRANCH  55  69
BRANCH  56  80
ATOM     80  C   UNL     1      -8.154   1.667  12.847  1.00  0.00     0.023 A 
ATOM     81  C   UNL     1      -7.336   2.402  13.720  1.00  0.00     0.031 A 
ATOM     82  C   UNL     1      -8.941   2.380  11.925  1.00  0.00     0.131 A 
ATOM     83  C   UNL     1      -7.350   3.805  13.676  1.00  0.00     0.055 A 
ATOM     84  C   UNL     1      -8.912   3.773  11.850  1.00  0.00     0.041 A 
ATOM     85  F   UNL     1      -9.744   1.727  11.069  1.00  0.00    -0.206 F 
ATOM     86  C   UNL     1      -8.121   4.495  12.737  1.00  0.00     0.022 A 
BRANCH  83  87
ATOM     87  S   UNL     1      -6.400   4.723  14.919  1.00  0.00     0.124 S 
ATOM     88  O   UNL     1      -6.987   4.236  16.162  1.00  0.00    -0.237 OA
ATOM     89  O   UNL     1      -5.036   4.288  14.639  1.00  0.00    -0.237 OA
ATOM     90  O   UNL     1      -6.684   6.121  14.600  1.00  0.00    -0.744 OA
ENDBRANCH  83  87
ENDBRANCH  56  80
BRANCH  68  91
ATOM     91  C   UNL     1     -10.486  -2.763  17.690  1.00  0.00     0.023 A 
ATOM     92  C   UNL     1     -11.727  -2.139  17.901  1.00  0.00     0.031 A 
ATOM     93  C   UNL     1      -9.741  -3.161  18.814  1.00  0.00     0.131 A 
ATOM     94  C   UNL     1     -12.164  -1.881  19.209  1.00  0.00     0.055 A 
ATOM     95  C   UNL     1     -10.206  -2.950  20.112  1.00  0.00     0.041 A 
ATOM     96  F   UNL     1      -8.548  -3.759  18.666  1.00  0.00    -0.206 F 
ATOM     97  C   UNL     1     -11.417  -2.296  20.316  1.00  0.00     0.022 A 
BRANCH  94  98
ATOM     98  S   UNL     1     -13.682  -0.918  19.446  1.00  0.00     0.124 S 
ATOM     99  O   UNL     1     -13.360   0.330  18.762  1.00  0.00    -0.237 OA
ATOM    100  O   UNL     1     -14.688  -1.756  18.803  1.00  0.00    -0.237 OA
ATOM    101  O   UNL     1     -13.799  -0.815  20.900  1.00  0.00    -0.744 OA
ENDBRANCH  94  98
ENDBRANCH  68  91
ENDBRANCH  42  43
ENDBRANCH  35  37
ENDBRANCH  34  35
ENDBRANCH  33  34
ENDBRANCH   1  33
TORSDOF 20
