REMARK SMILES O=C(CCCCc1nc(C[C@H]2CCCO2)no1)OCCOC(=O)c1ccc(-c2c3nc(c(-c4cc(S(=O)(=O)[O-])ccc4F)c4ccc([nH]4)c(-c4cc(S(=O)(=O)[O-])ccc4F)c4nc(c(-c5cc(S(=O)(=O)[O-])ccc5F)c5ccc2[nH]5)C=C4)C=C3)cc1
REMARK SMILES IDX 18 1 2 2 1 3 3 4 4 5 5 6 6 7 7 8 8 9 17 10 9 11 16 12 10 13
REMARK SMILES IDX 11 14 12 15 15 16 13 17 14 18 19 19 20 20 21 21 22 22 23 23
REMARK SMILES IDX 24 24 25 25 86 26 26 27 85 28 27 29 28 30 29 31 79 32 30 33
REMARK SMILES IDX 84 34 78 35 80 36 31 37 83 38 77 39 76 40 32 42 64 43 44 44
REMARK SMILES IDX 63 45 45 46 48 47 62 48 81 49 46 50 47 51 61 53 82 54 49 55
REMARK SMILES IDX 33 56 34 57 42 58 35 59 41 60 43 61 40 62 36 63 37 64 38 65
REMARK SMILES IDX 39 66 65 67 66 68 74 69 67 70 73 71 75 72 72 73 68 74 69 75
REMARK SMILES IDX 70 76 71 77 50 78 51 79 59 80 52 81 58 82 60 83 57 84 53 85
REMARK SMILES IDX 54 86 55 87 56 88
REMARK H PARENT 80 41 48 52
REMARK Flexibility Score: inf
ROOT
ATOM      1  O   UNL     1       6.187 -14.206   2.320  1.00  0.00    -0.462 OA
ENDROOT
BRANCH   1   2
ATOM      2  C   UNL     1       5.136 -13.406   2.002  1.00  0.00     0.305 C 
ATOM      3  O   UNL     1       3.983 -13.781   2.188  1.00  0.00    -0.252 OA
BRANCH   2   4
ATOM      4  C   UNL     1       5.460 -12.112   1.280  1.00  0.00     0.123 C 
BRANCH   4   5
ATOM      5  C   UNL     1       4.718 -10.895   1.823  1.00  0.00     0.012 C 
BRANCH   5   6
ATOM      6  C   UNL     1       5.288 -10.297   3.117  1.00  0.00     0.010 C 
BRANCH   6   7
ATOM      7  C   UNL     1       6.771  -9.916   3.134  1.00  0.00     0.100 C 
BRANCH   7   8
ATOM      8  C   UNL     1       7.187  -8.870   2.177  1.00  0.00     0.226 A 
ATOM      9  N   UNL     1       6.916  -8.718   0.902  1.00  0.00    -0.196 NA
ATOM     10  O   UNL     1       8.132  -7.998   2.634  1.00  0.00    -0.339 OA
ATOM     11  C   UNL     1       7.728  -7.666   0.555  1.00  0.00     0.174 A 
ATOM     12  N   UNL     1       8.493  -7.203   1.554  1.00  0.00    -0.062 NA
BRANCH  11  13
ATOM     13  C   UNL     1       7.780  -7.123  -0.827  1.00  0.00     0.113 C 
BRANCH  13  14
ATOM     14  C   UNL     1       7.975  -5.602  -0.884  1.00  0.00     0.126 C 
ATOM     15  C   UNL     1       9.417  -5.141  -0.687  1.00  0.00     0.035 C 
ATOM     16  O   UNL     1       7.594  -5.140  -2.197  1.00  0.00    -0.378 OA
ATOM     17  C   UNL     1       9.955  -5.106  -2.095  1.00  0.00     0.031 C 
ATOM     18  C   UNL     1       8.751  -4.642  -2.880  1.00  0.00     0.160 C 
ENDBRANCH  13  14
ENDBRANCH  11  13
ENDBRANCH   7   8
ENDBRANCH   6   7
ENDBRANCH   5   6
ENDBRANCH   4   5
ENDBRANCH   2   4
ENDBRANCH   1   2
BRANCH   1  19
ATOM     19  C   UNL     1       7.273 -13.671   3.091  1.00  0.00     0.274 C 
BRANCH  19  20
ATOM     20  C   UNL     1       8.615 -13.680   2.350  1.00  0.00     0.275 C 
BRANCH  20  21
ATOM     21  O   UNL     1       8.509 -13.116   1.035  1.00  0.00    -0.458 OA
BRANCH  21  22
ATOM     22  C   UNL     1       8.195 -14.026   0.072  1.00  0.00     0.338 C 
ATOM     23  O   UNL     1       8.136 -15.231   0.220  1.00  0.00    -0.246 OA
BRANCH  22  24
ATOM     24  C   UNL     1       7.770 -13.338  -1.169  1.00  0.00     0.060 A 
ATOM     25  C   UNL     1       6.730 -13.923  -1.901  1.00  0.00     0.016 A 
ATOM     26  C   UNL     1       8.384 -12.169  -1.633  1.00  0.00     0.016 A 
ATOM     27  C   UNL     1       6.337 -13.375  -3.122  1.00  0.00     0.010 A 
ATOM     28  C   UNL     1       7.991 -11.623  -2.862  1.00  0.00     0.010 A 
ATOM     29  C   UNL     1       6.991 -12.245  -3.629  1.00  0.00    -0.014 A 
BRANCH  29  30
ATOM     30  C   UNL     1       6.734 -11.829  -5.032  1.00  0.00     0.031 A 
ATOM     31  C   UNL     1       7.663 -12.315  -6.112  1.00  0.00     0.074 A 
ATOM     32  C   UNL     1       5.668 -11.076  -5.351  1.00  0.00     0.049 A 
ATOM     33  N   UNL     1       7.607 -12.127  -7.405  1.00  0.00    -0.248 NA
ATOM     34  C   UNL     1       8.812 -13.117  -5.667  1.00  0.00     0.031 C 
ATOM     35  C   UNL     1       4.680 -10.564  -4.403  1.00  0.00     0.029 A 
ATOM     36  N   UNL     1       5.237 -10.613  -6.570  1.00  0.00    -0.354 N 
ATOM     37  C   UNL     1       8.701 -12.804  -7.934  1.00  0.00     0.074 A 
ATOM     38  C   UNL     1       9.433 -13.354  -6.812  1.00  0.00     0.031 C 
ATOM     39  C   UNL     1       3.758  -9.854  -5.077  1.00  0.00     0.029 A 
ATOM     40  C   UNL     1       4.099  -9.845  -6.499  1.00  0.00     0.049 A 
ATOM     41  H   UNL     1       5.699 -10.814  -7.416  1.00  0.00     0.167 HD
ATOM     42  C   UNL     1       9.054 -12.969  -9.233  1.00  0.00     0.034 A 
ATOM     43  C   UNL     1       3.419  -9.201  -7.469  1.00  0.00     0.034 A 
ATOM     44  C   UNL     1       8.336 -12.392 -10.343  1.00  0.00     0.049 A 
ATOM     45  C   UNL     1       3.886  -9.313  -8.901  1.00  0.00     0.074 A 
ATOM     46  C   UNL     1       8.600 -12.509 -11.697  1.00  0.00     0.029 A 
ATOM     47  N   UNL     1       7.223 -11.568 -10.227  1.00  0.00    -0.354 N 
ATOM     48  N   UNL     1       4.901  -9.986  -9.392  1.00  0.00    -0.248 NA
ATOM     49  C   UNL     1       3.104  -8.586  -9.911  1.00  0.00     0.031 C 
ATOM     50  C   UNL     1       7.693 -11.701 -12.393  1.00  0.00     0.029 A 
ATOM     51  C   UNL     1       6.814 -11.138 -11.481  1.00  0.00     0.049 A 
ATOM     52  H   UNL     1       6.788 -11.325  -9.378  1.00  0.00     0.167 HD
ATOM     53  C   UNL     1       4.858  -9.789 -10.770  1.00  0.00     0.074 A 
ATOM     54  C   UNL     1       3.715  -8.940 -11.033  1.00  0.00     0.031 C 
ATOM     55  C   UNL     1       5.682 -10.277 -11.733  1.00  0.00     0.034 A 
BRANCH  42  56
ATOM     56  C   UNL     1      10.304 -13.771  -9.504  1.00  0.00     0.023 A 
ATOM     57  C   UNL     1      10.394 -15.132  -9.162  1.00  0.00     0.031 A 
ATOM     58  C   UNL     1      11.440 -13.154 -10.057  1.00  0.00     0.131 A 
ATOM     59  C   UNL     1      11.615 -15.809  -9.298  1.00  0.00     0.055 A 
ATOM     60  C   UNL     1      12.629 -13.855 -10.267  1.00  0.00     0.041 A 
ATOM     61  F   UNL     1      11.421 -11.852 -10.381  1.00  0.00    -0.206 F 
ATOM     62  C   UNL     1      12.727 -15.186  -9.870  1.00  0.00     0.022 A 
BRANCH  59  63
ATOM     63  S   UNL     1      11.776 -17.461  -8.567  1.00  0.00     0.124 S 
ATOM     64  O   UNL     1      11.432 -17.201  -7.171  1.00  0.00    -0.237 OA
ATOM     65  O   UNL     1      10.809 -18.240  -9.330  1.00  0.00    -0.237 OA
ATOM     66  O   UNL     1      13.178 -17.804  -8.800  1.00  0.00    -0.744 OA
ENDBRANCH  59  63
ENDBRANCH  42  56
BRANCH  43  67
ATOM     67  C   UNL     1       2.236  -8.362  -7.128  1.00  0.00     0.023 A 
ATOM     68  C   UNL     1       0.949  -8.701  -7.573  1.00  0.00     0.031 A 
ATOM     69  C   UNL     1       2.390  -7.171  -6.396  1.00  0.00     0.131 A 
ATOM     70  C   UNL     1      -0.129  -7.838  -7.317  1.00  0.00     0.055 A 
ATOM     71  C   UNL     1       1.309  -6.339  -6.104  1.00  0.00     0.041 A 
ATOM     72  F   UNL     1       3.602  -6.801  -5.951  1.00  0.00    -0.206 F 
ATOM     73  C   UNL     1       0.041  -6.665  -6.576  1.00  0.00     0.022 A 
BRANCH  70  74
ATOM     74  S   UNL     1      -1.749  -8.232  -8.031  1.00  0.00     0.124 S 
ATOM     75  O   UNL     1      -1.455  -8.222  -9.460  1.00  0.00    -0.237 OA
ATOM     76  O   UNL     1      -2.031  -9.538  -7.443  1.00  0.00    -0.237 OA
ATOM     77  O   UNL     1      -2.603  -7.143  -7.561  1.00  0.00    -0.744 OA
ENDBRANCH  70  74
ENDBRANCH  43  67
BRANCH  55  78
ATOM     78  C   UNL     1       5.347  -9.938 -13.166  1.00  0.00     0.023 A 
ATOM     79  C   UNL     1       5.454  -8.628 -13.665  1.00  0.00     0.031 A 
ATOM     80  C   UNL     1       4.909 -10.946 -14.044  1.00  0.00     0.131 A 
ATOM     81  C   UNL     1       5.083  -8.352 -14.991  1.00  0.00     0.055 A 
ATOM     82  C   UNL     1       4.592 -10.676 -15.376  1.00  0.00     0.041 A 
ATOM     83  F   UNL     1       4.786 -12.215 -13.621  1.00  0.00    -0.206 F 
ATOM     84  C   UNL     1       4.668  -9.370 -15.854  1.00  0.00     0.022 A 
BRANCH  81  85
ATOM     85  S   UNL     1       5.076  -6.628 -15.557  1.00  0.00     0.124 S 
ATOM     86  O   UNL     1       4.141  -6.005 -14.626  1.00  0.00    -0.237 OA
ATOM     87  O   UNL     1       6.476  -6.245 -15.408  1.00  0.00    -0.237 OA
ATOM     88  O   UNL     1       4.605  -6.722 -16.938  1.00  0.00    -0.744 OA
ENDBRANCH  81  85
ENDBRANCH  55  78
ENDBRANCH  29  30
ENDBRANCH  22  24
ENDBRANCH  21  22
ENDBRANCH  20  21
ENDBRANCH  19  20
ENDBRANCH   1  19
TORSDOF 20
