REMARK SMILES COc1ccc(-c2cccc(/C=C\C(=O)OCCOC(=O)c3ccc(-c4c5nc(c(-c6cc(S(=O)(=O)[O-])ccc6F)c6ccc([nH]6)c(-c6cc(S(=O)(=O)[O-])ccc6F)c6nc(c(-c7cc(S(=O)(=O)[O-])ccc7F)c7ccc4[nH]7)C=C6)C=C5)cc3)c2)c(Cl)c1OC
REMARK SMILES IDX 17 1 16 2 14 3 15 4 13 5 12 6 11 7 7 8 8 9 85 10 9 11 10 12
REMARK SMILES IDX 6 13 3 14 4 15 88 16 5 17 86 18 87 19 2 20 1 21 89 22 90 23
REMARK SMILES IDX 18 24 19 25 20 26 21 27 22 28 23 29 84 30 24 31 83 32 25 33
REMARK SMILES IDX 26 34 27 35 77 36 28 37 82 38 76 39 78 40 29 41 81 42 75 43
REMARK SMILES IDX 74 44 30 46 62 47 42 48 61 49 43 50 46 51 60 52 79 53 44 54
REMARK SMILES IDX 45 55 59 57 80 58 47 59 31 60 32 61 40 62 33 63 39 64 41 65
REMARK SMILES IDX 38 66 34 67 35 68 36 69 37 70 63 71 64 72 72 73 65 74 71 75
REMARK SMILES IDX 73 76 70 77 66 78 67 79 68 80 69 81 48 82 49 83 57 84 50 85
REMARK SMILES IDX 56 86 58 87 55 88 51 89 52 90 53 91 54 92
REMARK H PARENT 78 45 46 56
REMARK Flexibility Score: inf
ROOT
ATOM      1  C   UNL     1       4.665   5.957   9.629  1.00  0.00     0.275 C 
ENDROOT
BRANCH   1   2
ATOM      2  O   UNL     1       3.788   4.932   9.133  1.00  0.00    -0.459 OA
BRANCH   2   3
ATOM      3  C   UNL     1       3.385   3.974   9.987  1.00  0.00     0.330 C 
ATOM      4  O   UNL     1       3.895   3.729  11.070  1.00  0.00    -0.247 OA
BRANCH   3   5
ATOM      5  C   UNL     1       2.128   3.313   9.558  1.00  0.00     0.094 C 
ATOM      6  C   UNL     1       1.396   3.362   8.432  1.00  0.00     0.015 C 
BRANCH   6   7
ATOM      7  C   UNL     1       1.693   4.016   7.154  1.00  0.00    -0.025 A 
ATOM      8  C   UNL     1       1.828   3.822   4.731  1.00  0.00    -0.016 A 
ATOM      9  C   UNL     1       2.442   5.079   4.669  1.00  0.00     0.009 A 
ATOM     10  C   UNL     1       1.504   3.279   5.983  1.00  0.00     0.017 A 
ATOM     11  C   UNL     1       2.564   5.847   5.819  1.00  0.00     0.001 A 
ATOM     12  C   UNL     1       2.113   5.340   7.036  1.00  0.00     0.008 A 
BRANCH   8  13
ATOM     13  C   UNL     1       1.427   3.137   3.498  1.00  0.00     0.004 A 
ATOM     14  C   UNL     1       0.743   1.843   1.126  1.00  0.00     0.162 A 
ATOM     15  C   UNL     1       2.066   1.816   1.579  1.00  0.00     0.051 A 
ATOM     16  C   UNL     1      -0.270   2.542   1.822  1.00  0.00     0.180 A 
ATOM     17  C   UNL     1       2.402   2.447   2.767  1.00  0.00     0.014 A 
ATOM     18  C   UNL     1       0.086   3.198   3.014  1.00  0.00     0.094 A 
ATOM     19  Cl  UNL     1      -1.037   4.169   3.933  1.00  0.00    -0.079 Cl
BRANCH  14  20
ATOM     20  O   UNL     1       0.413   1.242  -0.070  1.00  0.00    -0.493 OA
ATOM     21  C   UNL     1       0.802  -0.129  -0.118  1.00  0.00     0.278 C 
ENDBRANCH  14  20
BRANCH  16  22
ATOM     22  O   UNL     1      -1.486   2.479   1.189  1.00  0.00    -0.491 OA
ATOM     23  C   UNL     1      -2.673   2.947   1.803  1.00  0.00     0.278 C 
ENDBRANCH  16  22
ENDBRANCH   8  13
ENDBRANCH   6   7
ENDBRANCH   3   5
ENDBRANCH   2   3
ENDBRANCH   1   2
BRANCH   1  24
ATOM     24  C   UNL     1       3.860   7.184  10.076  1.00  0.00     0.275 C 
BRANCH  24  25
ATOM     25  O   UNL     1       3.229   6.953  11.347  1.00  0.00    -0.458 OA
BRANCH  25  26
ATOM     26  C   UNL     1       1.942   6.530  11.308  1.00  0.00     0.338 C 
ATOM     27  O   UNL     1       1.238   6.408  10.318  1.00  0.00    -0.246 OA
BRANCH  26  28
ATOM     28  C   UNL     1       1.554   6.074  12.653  1.00  0.00     0.060 A 
ATOM     29  C   UNL     1       1.032   4.785  12.792  1.00  0.00     0.016 A 
ATOM     30  C   UNL     1       1.699   6.904  13.766  1.00  0.00     0.016 A 
ATOM     31  C   UNL     1       0.677   4.307  14.049  1.00  0.00     0.010 A 
ATOM     32  C   UNL     1       1.335   6.426  15.027  1.00  0.00     0.010 A 
ATOM     33  C   UNL     1       0.822   5.125  15.175  1.00  0.00    -0.014 A 
BRANCH  33  34
ATOM     34  C   UNL     1       0.363   4.640  16.497  1.00  0.00     0.031 A 
ATOM     35  C   UNL     1      -0.914   5.178  17.072  1.00  0.00     0.074 A 
ATOM     36  C   UNL     1       1.074   3.706  17.156  1.00  0.00     0.049 A 
ATOM     37  N   UNL     1      -1.468   4.940  18.231  1.00  0.00    -0.248 NA
ATOM     38  C   UNL     1      -1.665   6.116  16.224  1.00  0.00     0.031 C 
ATOM     39  C   UNL     1       2.300   3.077  16.662  1.00  0.00     0.029 A 
ATOM     40  N   UNL     1       0.868   3.121  18.379  1.00  0.00    -0.354 N 
ATOM     41  C   UNL     1      -2.631   5.702  18.258  1.00  0.00     0.074 A 
ATOM     42  C   UNL     1      -2.677   6.442  17.014  1.00  0.00     0.031 C 
ATOM     43  C   UNL     1       2.733   2.190  17.573  1.00  0.00     0.029 A 
ATOM     44  C   UNL     1       1.850   2.226  18.735  1.00  0.00     0.049 A 
ATOM     45  H   UNL     1       0.090   3.322  18.949  1.00  0.00     0.167 HD
ATOM     46  C   UNL     1      -3.575   5.766  19.229  1.00  0.00     0.034 A 
ATOM     47  C   UNL     1       2.029   1.538  19.881  1.00  0.00     0.034 A 
ATOM     48  C   UNL     1      -3.496   5.028  20.467  1.00  0.00     0.049 A 
ATOM     49  C   UNL     1       1.017   1.706  20.989  1.00  0.00     0.074 A 
ATOM     50  C   UNL     1      -4.389   5.020  21.524  1.00  0.00     0.029 A 
ATOM     51  N   UNL     1      -2.459   4.172  20.819  1.00  0.00    -0.354 N 
ATOM     52  N   UNL     1      -0.074   2.438  21.010  1.00  0.00    -0.248 NA
ATOM     53  C   UNL     1       1.257   0.951  22.226  1.00  0.00     0.031 C 
ATOM     54  C   UNL     1      -3.854   4.226  22.544  1.00  0.00     0.029 A 
ATOM     55  C   UNL     1      -2.673   3.660  22.090  1.00  0.00     0.049 A 
ATOM     56  H   UNL     1      -1.684   3.961  20.250  1.00  0.00     0.167 HD
ATOM     57  C   UNL     1      -0.669   2.199  22.247  1.00  0.00     0.074 A 
ATOM     58  C   UNL     1       0.179   1.247  22.935  1.00  0.00     0.031 C 
ATOM     59  C   UNL     1      -1.814   2.713  22.765  1.00  0.00     0.034 A 
BRANCH  46  60
ATOM     60  C   UNL     1      -4.733   6.710  19.008  1.00  0.00     0.023 A 
ATOM     61  C   UNL     1      -5.639   6.536  17.947  1.00  0.00     0.031 A 
ATOM     62  C   UNL     1      -4.912   7.823  19.849  1.00  0.00     0.131 A 
ATOM     63  C   UNL     1      -6.633   7.498  17.710  1.00  0.00     0.055 A 
ATOM     64  C   UNL     1      -5.956   8.730  19.660  1.00  0.00     0.041 A 
ATOM     65  F   UNL     1      -4.063   8.058  20.862  1.00  0.00    -0.206 F 
ATOM     66  C   UNL     1      -6.815   8.579  18.576  1.00  0.00     0.022 A 
BRANCH  63  67
ATOM     67  S   UNL     1      -7.584   7.401  16.169  1.00  0.00     0.124 S 
ATOM     68  O   UNL     1      -6.526   7.468  15.164  1.00  0.00    -0.237 OA
ATOM     69  O   UNL     1      -8.264   6.117  16.297  1.00  0.00    -0.237 OA
ATOM     70  O   UNL     1      -8.452   8.576  16.227  1.00  0.00    -0.744 OA
ENDBRANCH  63  67
ENDBRANCH  46  60
BRANCH  47  71
ATOM     71  C   UNL     1       3.224   0.663  20.065  1.00  0.00     0.023 A 
ATOM     72  C   UNL     1       3.087  -0.715  20.297  1.00  0.00     0.031 A 
ATOM     73  C   UNL     1       4.523   1.204  20.075  1.00  0.00     0.131 A 
ATOM     74  C   UNL     1       4.221  -1.493  20.582  1.00  0.00     0.055 A 
ATOM     75  C   UNL     1       5.652   0.415  20.294  1.00  0.00     0.041 A 
ATOM     76  F   UNL     1       4.714   2.517  19.866  1.00  0.00    -0.206 F 
ATOM     77  C   UNL     1       5.503  -0.941  20.566  1.00  0.00     0.022 A 
BRANCH  74  78
ATOM     78  S   UNL     1       3.984  -3.221  21.083  1.00  0.00     0.124 S 
ATOM     79  O   UNL     1       3.118  -3.076  22.247  1.00  0.00    -0.237 OA
ATOM     80  O   UNL     1       3.370  -3.800  19.893  1.00  0.00    -0.237 OA
ATOM     81  O   UNL     1       5.342  -3.681  21.368  1.00  0.00    -0.744 OA
ENDBRANCH  74  78
ENDBRANCH  47  71
BRANCH  59  82
ATOM     82  C   UNL     1      -2.246   2.204  24.120  1.00  0.00     0.023 A 
ATOM     83  C   UNL     1      -1.497   2.453  25.284  1.00  0.00     0.031 A 
ATOM     84  C   UNL     1      -3.427   1.450  24.244  1.00  0.00     0.131 A 
ATOM     85  C   UNL     1      -1.905   1.901  26.508  1.00  0.00     0.055 A 
ATOM     86  C   UNL     1      -3.865   0.963  25.476  1.00  0.00     0.041 A 
ATOM     87  F   UNL     1      -4.181   1.177  23.167  1.00  0.00    -0.206 F 
ATOM     88  C   UNL     1      -3.094   1.175  26.615  1.00  0.00     0.022 A 
BRANCH  85  89
ATOM     89  S   UNL     1      -0.805   2.054  27.942  1.00  0.00     0.124 S 
ATOM     90  O   UNL     1       0.418   1.425  27.454  1.00  0.00    -0.237 OA
ATOM     91  O   UNL     1      -0.745   3.499  28.137  1.00  0.00    -0.237 OA
ATOM     92  O   UNL     1      -1.505   1.316  28.992  1.00  0.00    -0.744 OA
ENDBRANCH  85  89
ENDBRANCH  59  82
ENDBRANCH  33  34
ENDBRANCH  26  28
ENDBRANCH  25  26
ENDBRANCH  24  25
ENDBRANCH   1  24
TORSDOF 18
