REMARK SMILES O=C(CCC(=O)OCCOC(=O)c1ccc(-c2c3nc(c(-c4cc(S(=O)(=O)[O-])ccc4F)c4ccc([nH]4)c(-c4cc(S(=O)(=O)[O-])ccc4F)c4nc(c(-c5cc(S(=O)(=O)[O-])ccc5F)c5ccc2[nH]5)C=C4)C=C3)cc1)Nc1ccc(C(=O)N2CCOCC2)cc1
REMARK SMILES IDX 8 1 7 2 5 3 6 4 4 5 3 6 2 7 1 8 76 9 77 11 78 12 90 13 79 14
REMARK SMILES IDX 89 15 80 16 81 17 82 18 83 19 84 20 88 21 85 22 87 23 86 24
REMARK SMILES IDX 9 25 10 26 11 27 12 28 13 29 14 30 75 31 15 32 74 33 16 34
REMARK SMILES IDX 17 35 18 36 68 37 19 38 73 39 67 40 69 41 20 42 72 43 66 44
REMARK SMILES IDX 65 45 21 47 53 48 33 49 52 50 34 51 37 52 51 53 70 54 35 55
REMARK SMILES IDX 36 56 50 58 71 59 38 60 22 61 23 62 31 63 24 64 30 65 32 66
REMARK SMILES IDX 29 67 25 68 26 69 27 70 28 71 54 72 55 73 63 74 56 75 62 76
REMARK SMILES IDX 64 77 61 78 57 79 58 80 59 81 60 82 39 83 40 84 48 85 41 86
REMARK SMILES IDX 47 87 49 88 46 89 42 90 43 91 44 92 45 93
REMARK H PARENT 76 10 69 46 37 57
REMARK Flexibility Score: inf
ROOT
ATOM      1  C   UNL     1       5.887  -2.524  -0.355  1.00  0.00     0.274 C 
ENDROOT
BRANCH   1   2
ATOM      2  O   UNL     1       4.704  -1.892   0.185  1.00  0.00    -0.462 OA
BRANCH   2   3
ATOM      3  C   UNL     1       4.741  -1.484   1.483  1.00  0.00     0.306 C 
ATOM      4  O   UNL     1       5.700  -1.631   2.227  1.00  0.00    -0.252 OA
BRANCH   3   5
ATOM      5  C   UNL     1       3.419  -0.886   1.928  1.00  0.00     0.132 C 
BRANCH   5   6
ATOM      6  C   UNL     1       2.930   0.311   1.116  1.00  0.00     0.112 C 
BRANCH   6   7
ATOM      7  C   UNL     1       1.983  -0.083   0.001  1.00  0.00     0.224 C 
ATOM      8  O   UNL     1       0.795   0.226   0.050  1.00  0.00    -0.275 OA
ATOM      9  N   UNL     1       2.579  -0.855  -0.978  1.00  0.00    -0.326 N 
ATOM     10  H   UNL     1       3.553  -0.982  -0.919  1.00  0.00     0.169 HD
BRANCH   9  11
ATOM     11  C   UNL     1       1.917  -1.471  -2.047  1.00  0.00     0.041 A 
ATOM     12  C   UNL     1       2.424  -2.683  -2.533  1.00  0.00     0.027 A 
ATOM     13  C   UNL     1       0.747  -0.951  -2.579  1.00  0.00     0.027 A 
ATOM     14  C   UNL     1       1.702  -3.418  -3.480  1.00  0.00     0.016 A 
ATOM     15  C   UNL     1       0.033  -1.678  -3.523  1.00  0.00     0.016 A 
ATOM     16  C   UNL     1       0.492  -2.920  -3.975  1.00  0.00     0.040 A 
BRANCH  16  17
ATOM     17  C   UNL     1      -0.397  -3.809  -4.774  1.00  0.00     0.254 C 
ATOM     18  O   UNL     1      -0.275  -5.027  -4.659  1.00  0.00    -0.269 OA
ATOM     19  N   UNL     1      -1.449  -3.232  -5.460  1.00  0.00    -0.334 N 
ATOM     20  C   UNL     1      -1.359  -2.082  -6.364  1.00  0.00     0.148 C 
ATOM     21  C   UNL     1      -2.768  -3.841  -5.377  1.00  0.00     0.148 C 
ATOM     22  C   UNL     1      -2.497  -1.077  -6.115  1.00  0.00     0.181 C 
ATOM     23  C   UNL     1      -3.778  -2.747  -5.018  1.00  0.00     0.181 C 
ATOM     24  O   UNL     1      -3.780  -1.722  -6.029  1.00  0.00    -0.378 OA
ENDBRANCH  16  17
ENDBRANCH   9  11
ENDBRANCH   6   7
ENDBRANCH   5   6
ENDBRANCH   3   5
ENDBRANCH   2   3
ENDBRANCH   1   2
BRANCH   1  25
ATOM     25  C   UNL     1       6.655  -1.573  -1.278  1.00  0.00     0.275 C 
BRANCH  25  26
ATOM     26  O   UNL     1       7.352  -0.580  -0.509  1.00  0.00    -0.458 OA
BRANCH  26  27
ATOM     27  C   UNL     1       6.636   0.544  -0.266  1.00  0.00     0.338 C 
ATOM     28  O   UNL     1       5.539   0.809  -0.723  1.00  0.00    -0.246 OA
BRANCH  27  29
ATOM     29  C   UNL     1       7.303   1.335   0.781  1.00  0.00     0.060 A 
ATOM     30  C   UNL     1       6.594   1.619   1.953  1.00  0.00     0.016 A 
ATOM     31  C   UNL     1       8.588   1.841   0.589  1.00  0.00     0.016 A 
ATOM     32  C   UNL     1       7.157   2.435   2.929  1.00  0.00     0.010 A 
ATOM     33  C   UNL     1       9.155   2.656   1.573  1.00  0.00     0.010 A 
ATOM     34  C   UNL     1       8.434   2.977   2.737  1.00  0.00    -0.014 A 
BRANCH  34  35
ATOM     35  C   UNL     1       8.958   3.972   3.705  1.00  0.00     0.031 A 
ATOM     36  C   UNL     1       8.996   5.423   3.309  1.00  0.00     0.074 A 
ATOM     37  C   UNL     1       9.352   3.588   4.933  1.00  0.00     0.049 A 
ATOM     38  N   UNL     1       9.476   6.449   3.961  1.00  0.00    -0.248 NA
ATOM     39  C   UNL     1       8.419   5.758   1.998  1.00  0.00     0.031 C 
ATOM     40  C   UNL     1       9.311   2.216   5.441  1.00  0.00     0.029 A 
ATOM     41  N   UNL     1       9.864   4.316   5.977  1.00  0.00    -0.354 N 
ATOM     42  C   UNL     1       9.261   7.553   3.142  1.00  0.00     0.074 A 
ATOM     43  C   UNL     1       8.652   7.060   1.925  1.00  0.00     0.031 C 
ATOM     44  C   UNL     1       9.784   2.202   6.699  1.00  0.00     0.029 A 
ATOM     45  C   UNL     1      10.205   3.551   7.069  1.00  0.00     0.049 A 
ATOM     46  H   UNL     1       9.978   5.293   5.947  1.00  0.00     0.167 HD
ATOM     47  C   UNL     1       9.531   8.858   3.391  1.00  0.00     0.034 A 
ATOM     48  C   UNL     1      10.811   3.897   8.222  1.00  0.00     0.034 A 
ATOM     49  C   UNL     1      10.148   9.330   4.607  1.00  0.00     0.049 A 
ATOM     50  C   UNL     1      11.169   5.349   8.444  1.00  0.00     0.074 A 
ATOM     51  C   UNL     1      10.510  10.622   4.949  1.00  0.00     0.029 A 
ATOM     52  N   UNL     1      10.491   8.525   5.687  1.00  0.00    -0.354 N 
ATOM     53  N   UNL     1      10.989   6.378   7.647  1.00  0.00    -0.248 NA
ATOM     54  C   UNL     1      11.791   5.688   9.730  1.00  0.00     0.031 C 
ATOM     55  C   UNL     1      11.117  10.590   6.209  1.00  0.00     0.029 A 
ATOM     56  C   UNL     1      11.063   9.292   6.690  1.00  0.00     0.049 A 
ATOM     57  H   UNL     1      10.347   7.552   5.733  1.00  0.00     0.167 HD
ATOM     58  C   UNL     1      11.437   7.491   8.357  1.00  0.00     0.074 A 
ATOM     59  C   UNL     1      11.872   7.007   9.650  1.00  0.00     0.031 C 
ATOM     60  C   UNL     1      11.483   8.795   7.979  1.00  0.00     0.034 A 
BRANCH  47  61
ATOM     61  C   UNL     1       9.193   9.853   2.307  1.00  0.00     0.023 A 
ATOM     62  C   UNL     1       7.865  10.084   1.908  1.00  0.00     0.031 A 
ATOM     63  C   UNL     1      10.211  10.565   1.648  1.00  0.00     0.131 A 
ATOM     64  C   UNL     1       7.595  10.952   0.839  1.00  0.00     0.055 A 
ATOM     65  C   UNL     1       9.930  11.488   0.639  1.00  0.00     0.041 A 
ATOM     66  F   UNL     1      11.500  10.367   1.967  1.00  0.00    -0.206 F 
ATOM     67  C   UNL     1       8.616  11.677   0.220  1.00  0.00     0.022 A 
BRANCH  64  68
ATOM     68  S   UNL     1       5.905  11.024   0.184  1.00  0.00     0.124 S 
ATOM     69  O   UNL     1       5.701   9.644  -0.251  1.00  0.00    -0.237 OA
ATOM     70  O   UNL     1       5.133  11.449   1.345  1.00  0.00    -0.237 OA
ATOM     71  O   UNL     1       5.998  12.003  -0.897  1.00  0.00    -0.744 OA
ENDBRANCH  64  68
ENDBRANCH  47  61
BRANCH  48  72
ATOM     72  C   UNL     1      11.165   2.865   9.242  1.00  0.00     0.023 A 
ATOM     73  C   UNL     1      10.653   2.925  10.548  1.00  0.00     0.031 A 
ATOM     74  C   UNL     1      12.096   1.852   8.949  1.00  0.00     0.131 A 
ATOM     75  C   UNL     1      11.130   2.040  11.529  1.00  0.00     0.055 A 
ATOM     76  C   UNL     1      12.514   0.931   9.910  1.00  0.00     0.041 A 
ATOM     77  F   UNL     1      12.621   1.747   7.717  1.00  0.00    -0.206 F 
ATOM     78  C   UNL     1      12.047   1.035  11.215  1.00  0.00     0.022 A 
BRANCH  75  79
ATOM     79  S   UNL     1      10.637   2.312  13.254  1.00  0.00     0.124 S 
ATOM     80  O   UNL     1      11.033   3.700  13.460  1.00  0.00    -0.237 OA
ATOM     81  O   UNL     1       9.202   2.054  13.202  1.00  0.00    -0.237 OA
ATOM     82  O   UNL     1      11.421   1.322  13.991  1.00  0.00    -0.744 OA
ENDBRANCH  75  79
ENDBRANCH  48  72
BRANCH  60  83
ATOM     83  C   UNL     1      11.950   9.792   9.014  1.00  0.00     0.023 A 
ATOM     84  C   UNL     1      13.257   9.773   9.533  1.00  0.00     0.031 A 
ATOM     85  C   UNL     1      11.055  10.752   9.519  1.00  0.00     0.131 A 
ATOM     86  C   UNL     1      13.606  10.639  10.580  1.00  0.00     0.055 A 
ATOM     87  C   UNL     1      11.430  11.660  10.509  1.00  0.00     0.041 A 
ATOM     88  F   UNL     1       9.794  10.819   9.061  1.00  0.00    -0.206 F 
ATOM     89  C   UNL     1      12.706  11.593  11.060  1.00  0.00     0.022 A 
BRANCH  86  90
ATOM     90  S   UNL     1      15.210  10.412  11.398  1.00  0.00     0.124 S 
ATOM     91  O   UNL     1      15.156   9.006  11.787  1.00  0.00    -0.237 OA
ATOM     92  O   UNL     1      16.151  10.743  10.333  1.00  0.00    -0.237 OA
ATOM     93  O   UNL     1      15.167  11.364  12.506  1.00  0.00    -0.744 OA
ENDBRANCH  86  90
ENDBRANCH  60  83
ENDBRANCH  34  35
ENDBRANCH  27  29
ENDBRANCH  26  27
ENDBRANCH  25  26
ENDBRANCH   1  25
TORSDOF 18
