REMARK SMILES Cc1ccc(Oc2cc(C(=O)OCCOC(=O)c3ccc(-c4c5nc(c(-c6cc(S(=O)(=O)[O-])ccc6F)c6ccc([nH]6)c(-c6cc(S(=O)(=O)[O-])ccc6F)c6nc(c(-c7cc(S(=O)(=O)[O-])ccc7F)c7ccc4[nH]7)C=C6)C=C5)cc3)nc3ccccc23)cc1
REMARK SMILES IDX 14 1 13 2 12 3 10 4 11 5 9 6 7 7 8 8 87 9 82 10 86 11 81 12
REMARK SMILES IDX 83 13 85 14 84 15 6 16 5 17 1 18 2 19 3 20 89 21 4 22 88 23
REMARK SMILES IDX 15 24 16 25 17 26 18 27 19 28 80 29 20 30 79 31 21 32 22 33
REMARK SMILES IDX 23 34 73 35 24 36 78 37 72 38 74 39 25 40 77 41 71 42 70 43
REMARK SMILES IDX 26 45 58 46 38 47 57 48 39 49 42 50 56 51 75 52 40 53 41 54
REMARK SMILES IDX 55 56 76 57 43 58 27 59 28 60 36 61 29 62 35 63 37 64 34 65
REMARK SMILES IDX 30 66 31 67 32 68 33 69 59 70 60 71 68 72 61 73 67 74 69 75
REMARK SMILES IDX 66 76 62 77 63 78 64 79 65 80 44 81 45 82 53 83 46 84 52 85
REMARK SMILES IDX 54 86 51 87 47 88 48 89 49 90 50 91
REMARK H PARENT 74 44 42 55
REMARK Flexibility Score: inf
ROOT
ATOM      1  C   UNL     1     -10.120   3.186   1.514  1.00  0.00     0.275 C 
ENDROOT
BRANCH   1   2
ATOM      2  C   UNL     1      -9.091   4.022   0.740  1.00  0.00     0.275 C 
BRANCH   2   3
ATOM      3  O   UNL     1      -8.124   3.227   0.026  1.00  0.00    -0.457 OA
BRANCH   3   4
ATOM      4  C   UNL     1      -6.916   3.845  -0.063  1.00  0.00     0.357 C 
ATOM      5  O   UNL     1      -6.673   4.966   0.359  1.00  0.00    -0.244 OA
BRANCH   4   6
ATOM      6  C   UNL     1      -5.896   3.115  -0.864  1.00  0.00     0.152 A 
ATOM      7  C   UNL     1      -4.098   1.555  -1.098  1.00  0.00     0.139 A 
ATOM      8  C   UNL     1      -5.312   1.914  -0.492  1.00  0.00     0.084 A 
ATOM      9  C   UNL     1      -3.593   2.329  -2.177  1.00  0.00     0.043 A 
ATOM     10  C   UNL     1      -4.294   3.515  -2.470  1.00  0.00     0.075 A 
ATOM     11  C   UNL     1      -2.459   2.030  -2.972  1.00  0.00     0.014 A 
ATOM     12  N   UNL     1      -5.399   3.897  -1.847  1.00  0.00    -0.240 NA
ATOM     13  C   UNL     1      -3.827   4.387  -3.432  1.00  0.00     0.029 A 
ATOM     14  C   UNL     1      -1.996   2.925  -3.939  1.00  0.00     0.001 A 
ATOM     15  C   UNL     1      -2.674   4.115  -4.158  1.00  0.00     0.002 A 
BRANCH   7  16
ATOM     16  O   UNL     1      -3.491   0.415  -0.590  1.00  0.00    -0.457 OA
BRANCH  16  17
ATOM     17  C   UNL     1      -2.133   0.394  -0.313  1.00  0.00     0.127 A 
ATOM     18  C   UNL     1       2.159  -0.013   0.098  1.00  0.00     0.044 C 
ATOM     19  C   UNL     1       0.667   0.127   0.001  1.00  0.00    -0.051 A 
ATOM     20  C   UNL     1      -0.139  -1.002  -0.185  1.00  0.00     0.007 A 
ATOM     21  C   UNL     1       0.048   1.379   0.110  1.00  0.00     0.007 A 
ATOM     22  C   UNL     1      -1.526  -0.868  -0.340  1.00  0.00     0.047 A 
ATOM     23  C   UNL     1      -1.344   1.509  -0.021  1.00  0.00     0.047 A 
ENDBRANCH  16  17
ENDBRANCH   7  16
ENDBRANCH   4   6
ENDBRANCH   3   4
ENDBRANCH   2   3
ENDBRANCH   1   2
BRANCH   1  24
ATOM     24  O   UNL     1      -9.766   1.817   1.853  1.00  0.00    -0.458 OA
BRANCH  24  25
ATOM     25  C   UNL     1      -8.513   1.373   2.146  1.00  0.00     0.338 C 
ATOM     26  O   UNL     1      -8.058   0.351   1.628  1.00  0.00    -0.246 OA
BRANCH  25  27
ATOM     27  C   UNL     1      -7.641   2.282   2.918  1.00  0.00     0.060 A 
ATOM     28  C   UNL     1      -6.249   2.206   2.744  1.00  0.00     0.016 A 
ATOM     29  C   UNL     1      -8.203   3.320   3.646  1.00  0.00     0.016 A 
ATOM     30  C   UNL     1      -5.433   3.245   3.159  1.00  0.00     0.010 A 
ATOM     31  C   UNL     1      -7.447   4.434   3.880  1.00  0.00     0.010 A 
ATOM     32  C   UNL     1      -6.059   4.361   3.700  1.00  0.00    -0.014 A 
BRANCH  32  33
ATOM     33  C   UNL     1      -5.348   5.358   4.473  1.00  0.00     0.031 A 
ATOM     34  C   UNL     1      -4.607   6.422   3.792  1.00  0.00     0.074 A 
ATOM     35  C   UNL     1      -5.575   5.180   5.795  1.00  0.00     0.049 A 
ATOM     36  N   UNL     1      -3.551   6.992   4.249  1.00  0.00    -0.248 NA
ATOM     37  C   UNL     1      -4.948   6.891   2.448  1.00  0.00     0.031 C 
ATOM     38  C   UNL     1      -5.330   5.991   6.966  1.00  0.00     0.029 A 
ATOM     39  N   UNL     1      -6.003   3.963   6.337  1.00  0.00    -0.354 N 
ATOM     40  C   UNL     1      -3.392   8.153   3.514  1.00  0.00     0.074 A 
ATOM     41  C   UNL     1      -4.107   7.919   2.290  1.00  0.00     0.031 C 
ATOM     42  C   UNL     1      -5.291   5.175   8.044  1.00  0.00     0.029 A 
ATOM     43  C   UNL     1      -5.394   3.796   7.568  1.00  0.00     0.049 A 
ATOM     44  H   UNL     1      -6.630   3.333   5.914  1.00  0.00     0.167 HD
ATOM     45  C   UNL     1      -2.925   9.264   4.154  1.00  0.00     0.034 A 
ATOM     46  C   UNL     1      -4.421   2.835   7.619  1.00  0.00     0.034 A 
ATOM     47  C   UNL     1      -2.651   8.922   5.551  1.00  0.00     0.049 A 
ATOM     48  C   UNL     1      -3.070   3.502   7.741  1.00  0.00     0.074 A 
ATOM     49  C   UNL     1      -3.402   9.082   6.704  1.00  0.00     0.029 A 
ATOM     50  N   UNL     1      -1.692   7.960   5.834  1.00  0.00    -0.354 N 
ATOM     51  N   UNL     1      -2.772   4.675   7.243  1.00  0.00    -0.248 NA
ATOM     52  C   UNL     1      -2.007   2.947   8.565  1.00  0.00     0.031 C 
ATOM     53  C   UNL     1      -2.948   8.120   7.650  1.00  0.00     0.029 A 
ATOM     54  C   UNL     1      -1.930   7.383   7.066  1.00  0.00     0.049 A 
ATOM     55  H   UNL     1      -0.945   7.721   5.238  1.00  0.00     0.167 HD
ATOM     56  C   UNL     1      -1.573   5.093   7.761  1.00  0.00     0.074 A 
ATOM     57  C   UNL     1      -1.128   3.962   8.566  1.00  0.00     0.031 C 
ATOM     58  C   UNL     1      -1.042   6.339   7.547  1.00  0.00     0.034 A 
BRANCH  45  59
ATOM     59  C   UNL     1      -3.051  10.701   3.686  1.00  0.00     0.023 A 
ATOM     60  C   UNL     1      -2.972  11.727   4.656  1.00  0.00     0.031 A 
ATOM     61  C   UNL     1      -3.263  11.146   2.367  1.00  0.00     0.131 A 
ATOM     62  C   UNL     1      -3.167  13.081   4.331  1.00  0.00     0.055 A 
ATOM     63  C   UNL     1      -3.480  12.496   2.042  1.00  0.00     0.041 A 
ATOM     64  F   UNL     1      -3.229  10.313   1.321  1.00  0.00    -0.206 F 
ATOM     65  C   UNL     1      -3.439  13.473   3.026  1.00  0.00     0.022 A 
BRANCH  62  66
ATOM     66  S   UNL     1      -3.055  14.322   5.649  1.00  0.00     0.124 S 
ATOM     67  O   UNL     1      -4.154  13.938   6.528  1.00  0.00    -0.237 OA
ATOM     68  O   UNL     1      -1.708  14.106   6.165  1.00  0.00    -0.237 OA
ATOM     69  O   UNL     1      -3.245  15.587   4.940  1.00  0.00    -0.744 OA
ENDBRANCH  62  66
ENDBRANCH  45  59
BRANCH  46  70
ATOM     70  C   UNL     1      -4.747   1.585   6.830  1.00  0.00     0.023 A 
ATOM     71  C   UNL     1      -6.052   1.046   6.974  1.00  0.00     0.031 A 
ATOM     72  C   UNL     1      -3.981   1.084   5.770  1.00  0.00     0.131 A 
ATOM     73  C   UNL     1      -6.610   0.198   6.003  1.00  0.00     0.055 A 
ATOM     74  C   UNL     1      -4.510   0.156   4.848  1.00  0.00     0.041 A 
ATOM     75  F   UNL     1      -2.741   1.540   5.544  1.00  0.00    -0.206 F 
ATOM     76  C   UNL     1      -5.842  -0.262   4.938  1.00  0.00     0.022 A 
BRANCH  73  77
ATOM     77  S   UNL     1      -8.418  -0.032   6.018  1.00  0.00     0.124 S 
ATOM     78  O   UNL     1      -8.598  -0.999   7.095  1.00  0.00    -0.237 OA
ATOM     79  O   UNL     1      -8.902   1.322   6.288  1.00  0.00    -0.237 OA
ATOM     80  O   UNL     1      -8.720  -0.522   4.678  1.00  0.00    -0.744 OA
ENDBRANCH  73  77
ENDBRANCH  46  70
BRANCH  58  81
ATOM     81  C   UNL     1       0.387   6.729   7.832  1.00  0.00     0.023 A 
ATOM     82  C   UNL     1       1.389   5.782   8.047  1.00  0.00     0.031 A 
ATOM     83  C   UNL     1       0.817   8.080   7.782  1.00  0.00     0.131 A 
ATOM     84  C   UNL     1       2.704   6.174   8.324  1.00  0.00     0.055 A 
ATOM     85  C   UNL     1       2.153   8.457   7.916  1.00  0.00     0.041 A 
ATOM     86  F   UNL     1      -0.035   9.097   7.590  1.00  0.00    -0.206 F 
ATOM     87  C   UNL     1       3.107   7.501   8.218  1.00  0.00     0.022 A 
BRANCH  84  88
ATOM     88  S   UNL     1       3.826   4.907   8.952  1.00  0.00     0.124 S 
ATOM     89  O   UNL     1       3.158   4.509  10.189  1.00  0.00    -0.237 OA
ATOM     90  O   UNL     1       3.815   3.916   7.882  1.00  0.00    -0.237 OA
ATOM     91  O   UNL     1       5.086   5.623   9.129  1.00  0.00    -0.744 OA
ENDBRANCH  84  88
ENDBRANCH  58  81
ENDBRANCH  32  33
ENDBRANCH  25  27
ENDBRANCH  24  25
ENDBRANCH   1  24
TORSDOF 16
