REMARK SMILES O=C(OCCOC(=O)c1ccccc1C(=O)Nc1ccc(N2C(=O)[C@H]3[C@@H]4CC[C@@H](C4)[C@@H]3C2=O)cc1)c1ccc(-c2c3nc(c(-c4cc(S(=O)(=O)[O-])ccc4F)c4ccc([nH]4)c(-c4cc(S(=O)(=O)[O-])ccc4F)c4nc(c(-c5cc(S(=O)(=O)[O-])ccc5F)c5ccc2[nH]5)C=C4)C=C3)cc1
REMARK SMILES IDX 4 1 3 2 2 3 1 4 36 5 37 6 98 7 38 8 97 9 39 10 40 11 41 12
REMARK SMILES IDX 91 13 42 14 96 15 90 16 92 17 43 18 95 19 89 20 88 21 44 23
REMARK SMILES IDX 76 24 56 25 75 26 57 27 60 28 74 29 93 30 58 31 59 32 73 34
REMARK SMILES IDX 94 35 61 36 45 37 46 38 54 39 47 40 53 41 55 42 52 43 48 44
REMARK SMILES IDX 49 45 50 46 51 47 77 48 78 49 86 50 79 51 85 52 87 53 84 54
REMARK SMILES IDX 80 55 81 56 82 57 83 58 62 59 63 60 71 61 64 62 70 63 72 64
REMARK SMILES IDX 69 65 65 66 66 67 67 68 68 69 5 70 6 71 7 72 8 73 9 74 10 75
REMARK SMILES IDX 14 76 11 77 13 78 12 79 15 80 16 81 17 82 18 84 19 85 35 86
REMARK SMILES IDX 20 87 34 88 21 89 22 90 23 91 32 92 24 93 25 94 31 95 33 96
REMARK SMILES IDX 26 97 29 98 27 99 30 100 28 101
REMARK H PARENT 92 22 60 33 17 83
REMARK Flexibility Score: inf
ROOT
ATOM      1  C   UNL     1       2.236   0.164  -2.719  1.00  0.00     0.275 C 
ENDROOT
BRANCH   1   2
ATOM      2  O   UNL     1       1.310  -0.573  -1.331  1.00  0.00    -0.458 OA
BRANCH   2   3
ATOM      3  C   UNL     1       1.180  -0.705   0.251  1.00  0.00     0.338 C 
ATOM      4  O   UNL     1       0.056  -1.125   0.567  1.00  0.00    -0.246 OA
BRANCH   3   5
ATOM      5  C   UNL     1       2.208  -0.408   1.663  1.00  0.00     0.060 A 
ATOM      6  C   UNL     1       3.633  -0.429   1.835  1.00  0.00     0.016 A 
ATOM      7  C   UNL     1       1.637   0.079   2.860  1.00  0.00     0.016 A 
ATOM      8  C   UNL     1       4.423   0.191   2.859  1.00  0.00     0.010 A 
ATOM      9  C   UNL     1       2.434   0.698   3.950  1.00  0.00     0.010 A 
ATOM     10  C   UNL     1       3.844   0.849   3.921  1.00  0.00    -0.014 A 
BRANCH  10  11
ATOM     11  C   UNL     1       4.759   1.523   4.957  1.00  0.00     0.031 A 
ATOM     12  C   UNL     1       5.384   0.691   6.053  1.00  0.00     0.074 A 
ATOM     13  C   UNL     1       5.306   2.769   4.870  1.00  0.00     0.049 A 
ATOM     14  N   UNL     1       6.261   1.042   6.965  1.00  0.00    -0.248 NA
ATOM     15  C   UNL     1       5.037  -0.730   6.057  1.00  0.00     0.031 C 
ATOM     16  C   UNL     1       5.218   3.636   3.717  1.00  0.00     0.029 A 
ATOM     17  N   UNL     1       6.090   3.524   5.738  1.00  0.00    -0.354 N 
ATOM     18  C   UNL     1       6.622  -0.126   7.620  1.00  0.00     0.074 A 
ATOM     19  C   UNL     1       5.819  -1.183   7.026  1.00  0.00     0.031 C 
ATOM     20  C   UNL     1       5.756   4.841   3.977  1.00  0.00     0.029 A 
ATOM     21  C   UNL     1       6.327   4.825   5.318  1.00  0.00     0.049 A 
ATOM     22  H   UNL     1       6.446   3.164   6.582  1.00  0.00     0.167 HD
ATOM     23  C   UNL     1       7.541  -0.323   8.601  1.00  0.00     0.034 A 
ATOM     24  C   UNL     1       6.949   5.887   5.888  1.00  0.00     0.034 A 
ATOM     25  C   UNL     1       8.325   0.694   9.265  1.00  0.00     0.049 A 
ATOM     26  C   UNL     1       7.696   5.715   7.190  1.00  0.00     0.074 A 
ATOM     27  C   UNL     1       9.195   0.540  10.335  1.00  0.00     0.029 A 
ATOM     28  N   UNL     1       8.335   2.046   8.957  1.00  0.00    -0.354 N 
ATOM     29  N   UNL     1       7.961   4.608   7.836  1.00  0.00    -0.248 NA
ATOM     30  C   UNL     1       8.271   6.921   7.813  1.00  0.00     0.031 C 
ATOM     31  C   UNL     1       9.663   1.802  10.725  1.00  0.00     0.029 A 
ATOM     32  C   UNL     1       9.146   2.741   9.852  1.00  0.00     0.049 A 
ATOM     33  H   UNL     1       7.839   2.457   8.212  1.00  0.00     0.167 HD
ATOM     34  C   UNL     1       8.790   4.975   8.895  1.00  0.00     0.074 A 
ATOM     35  C   UNL     1       8.973   6.406   8.813  1.00  0.00     0.031 C 
ATOM     36  C   UNL     1       9.362   4.170   9.824  1.00  0.00     0.034 A 
BRANCH  23  37
ATOM     37  C   UNL     1       7.664  -1.743   9.084  1.00  0.00     0.023 A 
ATOM     38  C   UNL     1       8.203  -2.751   8.267  1.00  0.00     0.031 A 
ATOM     39  C   UNL     1       7.132  -2.104  10.333  1.00  0.00     0.131 A 
ATOM     40  C   UNL     1       8.110  -4.090   8.671  1.00  0.00     0.055 A 
ATOM     41  C   UNL     1       7.116  -3.428  10.764  1.00  0.00     0.041 A 
ATOM     42  F   UNL     1       6.587  -1.176  11.136  1.00  0.00    -0.206 F 
ATOM     43  C   UNL     1       7.587  -4.433   9.922  1.00  0.00     0.022 A 
BRANCH  40  44
ATOM     44  S   UNL     1       8.502  -5.386   7.465  1.00  0.00     0.124 S 
ATOM     45  O   UNL     1       7.618  -5.039   6.356  1.00  0.00    -0.237 OA
ATOM     46  O   UNL     1       9.928  -5.183   7.236  1.00  0.00    -0.237 OA
ATOM     47  O   UNL     1       8.152  -6.621   8.165  1.00  0.00    -0.744 OA
ENDBRANCH  40  44
ENDBRANCH  23  37
BRANCH  24  48
ATOM     48  C   UNL     1       6.880   7.263   5.284  1.00  0.00     0.023 A 
ATOM     49  C   UNL     1       8.033   7.978   4.905  1.00  0.00     0.031 A 
ATOM     50  C   UNL     1       5.650   7.949   5.248  1.00  0.00     0.131 A 
ATOM     51  C   UNL     1       7.940   9.343   4.567  1.00  0.00     0.055 A 
ATOM     52  C   UNL     1       5.558   9.292   4.870  1.00  0.00     0.041 A 
ATOM     53  F   UNL     1       4.518   7.334   5.625  1.00  0.00    -0.206 F 
ATOM     54  C   UNL     1       6.709  10.001   4.542  1.00  0.00     0.022 A 
BRANCH  51  55
ATOM     55  S   UNL     1       9.466  10.290   4.276  1.00  0.00     0.124 S 
ATOM     56  O   UNL     1      10.168  10.120   5.543  1.00  0.00    -0.237 OA
ATOM     57  O   UNL     1      10.038   9.599   3.126  1.00  0.00    -0.237 OA
ATOM     58  O   UNL     1       8.982  11.643   4.010  1.00  0.00    -0.744 OA
ENDBRANCH  51  55
ENDBRANCH  24  48
BRANCH  36  59
ATOM     59  C   UNL     1      10.307   4.805  10.823  1.00  0.00     0.023 A 
ATOM     60  C   UNL     1       9.872   5.739  11.783  1.00  0.00     0.031 A 
ATOM     61  C   UNL     1      11.677   4.480  10.806  1.00  0.00     0.131 A 
ATOM     62  C   UNL     1      10.798   6.344  12.652  1.00  0.00     0.055 A 
ATOM     63  C   UNL     1      12.585   5.047  11.704  1.00  0.00     0.041 A 
ATOM     64  F   UNL     1      12.159   3.602   9.912  1.00  0.00    -0.206 F 
ATOM     65  C   UNL     1      12.150   5.993  12.627  1.00  0.00     0.022 A 
BRANCH  62  66
ATOM     66  S   UNL     1      10.229   7.652  13.776  1.00  0.00     0.124 S 
ATOM     67  O   UNL     1       9.695   8.643  12.847  1.00  0.00    -0.237 OA
ATOM     68  O   UNL     1       9.245   6.952  14.596  1.00  0.00    -0.237 OA
ATOM     69  O   UNL     1      11.444   8.055  14.481  1.00  0.00    -0.744 OA
ENDBRANCH  62  66
ENDBRANCH  36  59
ENDBRANCH  10  11
ENDBRANCH   3   5
ENDBRANCH   2   3
ENDBRANCH   1   2
BRANCH   1  70
ATOM     70  C   UNL     1       3.777   1.223  -2.297  1.00  0.00     0.275 C 
BRANCH  70  71
ATOM     71  O   UNL     1       3.934   1.839  -0.357  1.00  0.00    -0.458 OA
BRANCH  71  72
ATOM     72  C   UNL     1       3.097   2.407   0.802  1.00  0.00     0.339 C 
ATOM     73  O   UNL     1       1.984   1.911   1.060  1.00  0.00    -0.246 OA
BRANCH  72  74
ATOM     74  C   UNL     1       3.022   3.766   1.418  1.00  0.00     0.072 A 
ATOM     75  C   UNL     1       2.067   3.775   2.525  1.00  0.00     0.016 A 
ATOM     76  C   UNL     1       3.585   4.984   1.067  1.00  0.00     0.054 A 
ATOM     77  C   UNL     1       1.714   4.870   3.288  1.00  0.00     0.001 A 
ATOM     78  C   UNL     1       3.218   6.105   1.891  1.00  0.00     0.015 A 
ATOM     79  C   UNL     1       2.319   6.054   2.975  1.00  0.00     0.001 A 
BRANCH  76  80
ATOM     80  C   UNL     1       4.613   5.314   0.029  1.00  0.00     0.256 C 
ATOM     81  O   UNL     1       5.203   6.394   0.147  1.00  0.00    -0.269 OA
ATOM     82  N   UNL     1       5.061   4.521  -1.003  1.00  0.00    -0.322 N 
ATOM     83  H   UNL     1       5.839   4.875  -1.490  1.00  0.00     0.170 HD
BRANCH  82  84
ATOM     84  C   UNL     1       4.586   3.295  -1.466  1.00  0.00     0.041 A 
ATOM     85  C   UNL     1       5.741   1.991  -1.176  1.00  0.00     0.028 A 
ATOM     86  C   UNL     1       2.845   3.013  -1.488  1.00  0.00     0.028 A 
ATOM     87  C   UNL     1       5.243   0.357  -0.781  1.00  0.00     0.029 A 
ATOM     88  C   UNL     1       2.280   1.349  -1.028  1.00  0.00     0.029 A 
ATOM     89  C   UNL     1       3.534  -0.071  -0.734  1.00  0.00     0.052 A 
BRANCH  89  90
ATOM     90  N   UNL     1       3.351  -1.727  -0.977  1.00  0.00    -0.250 N 
ATOM     91  C   UNL     1       3.047  -2.355  -2.210  1.00  0.00     0.237 C 
ATOM     92  C   UNL     1       3.204  -2.791  -0.032  1.00  0.00     0.237 C 
ATOM     93  O   UNL     1       3.667  -2.331  -3.260  1.00  0.00    -0.274 OA
ATOM     94  C   UNL     1       1.897  -3.279  -1.867  1.00  0.00     0.095 C 
ATOM     95  C   UNL     1       2.621  -3.997  -0.767  1.00  0.00     0.095 C 
ATOM     96  O   UNL     1       3.574  -2.926   1.121  1.00  0.00    -0.274 OA
ATOM     97  C   UNL     1       0.916  -4.319  -2.414  1.00  0.00     0.002 C 
ATOM     98  C   UNL     1       1.579  -5.061  -0.386  1.00  0.00     0.002 C 
ATOM     99  C   UNL     1      -0.374  -4.151  -1.538  1.00  0.00     0.005 C 
ATOM    100  C   UNL     1       1.381  -5.651  -1.808  1.00  0.00     0.009 C 
ATOM    101  C   UNL     1       0.151  -4.517  -0.121  1.00  0.00     0.005 C 
ENDBRANCH  89  90
ENDBRANCH  82  84
ENDBRANCH  76  80
ENDBRANCH  72  74
ENDBRANCH  71  72
ENDBRANCH  70  71
ENDBRANCH   1  70
TORSDOF 17
