REMARK SMILES Cc1n[nH]c2c1[C@@]1(C(=O)N([C@@H](C)C(=O)OCCOC(=O)c3ccc(-c4c5nc(c(-c6cc(S(=O)(=O)[O-])ccc6F)c6ccc([nH]6)c(-c6cc(S(=O)(=O)[O-])ccc6F)c6nc(c(-c7cc(S(=O)(=O)[O-])ccc7F)c7ccc4[nH]7)C=C6)C=C5)cc3)c3ccccc31)C(C#N)=C(N)O2
REMARK SMILES IDX 17 1 16 2 15 3 13 4 14 5 11 6 12 7 10 8 1 9 2 10 3 11 6 12
REMARK SMILES IDX 4 13 5 14 7 15 95 17 8 18 89 19 90 20 93 21 9 22 84 23 88 24
REMARK SMILES IDX 85 25 87 26 86 27 91 28 92 29 94 30 18 33 19 34 20 35 21 36
REMARK SMILES IDX 22 37 83 38 23 39 82 40 24 41 25 42 26 43 76 44 27 45 81 46
REMARK SMILES IDX 75 47 77 48 28 49 80 50 74 51 73 52 29 54 61 55 41 56 60 57
REMARK SMILES IDX 42 58 45 59 59 60 78 61 43 62 44 63 58 65 79 66 46 67 30 68
REMARK SMILES IDX 31 69 39 70 32 71 38 72 40 73 37 74 33 75 34 76 35 77 36 78
REMARK SMILES IDX 62 79 63 80 71 81 64 82 70 83 72 84 69 85 65 86 66 87 67 88
REMARK SMILES IDX 68 89 47 90 48 91 56 92 49 93 55 94 57 95 54 96 50 97 51 98
REMARK SMILES IDX 52 99 53 100
REMARK H PARENT 4 16 94 31 94 32 77 53 45 64
REMARK Flexibility Score: inf
ROOT
ATOM      1  C   UNL     1       5.577   5.637  -2.486  1.00  0.00     0.275 C 
ENDROOT
BRANCH   1   2
ATOM      2  C   UNL     1       6.065   4.244  -2.066  1.00  0.00     0.274 C 
BRANCH   2   3
ATOM      3  O   UNL     1       4.955   3.486  -1.538  1.00  0.00    -0.461 OA
BRANCH   3   4
ATOM      4  C   UNL     1       4.853   3.414  -0.184  1.00  0.00     0.329 C 
ATOM      5  O   UNL     1       5.744   3.818   0.557  1.00  0.00    -0.250 OA
BRANCH   4   6
ATOM      6  C   UNL     1       3.519   2.737   0.342  1.00  0.00     0.197 C 
ATOM      7  C   UNL     1       3.913   1.415   0.926  1.00  0.00     0.044 C 
BRANCH   6   8
ATOM      8  N   UNL     1       2.338   2.789  -0.511  1.00  0.00    -0.297 N 
ATOM      9  C   UNL     1       0.792  -0.134  -0.073  1.00  0.00     0.069 C 
ATOM     10  C   UNL     1       0.289  -0.086  -1.476  1.00  0.00     0.068 A 
ATOM     11  N   UNL     1      -0.263  -1.157  -2.069  1.00  0.00    -0.177 NA
ATOM     12  C   UNL     1       0.377   0.988  -2.393  1.00  0.00     0.063 A 
ATOM     13  N   UNL     1      -0.491  -0.763  -3.338  1.00  0.00    -0.246 N 
ATOM     14  C   UNL     1      -0.108   0.518  -3.576  1.00  0.00     0.222 A 
ATOM     15  C   UNL     1       0.996   2.324  -2.342  1.00  0.00     0.149 C 
ATOM     16  H   UNL     1      -0.893  -1.345  -4.023  1.00  0.00     0.193 HD
ATOM     17  O   UNL     1      -0.119   1.149  -4.747  1.00  0.00    -0.422 OA
ATOM     18  C   UNL     1       2.365   2.176  -1.745  1.00  0.00     0.248 C 
ATOM     19  C   UNL     1       0.208   3.119  -1.361  1.00  0.00     0.002 A 
ATOM     20  C   UNL     1       1.077   2.984  -3.670  1.00  0.00     0.114 C 
ATOM     21  C   UNL     1       0.534   2.406  -4.785  1.00  0.00     0.208 C 
ATOM     22  O   UNL     1       3.322   1.559  -2.266  1.00  0.00    -0.273 OA
ATOM     23  C   UNL     1       1.036   3.394  -0.277  1.00  0.00     0.050 A 
ATOM     24  C   UNL     1      -1.126   3.547  -1.464  1.00  0.00     0.008 A 
ATOM     25  C   UNL     1       0.472   4.141   0.749  1.00  0.00     0.027 A 
ATOM     26  C   UNL     1      -1.651   4.336  -0.453  1.00  0.00     0.001 A 
ATOM     27  C   UNL     1      -0.845   4.650   0.640  1.00  0.00     0.002 A 
BRANCH  20  28
ATOM     28  C   UNL     1       1.824   4.294  -3.857  1.00  0.00     0.102 C 
ATOM     29  N   UNL     1       2.444   5.381  -4.013  1.00  0.00    -0.193 NA
ENDBRANCH  20  28
BRANCH  21  30
ATOM     30  N   UNL     1       0.566   2.953  -6.037  1.00  0.00    -0.369 N 
ATOM     31  H   UNL     1       0.996   3.827  -6.182  1.00  0.00     0.159 HD
ATOM     32  H   UNL     1       0.159   2.473  -6.795  1.00  0.00     0.159 HD
ENDBRANCH  21  30
ENDBRANCH   6   8
ENDBRANCH   4   6
ENDBRANCH   3   4
ENDBRANCH   2   3
ENDBRANCH   1   2
BRANCH   1  33
ATOM     33  O   UNL     1       5.263   6.469  -1.333  1.00  0.00    -0.458 OA
BRANCH  33  34
ATOM     34  C   UNL     1       3.981   6.458  -0.920  1.00  0.00     0.338 C 
ATOM     35  O   UNL     1       3.041   5.951  -1.549  1.00  0.00    -0.246 OA
BRANCH  34  36
ATOM     36  C   UNL     1       3.848   6.627   0.562  1.00  0.00     0.060 A 
ATOM     37  C   UNL     1       4.627   7.183   1.548  1.00  0.00     0.016 A 
ATOM     38  C   UNL     1       3.118   5.589   1.046  1.00  0.00     0.016 A 
ATOM     39  C   UNL     1       4.892   6.381   2.777  1.00  0.00     0.010 A 
ATOM     40  C   UNL     1       3.205   5.115   2.349  1.00  0.00     0.010 A 
ATOM     41  C   UNL     1       4.444   5.026   2.935  1.00  0.00    -0.014 A 
BRANCH  41  42
ATOM     42  C   UNL     1       4.443   3.934   4.200  1.00  0.00     0.031 A 
ATOM     43  C   UNL     1       3.431   4.855   5.201  1.00  0.00     0.074 A 
ATOM     44  C   UNL     1       5.044   2.549   4.423  1.00  0.00     0.049 A 
ATOM     45  N   UNL     1       3.886   5.773   6.022  1.00  0.00    -0.248 NA
ATOM     46  C   UNL     1       1.944   5.245   4.966  1.00  0.00     0.031 C 
ATOM     47  C   UNL     1       5.905   1.475   3.624  1.00  0.00     0.029 A 
ATOM     48  N   UNL     1       5.051   1.665   5.586  1.00  0.00    -0.354 N 
ATOM     49  C   UNL     1       2.768   6.208   6.757  1.00  0.00     0.074 A 
ATOM     50  C   UNL     1       1.671   6.181   5.885  1.00  0.00     0.031 C 
ATOM     51  C   UNL     1       5.842   0.172   4.112  1.00  0.00     0.029 A 
ATOM     52  C   UNL     1       5.213   0.181   5.412  1.00  0.00     0.049 A 
ATOM     53  H   UNL     1       4.950   2.044   6.489  1.00  0.00     0.167 HD
ATOM     54  C   UNL     1       2.721   5.994   8.096  1.00  0.00     0.034 A 
ATOM     55  C   UNL     1       5.118  -0.889   6.345  1.00  0.00     0.034 A 
ATOM     56  C   UNL     1       4.062   5.710   8.516  1.00  0.00     0.049 A 
ATOM     57  C   UNL     1       4.950  -0.213   7.656  1.00  0.00     0.074 A 
ATOM     58  C   UNL     1       5.250   6.404   8.421  1.00  0.00     0.029 A 
ATOM     59  N   UNL     1       4.356   4.383   8.405  1.00  0.00    -0.354 N 
ATOM     60  N   UNL     1       5.940   0.447   8.194  1.00  0.00    -0.248 NA
ATOM     61  C   UNL     1       3.591   0.305   7.828  1.00  0.00     0.031 C 
ATOM     62  C   UNL     1       6.240   5.446   8.067  1.00  0.00     0.029 A 
ATOM     63  C   UNL     1       5.680   4.177   8.167  1.00  0.00     0.049 A 
ATOM     64  H   UNL     1       3.692   3.661   8.488  1.00  0.00     0.167 HD
ATOM     65  C   UNL     1       5.434   1.731   8.277  1.00  0.00     0.074 A 
ATOM     66  C   UNL     1       3.959   1.575   8.044  1.00  0.00     0.031 C 
ATOM     67  C   UNL     1       6.223   2.845   8.097  1.00  0.00     0.034 A 
BRANCH  54  68
ATOM     68  C   UNL     1       1.488   5.540   8.862  1.00  0.00     0.023 A 
ATOM     69  C   UNL     1       0.301   4.970   8.320  1.00  0.00     0.031 A 
ATOM     70  C   UNL     1       1.578   5.562  10.263  1.00  0.00     0.131 A 
ATOM     71  C   UNL     1      -0.759   4.571   9.163  1.00  0.00     0.055 A 
ATOM     72  C   UNL     1       0.565   5.077  11.092  1.00  0.00     0.041 A 
ATOM     73  F   UNL     1       2.666   6.065  10.865  1.00  0.00    -0.206 F 
ATOM     74  C   UNL     1      -0.620   4.607  10.546  1.00  0.00     0.022 A 
BRANCH  71  75
ATOM     75  S   UNL     1      -2.388   4.086   8.496  1.00  0.00     0.124 S 
ATOM     76  O   UNL     1      -2.587   2.757   9.100  1.00  0.00    -0.237 OA
ATOM     77  O   UNL     1      -3.252   5.138   9.048  1.00  0.00    -0.237 OA
ATOM     78  O   UNL     1      -2.212   4.117   7.067  1.00  0.00    -0.744 OA
ENDBRANCH  71  75
ENDBRANCH  54  68
BRANCH  55  79
ATOM     79  C   UNL     1       4.476  -2.308   6.199  1.00  0.00     0.023 A 
ATOM     80  C   UNL     1       3.537  -2.341   5.173  1.00  0.00     0.031 A 
ATOM     81  C   UNL     1       4.379  -3.424   7.108  1.00  0.00     0.131 A 
ATOM     82  C   UNL     1       2.479  -3.265   5.132  1.00  0.00     0.055 A 
ATOM     83  C   UNL     1       3.364  -4.433   7.000  1.00  0.00     0.041 A 
ATOM     84  F   UNL     1       5.226  -3.578   8.141  1.00  0.00    -0.206 F 
ATOM     85  C   UNL     1       2.370  -4.318   6.034  1.00  0.00     0.022 A 
BRANCH  82  86
ATOM     86  S   UNL     1       1.134  -2.945   3.964  1.00  0.00     0.124 S 
ATOM     87  O   UNL     1       1.035  -4.220   3.260  1.00  0.00    -0.237 OA
ATOM     88  O   UNL     1       0.033  -2.630   4.872  1.00  0.00    -0.237 OA
ATOM     89  O   UNL     1       1.637  -1.830   3.172  1.00  0.00    -0.744 OA
ENDBRANCH  82  86
ENDBRANCH  55  79
BRANCH  67  90
ATOM     90  C   UNL     1       7.741   2.782   7.907  1.00  0.00     0.023 A 
ATOM     91  C   UNL     1       8.472   3.387   8.936  1.00  0.00     0.031 A 
ATOM     92  C   UNL     1       8.466   2.482   6.728  1.00  0.00     0.131 A 
ATOM     93  C   UNL     1       9.831   3.688   8.788  1.00  0.00     0.055 A 
ATOM     94  C   UNL     1       9.859   2.692   6.617  1.00  0.00     0.041 A 
ATOM     95  F   UNL     1       7.849   2.085   5.608  1.00  0.00    -0.206 F 
ATOM     96  C   UNL     1      10.546   3.309   7.653  1.00  0.00     0.022 A 
BRANCH  93  97
ATOM     97  S   UNL     1      10.652   4.710  10.029  1.00  0.00     0.124 S 
ATOM     98  O   UNL     1      11.703   3.811  10.505  1.00  0.00    -0.237 OA
ATOM     99  O   UNL     1      11.116   5.847   9.233  1.00  0.00    -0.237 OA
ATOM    100  O   UNL     1       9.604   5.013  10.990  1.00  0.00    -0.744 OA
ENDBRANCH  93  97
ENDBRANCH  67  90
ENDBRANCH  41  42
ENDBRANCH  34  36
ENDBRANCH  33  34
ENDBRANCH   1  33
TORSDOF 17
