REMARK SMILES Cc1ccc(NC(=O)[C@H]2CC(Cl)=CC[C@@H]2C(=O)OCCOC(=O)c2ccc(-c3c4nc(c(-c5cc(S(=O)(=O)[O-])ccc5F)c5ccc([nH]5)c(-c5cc(S(=O)(=O)[O-])ccc5F)c5nc(c(-c6cc(S(=O)(=O)[O-])ccc6F)c6ccc3[nH]6)C=C5)C=C4)cc2)cc1[N+](=O)[O-]
REMARK SMILES IDX 19 1 18 2 16 3 17 4 15 5 9 6 10 7 11 8 14 9 12 10 13 11 7 12
REMARK SMILES IDX 6 13 8 15 5 16 1 17 2 18 3 19 88 20 4 21 87 22 89 23 90 24
REMARK SMILES IDX 91 25 20 26 21 27 22 28 23 29 24 30 25 31 86 32 26 33 85 34
REMARK SMILES IDX 27 35 28 36 29 37 79 38 30 39 84 40 78 41 80 42 31 43 83 44
REMARK SMILES IDX 77 45 76 46 32 48 64 49 44 50 63 51 45 52 48 53 62 54 81 55
REMARK SMILES IDX 46 56 47 57 61 59 82 60 49 61 33 62 34 63 42 64 35 65 41 66
REMARK SMILES IDX 43 67 40 68 36 69 37 70 38 71 39 72 65 73 66 74 74 75 67 76
REMARK SMILES IDX 73 77 75 78 72 79 68 80 69 81 70 82 71 83 50 84 51 85 59 86
REMARK SMILES IDX 52 87 58 88 60 89 57 90 53 91 54 92 55 93 56 94
REMARK H PARENT 6 14 80 47 48 58
REMARK Flexibility Score: inf
ROOT
ATOM      1  C   UNL     1      -1.105   0.943  -0.448  1.00  0.00     0.274 C 
ENDROOT
BRANCH   1   2
ATOM      2  O   UNL     1      -2.426   0.194  -1.418  1.00  0.00    -0.462 OA
BRANCH   2   3
ATOM      3  C   UNL     1      -3.341  -0.757  -1.781  1.00  0.00     0.310 C 
ATOM      4  O   UNL     1      -3.771  -0.677  -2.941  1.00  0.00    -0.252 OA
BRANCH   3   5
ATOM      5  C   UNL     1      -4.023  -1.932  -0.943  1.00  0.00     0.116 C 
ATOM      6  C   UNL     1      -3.927  -2.151   0.585  1.00  0.00     0.098 C 
ATOM      7  C   UNL     1      -4.634  -3.405   1.124  1.00  0.00     0.062 C 
ATOM      8  C   UNL     1      -4.198  -4.618   0.376  1.00  0.00     0.015 C 
ATOM      9  C   UNL     1      -4.062  -3.292  -1.729  1.00  0.00     0.044 C 
ATOM     10  Cl  UNL     1      -4.047  -6.084   1.267  1.00  0.00    -0.089 Cl
ATOM     11  C   UNL     1      -3.934  -4.567  -0.933  1.00  0.00    -0.010 C 
BRANCH   6  12
ATOM     12  C   UNL     1      -4.512  -0.924   1.208  1.00  0.00     0.228 C 
ATOM     13  N   UNL     1      -3.696   0.148   1.344  1.00  0.00    -0.326 N 
ATOM     14  H   UNL     1      -4.114   0.950   1.732  1.00  0.00     0.169 HD
ATOM     15  O   UNL     1      -5.693  -0.832   1.534  1.00  0.00    -0.274 OA
BRANCH  13  16
ATOM     16  C   UNL     1      -2.354   0.275   1.014  1.00  0.00     0.048 A 
ATOM     17  C   UNL     1       2.543   1.320  -0.041  1.00  0.00     0.052 C 
ATOM     18  C   UNL     1       1.038   1.225   0.094  1.00  0.00     0.027 A 
ATOM     19  C   UNL     1       0.424  -0.347  -0.323  1.00  0.00     0.012 A 
ATOM     20  C   UNL     1       0.010   2.275   0.955  1.00  0.00     0.274 A 
ATOM     21  C   UNL     1      -1.318  -0.903   0.082  1.00  0.00     0.027 A 
ATOM     22  C   UNL     1      -1.626   1.838   1.446  1.00  0.00     0.112 A 
BRANCH  20  23
ATOM     23  N   UNL     1       0.380   3.685   0.993  1.00  0.00     0.063 N 
ATOM     24  O   UNL     1      -0.551   4.496   1.046  1.00  0.00    -0.258 OA
ATOM     25  O   UNL     1       1.577   3.979   0.935  1.00  0.00    -0.258 OA
ENDBRANCH  20  23
ENDBRANCH  13  16
ENDBRANCH   6  12
ENDBRANCH   3   5
ENDBRANCH   2   3
ENDBRANCH   1   2
BRANCH   1  26
ATOM     26  C   UNL     1      -0.321   0.063   1.419  1.00  0.00     0.275 C 
BRANCH  26  27
ATOM     27  O   UNL     1       0.123  -1.739   1.470  1.00  0.00    -0.458 OA
BRANCH  27  28
ATOM     28  C   UNL     1       0.178  -2.988   0.642  1.00  0.00     0.338 C 
ATOM     29  O   UNL     1      -0.071  -4.052   1.212  1.00  0.00    -0.246 OA
BRANCH  28  30
ATOM     30  C   UNL     1       0.240  -3.051  -0.977  1.00  0.00     0.060 A 
ATOM     31  C   UNL     1      -0.761  -3.508  -1.858  1.00  0.00     0.016 A 
ATOM     32  C   UNL     1       1.206  -2.362  -1.644  1.00  0.00     0.016 A 
ATOM     33  C   UNL     1      -0.932  -2.924  -3.180  1.00  0.00     0.010 A 
ATOM     34  C   UNL     1       0.751  -1.470  -2.596  1.00  0.00     0.010 A 
ATOM     35  C   UNL     1      -0.227  -1.775  -3.507  1.00  0.00    -0.014 A 
BRANCH  35  36
ATOM     36  C   UNL     1      -0.099  -0.909  -4.719  1.00  0.00     0.031 A 
ATOM     37  C   UNL     1      -1.252  -0.241  -5.384  1.00  0.00     0.074 A 
ATOM     38  C   UNL     1       1.202  -0.735  -5.115  1.00  0.00     0.049 A 
ATOM     39  N   UNL     1      -1.674  -0.466  -6.587  1.00  0.00    -0.248 NA
ATOM     40  C   UNL     1      -2.058   0.788  -4.709  1.00  0.00     0.031 C 
ATOM     41  C   UNL     1       1.877  -0.001  -6.167  1.00  0.00     0.029 A 
ATOM     42  N   UNL     1       2.292  -1.440  -4.550  1.00  0.00    -0.354 N 
ATOM     43  C   UNL     1      -2.505   0.607  -6.911  1.00  0.00     0.074 A 
ATOM     44  C   UNL     1      -2.932   1.164  -5.656  1.00  0.00     0.031 C 
ATOM     45  C   UNL     1       3.061  -0.625  -6.413  1.00  0.00     0.029 A 
ATOM     46  C   UNL     1       3.163  -1.803  -5.545  1.00  0.00     0.049 A 
ATOM     47  H   UNL     1       2.406  -1.640  -3.592  1.00  0.00     0.167 HD
ATOM     48  C   UNL     1      -2.397   1.250  -8.115  1.00  0.00     0.034 A 
ATOM     49  C   UNL     1       3.151  -3.139  -5.828  1.00  0.00     0.034 A 
ATOM     50  C   UNL     1      -1.170   0.819  -8.763  1.00  0.00     0.049 A 
ATOM     51  C   UNL     1       2.460  -3.352  -7.151  1.00  0.00     0.074 A 
ATOM     52  C   UNL     1       0.086   1.390  -8.856  1.00  0.00     0.029 A 
ATOM     53  N   UNL     1      -1.034  -0.495  -9.129  1.00  0.00    -0.354 N 
ATOM     54  N   UNL     1       1.715  -2.454  -7.735  1.00  0.00    -0.248 NA
ATOM     55  C   UNL     1       2.529  -4.599  -7.895  1.00  0.00     0.031 C 
ATOM     56  C   UNL     1       0.989   0.373  -9.276  1.00  0.00     0.029 A 
ATOM     57  C   UNL     1       0.272  -0.798  -9.431  1.00  0.00     0.049 A 
ATOM     58  H   UNL     1      -1.777  -1.140  -9.170  1.00  0.00     0.167 HD
ATOM     59  C   UNL     1       1.264  -2.935  -8.926  1.00  0.00     0.074 A 
ATOM     60  C   UNL     1       1.735  -4.314  -8.941  1.00  0.00     0.031 C 
ATOM     61  C   UNL     1       0.565  -2.161  -9.811  1.00  0.00     0.034 A 
BRANCH  48  62
ATOM     62  C   UNL     1      -3.123   2.493  -8.602  1.00  0.00     0.023 A 
ATOM     63  C   UNL     1      -2.540   3.247  -9.649  1.00  0.00     0.031 A 
ATOM     64  C   UNL     1      -4.390   2.936  -8.182  1.00  0.00     0.131 A 
ATOM     65  C   UNL     1      -3.145   4.397 -10.181  1.00  0.00     0.055 A 
ATOM     66  C   UNL     1      -5.001   4.093  -8.711  1.00  0.00     0.041 A 
ATOM     67  F   UNL     1      -5.103   2.252  -7.274  1.00  0.00    -0.206 F 
ATOM     68  C   UNL     1      -4.375   4.835  -9.710  1.00  0.00     0.022 A 
BRANCH  65  69
ATOM     69  S   UNL     1      -2.284   5.293 -11.506  1.00  0.00     0.124 S 
ATOM     70  O   UNL     1      -1.050   5.705 -10.844  1.00  0.00    -0.237 OA
ATOM     71  O   UNL     1      -2.151   4.274 -12.540  1.00  0.00    -0.237 OA
ATOM     72  O   UNL     1      -3.202   6.385 -11.830  1.00  0.00    -0.744 OA
ENDBRANCH  65  69
ENDBRANCH  48  62
BRANCH  49  73
ATOM     73  C   UNL     1       3.008  -4.055  -4.610  1.00  0.00     0.023 A 
ATOM     74  C   UNL     1       3.848  -3.843  -3.479  1.00  0.00     0.031 A 
ATOM     75  C   UNL     1       1.915  -4.916  -4.412  1.00  0.00     0.131 A 
ATOM     76  C   UNL     1       3.540  -4.385  -2.209  1.00  0.00     0.055 A 
ATOM     77  C   UNL     1       1.645  -5.510  -3.162  1.00  0.00     0.041 A 
ATOM     78  F   UNL     1       1.020  -5.128  -5.388  1.00  0.00    -0.206 F 
ATOM     79  C   UNL     1       2.441  -5.230  -2.048  1.00  0.00     0.022 A 
BRANCH  76  80
ATOM     80  S   UNL     1       4.323  -3.652  -0.708  1.00  0.00     0.124 S 
ATOM     81  O   UNL     1       5.385  -4.599  -0.401  1.00  0.00    -0.237 OA
ATOM     82  O   UNL     1       4.745  -2.332  -1.178  1.00  0.00    -0.237 OA
ATOM     83  O   UNL     1       3.229  -3.596   0.260  1.00  0.00    -0.744 OA
ENDBRANCH  76  80
ENDBRANCH  49  73
BRANCH  61  84
ATOM     84  C   UNL     1       0.068  -2.664 -11.133  1.00  0.00     0.023 A 
ATOM     85  C   UNL     1       0.779  -3.646 -11.816  1.00  0.00     0.031 A 
ATOM     86  C   UNL     1      -1.100  -2.182 -11.769  1.00  0.00     0.131 A 
ATOM     87  C   UNL     1       0.230  -4.269 -12.937  1.00  0.00     0.055 A 
ATOM     88  C   UNL     1      -1.579  -2.714 -12.964  1.00  0.00     0.041 A 
ATOM     89  F   UNL     1      -1.858  -1.204 -11.255  1.00  0.00    -0.206 F 
ATOM     90  C   UNL     1      -0.937  -3.800 -13.533  1.00  0.00     0.022 A 
BRANCH  87  91
ATOM     91  S   UNL     1       1.015  -5.794 -13.488  1.00  0.00     0.124 S 
ATOM     92  O   UNL     1       2.414  -5.402 -13.625  1.00  0.00    -0.237 OA
ATOM     93  O   UNL     1       0.720  -6.692 -12.373  1.00  0.00    -0.237 OA
ATOM     94  O   UNL     1       0.324  -6.101 -14.737  1.00  0.00    -0.744 OA
ENDBRANCH  87  91
ENDBRANCH  61  84
ENDBRANCH  35  36
ENDBRANCH  28  30
ENDBRANCH  27  28
ENDBRANCH  26  27
ENDBRANCH   1  26
TORSDOF 17
