REMARK SMILES Nc1c(-c2ccccc2)c[nH]c1C(=O)OCCOC(=O)c1ccc(-c2c3nc(c(-c4cc(S(=O)(=O)[O-])ccc4F)c4ccc([nH]4)c(-c4cc(S(=O)(=O)[O-])ccc4F)c4nc(c(-c5cc(S(=O)(=O)[O-])ccc5F)c5ccc2[nH]5)C=C4)C=C3)cc1
REMARK SMILES IDX 17 1 16 2 15 3 13 4 14 5 12 6 2 7 3 8 10 9 11 10 1 12 4 15
REMARK SMILES IDX 5 16 9 17 6 18 8 19 7 20 18 21 19 22 20 23 21 24 22 25 83 26
REMARK SMILES IDX 23 27 82 28 24 29 25 30 26 31 76 32 27 33 81 34 75 35 77 36
REMARK SMILES IDX 28 37 80 38 74 39 73 40 29 42 61 43 41 44 60 45 42 46 45 47
REMARK SMILES IDX 59 48 78 49 43 50 44 51 58 53 79 54 46 55 30 56 31 57 39 58
REMARK SMILES IDX 32 59 38 60 40 61 37 62 33 63 34 64 35 65 36 66 62 67 63 68
REMARK SMILES IDX 71 69 64 70 70 71 72 72 69 73 65 74 66 75 67 76 68 77 47 78
REMARK SMILES IDX 48 79 56 80 49 81 55 82 57 83 54 84 50 85 51 86 52 87 53 88
REMARK H PARENT 11 11 1 13 1 14 77 41 45 52
REMARK Flexibility Score: inf
ROOT
ATOM      1  C   UNL     1      -1.617  -2.236  -3.158  1.00  0.00     0.275 C 
ENDROOT
BRANCH   1   2
ATOM      2  C   UNL     1      -1.899  -0.802  -2.738  1.00  0.00     0.275 C 
BRANCH   2   3
ATOM      3  O   UNL     1      -1.257  -0.501  -1.491  1.00  0.00    -0.457 OA
BRANCH   3   4
ATOM      4  C   UNL     1      -1.947  -0.838  -0.354  1.00  0.00     0.357 C 
ATOM      5  O   UNL     1      -3.117  -1.152  -0.311  1.00  0.00    -0.244 OA
BRANCH   4   6
ATOM      6  C   UNL     1      -1.050  -0.835   0.780  1.00  0.00     0.148 A 
ATOM      7  C   UNL     1       0.222  -0.339   0.948  1.00  0.00     0.072 A 
ATOM      8  C   UNL     1       0.641  -0.584   2.281  1.00  0.00     0.023 A 
ATOM      9  C   UNL     1      -0.353  -1.332   2.877  1.00  0.00     0.094 A 
ATOM     10  N   UNL     1      -1.367  -1.479   1.961  1.00  0.00    -0.353 N 
ATOM     11  H   UNL     1      -2.203  -1.974   2.124  1.00  0.00     0.166 HD
BRANCH   7  12
ATOM     12  N   UNL     1       0.957   0.266  -0.002  1.00  0.00    -0.396 N 
ATOM     13  H   UNL     1       1.862   0.591   0.208  1.00  0.00     0.156 HD
ATOM     14  H   UNL     1       0.590   0.385  -0.908  1.00  0.00     0.156 HD
ENDBRANCH   7  12
BRANCH   8  15
ATOM     15  C   UNL     1       1.852  -0.137   2.940  1.00  0.00    -0.015 A 
ATOM     16  C   UNL     1       2.183   1.224   2.873  1.00  0.00     0.009 A 
ATOM     17  C   UNL     1       2.724  -1.028   3.570  1.00  0.00     0.009 A 
ATOM     18  C   UNL     1       3.383   1.690   3.404  1.00  0.00     0.001 A 
ATOM     19  C   UNL     1       3.927  -0.559   4.105  1.00  0.00     0.001 A 
ATOM     20  C   UNL     1       4.258   0.795   4.016  1.00  0.00     0.000 A 
ENDBRANCH   8  15
ENDBRANCH   4   6
ENDBRANCH   3   4
ENDBRANCH   2   3
ENDBRANCH   1   2
BRANCH   1  21
ATOM     21  O   UNL     1      -2.401  -3.146  -2.391  1.00  0.00    -0.458 OA
BRANCH  21  22
ATOM     22  C   UNL     1      -1.758  -3.744  -1.363  1.00  0.00     0.338 C 
ATOM     23  O   UNL     1      -0.738  -3.367  -0.814  1.00  0.00    -0.246 OA
BRANCH  22  24
ATOM     24  C   UNL     1      -2.348  -5.069  -1.153  1.00  0.00     0.060 A 
ATOM     25  C   UNL     1      -1.767  -5.880  -0.174  1.00  0.00     0.016 A 
ATOM     26  C   UNL     1      -3.244  -5.577  -2.104  1.00  0.00     0.016 A 
ATOM     27  C   UNL     1      -1.950  -7.244  -0.264  1.00  0.00     0.010 A 
ATOM     28  C   UNL     1      -3.403  -6.936  -2.207  1.00  0.00     0.010 A 
ATOM     29  C   UNL     1      -2.699  -7.755  -1.330  1.00  0.00    -0.014 A 
BRANCH  29  30
ATOM     30  C   UNL     1      -2.874  -9.188  -1.427  1.00  0.00     0.031 A 
ATOM     31  C   UNL     1      -3.758  -9.714  -0.364  1.00  0.00     0.074 A 
ATOM     32  C   UNL     1      -2.404  -9.915  -2.459  1.00  0.00     0.049 A 
ATOM     33  N   UNL     1      -3.434 -10.491   0.613  1.00  0.00    -0.248 NA
ATOM     34  C   UNL     1      -5.113  -9.145  -0.249  1.00  0.00     0.031 C 
ATOM     35  C   UNL     1      -1.756  -9.435  -3.681  1.00  0.00     0.029 A 
ATOM     36  N   UNL     1      -2.516 -11.251  -2.680  1.00  0.00    -0.354 N 
ATOM     37  C   UNL     1      -4.610 -10.710   1.319  1.00  0.00     0.074 A 
ATOM     38  C   UNL     1      -5.528  -9.691   0.892  1.00  0.00     0.031 C 
ATOM     39  C   UNL     1      -1.755 -10.428  -4.602  1.00  0.00     0.029 A 
ATOM     40  C   UNL     1      -2.290 -11.639  -3.997  1.00  0.00     0.049 A 
ATOM     41  H   UNL     1      -2.738 -11.892  -1.966  1.00  0.00     0.167 HD
ATOM     42  C   UNL     1      -4.813 -11.879   1.982  1.00  0.00     0.034 A 
ATOM     43  C   UNL     1      -2.601 -12.841  -4.558  1.00  0.00     0.034 A 
ATOM     44  C   UNL     1      -3.560 -12.565   2.211  1.00  0.00     0.049 A 
ATOM     45  C   UNL     1      -2.732 -13.812  -3.438  1.00  0.00     0.074 A 
ATOM     46  C   UNL     1      -2.381 -12.221   2.848  1.00  0.00     0.029 A 
ATOM     47  N   UNL     1      -3.242 -13.633   1.400  1.00  0.00    -0.354 N 
ATOM     48  N   UNL     1      -1.728 -14.167  -2.682  1.00  0.00    -0.248 NA
ATOM     49  C   UNL     1      -4.046 -13.986  -2.835  1.00  0.00     0.031 C 
ATOM     50  C   UNL     1      -1.349 -12.746   2.017  1.00  0.00     0.029 A 
ATOM     51  C   UNL     1      -1.946 -13.459   0.975  1.00  0.00     0.049 A 
ATOM     52  H   UNL     1      -3.835 -14.384   1.167  1.00  0.00     0.167 HD
ATOM     53  C   UNL     1      -2.236 -14.177  -1.390  1.00  0.00     0.074 A 
ATOM     54  C   UNL     1      -3.689 -14.151  -1.556  1.00  0.00     0.031 C 
ATOM     55  C   UNL     1      -1.441 -13.908  -0.310  1.00  0.00     0.034 A 
BRANCH  42  56
ATOM     56  C   UNL     1      -6.151 -12.580   2.063  1.00  0.00     0.023 A 
ATOM     57  C   UNL     1      -6.183 -13.801   2.759  1.00  0.00     0.031 A 
ATOM     58  C   UNL     1      -7.289 -12.294   1.273  1.00  0.00     0.131 A 
ATOM     59  C   UNL     1      -7.229 -14.717   2.560  1.00  0.00     0.055 A 
ATOM     60  C   UNL     1      -8.362 -13.179   1.135  1.00  0.00     0.041 A 
ATOM     61  F   UNL     1      -7.399 -11.198   0.515  1.00  0.00    -0.206 F 
ATOM     62  C   UNL     1      -8.319 -14.415   1.751  1.00  0.00     0.022 A 
BRANCH  59  63
ATOM     63  S   UNL     1      -7.033 -16.387   3.226  1.00  0.00     0.124 S 
ATOM     64  O   UNL     1      -5.747 -16.778   2.659  1.00  0.00    -0.237 OA
ATOM     65  O   UNL     1      -7.057 -16.139   4.664  1.00  0.00    -0.237 OA
ATOM     66  O   UNL     1      -8.193 -17.099   2.696  1.00  0.00    -0.744 OA
ENDBRANCH  59  63
ENDBRANCH  42  56
BRANCH  43  67
ATOM     67  C   UNL     1      -3.129 -13.085  -5.935  1.00  0.00     0.023 A 
ATOM     68  C   UNL     1      -3.119 -14.354  -6.557  1.00  0.00     0.031 A 
ATOM     69  C   UNL     1      -3.882 -12.077  -6.581  1.00  0.00     0.131 A 
ATOM     70  C   UNL     1      -3.832 -14.566  -7.765  1.00  0.00     0.055 A 
ATOM     71  C   UNL     1      -4.579 -12.290  -7.772  1.00  0.00     0.041 A 
ATOM     72  F   UNL     1      -4.042 -10.864  -6.029  1.00  0.00    -0.206 F 
ATOM     73  C   UNL     1      -4.564 -13.540  -8.367  1.00  0.00     0.022 A 
BRANCH  70  74
ATOM     74  S   UNL     1      -3.892 -16.216  -8.543  1.00  0.00     0.124 S 
ATOM     75  O   UNL     1      -2.517 -16.400  -8.991  1.00  0.00    -0.237 OA
ATOM     76  O   UNL     1      -4.337 -17.066  -7.444  1.00  0.00    -0.237 OA
ATOM     77  O   UNL     1      -4.870 -16.052  -9.620  1.00  0.00    -0.744 OA
ENDBRANCH  70  74
ENDBRANCH  43  67
BRANCH  55  78
ATOM     78  C   UNL     1       0.064 -13.873  -0.505  1.00  0.00     0.023 A 
ATOM     79  C   UNL     1       0.749 -13.032  -1.414  1.00  0.00     0.031 A 
ATOM     80  C   UNL     1       0.841 -14.648   0.375  1.00  0.00     0.131 A 
ATOM     81  C   UNL     1       2.160 -13.002  -1.421  1.00  0.00     0.055 A 
ATOM     82  C   UNL     1       2.234 -14.597   0.381  1.00  0.00     0.041 A 
ATOM     83  F   UNL     1       0.252 -15.447   1.280  1.00  0.00    -0.206 F 
ATOM     84  C   UNL     1       2.899 -13.777  -0.522  1.00  0.00     0.022 A 
BRANCH  81  85
ATOM     85  S   UNL     1       3.067 -11.966  -2.616  1.00  0.00     0.124 S 
ATOM     86  O   UNL     1       2.418 -12.261  -3.888  1.00  0.00    -0.237 OA
ATOM     87  O   UNL     1       2.861 -10.620  -2.088  1.00  0.00    -0.237 OA
ATOM     88  O   UNL     1       4.445 -12.453  -2.510  1.00  0.00    -0.744 OA
ENDBRANCH  81  85
ENDBRANCH  55  78
ENDBRANCH  29  30
ENDBRANCH  22  24
ENDBRANCH  21  22
ENDBRANCH   1  21
TORSDOF 16
