REMARK SMILES CCC(CC)(NC(=O)[C@@H](C)[N@H+]1[C@H](C)CC[C@@H]1C)C(=O)OCCOC(=O)c1ccc(-c2c3nc(c(-c4cc(S(=O)(=O)[O-])ccc4F)c4ccc([nH]4)c(-c4cc(S(=O)(=O)[O-])ccc4F)c4nc(c(-c5cc(S(=O)(=O)[O-])ccc5F)c5ccc2[nH]5)C=C4)C=C3)cc1
REMARK SMILES IDX 21 1 20 2 18 3 19 4 3 5 2 6 1 7 4 8 5 9 6 10 7 11 8 13 9 14
REMARK SMILES IDX 10 15 11 16 12 17 16 18 13 20 14 21 15 22 17 23 22 24 23 25
REMARK SMILES IDX 24 26 25 27 26 28 27 29 88 30 28 31 87 32 29 33 30 34 31 35
REMARK SMILES IDX 81 36 32 37 86 38 80 39 82 40 33 41 85 42 79 43 78 44 34 46
REMARK SMILES IDX 66 47 46 48 65 49 47 50 50 51 64 52 83 53 48 54 49 55 63 57
REMARK SMILES IDX 84 58 51 59 35 60 36 61 44 62 37 63 43 64 45 65 42 66 38 67
REMARK SMILES IDX 39 68 40 69 41 70 67 71 68 72 76 73 69 74 75 75 77 76 74 77
REMARK SMILES IDX 70 78 71 79 72 80 73 81 52 82 53 83 61 84 54 85 60 86 62 87
REMARK SMILES IDX 59 88 55 89 56 90 57 91 58 92
REMARK H PARENT 6 12 11 19 82 45 50 56
REMARK Flexibility Score: inf
ROOT
ATOM      1  C   UNL     1       4.424  -2.149  -0.422  1.00  0.00     0.274 C 
ENDROOT
BRANCH   1   2
ATOM      2  O   UNL     1       3.026  -2.217  -0.804  1.00  0.00    -0.460 OA
BRANCH   2   3
ATOM      3  C   UNL     1       2.110  -1.593  -0.010  1.00  0.00     0.331 C 
ATOM      4  O   UNL     1       2.420  -0.843   0.910  1.00  0.00    -0.249 OA
BRANCH   3   5
ATOM      5  C   UNL     1       0.620  -1.945  -0.379  1.00  0.00     0.137 C 
BRANCH   5   6
ATOM      6  C   UNL     1      -0.052  -0.662  -0.957  1.00  0.00     0.037 C 
ATOM      7  C   UNL     1      -0.119   0.550  -0.029  1.00  0.00     0.007 C 
ENDBRANCH   5   6
BRANCH   5   8
ATOM      8  C   UNL     1      -0.130  -2.397   0.913  1.00  0.00     0.037 C 
ATOM      9  C   UNL     1      -1.647  -2.537   0.790  1.00  0.00     0.007 C 
ENDBRANCH   5   8
BRANCH   5  10
ATOM     10  N   UNL     1       0.508  -2.998  -1.442  1.00  0.00    -0.335 N 
ATOM     11  C   UNL     1       0.644  -4.340  -1.204  1.00  0.00     0.278 C 
ATOM     12  H   UNL     1       0.326  -2.707  -2.365  1.00  0.00     0.164 HD
ATOM     13  O   UNL     1      -0.369  -4.981  -0.902  1.00  0.00    -0.268 OA
BRANCH  11  14
ATOM     14  C   UNL     1       1.962  -5.080  -1.490  1.00  0.00     0.271 C 
ATOM     15  C   UNL     1       2.741  -4.514  -2.689  1.00  0.00     0.086 C 
BRANCH  14  16
ATOM     16  N   UNL     1       2.862  -5.405  -0.324  1.00  0.00    -0.321 N 
ATOM     17  C   UNL     1       2.285  -5.362   1.047  1.00  0.00     0.181 C 
ATOM     18  C   UNL     1       3.380  -6.798  -0.517  1.00  0.00     0.181 C 
ATOM     19  H   UNL     1       3.558  -4.660  -0.344  1.00  0.00     0.349 HD
ATOM     20  C   UNL     1       2.806  -4.216   1.913  1.00  0.00     0.075 C 
ATOM     21  C   UNL     1       2.730  -6.644   1.750  1.00  0.00     0.071 C 
ATOM     22  C   UNL     1       2.808  -7.630   0.624  1.00  0.00     0.071 C 
ATOM     23  C   UNL     1       4.906  -6.787  -0.527  1.00  0.00     0.075 C 
ENDBRANCH  14  16
ENDBRANCH  11  14
ENDBRANCH   5  10
ENDBRANCH   3   5
ENDBRANCH   2   3
ENDBRANCH   1   2
BRANCH   1  24
ATOM     24  C   UNL     1       5.322  -1.989  -1.651  1.00  0.00     0.275 C 
BRANCH  24  25
ATOM     25  O   UNL     1       5.083  -0.679  -2.172  1.00  0.00    -0.458 OA
BRANCH  25  26
ATOM     26  C   UNL     1       4.809  -0.582  -3.494  1.00  0.00     0.338 C 
ATOM     27  O   UNL     1       5.104  -1.355  -4.383  1.00  0.00    -0.246 OA
BRANCH  26  28
ATOM     28  C   UNL     1       3.959   0.613  -3.623  1.00  0.00     0.060 A 
ATOM     29  C   UNL     1       2.833   0.682  -2.800  1.00  0.00     0.016 A 
ATOM     30  C   UNL     1       4.252   1.645  -4.505  1.00  0.00     0.016 A 
ATOM     31  C   UNL     1       2.007   1.790  -2.822  1.00  0.00     0.010 A 
ATOM     32  C   UNL     1       3.441   2.786  -4.495  1.00  0.00     0.010 A 
ATOM     33  C   UNL     1       2.325   2.869  -3.640  1.00  0.00    -0.014 A 
BRANCH  33  34
ATOM     34  C   UNL     1       1.454   4.063  -3.629  1.00  0.00     0.031 A 
ATOM     35  C   UNL     1       0.685   4.393  -4.866  1.00  0.00     0.074 A 
ATOM     36  C   UNL     1       1.343   4.822  -2.521  1.00  0.00     0.049 A 
ATOM     37  N   UNL     1       0.145   5.522  -5.228  1.00  0.00    -0.248 NA
ATOM     38  C   UNL     1       0.514   3.296  -5.832  1.00  0.00     0.031 C 
ATOM     39  C   UNL     1       1.921   4.508  -1.210  1.00  0.00     0.029 A 
ATOM     40  N   UNL     1       0.718   6.027  -2.325  1.00  0.00    -0.354 N 
ATOM     41  C   UNL     1      -0.370   5.298  -6.498  1.00  0.00     0.074 A 
ATOM     42  C   UNL     1      -0.099   3.915  -6.830  1.00  0.00     0.031 C 
ATOM     43  C   UNL     1       1.640   5.504  -0.356  1.00  0.00     0.029 A 
ATOM     44  C   UNL     1       0.965   6.570  -1.084  1.00  0.00     0.049 A 
ATOM     45  H   UNL     1       0.150   6.460  -3.003  1.00  0.00     0.167 HD
ATOM     46  C   UNL     1      -0.980   6.191  -7.313  1.00  0.00     0.034 A 
ATOM     47  C   UNL     1       0.753   7.819  -0.623  1.00  0.00     0.034 A 
ATOM     48  C   UNL     1      -1.235   7.556  -6.923  1.00  0.00     0.049 A 
ATOM     49  C   UNL     1       0.160   8.827  -1.575  1.00  0.00     0.074 A 
ATOM     50  C   UNL     1      -1.797   8.581  -7.661  1.00  0.00     0.029 A 
ATOM     51  N   UNL     1      -0.943   8.084  -5.668  1.00  0.00    -0.354 N 
ATOM     52  N   UNL     1      -0.211   8.663  -2.826  1.00  0.00    -0.248 NA
ATOM     53  C   UNL     1      -0.023  10.190  -1.065  1.00  0.00     0.031 C 
ATOM     54  C   UNL     1      -1.796   9.738  -6.872  1.00  0.00     0.029 A 
ATOM     55  C   UNL     1      -1.297   9.421  -5.617  1.00  0.00     0.049 A 
ATOM     56  H   UNL     1      -0.542   7.579  -4.924  1.00  0.00     0.167 HD
ATOM     57  C   UNL     1      -0.684   9.901  -3.248  1.00  0.00     0.074 A 
ATOM     58  C   UNL     1      -0.573  10.793  -2.110  1.00  0.00     0.031 C 
ATOM     59  C   UNL     1      -1.163  10.277  -4.462  1.00  0.00     0.034 A 
BRANCH  46  60
ATOM     60  C   UNL     1      -1.300   5.742  -8.715  1.00  0.00     0.023 A 
ATOM     61  C   UNL     1      -2.246   4.739  -8.986  1.00  0.00     0.031 A 
ATOM     62  C   UNL     1      -0.592   6.291  -9.800  1.00  0.00     0.131 A 
ATOM     63  C   UNL     1      -2.413   4.273 -10.301  1.00  0.00     0.055 A 
ATOM     64  C   UNL     1      -0.815   5.875 -11.113  1.00  0.00     0.041 A 
ATOM     65  F   UNL     1       0.347   7.229  -9.598  1.00  0.00    -0.206 F 
ATOM     66  C   UNL     1      -1.721   4.851 -11.369  1.00  0.00     0.022 A 
BRANCH  63  67
ATOM     67  S   UNL     1      -3.451   2.812 -10.582  1.00  0.00     0.124 S 
ATOM     68  O   UNL     1      -2.741   1.794  -9.812  1.00  0.00    -0.237 OA
ATOM     69  O   UNL     1      -4.741   3.233 -10.048  1.00  0.00    -0.237 OA
ATOM     70  O   UNL     1      -3.405   2.632 -12.032  1.00  0.00    -0.744 OA
ENDBRANCH  63  67
ENDBRANCH  46  60
BRANCH  47  71
ATOM     71  C   UNL     1       1.212   8.221   0.740  1.00  0.00     0.023 A 
ATOM     72  C   UNL     1       0.305   8.681   1.707  1.00  0.00     0.031 A 
ATOM     73  C   UNL     1       2.578   8.201   1.081  1.00  0.00     0.131 A 
ATOM     74  C   UNL     1       0.777   9.136   2.950  1.00  0.00     0.055 A 
ATOM     75  C   UNL     1       3.036   8.598   2.338  1.00  0.00     0.041 A 
ATOM     76  F   UNL     1       3.495   7.781   0.194  1.00  0.00    -0.206 F 
ATOM     77  C   UNL     1       2.133   9.083   3.278  1.00  0.00     0.022 A 
BRANCH  74  78
ATOM     78  S   UNL     1      -0.402   9.892   4.103  1.00  0.00     0.124 S 
ATOM     79  O   UNL     1      -0.975  10.958   3.288  1.00  0.00    -0.237 OA
ATOM     80  O   UNL     1      -1.286   8.772   4.409  1.00  0.00    -0.237 OA
ATOM     81  O   UNL     1       0.442  10.338   5.210  1.00  0.00    -0.744 OA
ENDBRANCH  74  78
ENDBRANCH  47  71
BRANCH  59  82
ATOM     82  C   UNL     1      -1.642  11.699  -4.581  1.00  0.00     0.023 A 
ATOM     83  C   UNL     1      -0.748  12.782  -4.548  1.00  0.00     0.031 A 
ATOM     84  C   UNL     1      -3.015  11.970  -4.705  1.00  0.00     0.131 A 
ATOM     85  C   UNL     1      -1.244  14.092  -4.580  1.00  0.00     0.055 A 
ATOM     86  C   UNL     1      -3.498  13.274  -4.795  1.00  0.00     0.041 A 
ATOM     87  F   UNL     1      -3.909  10.967  -4.740  1.00  0.00    -0.206 F 
ATOM     88  C   UNL     1      -2.611  14.345  -4.719  1.00  0.00     0.022 A 
BRANCH  85  89
ATOM     89  S   UNL     1      -0.084  15.466  -4.346  1.00  0.00     0.124 S 
ATOM     90  O   UNL     1       0.471  15.173  -3.029  1.00  0.00    -0.237 OA
ATOM     91  O   UNL     1       0.828  15.300  -5.474  1.00  0.00    -0.237 OA
ATOM     92  O   UNL     1      -0.938  16.650  -4.410  1.00  0.00    -0.744 OA
ENDBRANCH  85  89
ENDBRANCH  59  82
ENDBRANCH  33  34
ENDBRANCH  26  28
ENDBRANCH  25  26
ENDBRANCH  24  25
ENDBRANCH   1  24
TORSDOF 19
