REMARK SMILES C=Cc1cncc(-c2ccc([C@@H](C)C(=O)OCCOC(=O)c3ccc(-c4c5nc(c(-c6cc(S(=O)(=O)[O-])ccc6F)c6ccc([nH]6)c(-c6cc(S(=O)(=O)[O-])ccc6F)c6nc(c(-c7cc(S(=O)(=O)[O-])ccc7F)c7ccc4[nH]7)C=C6)C=C5)cc3)cc2)c1
REMARK SMILES IDX 17 1 16 2 14 3 15 4 12 5 13 6 11 7 8 8 9 9 86 10 10 11 85 12
REMARK SMILES IDX 7 13 3 14 4 15 87 16 5 17 6 18 2 19 1 20 18 21 19 22 20 23
REMARK SMILES IDX 21 24 22 25 23 26 84 27 24 28 83 29 25 30 26 31 27 32 77 33
REMARK SMILES IDX 28 34 82 35 76 36 78 37 29 38 81 39 75 40 74 41 30 43 62 44
REMARK SMILES IDX 42 45 61 46 43 47 46 48 60 49 79 50 44 51 45 52 59 54 80 55
REMARK SMILES IDX 47 56 31 57 32 58 40 59 33 60 39 61 41 62 38 63 34 64 35 65
REMARK SMILES IDX 36 66 37 67 63 68 64 69 72 70 65 71 71 72 73 73 70 74 66 75
REMARK SMILES IDX 67 76 68 77 69 78 48 79 49 80 57 81 50 82 56 83 58 84 55 85
REMARK SMILES IDX 51 86 52 87 53 88 54 89
REMARK H PARENT 78 42 46 53
REMARK Flexibility Score: inf
ROOT
ATOM      1  C   UNL     1      -6.491  -6.620  -0.290  1.00  0.00     0.274 C 
ENDROOT
BRANCH   1   2
ATOM      2  O   UNL     1      -6.616  -5.366   0.407  1.00  0.00    -0.462 OA
BRANCH   2   3
ATOM      3  C   UNL     1      -7.082  -5.421   1.683  1.00  0.00     0.313 C 
ATOM      4  O   UNL     1      -7.468  -6.451   2.228  1.00  0.00    -0.252 OA
BRANCH   3   5
ATOM      5  C   UNL     1      -7.155  -4.064   2.372  1.00  0.00     0.126 C 
ATOM      6  C   UNL     1      -8.593  -3.546   2.328  1.00  0.00     0.025 C 
BRANCH   5   7
ATOM      7  C   UNL     1      -6.149  -3.019   1.911  1.00  0.00    -0.034 A 
ATOM      8  C   UNL     1      -4.287  -1.015   1.129  1.00  0.00    -0.017 A 
ATOM      9  C   UNL     1      -5.326  -1.417   0.275  1.00  0.00     0.009 A 
ATOM     10  C   UNL     1      -4.181  -1.651   2.373  1.00  0.00     0.009 A 
ATOM     11  C   UNL     1      -6.243  -2.401   0.659  1.00  0.00     0.005 A 
ATOM     12  C   UNL     1      -5.100  -2.632   2.760  1.00  0.00     0.005 A 
BRANCH   8  13
ATOM     13  C   UNL     1      -3.371   0.068   0.744  1.00  0.00     0.001 A 
ATOM     14  C   UNL     1      -1.142   0.984   0.403  1.00  0.00    -0.007 A 
ATOM     15  C   UNL     1      -1.756   2.179   0.035  1.00  0.00     0.119 A 
ATOM     16  C   UNL     1      -1.976  -0.078   0.772  1.00  0.00     0.020 A 
ATOM     17  N   UNL     1      -3.094   2.372  -0.016  1.00  0.00    -0.263 NA
ATOM     18  C   UNL     1      -3.858   1.315   0.345  1.00  0.00     0.119 A 
BRANCH  14  19
ATOM     19  C   UNL     1       0.321   0.901   0.446  1.00  0.00     0.002 C 
ATOM     20  C   UNL     1       1.022  -0.156   0.017  1.00  0.00     0.009 C 
ENDBRANCH  14  19
ENDBRANCH   8  13
ENDBRANCH   5   7
ENDBRANCH   3   5
ENDBRANCH   2   3
ENDBRANCH   1   2
BRANCH   1  21
ATOM     21  C   UNL     1      -5.038  -7.097  -0.321  1.00  0.00     0.275 C 
BRANCH  21  22
ATOM     22  O   UNL     1      -4.584  -7.464   0.994  1.00  0.00    -0.458 OA
BRANCH  22  23
ATOM     23  C   UNL     1      -3.867  -6.511   1.636  1.00  0.00     0.338 C 
ATOM     24  O   UNL     1      -3.526  -5.426   1.201  1.00  0.00    -0.246 OA
BRANCH  23  25
ATOM     25  C   UNL     1      -3.636  -6.926   3.027  1.00  0.00     0.060 A 
ATOM     26  C   UNL     1      -4.302  -6.232   4.038  1.00  0.00     0.016 A 
ATOM     27  C   UNL     1      -2.705  -7.917   3.340  1.00  0.00     0.016 A 
ATOM     28  C   UNL     1      -4.022  -6.503   5.373  1.00  0.00     0.010 A 
ATOM     29  C   UNL     1      -2.434  -8.199   4.684  1.00  0.00     0.010 A 
ATOM     30  C   UNL     1      -3.077  -7.479   5.708  1.00  0.00    -0.014 A 
BRANCH  30  31
ATOM     31  C   UNL     1      -2.718  -7.688   7.132  1.00  0.00     0.031 A 
ATOM     32  C   UNL     1      -1.404  -7.175   7.651  1.00  0.00     0.074 A 
ATOM     33  C   UNL     1      -3.586  -8.297   7.961  1.00  0.00     0.049 A 
ATOM     34  N   UNL     1      -0.880  -7.292   8.844  1.00  0.00    -0.248 NA
ATOM     35  C   UNL     1      -0.569  -6.433   6.695  1.00  0.00     0.031 C 
ATOM     36  C   UNL     1      -4.908  -8.795   7.578  1.00  0.00     0.029 A 
ATOM     37  N   UNL     1      -3.488  -8.598   9.296  1.00  0.00    -0.354 N 
ATOM     38  C   UNL     1       0.354  -6.653   8.782  1.00  0.00     0.074 A 
ATOM     39  C   UNL     1       0.508  -6.175   7.423  1.00  0.00     0.031 C 
ATOM     40  C   UNL     1      -5.499  -9.337   8.656  1.00  0.00     0.029 A 
ATOM     41  C   UNL     1      -4.583  -9.266   9.791  1.00  0.00     0.049 A 
ATOM     42  H   UNL     1      -2.708  -8.358   9.847  1.00  0.00     0.167 HD
ATOM     43  C   UNL     1       1.268  -6.479   9.768  1.00  0.00     0.034 A 
ATOM     44  C   UNL     1      -4.810  -9.785  11.014  1.00  0.00     0.034 A 
ATOM     45  C   UNL     1       1.098  -6.964  11.117  1.00  0.00     0.049 A 
ATOM     46  C   UNL     1      -3.753  -9.631  12.078  1.00  0.00     0.074 A 
ATOM     47  C   UNL     1       1.958  -6.842  12.195  1.00  0.00     0.029 A 
ATOM     48  N   UNL     1      -0.008  -7.671  11.574  1.00  0.00    -0.354 N 
ATOM     49  N   UNL     1      -2.583  -9.041  12.000  1.00  0.00    -0.248 NA
ATOM     50  C   UNL     1      -4.051 -10.211  13.393  1.00  0.00     0.031 C 
ATOM     51  C   UNL     1       1.400  -7.523  13.284  1.00  0.00     0.029 A 
ATOM     52  C   UNL     1       0.160  -8.014  12.907  1.00  0.00     0.049 A 
ATOM     53  H   UNL     1      -0.797  -7.896  11.029  1.00  0.00     0.167 HD
ATOM     54  C   UNL     1      -2.013  -9.163  13.264  1.00  0.00     0.074 A 
ATOM     55  C   UNL     1      -2.977  -9.866  14.087  1.00  0.00     0.031 C 
ATOM     56  C   UNL     1      -0.804  -8.733  13.707  1.00  0.00     0.034 A 
BRANCH  43  57
ATOM     57  C   UNL     1       2.557  -5.785   9.398  1.00  0.00     0.023 A 
ATOM     58  C   UNL     1       2.587  -4.437   8.999  1.00  0.00     0.031 A 
ATOM     59  C   UNL     1       3.769  -6.498   9.404  1.00  0.00     0.131 A 
ATOM     60  C   UNL     1       3.790  -3.865   8.557  1.00  0.00     0.055 A 
ATOM     61  C   UNL     1       4.976  -5.902   9.033  1.00  0.00     0.041 A 
ATOM     62  F   UNL     1       3.798  -7.794   9.753  1.00  0.00    -0.206 F 
ATOM     63  C   UNL     1       4.989  -4.582   8.593  1.00  0.00     0.022 A 
BRANCH  60  64
ATOM     64  S   UNL     1       3.743  -2.216   7.802  1.00  0.00     0.124 S 
ATOM     65  O   UNL     1       2.819  -2.426   6.690  1.00  0.00    -0.237 OA
ATOM     66  O   UNL     1       3.251  -1.384   8.893  1.00  0.00    -0.237 OA
ATOM     67  O   UNL     1       5.131  -1.977   7.412  1.00  0.00    -0.744 OA
ENDBRANCH  60  64
ENDBRANCH  43  57
BRANCH  44  68
ATOM     68  C   UNL     1      -6.065 -10.540  11.289  1.00  0.00     0.023 A 
ATOM     69  C   UNL     1      -7.010 -10.069  12.213  1.00  0.00     0.031 A 
ATOM     70  C   UNL     1      -6.314 -11.771  10.657  1.00  0.00     0.131 A 
ATOM     71  C   UNL     1      -8.144 -10.844  12.507  1.00  0.00     0.055 A 
ATOM     72  C   UNL     1      -7.465 -12.514  10.917  1.00  0.00     0.041 A 
ATOM     73  F   UNL     1      -5.440 -12.265   9.764  1.00  0.00    -0.206 F 
ATOM     74  C   UNL     1      -8.383 -12.057  11.856  1.00  0.00     0.022 A 
BRANCH  71  75
ATOM     75  S   UNL     1      -9.271 -10.277  13.811  1.00  0.00     0.124 S 
ATOM     76  O   UNL     1      -8.379 -10.200  14.962  1.00  0.00    -0.237 OA
ATOM     77  O   UNL     1      -9.738  -9.003  13.274  1.00  0.00    -0.237 OA
ATOM     78  O   UNL     1     -10.280 -11.332  13.871  1.00  0.00    -0.744 OA
ENDBRANCH  71  75
ENDBRANCH  44  68
BRANCH  56  79
ATOM     79  C   UNL     1      -0.484  -8.986  15.159  1.00  0.00     0.023 A 
ATOM     80  C   UNL     1      -0.267 -10.286  15.651  1.00  0.00     0.031 A 
ATOM     81  C   UNL     1      -0.425  -7.915  16.068  1.00  0.00     0.131 A 
ATOM     82  C   UNL     1      -0.057 -10.487  17.023  1.00  0.00     0.055 A 
ATOM     83  C   UNL     1      -0.162  -8.116  17.423  1.00  0.00     0.041 A 
ATOM     84  F   UNL     1      -0.626  -6.654  15.651  1.00  0.00    -0.206 F 
ATOM     85  C   UNL     1       0.010  -9.409  17.910  1.00  0.00     0.022 A 
BRANCH  82  86
ATOM     86  S   UNL     1       0.036 -12.186  17.651  1.00  0.00     0.124 S 
ATOM     87  O   UNL     1      -1.246 -12.738  17.227  1.00  0.00    -0.237 OA
ATOM     88  O   UNL     1       1.214 -12.708  16.965  1.00  0.00    -0.237 OA
ATOM     89  O   UNL     1       0.188 -12.011  19.095  1.00  0.00    -0.744 OA
ENDBRANCH  82  86
ENDBRANCH  56  79
ENDBRANCH  30  31
ENDBRANCH  23  25
ENDBRANCH  22  23
ENDBRANCH  21  22
ENDBRANCH   1  21
TORSDOF 17
