REMARK SMILES [NH3+][C@@H]1CCCCC[C@H]1C(=O)N1[C@@H](C2CC2)SC[C@H]1C(=O)OCCOC(=O)c1ccc(-c2c3nc(c(-c4cc(S(=O)(=O)[O-])ccc4F)c4ccc([nH]4)c(-c4cc(S(=O)(=O)[O-])ccc4F)c4nc(c(-c5cc(S(=O)(=O)[O-])ccc5F)c5ccc2[nH]5)C=C4)C=C3)cc1
REMARK SMILES IDX 21 1 19 2 20 3 18 4 11 5 12 6 16 7 17 8 9 9 10 10 8 11 2 12
REMARK SMILES IDX 1 13 3 17 7 19 6 20 5 21 4 22 13 24 14 25 15 26 22 27 23 28
REMARK SMILES IDX 24 29 25 30 26 31 27 32 28 33 89 34 29 35 88 36 30 37 31 38
REMARK SMILES IDX 32 39 82 40 33 41 87 42 81 43 83 44 34 45 86 46 80 47 79 48
REMARK SMILES IDX 35 50 67 51 47 52 66 53 48 54 51 55 65 56 84 57 49 58 50 59
REMARK SMILES IDX 64 61 85 62 52 63 36 64 37 65 45 66 38 67 44 68 46 69 43 70
REMARK SMILES IDX 39 71 40 72 41 73 42 74 68 75 69 76 77 77 70 78 76 79 78 80
REMARK SMILES IDX 75 81 71 82 72 83 73 84 74 85 53 86 54 87 62 88 55 89 61 90
REMARK SMILES IDX 63 91 60 92 56 93 57 94 58 95 59 96
REMARK H PARENT 1 14 1 15 1 16 83 49 51 60
REMARK Flexibility Score: 90.00
ROOT
ATOM      1  O   UNL     1      -1.782   4.505  -1.522  1.00  0.00    -0.461 OA
ENDROOT
BRANCH   1   2
ATOM      2  C   UNL     1      -2.305   4.112  -2.710  1.00  0.00     0.329 C 
ATOM      3  O   UNL     1      -2.851   4.872  -3.509  1.00  0.00    -0.250 OA
BRANCH   2   4
ATOM      4  C   UNL     1      -2.217   2.604  -2.984  1.00  0.00     0.206 C 
ATOM      5  N   UNL     1      -1.525   1.695  -2.064  1.00  0.00    -0.315 N 
ATOM      6  C   UNL     1      -2.389   1.122  -1.055  1.00  0.00     0.147 C 
ATOM      7  S   UNL     1      -3.969   0.867  -1.889  1.00  0.00    -0.134 SA
ATOM      8  C   UNL     1      -3.637   2.077  -3.199  1.00  0.00     0.109 C 
BRANCH   5   9
ATOM      9  C   UNL     1      -0.160   1.565  -2.181  1.00  0.00     0.233 C 
ATOM     10  O   UNL     1       0.495   2.558  -2.526  1.00  0.00    -0.274 OA
BRANCH   9  11
ATOM     11  C   UNL     1       0.528   0.176  -2.277  1.00  0.00     0.136 C 
BRANCH  11  12
ATOM     12  C   UNL     1       0.281  -0.866  -1.173  1.00  0.00     0.193 C 
BRANCH  12  13
ATOM     13  N   UNL     1       0.653  -0.294   0.131  1.00  0.00    -0.354 N 
ATOM     14  H   UNL     1       0.490  -0.985   0.864  1.00  0.00     0.344 HD
ATOM     15  H   UNL     1       0.087   0.535   0.313  1.00  0.00     0.344 HD
ATOM     16  H   UNL     1       1.640  -0.036   0.121  1.00  0.00     0.344 HD
ENDBRANCH  12  13
BRANCH  12  17
ATOM     17  C   UNL     1       1.023  -2.209  -1.358  1.00  0.00     0.066 CG0
ATOM     18  G   UNL     1       0.407  -3.069  -2.463  1.00  0.00     0.000 G0
ENDBRANCH  12  17
ENDBRANCH  11  12
BRANCH  11  19
ATOM     19  C   UNL     1       0.263  -0.348  -3.709  1.00  0.00     0.020 C 
BRANCH  19  20
ATOM     20  C   UNL     1       1.297  -1.367  -4.191  1.00  0.00     0.001 C 
BRANCH  20  21
ATOM     21  C   UNL     1       0.963  -2.815  -3.858  1.00  0.00     0.000 C 
BRANCH  21  22
ATOM     22  C   UNL     1       0.407  -3.069  -2.463  1.00  0.00     0.006 CG0
ATOM     23  G   UNL     1       1.023  -2.209  -1.358  1.00  0.00     0.000 G0
ENDBRANCH  21  22
ENDBRANCH  20  21
ENDBRANCH  19  20
ENDBRANCH  11  19
ENDBRANCH   9  11
ENDBRANCH   5   9
BRANCH   6  24
ATOM     24  C   UNL     1      -2.446   2.006   0.167  1.00  0.00     0.022 C 
ATOM     25  C   UNL     1      -3.467   3.097   0.430  1.00  0.00     0.007 C 
ATOM     26  C   UNL     1      -3.513   1.827   1.228  1.00  0.00     0.007 C 
ENDBRANCH   6  24
ENDBRANCH   2   4
ENDBRANCH   1   2
BRANCH   1  27
ATOM     27  C   UNL     1      -1.862   5.919  -1.244  1.00  0.00     0.274 C 
BRANCH  27  28
ATOM     28  C   UNL     1      -0.497   6.570  -1.413  1.00  0.00     0.275 C 
BRANCH  28  29
ATOM     29  O   UNL     1       0.002   6.251  -2.717  1.00  0.00    -0.458 OA
BRANCH  29  30
ATOM     30  C   UNL     1       1.251   5.726  -2.745  1.00  0.00     0.338 C 
ATOM     31  O   UNL     1       2.037   5.646  -1.818  1.00  0.00    -0.246 OA
BRANCH  30  32
ATOM     32  C   UNL     1       1.573   5.375  -4.140  1.00  0.00     0.060 A 
ATOM     33  C   UNL     1       0.729   4.558  -4.895  1.00  0.00     0.016 A 
ATOM     34  C   UNL     1       2.763   5.852  -4.684  1.00  0.00     0.016 A 
ATOM     35  C   UNL     1       1.094   4.172  -6.183  1.00  0.00     0.010 A 
ATOM     36  C   UNL     1       3.091   5.529  -5.999  1.00  0.00     0.010 A 
ATOM     37  C   UNL     1       2.271   4.670  -6.754  1.00  0.00    -0.014 A 
BRANCH  37  38
ATOM     38  C   UNL     1       2.688   4.286  -8.127  1.00  0.00     0.031 A 
ATOM     39  C   UNL     1       3.982   3.547  -8.326  1.00  0.00     0.074 A 
ATOM     40  C   UNL     1       1.939   4.641  -9.188  1.00  0.00     0.049 A 
ATOM     41  N   UNL     1       4.652   3.328  -9.426  1.00  0.00    -0.248 NA
ATOM     42  C   UNL     1       4.612   3.003  -7.114  1.00  0.00     0.031 C 
ATOM     43  C   UNL     1       0.639   5.312  -9.123  1.00  0.00     0.029 A 
ATOM     44  N   UNL     1       2.175   4.505 -10.533  1.00  0.00    -0.354 N 
ATOM     45  C   UNL     1       5.806   2.654  -9.038  1.00  0.00     0.074 A 
ATOM     46  C   UNL     1       5.750   2.526  -7.596  1.00  0.00     0.031 C 
ATOM     47  C   UNL     1       0.192   5.525 -10.370  1.00  0.00     0.029 A 
ATOM     48  C   UNL     1       1.208   5.086 -11.321  1.00  0.00     0.049 A 
ATOM     49  H   UNL     1       2.961   4.038 -10.899  1.00  0.00     0.167 HD
ATOM     50  C   UNL     1       6.815   2.188  -9.816  1.00  0.00     0.034 A 
ATOM     51  C   UNL     1       1.168   5.290 -12.652  1.00  0.00     0.034 A 
ATOM     52  C   UNL     1       6.840   2.321 -11.254  1.00  0.00     0.049 A 
ATOM     53  C   UNL     1       2.337   4.840 -13.490  1.00  0.00     0.074 A 
ATOM     54  C   UNL     1       7.803   1.881 -12.146  1.00  0.00     0.029 A 
ATOM     55  N   UNL     1       5.855   2.943 -12.013  1.00  0.00    -0.354 N 
ATOM     56  N   UNL     1       3.445   4.245 -13.112  1.00  0.00    -0.248 NA
ATOM     57  C   UNL     1       2.253   5.098 -14.932  1.00  0.00     0.031 C 
ATOM     58  C   UNL     1       7.433   2.292 -13.432  1.00  0.00     0.029 A 
ATOM     59  C   UNL     1       6.200   2.922 -13.356  1.00  0.00     0.049 A 
ATOM     60  H   UNL     1       5.031   3.341 -11.649  1.00  0.00     0.167 HD
ATOM     61  C   UNL     1       4.178   4.034 -14.276  1.00  0.00     0.074 A 
ATOM     62  C   UNL     1       3.379   4.554 -15.368  1.00  0.00     0.031 C 
ATOM     63  C   UNL     1       5.398   3.458 -14.431  1.00  0.00     0.034 A 
BRANCH  50  64
ATOM     64  C   UNL     1       7.992   1.552  -9.116  1.00  0.00     0.023 A 
ATOM     65  C   UNL     1       7.861   0.373  -8.360  1.00  0.00     0.031 A 
ATOM     66  C   UNL     1       9.260   2.158  -9.171  1.00  0.00     0.131 A 
ATOM     67  C   UNL     1       8.955  -0.117  -7.630  1.00  0.00     0.055 A 
ATOM     68  C   UNL     1      10.365   1.620  -8.508  1.00  0.00     0.041 A 
ATOM     69  F   UNL     1       9.445   3.296  -9.858  1.00  0.00    -0.206 F 
ATOM     70  C   UNL     1      10.213   0.485  -7.718  1.00  0.00     0.022 A 
BRANCH  67  71
ATOM     71  S   UNL     1       8.675  -1.463  -6.446  1.00  0.00     0.124 S 
ATOM     72  O   UNL     1       7.657  -0.884  -5.572  1.00  0.00    -0.237 OA
ATOM     73  O   UNL     1       8.231  -2.553  -7.306  1.00  0.00    -0.237 OA
ATOM     74  O   UNL     1       9.984  -1.652  -5.824  1.00  0.00    -0.744 OA
ENDBRANCH  67  71
ENDBRANCH  50  64
BRANCH  51  75
ATOM     75  C   UNL     1       0.014   6.002 -13.270  1.00  0.00     0.023 A 
ATOM     76  C   UNL     1      -0.829   5.351 -14.183  1.00  0.00     0.031 A 
ATOM     77  C   UNL     1      -0.243   7.356 -12.983  1.00  0.00     0.131 A 
ATOM     78  C   UNL     1      -1.867   6.061 -14.805  1.00  0.00     0.055 A 
ATOM     79  C   UNL     1      -1.310   8.043 -13.563  1.00  0.00     0.041 A 
ATOM     80  F   UNL     1       0.534   8.027 -12.118  1.00  0.00    -0.206 F 
ATOM     81  C   UNL     1      -2.123   7.398 -14.490  1.00  0.00     0.022 A 
BRANCH  78  82
ATOM     82  S   UNL     1      -2.835   5.231 -16.094  1.00  0.00     0.124 S 
ATOM     83  O   UNL     1      -1.801   4.877 -17.060  1.00  0.00    -0.237 OA
ATOM     84  O   UNL     1      -3.433   4.122 -15.358  1.00  0.00    -0.237 OA
ATOM     85  O   UNL     1      -3.773   6.262 -16.533  1.00  0.00    -0.744 OA
ENDBRANCH  78  82
ENDBRANCH  51  75
BRANCH  63  86
ATOM     86  C   UNL     1       5.910   3.318 -15.844  1.00  0.00     0.023 A 
ATOM     87  C   UNL     1       6.271   4.436 -16.616  1.00  0.00     0.031 A 
ATOM     88  C   UNL     1       6.017   2.045 -16.430  1.00  0.00     0.131 A 
ATOM     89  C   UNL     1       6.671   4.263 -17.950  1.00  0.00     0.055 A 
ATOM     90  C   UNL     1       6.472   1.874 -17.738  1.00  0.00     0.041 A 
ATOM     91  F   UNL     1       5.682   0.944 -15.739  1.00  0.00    -0.206 F 
ATOM     92  C   UNL     1       6.789   2.988 -18.510  1.00  0.00     0.022 A 
BRANCH  89  93
ATOM     93  S   UNL     1       6.949   5.733 -18.976  1.00  0.00     0.124 S 
ATOM     94  O   UNL     1       5.649   6.393 -18.920  1.00  0.00    -0.237 OA
ATOM     95  O   UNL     1       8.036   6.404 -18.271  1.00  0.00    -0.237 OA
ATOM     96  O   UNL     1       7.307   5.178 -20.280  1.00  0.00    -0.744 OA
ENDBRANCH  89  93
ENDBRANCH  63  86
ENDBRANCH  37  38
ENDBRANCH  30  32
ENDBRANCH  29  30
ENDBRANCH  28  29
ENDBRANCH  27  28
ENDBRANCH   1  27
TORSDOF 18
