REMARK SMILES O=C(OCCOC(=O)c1csc(-c2cnc3ccccc3c2)c1)c1ccc(-c2c3nc(c(-c4cc(S(=O)(=O)[O-])ccc4F)c4ccc([nH]4)c(-c4cc(S(=O)(=O)[O-])ccc4F)c4nc(c(-c5cc(S(=O)(=O)[O-])ccc5F)c5ccc2[nH]5)C=C4)C=C3)cc1
REMARK SMILES IDX 4 1 3 2 2 3 1 4 24 5 25 6 86 7 26 8 85 9 27 10 28 11 29 12
REMARK SMILES IDX 79 13 30 14 84 15 78 16 80 17 31 18 83 19 77 20 76 21 32 23
REMARK SMILES IDX 64 24 44 25 63 26 45 27 48 28 62 29 81 30 46 31 47 32 61 34
REMARK SMILES IDX 82 35 49 36 33 37 34 38 42 39 35 40 41 41 43 42 40 43 36 44
REMARK SMILES IDX 37 45 38 46 39 47 65 48 66 49 74 50 67 51 73 52 75 53 72 54
REMARK SMILES IDX 68 55 69 56 70 57 71 58 50 59 51 60 59 61 52 62 58 63 60 64
REMARK SMILES IDX 57 65 53 66 54 67 55 68 56 69 5 70 6 71 7 72 8 73 9 74 10 75
REMARK SMILES IDX 23 76 11 77 12 78 13 79 14 80 22 81 15 82 21 83 16 84 20 85
REMARK SMILES IDX 17 86 19 87 18 88
REMARK H PARENT 80 22 48 33
REMARK Flexibility Score: inf
ROOT
ATOM      1  C   UNL     1       4.177  -1.573  -0.668  1.00  0.00     0.275 C 
ENDROOT
BRANCH   1   2
ATOM      2  O   UNL     1       3.176  -1.218   0.301  1.00  0.00    -0.458 OA
BRANCH   2   3
ATOM      3  C   UNL     1       3.071  -0.125   1.093  1.00  0.00     0.338 C 
ATOM      4  O   UNL     1       2.238  -0.140   2.000  1.00  0.00    -0.246 OA
BRANCH   3   5
ATOM      5  C   UNL     1       3.792   1.162   0.835  1.00  0.00     0.060 A 
ATOM      6  C   UNL     1       5.060   1.303   0.268  1.00  0.00     0.016 A 
ATOM      7  C   UNL     1       3.122   2.333   1.235  1.00  0.00     0.016 A 
ATOM      8  C   UNL     1       5.616   2.568   0.048  1.00  0.00     0.010 A 
ATOM      9  C   UNL     1       3.666   3.602   1.008  1.00  0.00     0.010 A 
ATOM     10  C   UNL     1       4.925   3.724   0.415  1.00  0.00    -0.014 A 
BRANCH  10  11
ATOM     11  C   UNL     1       5.590   5.043   0.311  1.00  0.00     0.031 A 
ATOM     12  C   UNL     1       6.155   5.663   1.555  1.00  0.00     0.074 A 
ATOM     13  C   UNL     1       5.719   5.653  -0.881  1.00  0.00     0.049 A 
ATOM     14  N   UNL     1       6.823   6.777   1.696  1.00  0.00    -0.248 NA
ATOM     15  C   UNL     1       5.952   4.915   2.805  1.00  0.00     0.031 C 
ATOM     16  C   UNL     1       5.247   5.114  -2.155  1.00  0.00     0.029 A 
ATOM     17  N   UNL     1       6.274   6.860  -1.219  1.00  0.00    -0.354 N 
ATOM     18  C   UNL     1       7.154   6.846   3.043  1.00  0.00     0.074 A 
ATOM     19  C   UNL     1       6.542   5.704   3.688  1.00  0.00     0.031 C 
ATOM     20  C   UNL     1       5.489   6.006  -3.130  1.00  0.00     0.029 A 
ATOM     21  C   UNL     1       6.139   7.177  -2.551  1.00  0.00     0.049 A 
ATOM     22  H   UNL     1       6.727   7.445  -0.569  1.00  0.00     0.167 HD
ATOM     23  C   UNL     1       7.929   7.759   3.678  1.00  0.00     0.034 A 
ATOM     24  C   UNL     1       6.496   8.290  -3.221  1.00  0.00     0.034 A 
ATOM     25  C   UNL     1       8.481   8.918   3.024  1.00  0.00     0.049 A 
ATOM     26  C   UNL     1       7.238   9.366  -2.470  1.00  0.00     0.074 A 
ATOM     27  C   UNL     1       9.262   9.927   3.558  1.00  0.00     0.029 A 
ATOM     28  N   UNL     1       8.282   9.235   1.684  1.00  0.00    -0.354 N 
ATOM     29  N   UNL     1       7.591   9.395  -1.204  1.00  0.00    -0.248 NA
ATOM     30  C   UNL     1       7.657  10.543  -3.240  1.00  0.00     0.031 C 
ATOM     31  C   UNL     1       9.483  10.882   2.557  1.00  0.00     0.029 A 
ATOM     32  C   UNL     1       8.898  10.439   1.381  1.00  0.00     0.049 A 
ATOM     33  H   UNL     1       7.777   8.684   1.044  1.00  0.00     0.167 HD
ATOM     34  C   UNL     1       8.311  10.573  -1.037  1.00  0.00     0.074 A 
ATOM     35  C   UNL     1       8.342  11.224  -2.333  1.00  0.00     0.031 C 
ATOM     36  C   UNL     1       8.905  11.068   0.080  1.00  0.00     0.034 A 
BRANCH  23  37
ATOM     37  C   UNL     1       8.166   7.531   5.150  1.00  0.00     0.023 A 
ATOM     38  C   UNL     1       8.845   6.386   5.609  1.00  0.00     0.031 A 
ATOM     39  C   UNL     1       7.624   8.402   6.109  1.00  0.00     0.131 A 
ATOM     40  C   UNL     1       8.878   6.091   6.980  1.00  0.00     0.055 A 
ATOM     41  C   UNL     1       7.731   8.145   7.478  1.00  0.00     0.041 A 
ATOM     42  F   UNL     1       6.947   9.498   5.731  1.00  0.00    -0.206 F 
ATOM     43  C   UNL     1       8.343   6.974   7.920  1.00  0.00     0.022 A 
BRANCH  40  44
ATOM     44  S   UNL     1       9.474   4.458   7.500  1.00  0.00     0.124 S 
ATOM     45  O   UNL     1       8.552   3.568   6.798  1.00  0.00    -0.237 OA
ATOM     46  O   UNL     1      10.851   4.456   7.021  1.00  0.00    -0.237 OA
ATOM     47  O   UNL     1       9.319   4.483   8.953  1.00  0.00    -0.744 OA
ENDBRANCH  40  44
ENDBRANCH  23  37
BRANCH  24  48
ATOM     48  C   UNL     1       6.153   8.449  -4.663  1.00  0.00     0.023 A 
ATOM     49  C   UNL     1       7.146   8.509  -5.653  1.00  0.00     0.031 A 
ATOM     50  C   UNL     1       4.811   8.580  -5.068  1.00  0.00     0.131 A 
ATOM     51  C   UNL     1       6.787   8.732  -6.993  1.00  0.00     0.055 A 
ATOM     52  C   UNL     1       4.457   8.763  -6.406  1.00  0.00     0.041 A 
ATOM     53  F   UNL     1       3.821   8.524  -4.163  1.00  0.00    -0.206 F 
ATOM     54  C   UNL     1       5.450   8.852  -7.377  1.00  0.00     0.022 A 
BRANCH  51  55
ATOM     55  S   UNL     1       8.103   8.930  -8.227  1.00  0.00     0.124 S 
ATOM     56  O   UNL     1       8.874  10.036  -7.670  1.00  0.00    -0.237 OA
ATOM     57  O   UNL     1       8.744   7.620  -8.194  1.00  0.00    -0.237 OA
ATOM     58  O   UNL     1       7.374   9.234  -9.456  1.00  0.00    -0.744 OA
ENDBRANCH  51  55
ENDBRANCH  24  48
BRANCH  36  59
ATOM     59  C   UNL     1       9.678  12.352  -0.078  1.00  0.00     0.023 A 
ATOM     60  C   UNL     1       9.034  13.572  -0.346  1.00  0.00     0.031 A 
ATOM     61  C   UNL     1      11.079  12.348   0.029  1.00  0.00     0.131 A 
ATOM     62  C   UNL     1       9.797  14.730  -0.553  1.00  0.00     0.055 A 
ATOM     63  C   UNL     1      11.829  13.515  -0.119  1.00  0.00     0.041 A 
ATOM     64  F   UNL     1      11.742  11.208   0.281  1.00  0.00    -0.206 F 
ATOM     65  C   UNL     1      11.189  14.713  -0.424  1.00  0.00     0.022 A 
BRANCH  62  66
ATOM     66  S   UNL     1       8.952  16.246  -1.078  1.00  0.00     0.124 S 
ATOM     67  O   UNL     1       8.344  15.831  -2.338  1.00  0.00    -0.237 OA
ATOM     68  O   UNL     1       8.029  16.488   0.026  1.00  0.00    -0.237 OA
ATOM     69  O   UNL     1      10.037  17.218  -1.203  1.00  0.00    -0.744 OA
ENDBRANCH  62  66
ENDBRANCH  36  59
ENDBRANCH  10  11
ENDBRANCH   3   5
ENDBRANCH   2   3
ENDBRANCH   1   2
BRANCH   1  70
ATOM     70  C   UNL     1       3.873  -1.119  -2.099  1.00  0.00     0.275 C 
BRANCH  70  71
ATOM     71  O   UNL     1       3.428   0.240  -2.193  1.00  0.00    -0.458 OA
BRANCH  71  72
ATOM     72  C   UNL     1       2.075   0.415  -2.092  1.00  0.00     0.339 C 
ATOM     73  O   UNL     1       1.262  -0.495  -1.992  1.00  0.00    -0.246 OA
BRANCH  72  74
ATOM     74  C   UNL     1       1.697   1.818  -2.017  1.00  0.00     0.071 A 
ATOM     75  C   UNL     1       2.270   2.829  -2.763  1.00  0.00     0.081 A 
ATOM     76  C   UNL     1       0.689   2.344  -1.140  1.00  0.00     0.036 A 
ATOM     77  S   UNL     1       1.602   4.364  -2.411  1.00  0.00    -0.143 S 
ATOM     78  C   UNL     1       0.579   3.720  -1.200  1.00  0.00     0.037 A 
BRANCH  78  79
ATOM     79  C   UNL     1      -0.242   4.607  -0.379  1.00  0.00     0.011 A 
ATOM     80  C   UNL     1      -0.155   4.592   1.008  1.00  0.00     0.121 A 
ATOM     81  C   UNL     1      -1.166   5.487  -0.939  1.00  0.00     0.021 A 
ATOM     82  N   UNL     1      -0.897   5.362   1.841  1.00  0.00    -0.256 NA
ATOM     83  C   UNL     1      -1.960   6.296  -0.112  1.00  0.00     0.001 A 
ATOM     84  C   UNL     1      -1.782   6.203   1.285  1.00  0.00     0.070 A 
ATOM     85  C   UNL     1      -2.917   7.175  -0.644  1.00  0.00     0.010 A 
ATOM     86  C   UNL     1      -2.564   7.006   2.104  1.00  0.00     0.029 A 
ATOM     87  C   UNL     1      -3.699   7.960   0.200  1.00  0.00     0.001 A 
ATOM     88  C   UNL     1      -3.520   7.878   1.577  1.00  0.00     0.002 A 
ENDBRANCH  78  79
ENDBRANCH  72  74
ENDBRANCH  71  72
ENDBRANCH  70  71
ENDBRANCH   1  70
TORSDOF 15
