REMARK SMILES O=C(OCCOC(=O)c1ccc(-c2c3nc(c(-c4cc(S(=O)(=O)[O-])ccc4F)c4ccc([nH]4)c(-c4cc(S(=O)(=O)[O-])ccc4F)c4nc(c(-c5cc(S(=O)(=O)[O-])ccc5F)c5ccc2[nH]5)C=C4)C=C3)cc1)c1ccc(N[C@H]2OC[C@@H](O)[C@@H](O)[C@H]2O)cc1
REMARK SMILES IDX 4 1 3 2 2 3 1 4 72 5 73 6 87 7 74 8 86 9 75 10 76 11 77 13
REMARK SMILES IDX 78 14 84 15 79 16 82 17 80 18 85 19 83 21 81 23 5 25 6 26
REMARK SMILES IDX 7 27 8 28 9 29 10 30 71 31 11 32 70 33 12 34 13 35 14 36
REMARK SMILES IDX 64 37 15 38 69 39 63 40 65 41 16 42 68 43 62 44 61 45 17 47
REMARK SMILES IDX 49 48 29 49 48 50 30 51 33 52 47 53 66 54 31 55 32 56 46 58
REMARK SMILES IDX 67 59 34 60 18 61 19 62 27 63 20 64 26 65 28 66 25 67 21 68
REMARK SMILES IDX 22 69 23 70 24 71 50 72 51 73 59 74 52 75 58 76 60 77 57 78
REMARK SMILES IDX 53 79 54 80 55 81 56 82 35 83 36 84 44 85 37 86 43 87 45 88
REMARK SMILES IDX 42 89 38 90 39 91 40 92 41 93
REMARK H PARENT 76 12 85 20 83 22 81 24 65 46 33 57
REMARK Flexibility Score: inf
ROOT
ATOM      1  C   UNL     1       0.704   5.989  -8.034  1.00  0.00     0.275 C 
ENDROOT
BRANCH   1   2
ATOM      2  O   UNL     1       1.642   6.904  -8.624  1.00  0.00    -0.458 OA
BRANCH   2   3
ATOM      3  C   UNL     1       2.801   7.401  -8.130  1.00  0.00     0.338 C 
ATOM      4  O   UNL     1       3.261   8.411  -8.662  1.00  0.00    -0.246 OA
BRANCH   3   5
ATOM      5  C   UNL     1       3.620   6.747  -7.050  1.00  0.00     0.060 A 
ATOM      6  C   UNL     1       3.240   5.685  -6.233  1.00  0.00     0.018 A 
ATOM      7  C   UNL     1       4.930   7.223  -6.884  1.00  0.00     0.018 A 
ATOM      8  C   UNL     1       4.164   5.026  -5.409  1.00  0.00     0.026 A 
ATOM      9  C   UNL     1       5.835   6.587  -6.021  1.00  0.00     0.026 A 
ATOM     10  C   UNL     1       5.498   5.413  -5.350  1.00  0.00     0.036 A 
BRANCH  10  11
ATOM     11  N   UNL     1       6.471   4.700  -4.675  1.00  0.00    -0.358 N 
ATOM     12  H   UNL     1       7.378   5.080  -4.630  1.00  0.00     0.163 HD
BRANCH  11  13
ATOM     13  C   UNL     1       6.231   3.422  -4.029  1.00  0.00     0.244 C 
ATOM     14  O   UNL     1       5.746   2.469  -4.980  1.00  0.00    -0.353 OA
ATOM     15  C   UNL     1       7.516   2.863  -3.377  1.00  0.00     0.195 C 
ATOM     16  C   UNL     1       5.342   1.234  -4.378  1.00  0.00     0.197 C 
ATOM     17  C   UNL     1       7.101   1.597  -2.611  1.00  0.00     0.178 C 
ATOM     18  C   UNL     1       6.461   0.573  -3.565  1.00  0.00     0.171 C 
BRANCH  15  19
ATOM     19  O   UNL     1       8.500   2.478  -4.362  1.00  0.00    -0.386 OA
ATOM     20  H   UNL     1       8.127   1.796  -4.941  1.00  0.00     0.211 HD
ENDBRANCH  15  19
BRANCH  17  21
ATOM     21  O   UNL     1       8.222   1.020  -1.941  1.00  0.00    -0.387 OA
ATOM     22  H   UNL     1       8.891   0.762  -2.594  1.00  0.00     0.211 HD
ENDBRANCH  17  21
BRANCH  18  23
ATOM     23  O   UNL     1       7.438   0.024  -4.459  1.00  0.00    -0.388 OA
ATOM     24  H   UNL     1       7.815   0.734  -5.001  1.00  0.00     0.211 HD
ENDBRANCH  18  23
ENDBRANCH  11  13
ENDBRANCH  10  11
ENDBRANCH   3   5
ENDBRANCH   2   3
ENDBRANCH   1   2
BRANCH   1  25
ATOM     25  C   UNL     1       0.872   4.551  -8.542  1.00  0.00     0.275 C 
BRANCH  25  26
ATOM     26  O   UNL     1       2.233   4.091  -8.469  1.00  0.00    -0.458 OA
BRANCH  26  27
ATOM     27  C   UNL     1       2.957   4.230  -9.616  1.00  0.00     0.338 C 
ATOM     28  O   UNL     1       2.520   4.581 -10.693  1.00  0.00    -0.246 OA
BRANCH  27  29
ATOM     29  C   UNL     1       4.407   4.023  -9.349  1.00  0.00     0.060 A 
ATOM     30  C   UNL     1       5.322   4.813 -10.058  1.00  0.00     0.016 A 
ATOM     31  C   UNL     1       4.880   3.086  -8.428  1.00  0.00     0.016 A 
ATOM     32  C   UNL     1       6.701   4.671  -9.847  1.00  0.00     0.010 A 
ATOM     33  C   UNL     1       6.262   2.950  -8.216  1.00  0.00     0.010 A 
ATOM     34  C   UNL     1       7.188   3.738  -8.922  1.00  0.00    -0.014 A 
BRANCH  34  35
ATOM     35  C   UNL     1       8.653   3.557  -8.696  1.00  0.00     0.031 A 
ATOM     36  C   UNL     1       9.355   2.340  -9.230  1.00  0.00     0.074 A 
ATOM     37  C   UNL     1       9.364   4.453  -7.982  1.00  0.00     0.049 A 
ATOM     38  N   UNL     1      10.609   1.991  -9.093  1.00  0.00    -0.248 NA
ATOM     39  C   UNL     1       8.552   1.412 -10.037  1.00  0.00     0.031 C 
ATOM     40  C   UNL     1       8.847   5.718  -7.477  1.00  0.00     0.029 A 
ATOM     41  N   UNL     1      10.665   4.432  -7.536  1.00  0.00    -0.354 N 
ATOM     42  C   UNL     1      10.755   0.813  -9.815  1.00  0.00     0.074 A 
ATOM     43  C   UNL     1       9.448   0.484 -10.346  1.00  0.00     0.031 C 
ATOM     44  C   UNL     1       9.785   6.317  -6.725  1.00  0.00     0.029 A 
ATOM     45  C   UNL     1      10.983   5.482  -6.703  1.00  0.00     0.049 A 
ATOM     46  H   UNL     1      11.309   3.732  -7.788  1.00  0.00     0.167 HD
ATOM     47  C   UNL     1      11.879   0.088 -10.036  1.00  0.00     0.034 A 
ATOM     48  C   UNL     1      12.100   5.742  -5.991  1.00  0.00     0.034 A 
ATOM     49  C   UNL     1      13.181   0.413  -9.508  1.00  0.00     0.049 A 
ATOM     50  C   UNL     1      13.297   4.832  -6.133  1.00  0.00     0.074 A 
ATOM     51  C   UNL     1      14.389  -0.219  -9.756  1.00  0.00     0.029 A 
ATOM     52  N   UNL     1      13.447   1.430  -8.604  1.00  0.00    -0.354 N 
ATOM     53  N   UNL     1      13.437   3.773  -6.896  1.00  0.00    -0.248 NA
ATOM     54  C   UNL     1      14.492   5.165  -5.343  1.00  0.00     0.031 C 
ATOM     55  C   UNL     1      15.365   0.358  -8.937  1.00  0.00     0.029 A 
ATOM     56  C   UNL     1      14.785   1.400  -8.234  1.00  0.00     0.049 A 
ATOM     57  H   UNL     1      12.785   2.078  -8.273  1.00  0.00     0.167 HD
ATOM     58  C   UNL     1      14.751   3.347  -6.712  1.00  0.00     0.074 A 
ATOM     59  C   UNL     1      15.361   4.261  -5.771  1.00  0.00     0.031 C 
ATOM     60  C   UNL     1      15.396   2.300  -7.285  1.00  0.00     0.034 A 
BRANCH  47  61
ATOM     61  C   UNL     1      11.750  -1.159 -10.869  1.00  0.00     0.023 A 
ATOM     62  C   UNL     1      11.473  -1.103 -12.245  1.00  0.00     0.031 A 
ATOM     63  C   UNL     1      11.941  -2.421 -10.279  1.00  0.00     0.131 A 
ATOM     64  C   UNL     1      11.356  -2.291 -12.980  1.00  0.00     0.055 A 
ATOM     65  C   UNL     1      11.882  -3.596 -11.028  1.00  0.00     0.041 A 
ATOM     66  F   UNL     1      12.192  -2.528  -8.965  1.00  0.00    -0.206 F 
ATOM     67  C   UNL     1      11.581  -3.536 -12.385  1.00  0.00     0.022 A 
BRANCH  64  68
ATOM     68  S   UNL     1      10.820  -2.195 -14.710  1.00  0.00     0.124 S 
ATOM     69  O   UNL     1       9.505  -1.573 -14.579  1.00  0.00    -0.237 OA
ATOM     70  O   UNL     1      11.859  -1.370 -15.317  1.00  0.00    -0.237 OA
ATOM     71  O   UNL     1      10.802  -3.591 -15.141  1.00  0.00    -0.744 OA
ENDBRANCH  64  68
ENDBRANCH  47  61
BRANCH  48  72
ATOM     72  C   UNL     1      12.143   6.883  -5.029  1.00  0.00     0.023 A 
ATOM     73  C   UNL     1      13.068   7.928  -5.177  1.00  0.00     0.031 A 
ATOM     74  C   UNL     1      11.331   6.877  -3.880  1.00  0.00     0.131 A 
ATOM     75  C   UNL     1      13.213   8.881  -4.156  1.00  0.00     0.055 A 
ATOM     76  C   UNL     1      11.441   7.858  -2.893  1.00  0.00     0.041 A 
ATOM     77  F   UNL     1      10.421   5.904  -3.696  1.00  0.00    -0.206 F 
ATOM     78  C   UNL     1      12.402   8.857  -3.019  1.00  0.00     0.022 A 
BRANCH  75  79
ATOM     79  S   UNL     1      14.569  10.081  -4.277  1.00  0.00     0.124 S 
ATOM     80  O   UNL     1      15.723   9.206  -4.451  1.00  0.00    -0.237 OA
ATOM     81  O   UNL     1      14.174  10.863  -5.443  1.00  0.00    -0.237 OA
ATOM     82  O   UNL     1      14.509  10.790  -3.001  1.00  0.00    -0.744 OA
ENDBRANCH  75  79
ENDBRANCH  48  72
BRANCH  60  83
ATOM     83  C   UNL     1      16.852   2.107  -6.939  1.00  0.00     0.023 A 
ATOM     84  C   UNL     1      17.264   1.736  -5.647  1.00  0.00     0.031 A 
ATOM     85  C   UNL     1      17.845   2.298  -7.918  1.00  0.00     0.131 A 
ATOM     86  C   UNL     1      18.631   1.610  -5.356  1.00  0.00     0.055 A 
ATOM     87  C   UNL     1      19.201   2.115  -7.638  1.00  0.00     0.041 A 
ATOM     88  F   UNL     1      17.512   2.658  -9.168  1.00  0.00    -0.206 F 
ATOM     89  C   UNL     1      19.601   1.779  -6.348  1.00  0.00     0.022 A 
BRANCH  86  90
ATOM     90  S   UNL     1      19.134   1.287  -3.643  1.00  0.00     0.124 S 
ATOM     91  O   UNL     1      18.626   2.467  -2.951  1.00  0.00    -0.237 OA
ATOM     92  O   UNL     1      18.452   0.032  -3.347  1.00  0.00    -0.237 OA
ATOM     93  O   UNL     1      20.591   1.195  -3.724  1.00  0.00    -0.744 OA
ENDBRANCH  86  90
ENDBRANCH  60  83
ENDBRANCH  34  35
ENDBRANCH  27  29
ENDBRANCH  26  27
ENDBRANCH  25  26
ENDBRANCH   1  25
TORSDOF 19
