REMARK SMILES COc1ccc(N2C(=O)/C(=C/c3c(C(=O)OCCOC(=O)c4ccc(-c5c6nc(c(-c7cc(S(=O)(=O)[O-])ccc7F)c7ccc([nH]7)c(-c7cc(S(=O)(=O)[O-])ccc7F)c7nc(c(-c8cc(S(=O)(=O)[O-])ccc8F)c8ccc5[nH]8)C=C7)C=C6)cc4)[nH]c4cc(OC)ccc34)SC2=S)cc1
REMARK SMILES IDX 17 1 16 2 14 3 15 4 13 5 12 6 93 7 85 8 86 9 92 10 87 12
REMARK SMILES IDX 91 13 88 14 11 15 7 16 8 17 95 18 9 19 10 20 94 21 96 22
REMARK SMILES IDX 6 23 3 24 4 25 98 26 5 27 97 28 2 29 1 30 89 31 90 32 18 33
REMARK SMILES IDX 19 34 20 35 21 36 22 37 23 38 84 39 24 40 83 41 25 42 26 43
REMARK SMILES IDX 27 44 77 45 28 46 82 47 76 48 78 49 29 50 81 51 75 52 74 53
REMARK SMILES IDX 30 55 62 56 42 57 61 58 43 59 46 60 60 61 79 62 44 63 45 64
REMARK SMILES IDX 59 66 80 67 47 68 31 69 32 70 40 71 33 72 39 73 41 74 38 75
REMARK SMILES IDX 34 76 35 77 36 78 37 79 63 80 64 81 72 82 65 83 71 84 73 85
REMARK SMILES IDX 70 86 66 87 67 88 68 89 69 90 48 91 49 92 57 93 50 94 56 95
REMARK SMILES IDX 58 96 55 97 51 98 52 99 53 100 54 101
REMARK H PARENT 85 11 78 54 46 65
REMARK Flexibility Score: inf
ROOT
ATOM      1  C   UNL     1       3.474  -6.807   5.059  1.00  0.00     0.275 C 
ENDROOT
BRANCH   1   2
ATOM      2  O   UNL     1       2.888  -8.029   4.564  1.00  0.00    -0.457 OA
BRANCH   2   3
ATOM      3  C   UNL     1       3.788  -9.007   4.279  1.00  0.00     0.355 C 
ATOM      4  O   UNL     1       5.004  -8.867   4.345  1.00  0.00    -0.244 OA
BRANCH   3   5
ATOM      5  C   UNL     1       3.148 -10.248   3.929  1.00  0.00     0.133 A 
ATOM      6  C   UNL     1       2.394 -10.653   2.831  1.00  0.00     0.016 A 
ATOM      7  C   UNL     1       2.340 -12.096   2.857  1.00  0.00     0.008 A 
ATOM      8  N   UNL     1       3.236 -11.345   4.742  1.00  0.00    -0.348 N 
ATOM      9  C   UNL     1       2.891 -12.482   4.076  1.00  0.00     0.050 A 
ATOM     10  C   UNL     1       1.889 -13.139   2.014  1.00  0.00     0.015 A 
ATOM     11  H   UNL     1       3.511 -11.317   5.687  1.00  0.00     0.167 HD
ATOM     12  C   UNL     1       3.010 -13.803   4.510  1.00  0.00     0.073 A 
ATOM     13  C   UNL     1       2.042 -14.492   2.418  1.00  0.00     0.047 A 
ATOM     14  C   UNL     1       2.590 -14.818   3.658  1.00  0.00     0.120 A 
BRANCH   6  15
ATOM     15  C   UNL     1       1.732  -9.713   1.970  1.00  0.00     0.032 C 
ATOM     16  N   UNL     1       2.322  -6.277   1.178  1.00  0.00    -0.261 N 
ATOM     17  C   UNL     1       1.476  -7.397   1.160  1.00  0.00     0.270 C 
ATOM     18  C   UNL     1       3.685  -6.569   1.250  1.00  0.00     0.152 C 
ATOM     19  O   UNL     1       0.259  -7.423   1.030  1.00  0.00    -0.268 OA
ATOM     20  C   UNL     1       2.280  -8.639   1.375  1.00  0.00     0.081 C 
ATOM     21  S   UNL     1       3.933  -8.306   1.092  1.00  0.00    -0.054 SA
ATOM     22  S   UNL     1       5.004  -5.584   1.574  1.00  0.00    -0.051 S 
BRANCH  16  23
ATOM     23  C   UNL     1       1.775  -4.942   1.164  1.00  0.00     0.051 A 
ATOM     24  C   UNL     1       0.718  -2.296   1.148  1.00  0.00     0.119 A 
ATOM     25  C   UNL     1       0.037  -3.333   1.782  1.00  0.00     0.048 A 
ATOM     26  C   UNL     1       1.931  -2.575   0.532  1.00  0.00     0.048 A 
ATOM     27  C   UNL     1       0.552  -4.641   1.785  1.00  0.00     0.030 A 
ATOM     28  C   UNL     1       2.439  -3.882   0.527  1.00  0.00     0.030 A 
BRANCH  24  29
ATOM     29  O   UNL     1       0.114  -1.070   1.196  1.00  0.00    -0.497 OA
ATOM     30  C   UNL     1       0.614  -0.087   0.295  1.00  0.00     0.278 C 
ENDBRANCH  24  29
ENDBRANCH  16  23
ENDBRANCH   6  15
BRANCH  14  31
ATOM     31  O   UNL     1       2.752 -16.061   4.197  1.00  0.00    -0.497 OA
ATOM     32  C   UNL     1       2.661 -17.185   3.340  1.00  0.00     0.278 C 
ENDBRANCH  14  31
ENDBRANCH   3   5
ENDBRANCH   2   3
ENDBRANCH   1   2
BRANCH   1  33
ATOM     33  C   UNL     1       3.427  -6.724   6.588  1.00  0.00     0.275 C 
BRANCH  33  34
ATOM     34  O   UNL     1       4.377  -7.619   7.200  1.00  0.00    -0.458 OA
BRANCH  34  35
ATOM     35  C   UNL     1       3.867  -8.816   7.557  1.00  0.00     0.338 C 
ATOM     36  O   UNL     1       2.713  -9.192   7.422  1.00  0.00    -0.246 OA
BRANCH  35  37
ATOM     37  C   UNL     1       4.920  -9.742   7.994  1.00  0.00     0.060 A 
ATOM     38  C   UNL     1       5.438 -10.599   7.031  1.00  0.00     0.016 A 
ATOM     39  C   UNL     1       5.173  -9.975   9.343  1.00  0.00     0.016 A 
ATOM     40  C   UNL     1       6.027 -11.792   7.403  1.00  0.00     0.010 A 
ATOM     41  C   UNL     1       5.927 -11.099   9.709  1.00  0.00     0.010 A 
ATOM     42  C   UNL     1       6.311 -12.052   8.746  1.00  0.00    -0.014 A 
BRANCH  42  43
ATOM     43  C   UNL     1       6.953 -13.345   9.110  1.00  0.00     0.031 A 
ATOM     44  C   UNL     1       6.289 -14.262  10.103  1.00  0.00     0.074 A 
ATOM     45  C   UNL     1       8.093 -13.727   8.496  1.00  0.00     0.049 A 
ATOM     46  N   UNL     1       6.764 -15.327  10.694  1.00  0.00    -0.248 NA
ATOM     47  C   UNL     1       4.917 -13.917  10.505  1.00  0.00     0.031 C 
ATOM     48  C   UNL     1       8.797 -12.960   7.462  1.00  0.00     0.029 A 
ATOM     49  N   UNL     1       8.847 -14.866   8.621  1.00  0.00    -0.354 N 
ATOM     50  C   UNL     1       5.784 -15.732  11.597  1.00  0.00     0.074 A 
ATOM     51  C   UNL     1       4.688 -14.795  11.471  1.00  0.00     0.031 C 
ATOM     52  C   UNL     1       9.827 -13.680   6.998  1.00  0.00     0.029 A 
ATOM     53  C   UNL     1       9.942 -14.896   7.788  1.00  0.00     0.049 A 
ATOM     54  H   UNL     1       8.626 -15.592   9.248  1.00  0.00     0.167 HD
ATOM     55  C   UNL     1       5.812 -16.783  12.454  1.00  0.00     0.034 A 
ATOM     56  C   UNL     1      10.960 -15.773   7.707  1.00  0.00     0.034 A 
ATOM     57  C   UNL     1       6.900 -17.734  12.504  1.00  0.00     0.049 A 
ATOM     58  C   UNL     1      10.975 -16.925   8.671  1.00  0.00     0.074 A 
ATOM     59  C   UNL     1       7.055 -18.833  13.331  1.00  0.00     0.029 A 
ATOM     60  N   UNL     1       8.014 -17.707  11.671  1.00  0.00    -0.354 N 
ATOM     61  N   UNL     1      10.100 -17.232   9.602  1.00  0.00    -0.248 NA
ATOM     62  C   UNL     1      12.123 -17.834   8.592  1.00  0.00     0.031 C 
ATOM     63  C   UNL     1       8.282 -19.438  13.032  1.00  0.00     0.029 A 
ATOM     64  C   UNL     1       8.866 -18.758  11.974  1.00  0.00     0.049 A 
ATOM     65  H   UNL     1       8.175 -17.038  10.967  1.00  0.00     0.167 HD
ATOM     66  C   UNL     1      10.598 -18.368  10.228  1.00  0.00     0.074 A 
ATOM     67  C   UNL     1      11.827 -18.713   9.537  1.00  0.00     0.031 C 
ATOM     68  C   UNL     1      10.100 -19.057  11.286  1.00  0.00     0.034 A 
BRANCH  55  69
ATOM     69  C   UNL     1       4.681 -16.899  13.451  1.00  0.00     0.023 A 
ATOM     70  C   UNL     1       3.348 -17.119  13.061  1.00  0.00     0.031 A 
ATOM     71  C   UNL     1       4.940 -16.722  14.823  1.00  0.00     0.131 A 
ATOM     72  C   UNL     1       2.321 -17.073  14.019  1.00  0.00     0.055 A 
ATOM     73  C   UNL     1       3.924 -16.762  15.781  1.00  0.00     0.041 A 
ATOM     74  F   UNL     1       6.188 -16.485  15.258  1.00  0.00    -0.206 F 
ATOM     75  C   UNL     1       2.602 -16.921  15.379  1.00  0.00     0.022 A 
BRANCH  72  76
ATOM     76  S   UNL     1       0.598 -17.060  13.448  1.00  0.00     0.124 S 
ATOM     77  O   UNL     1       0.576 -15.863  12.611  1.00  0.00    -0.237 OA
ATOM     78  O   UNL     1       0.487 -18.334  12.748  1.00  0.00    -0.237 OA
ATOM     79  O   UNL     1      -0.174 -16.959  14.686  1.00  0.00    -0.744 OA
ENDBRANCH  72  76
ENDBRANCH  55  69
BRANCH  56  80
ATOM     80  C   UNL     1      12.081 -15.543   6.748  1.00  0.00     0.023 A 
ATOM     81  C   UNL     1      12.350 -16.448   5.710  1.00  0.00     0.031 A 
ATOM     82  C   UNL     1      12.910 -14.411   6.866  1.00  0.00     0.131 A 
ATOM     83  C   UNL     1      13.433 -16.217   4.845  1.00  0.00     0.055 A 
ATOM     84  C   UNL     1      13.948 -14.157   5.969  1.00  0.00     0.041 A 
ATOM     85  F   UNL     1      12.701 -13.514   7.843  1.00  0.00    -0.206 F 
ATOM     86  C   UNL     1      14.221 -15.069   4.956  1.00  0.00     0.022 A 
BRANCH  83  87
ATOM     87  S   UNL     1      13.843 -17.477   3.607  1.00  0.00     0.124 S 
ATOM     88  O   UNL     1      14.072 -18.652   4.440  1.00  0.00    -0.237 OA
ATOM     89  O   UNL     1      12.638 -17.499   2.784  1.00  0.00    -0.237 OA
ATOM     90  O   UNL     1      15.032 -16.937   2.951  1.00  0.00    -0.744 OA
ENDBRANCH  83  87
ENDBRANCH  56  80
BRANCH  68  91
ATOM     91  C   UNL     1      10.898 -20.255  11.730  1.00  0.00     0.023 A 
ATOM     92  C   UNL     1      12.169 -20.109  12.312  1.00  0.00     0.031 A 
ATOM     93  C   UNL     1      10.408 -21.554  11.516  1.00  0.00     0.131 A 
ATOM     94  C   UNL     1      12.940 -21.245  12.595  1.00  0.00     0.055 A 
ATOM     95  C   UNL     1      11.154 -22.682  11.858  1.00  0.00     0.041 A 
ATOM     96  F   UNL     1       9.201 -21.747  10.960  1.00  0.00    -0.206 F 
ATOM     97  C   UNL     1      12.435 -22.531  12.385  1.00  0.00     0.022 A 
BRANCH  94  98
ATOM     98  S   UNL     1      14.656 -21.016  13.135  1.00  0.00     0.124 S 
ATOM     99  O   UNL     1      15.221 -20.245  12.032  1.00  0.00    -0.237 OA
ATOM    100  O   UNL     1      14.493 -20.301  14.396  1.00  0.00    -0.237 OA
ATOM    101  O   UNL     1      15.161 -22.383  13.258  1.00  0.00    -0.744 OA
ENDBRANCH  94  98
ENDBRANCH  68  91
ENDBRANCH  42  43
ENDBRANCH  35  37
ENDBRANCH  34  35
ENDBRANCH  33  34
ENDBRANCH   1  33
TORSDOF 18
