REMARK SMILES COCCOc1ccc(C(=O)OCCOC(=O)c2ccc(-c3c4nc(c(-c5cc(S(=O)(=O)[O-])ccc5F)c5ccc([nH]5)c(-c5cc(S(=O)(=O)[O-])ccc5F)c5nc(c(-c6cc(S(=O)(=O)[O-])ccc6F)c6ccc3[nH]6)C=C5)C=C4)cc2)cc1Br
REMARK SMILES IDX 13 1 12 2 10 3 11 4 9 5 6 6 7 7 82 8 8 9 81 10 83 11 5 12
REMARK SMILES IDX 4 13 3 14 2 15 1 16 14 17 15 18 16 19 17 20 18 21 19 22
REMARK SMILES IDX 80 23 20 24 79 25 21 26 22 27 23 28 73 29 24 30 78 31 72 32
REMARK SMILES IDX 74 33 25 34 77 35 71 36 70 37 26 39 58 40 38 41 57 42 39 43
REMARK SMILES IDX 42 44 56 45 75 46 40 47 41 48 55 50 76 51 43 52 27 53 28 54
REMARK SMILES IDX 36 55 29 56 35 57 37 58 34 59 30 60 31 61 32 62 33 63 59 64
REMARK SMILES IDX 60 65 68 66 61 67 67 68 69 69 66 70 62 71 63 72 64 73 65 74
REMARK SMILES IDX 44 75 45 76 53 77 46 78 52 79 54 80 51 81 47 82 48 83 49 84
REMARK SMILES IDX 50 85
REMARK H PARENT 74 38 42 49
REMARK Flexibility Score: inf
ROOT
ATOM      1  C   UNL     1      -0.004  -4.654  -3.580  1.00  0.00     0.275 C 
ENDROOT
BRANCH   1   2
ATOM      2  O   UNL     1       0.211  -3.561  -2.663  1.00  0.00    -0.458 OA
BRANCH   2   3
ATOM      3  C   UNL     1      -0.628  -3.531  -1.601  1.00  0.00     0.338 C 
ATOM      4  O   UNL     1      -1.520  -4.322  -1.349  1.00  0.00    -0.246 OA
BRANCH   3   5
ATOM      5  C   UNL     1      -0.353  -2.361  -0.747  1.00  0.00     0.061 A 
ATOM      6  C   UNL     1      -0.217  -0.159   1.014  1.00  0.00     0.133 A 
ATOM      7  C   UNL     1       0.186  -1.442   1.414  1.00  0.00     0.048 A 
ATOM      8  C   UNL     1      -0.707   0.003  -0.291  1.00  0.00     0.060 A 
ATOM      9  C   UNL     1       0.132  -2.527   0.545  1.00  0.00     0.019 A 
ATOM     10  C   UNL     1      -0.759  -1.098  -1.170  1.00  0.00     0.035 A 
ATOM     11  Br  UNL     1      -1.447   1.591  -1.029  1.00  0.00    -0.047 Br
BRANCH   6  12
ATOM     12  O   UNL     1      -0.048   0.718   2.044  1.00  0.00    -0.490 OA
BRANCH  12  13
ATOM     13  C   UNL     1       0.053   2.121   1.865  1.00  0.00     0.258 C 
BRANCH  13  14
ATOM     14  C   UNL     1       1.405   2.602   1.324  1.00  0.00     0.201 C 
BRANCH  14  15
ATOM     15  O   UNL     1       1.698   2.100   0.020  1.00  0.00    -0.381 OA
ATOM     16  C   UNL     1       2.710   1.098   0.037  1.00  0.00     0.195 C 
ENDBRANCH  14  15
ENDBRANCH  13  14
ENDBRANCH  12  13
ENDBRANCH   6  12
ENDBRANCH   3   5
ENDBRANCH   2   3
ENDBRANCH   1   2
BRANCH   1  17
ATOM     17  C   UNL     1       1.006  -5.787  -3.379  1.00  0.00     0.275 C 
BRANCH  17  18
ATOM     18  O   UNL     1       0.787  -6.466  -2.128  1.00  0.00    -0.458 OA
BRANCH  18  19
ATOM     19  C   UNL     1       1.639  -6.107  -1.142  1.00  0.00     0.338 C 
ATOM     20  O   UNL     1       2.564  -5.314  -1.222  1.00  0.00    -0.246 OA
BRANCH  19  21
ATOM     21  C   UNL     1       1.254  -6.716   0.138  1.00  0.00     0.060 A 
ATOM     22  C   UNL     1       0.306  -6.045   0.898  1.00  0.00     0.016 A 
ATOM     23  C   UNL     1       2.000  -7.743   0.709  1.00  0.00     0.016 A 
ATOM     24  C   UNL     1       0.245  -6.247   2.269  1.00  0.00     0.010 A 
ATOM     25  C   UNL     1       1.800  -8.069   2.059  1.00  0.00     0.010 A 
ATOM     26  C   UNL     1       0.964  -7.283   2.877  1.00  0.00    -0.014 A 
BRANCH  26  27
ATOM     27  C   UNL     1       0.856  -7.498   4.355  1.00  0.00     0.031 A 
ATOM     28  C   UNL     1       2.098  -7.578   5.213  1.00  0.00     0.074 A 
ATOM     29  C   UNL     1      -0.356  -7.577   4.948  1.00  0.00     0.049 A 
ATOM     30  N   UNL     1       2.220  -7.940   6.466  1.00  0.00    -0.248 NA
ATOM     31  C   UNL     1       3.373  -7.225   4.571  1.00  0.00     0.031 C 
ATOM     32  C   UNL     1      -1.647  -7.455   4.262  1.00  0.00     0.029 A 
ATOM     33  N   UNL     1      -0.709  -7.761   6.263  1.00  0.00    -0.354 N 
ATOM     34  C   UNL     1       3.585  -7.922   6.742  1.00  0.00     0.074 A 
ATOM     35  C   UNL     1       4.250  -7.530   5.516  1.00  0.00     0.031 C 
ATOM     36  C   UNL     1      -2.636  -7.494   5.163  1.00  0.00     0.029 A 
ATOM     37  C   UNL     1      -2.071  -7.792   6.470  1.00  0.00     0.049 A 
ATOM     38  H   UNL     1      -0.051  -7.861   6.989  1.00  0.00     0.167 HD
ATOM     39  C   UNL     1       4.221  -8.207   7.907  1.00  0.00     0.034 A 
ATOM     40  C   UNL     1      -2.797  -8.092   7.565  1.00  0.00     0.034 A 
ATOM     41  C   UNL     1       3.534  -8.548   9.133  1.00  0.00     0.049 A 
ATOM     42  C   UNL     1      -2.070  -8.474   8.825  1.00  0.00     0.074 A 
ATOM     43  C   UNL     1       4.077  -8.844  10.372  1.00  0.00     0.029 A 
ATOM     44  N   UNL     1       2.154  -8.630   9.279  1.00  0.00    -0.354 N 
ATOM     45  N   UNL     1      -0.777  -8.528   9.049  1.00  0.00    -0.248 NA
ATOM     46  C   UNL     1      -2.900  -8.850   9.975  1.00  0.00     0.031 C 
ATOM     47  C   UNL     1       3.034  -9.178  11.242  1.00  0.00     0.029 A 
ATOM     48  C   UNL     1       1.832  -9.003  10.576  1.00  0.00     0.049 A 
ATOM     49  H   UNL     1       1.500  -8.450   8.565  1.00  0.00     0.167 HD
ATOM     50  C   UNL     1      -0.641  -8.927  10.375  1.00  0.00     0.074 A 
ATOM     51  C   UNL     1      -1.983  -9.069  10.904  1.00  0.00     0.031 C 
ATOM     52  C   UNL     1       0.490  -9.157  11.089  1.00  0.00     0.034 A 
BRANCH  39  53
ATOM     53  C   UNL     1       5.734  -8.229   7.895  1.00  0.00     0.023 A 
ATOM     54  C   UNL     1       6.504  -7.085   7.623  1.00  0.00     0.031 A 
ATOM     55  C   UNL     1       6.420  -9.435   8.136  1.00  0.00     0.131 A 
ATOM     56  C   UNL     1       7.901  -7.186   7.521  1.00  0.00     0.055 A 
ATOM     57  C   UNL     1       7.815  -9.510   8.121  1.00  0.00     0.041 A 
ATOM     58  F   UNL     1       5.744 -10.569   8.381  1.00  0.00    -0.206 F 
ATOM     59  C   UNL     1       8.564  -8.385   7.795  1.00  0.00     0.022 A 
BRANCH  56  60
ATOM     60  S   UNL     1       8.829  -5.769   6.871  1.00  0.00     0.124 S 
ATOM     61  O   UNL     1       8.201  -5.579   5.566  1.00  0.00    -0.237 OA
ATOM     62  O   UNL     1       8.564  -4.735   7.865  1.00  0.00    -0.237 OA
ATOM     63  O   UNL     1      10.208  -6.253   6.825  1.00  0.00    -0.744 OA
ENDBRANCH  56  60
ENDBRANCH  39  53
BRANCH  40  64
ATOM     64  C   UNL     1      -4.288  -8.134   7.497  1.00  0.00     0.023 A 
ATOM     65  C   UNL     1      -5.077  -7.300   8.304  1.00  0.00     0.031 A 
ATOM     66  C   UNL     1      -4.950  -9.043   6.649  1.00  0.00     0.131 A 
ATOM     67  C   UNL     1      -6.476  -7.421   8.278  1.00  0.00     0.055 A 
ATOM     68  C   UNL     1      -6.342  -9.109   6.574  1.00  0.00     0.041 A 
ATOM     69  F   UNL     1      -4.249  -9.874   5.860  1.00  0.00    -0.206 F 
ATOM     70  C   UNL     1      -7.114  -8.304   7.404  1.00  0.00     0.022 A 
BRANCH  67  71
ATOM     71  S   UNL     1      -7.451  -6.476   9.481  1.00  0.00     0.124 S 
ATOM     72  O   UNL     1      -6.891  -6.940  10.745  1.00  0.00    -0.237 OA
ATOM     73  O   UNL     1      -7.142  -5.100   9.108  1.00  0.00    -0.237 OA
ATOM     74  O   UNL     1      -8.824  -6.900   9.213  1.00  0.00    -0.744 OA
ENDBRANCH  67  71
ENDBRANCH  40  64
BRANCH  52  75
ATOM     75  C   UNL     1       0.311  -9.539  12.539  1.00  0.00     0.023 A 
ATOM     76  C   UNL     1      -0.310 -10.743  12.916  1.00  0.00     0.031 A 
ATOM     77  C   UNL     1       0.732  -8.666  13.558  1.00  0.00     0.131 A 
ATOM     78  C   UNL     1      -0.558 -11.007  14.271  1.00  0.00     0.055 A 
ATOM     79  C   UNL     1       0.550  -8.969  14.907  1.00  0.00     0.041 A 
ATOM     80  F   UNL     1       1.325  -7.499  13.257  1.00  0.00    -0.206 F 
ATOM     81  C   UNL     1      -0.114 -10.137  15.270  1.00  0.00     0.022 A 
BRANCH  78  82
ATOM     82  S   UNL     1      -1.577 -12.443  14.705  1.00  0.00     0.124 S 
ATOM     83  O   UNL     1      -2.810 -12.171  13.973  1.00  0.00    -0.237 OA
ATOM     84  O   UNL     1      -0.774 -13.557  14.211  1.00  0.00    -0.237 OA
ATOM     85  O   UNL     1      -1.688 -12.357  16.160  1.00  0.00    -0.744 OA
ENDBRANCH  78  82
ENDBRANCH  52  75
ENDBRANCH  26  27
ENDBRANCH  19  21
ENDBRANCH  18  19
ENDBRANCH  17  18
ENDBRANCH   1  17
TORSDOF 18
