REMARK SMILES C[C@@H](C(=O)OCCOC(=O)c1ccc(-c2c3nc(c(-c4cc(S(=O)(=O)[O-])ccc4F)c4ccc([nH]4)c(-c4cc(S(=O)(=O)[O-])ccc4F)c4nc(c(-c5cc(S(=O)(=O)[O-])ccc5F)c5ccc2[nH]5)C=C4)C=C3)cc1)c1ccc(C[C@H]2CCC[C@H]2O)cc1-c1ccc(O)cc1
REMARK SMILES IDX 6 1 5 2 3 3 4 4 2 5 1 6 74 7 75 8 86 9 76 10 85 11 77 12
REMARK SMILES IDX 87 13 88 14 93 15 89 16 92 17 90 18 91 19 78 21 79 22 80 23
REMARK SMILES IDX 83 24 81 25 82 26 84 27 7 29 8 30 9 31 10 32 11 33 12 34
REMARK SMILES IDX 73 35 13 36 72 37 14 38 15 39 16 40 66 41 17 42 71 43 65 44
REMARK SMILES IDX 67 45 18 46 70 47 64 48 63 49 19 51 51 52 31 53 50 54 32 55
REMARK SMILES IDX 35 56 49 57 68 58 33 59 34 60 48 62 69 63 36 64 20 65 21 66
REMARK SMILES IDX 29 67 22 68 28 69 30 70 27 71 23 72 24 73 25 74 26 75 52 76
REMARK SMILES IDX 53 77 61 78 54 79 60 80 62 81 59 82 55 83 56 84 57 85 58 86
REMARK SMILES IDX 37 87 38 88 46 89 39 90 45 91 47 92 44 93 40 94 41 95 42 96
REMARK SMILES IDX 43 97
REMARK H PARENT 91 20 84 28 67 50 35 61
REMARK Flexibility Score: inf
ROOT
ATOM      1  C   UNL     1       2.759   3.866  -0.940  1.00  0.00     0.274 C 
ENDROOT
BRANCH   1   2
ATOM      2  O   UNL     1       2.392   2.617  -0.321  1.00  0.00    -0.462 OA
BRANCH   2   3
ATOM      3  C   UNL     1       1.238   2.647   0.411  1.00  0.00     0.313 C 
ATOM      4  O   UNL     1       0.669   3.711   0.622  1.00  0.00    -0.252 OA
BRANCH   3   5
ATOM      5  C   UNL     1       0.842   1.244   0.994  1.00  0.00     0.127 C 
ATOM      6  C   UNL     1       1.398   0.163   0.047  1.00  0.00     0.025 C 
BRANCH   5   7
ATOM      7  C   UNL     1      -0.671   1.088   1.356  1.00  0.00    -0.026 A 
ATOM      8  C   UNL     1      -1.384   2.252   1.694  1.00  0.00     0.005 A 
ATOM      9  C   UNL     1      -1.429  -0.120   1.365  1.00  0.00    -0.014 A 
ATOM     10  C   UNL     1      -2.772   2.297   1.772  1.00  0.00     0.004 A 
ATOM     11  C   UNL     1      -2.845  -0.058   1.558  1.00  0.00     0.012 A 
ATOM     12  C   UNL     1      -3.536   1.150   1.729  1.00  0.00    -0.047 A 
BRANCH   9  13
ATOM     13  C   UNL     1      -0.855  -1.467   1.190  1.00  0.00    -0.018 A 
ATOM     14  C   UNL     1      -1.109  -2.213   0.024  1.00  0.00     0.012 A 
ATOM     15  C   UNL     1      -0.038  -2.041   2.181  1.00  0.00     0.012 A 
ATOM     16  C   UNL     1      -0.510  -3.460  -0.175  1.00  0.00     0.047 A 
ATOM     17  C   UNL     1       0.570  -3.285   1.980  1.00  0.00     0.047 A 
ATOM     18  C   UNL     1       0.341  -3.976   0.794  1.00  0.00     0.115 A 
BRANCH  18  19
ATOM     19  O   UNL     1       0.948  -5.171   0.540  1.00  0.00    -0.508 OA
ATOM     20  H   UNL     1       0.779  -5.620  -0.265  1.00  0.00     0.293 HD
ENDBRANCH  18  19
ENDBRANCH   9  13
BRANCH  12  21
ATOM     21  C   UNL     1      -5.046   1.230   1.774  1.00  0.00     0.041 C 
BRANCH  21  22
ATOM     22  C   UNL     1      -5.752   1.666   3.075  1.00  0.00     0.022 C 
ATOM     23  C   UNL     1      -5.251   0.975   4.355  1.00  0.00     0.007 C 
ATOM     24  C   UNL     1      -5.893   3.163   3.428  1.00  0.00     0.117 C 
ATOM     25  C   UNL     1      -5.177   2.061   5.423  1.00  0.00     0.003 C 
ATOM     26  C   UNL     1      -6.116   3.159   4.937  1.00  0.00     0.032 C 
BRANCH  24  27
ATOM     27  O   UNL     1      -4.760   3.967   3.152  1.00  0.00    -0.393 OA
ATOM     28  H   UNL     1      -4.000   3.641   3.660  1.00  0.00     0.210 HD
ENDBRANCH  24  27
ENDBRANCH  21  22
ENDBRANCH  12  21
ENDBRANCH   5   7
ENDBRANCH   3   5
ENDBRANCH   2   3
ENDBRANCH   1   2
BRANCH   1  29
ATOM     29  C   UNL     1       2.244   3.959  -2.381  1.00  0.00     0.275 C 
BRANCH  29  30
ATOM     30  O   UNL     1       0.805   4.022  -2.457  1.00  0.00    -0.458 OA
BRANCH  30  31
ATOM     31  C   UNL     1       0.188   2.839  -2.710  1.00  0.00     0.338 C 
ATOM     32  O   UNL     1       0.741   1.768  -2.898  1.00  0.00    -0.246 OA
BRANCH  31  33
ATOM     33  C   UNL     1      -1.282   2.974  -2.599  1.00  0.00     0.060 A 
ATOM     34  C   UNL     1      -1.959   1.992  -1.873  1.00  0.00     0.016 A 
ATOM     35  C   UNL     1      -2.006   3.998  -3.219  1.00  0.00     0.016 A 
ATOM     36  C   UNL     1      -3.343   2.055  -1.721  1.00  0.00     0.010 A 
ATOM     37  C   UNL     1      -3.405   4.043  -3.089  1.00  0.00     0.010 A 
ATOM     38  C   UNL     1      -4.083   3.079  -2.324  1.00  0.00    -0.014 A 
BRANCH  38  39
ATOM     39  C   UNL     1      -5.563   3.069  -2.176  1.00  0.00     0.031 A 
ATOM     40  C   UNL     1      -6.381   2.098  -2.981  1.00  0.00     0.074 A 
ATOM     41  C   UNL     1      -6.165   3.835  -1.247  1.00  0.00     0.049 A 
ATOM     42  N   UNL     1      -7.671   1.877  -2.955  1.00  0.00    -0.248 NA
ATOM     43  C   UNL     1      -5.641   1.256  -3.931  1.00  0.00     0.031 C 
ATOM     44  C   UNL     1      -5.470   4.726  -0.322  1.00  0.00     0.029 A 
ATOM     45  N   UNL     1      -7.489   3.950  -0.891  1.00  0.00    -0.354 N 
ATOM     46  C   UNL     1      -7.902   0.876  -3.892  1.00  0.00     0.074 A 
ATOM     47  C   UNL     1      -6.614   0.525  -4.456  1.00  0.00     0.031 C 
ATOM     48  C   UNL     1      -6.368   5.269   0.518  1.00  0.00     0.029 A 
ATOM     49  C   UNL     1      -7.708   4.797   0.173  1.00  0.00     0.049 A 
ATOM     50  H   UNL     1      -8.213   3.470  -1.354  1.00  0.00     0.167 HD
ATOM     51  C   UNL     1      -9.081   0.322  -4.270  1.00  0.00     0.034 A 
ATOM     52  C   UNL     1      -8.854   5.147   0.796  1.00  0.00     0.034 A 
ATOM     53  C   UNL     1     -10.366   0.713  -3.744  1.00  0.00     0.049 A 
ATOM     54  C   UNL     1     -10.163   4.583   0.289  1.00  0.00     0.074 A 
ATOM     55  C   UNL     1     -11.623   0.267  -4.120  1.00  0.00     0.029 A 
ATOM     56  N   UNL     1     -10.565   1.655  -2.743  1.00  0.00    -0.354 N 
ATOM     57  N   UNL     1     -10.373   3.671  -0.633  1.00  0.00    -0.248 NA
ATOM     58  C   UNL     1     -11.394   5.110   0.898  1.00  0.00     0.031 C 
ATOM     59  C   UNL     1     -12.580   0.993  -3.401  1.00  0.00     0.029 A 
ATOM     60  C   UNL     1     -11.922   1.832  -2.517  1.00  0.00     0.049 A 
ATOM     61  H   UNL     1      -9.847   2.128  -2.264  1.00  0.00     0.167 HD
ATOM     62  C   UNL     1     -11.756   3.515  -0.706  1.00  0.00     0.074 A 
ATOM     63  C   UNL     1     -12.328   4.392   0.292  1.00  0.00     0.031 C 
ATOM     64  C   UNL     1     -12.488   2.724  -1.532  1.00  0.00     0.034 A 
BRANCH  51  65
ATOM     65  C   UNL     1      -9.028  -0.679  -5.396  1.00  0.00     0.023 A 
ATOM     66  C   UNL     1      -8.422  -1.938  -5.249  1.00  0.00     0.031 A 
ATOM     67  C   UNL     1      -9.540  -0.333  -6.660  1.00  0.00     0.131 A 
ATOM     68  C   UNL     1      -8.284  -2.778  -6.366  1.00  0.00     0.055 A 
ATOM     69  C   UNL     1      -9.464  -1.202  -7.748  1.00  0.00     0.041 A 
ATOM     70  F   UNL     1     -10.103   0.869  -6.862  1.00  0.00    -0.206 F 
ATOM     71  C   UNL     1      -8.820  -2.427  -7.608  1.00  0.00     0.022 A 
BRANCH  68  72
ATOM     72  S   UNL     1      -7.263  -4.269  -6.212  1.00  0.00     0.124 S 
ATOM     73  O   UNL     1      -5.981  -3.709  -5.793  1.00  0.00    -0.237 OA
ATOM     74  O   UNL     1      -7.983  -5.041  -5.205  1.00  0.00    -0.237 OA
ATOM     75  O   UNL     1      -7.277  -4.835  -7.559  1.00  0.00    -0.744 OA
ENDBRANCH  68  72
ENDBRANCH  51  65
BRANCH  52  76
ATOM     76  C   UNL     1      -8.853   6.109   1.942  1.00  0.00     0.023 A 
ATOM     77  C   UNL     1      -9.385   5.744   3.192  1.00  0.00     0.031 A 
ATOM     78  C   UNL     1      -8.415   7.436   1.782  1.00  0.00     0.131 A 
ATOM     79  C   UNL     1      -9.517   6.705   4.208  1.00  0.00     0.055 A 
ATOM     80  C   UNL     1      -8.488   8.370   2.817  1.00  0.00     0.041 A 
ATOM     81  F   UNL     1      -7.919   7.851   0.605  1.00  0.00    -0.206 F 
ATOM     82  C   UNL     1      -9.057   8.012   4.034  1.00  0.00     0.022 A 
BRANCH  79  83
ATOM     83  S   UNL     1     -10.408   6.253   5.723  1.00  0.00     0.124 S 
ATOM     84  O   UNL     1     -11.710   5.859   5.196  1.00  0.00    -0.237 OA
ATOM     85  O   UNL     1      -9.578   5.177   6.254  1.00  0.00    -0.237 OA
ATOM     86  O   UNL     1     -10.400   7.488   6.506  1.00  0.00    -0.744 OA
ENDBRANCH  79  83
ENDBRANCH  52  76
BRANCH  64  87
ATOM     87  C   UNL     1     -13.991   2.766  -1.381  1.00  0.00     0.023 A 
ATOM     88  C   UNL     1     -14.735   3.919  -1.692  1.00  0.00     0.031 A 
ATOM     89  C   UNL     1     -14.692   1.633  -0.930  1.00  0.00     0.131 A 
ATOM     90  C   UNL     1     -16.126   3.929  -1.505  1.00  0.00     0.055 A 
ATOM     91  C   UNL     1     -16.082   1.631  -0.798  1.00  0.00     0.041 A 
ATOM     92  F   UNL     1     -14.036   0.504  -0.617  1.00  0.00    -0.206 F 
ATOM     93  C   UNL     1     -16.806   2.787  -1.076  1.00  0.00     0.022 A 
BRANCH  90  94
ATOM     94  S   UNL     1     -17.033   5.480  -1.761  1.00  0.00     0.124 S 
ATOM     95  O   UNL     1     -16.386   6.373  -0.806  1.00  0.00    -0.237 OA
ATOM     96  O   UNL     1     -16.780   5.762  -3.171  1.00  0.00    -0.237 OA
ATOM     97  O   UNL     1     -18.415   5.127  -1.441  1.00  0.00    -0.744 OA
ENDBRANCH  90  94
ENDBRANCH  64  87
ENDBRANCH  38  39
ENDBRANCH  31  33
ENDBRANCH  30  31
ENDBRANCH  29  30
ENDBRANCH   1  29
TORSDOF 20
