REMARK SMILES NC(=O)C[NH+]1CCC([NH2+]Cc2cc(C(=O)OCCOC(=O)c3ccc(-c4c5nc(c(-c6cc(S(=O)(=O)[O-])ccc6F)c6ccc([nH]6)c(-c6cc(S(=O)(=O)[O-])ccc6F)c6nc(c(-c7cc(S(=O)(=O)[O-])ccc7F)c7ccc4[nH]7)C=C6)C=C5)cc3)cs2)CC1
REMARK SMILES IDX 17 1 16 2 14 3 15 4 13 5 11 6 12 7 86 8 85 9 10 10 9 11 8 14
REMARK SMILES IDX 5 15 6 16 88 17 7 19 87 20 4 21 2 22 1 23 3 26 18 27 19 28
REMARK SMILES IDX 20 29 21 30 22 31 23 32 84 33 24 34 83 35 25 36 26 37 27 38
REMARK SMILES IDX 77 39 28 40 82 41 76 42 78 43 29 44 81 45 75 46 74 47 30 49
REMARK SMILES IDX 62 50 42 51 61 52 43 53 46 54 60 55 79 56 44 57 45 58 59 60
REMARK SMILES IDX 80 61 47 62 31 63 32 64 40 65 33 66 39 67 41 68 38 69 34 70
REMARK SMILES IDX 35 71 36 72 37 73 63 74 64 75 72 76 65 77 71 78 73 79 70 80
REMARK SMILES IDX 66 81 67 82 68 83 69 84 48 85 49 86 57 87 50 88 56 89 58 90
REMARK SMILES IDX 55 91 51 92 52 93 53 94 54 95
REMARK H PARENT 9 12 9 13 5 18 1 24 1 25 78 48 46 59
REMARK Flexibility Score: inf
ROOT
ATOM      1  C   UNL     1       4.927   2.753   1.325  1.00  0.00     0.275 C 
ENDROOT
BRANCH   1   2
ATOM      2  O   UNL     1       5.258   1.352   1.414  1.00  0.00    -0.458 OA
BRANCH   2   3
ATOM      3  C   UNL     1       6.586   1.039   1.547  1.00  0.00     0.339 C 
ATOM      4  O   UNL     1       7.490   1.857   1.575  1.00  0.00    -0.246 OA
BRANCH   3   5
ATOM      5  C   UNL     1       6.789  -0.397   1.742  1.00  0.00     0.071 A 
ATOM      6  C   UNL     1       6.185  -2.659   1.930  1.00  0.00     0.060 A 
ATOM      7  C   UNL     1       5.916  -1.448   1.313  1.00  0.00     0.037 A 
ATOM      8  S   UNL     1       7.683  -2.598   2.754  1.00  0.00    -0.142 S 
ATOM      9  C   UNL     1       7.874  -0.931   2.413  1.00  0.00     0.081 A 
BRANCH   6  10
ATOM     10  C   UNL     1       5.338  -3.903   1.954  1.00  0.00     0.308 C 
BRANCH  10  11
ATOM     11  N   UNL     1       4.197  -3.830   2.889  1.00  0.00    -0.339 N 
ATOM     12  H   UNL     1       3.706  -4.724   2.869  1.00  0.00     0.346 HD
ATOM     13  H   UNL     1       4.579  -3.617   3.810  1.00  0.00     0.346 HD
BRANCH  11  14
ATOM     14  C   UNL     1       3.238  -2.767   2.564  1.00  0.00     0.194 C 
ATOM     15  N   UNL     1       1.143  -0.785   2.838  1.00  0.00    -0.327 N 
ATOM     16  C   UNL     1       0.840  -2.104   2.279  1.00  0.00     0.268 C 
ATOM     17  C   UNL     1       2.549  -0.400   2.867  1.00  0.00     0.268 C 
ATOM     18  H   UNL     1       0.922  -0.939   3.822  1.00  0.00     0.348 HD
ATOM     19  C   UNL     1       1.787  -3.215   2.769  1.00  0.00     0.126 C 
ATOM     20  C   UNL     1       3.425  -1.514   3.430  1.00  0.00     0.126 C 
BRANCH  15  21
ATOM     21  C   UNL     1       0.237   0.303   2.422  1.00  0.00     0.363 C 
BRANCH  21  22
ATOM     22  C   UNL     1      -0.197   0.278   0.953  1.00  0.00     0.272 C 
ATOM     23  N   UNL     1       0.785   0.335   0.008  1.00  0.00    -0.365 N 
ATOM     24  H   UNL     1       0.550   0.321  -0.948  1.00  0.00     0.159 HD
ATOM     25  H   UNL     1       1.729   0.391   0.281  1.00  0.00     0.159 HD
ATOM     26  O   UNL     1      -1.375   0.258   0.602  1.00  0.00    -0.269 OA
ENDBRANCH  21  22
ENDBRANCH  15  21
ENDBRANCH  11  14
ENDBRANCH  10  11
ENDBRANCH   6  10
ENDBRANCH   3   5
ENDBRANCH   2   3
ENDBRANCH   1   2
BRANCH   1  27
ATOM     27  C   UNL     1       4.428   3.315   2.660  1.00  0.00     0.275 C 
BRANCH  27  28
ATOM     28  O   UNL     1       5.514   3.444   3.593  1.00  0.00    -0.458 OA
BRANCH  28  29
ATOM     29  C   UNL     1       5.490   2.596   4.648  1.00  0.00     0.338 C 
ATOM     30  O   UNL     1       4.630   1.776   4.915  1.00  0.00    -0.246 OA
BRANCH  29  31
ATOM     31  C   UNL     1       6.770   2.699   5.362  1.00  0.00     0.060 A 
ATOM     32  C   UNL     1       7.756   1.772   5.033  1.00  0.00     0.016 A 
ATOM     33  C   UNL     1       6.986   3.633   6.375  1.00  0.00     0.016 A 
ATOM     34  C   UNL     1       8.967   1.763   5.715  1.00  0.00     0.010 A 
ATOM     35  C   UNL     1       8.216   3.639   7.048  1.00  0.00     0.010 A 
ATOM     36  C   UNL     1       9.214   2.698   6.729  1.00  0.00    -0.014 A 
BRANCH  36  37
ATOM     37  C   UNL     1      10.496   2.629   7.481  1.00  0.00     0.031 A 
ATOM     38  C   UNL     1      10.496   2.210   8.926  1.00  0.00     0.074 A 
ATOM     39  C   UNL     1      11.662   2.882   6.854  1.00  0.00     0.049 A 
ATOM     40  N   UNL     1      11.489   2.161   9.776  1.00  0.00    -0.248 NA
ATOM     41  C   UNL     1       9.202   1.799   9.486  1.00  0.00     0.031 C 
ATOM     42  C   UNL     1      11.797   3.242   5.441  1.00  0.00     0.029 A 
ATOM     43  N   UNL     1      12.954   2.860   7.316  1.00  0.00    -0.354 N 
ATOM     44  C   UNL     1      10.936   1.748  10.984  1.00  0.00     0.074 A 
ATOM     45  C   UNL     1       9.515   1.580  10.755  1.00  0.00     0.031 C 
ATOM     46  C   UNL     1      13.099   3.380   5.146  1.00  0.00     0.029 A 
ATOM     47  C   UNL     1      13.887   3.189   6.360  1.00  0.00     0.049 A 
ATOM     48  H   UNL     1      13.191   2.631   8.243  1.00  0.00     0.167 HD
ATOM     49  C   UNL     1      11.557   1.529  12.171  1.00  0.00     0.034 A 
ATOM     50  C   UNL     1      15.222   3.355   6.456  1.00  0.00     0.034 A 
ATOM     51  C   UNL     1      12.980   1.679  12.372  1.00  0.00     0.049 A 
ATOM     52  C   UNL     1      15.884   3.158   7.795  1.00  0.00     0.074 A 
ATOM     53  C   UNL     1      13.715   1.478  13.528  1.00  0.00     0.029 A 
ATOM     54  N   UNL     1      13.886   2.067  11.393  1.00  0.00    -0.354 N 
ATOM     55  N   UNL     1      15.342   2.817   8.941  1.00  0.00    -0.248 NA
ATOM     56  C   UNL     1      17.335   3.376   7.854  1.00  0.00     0.031 C 
ATOM     57  C   UNL     1      15.051   1.803  13.264  1.00  0.00     0.029 A 
ATOM     58  C   UNL     1      15.166   2.139  11.925  1.00  0.00     0.049 A 
ATOM     59  H   UNL     1      13.654   2.264  10.456  1.00  0.00     0.167 HD
ATOM     60  C   UNL     1      16.388   2.773   9.857  1.00  0.00     0.074 A 
ATOM     61  C   UNL     1      17.595   3.098   9.123  1.00  0.00     0.031 C 
ATOM     62  C   UNL     1      16.356   2.490  11.185  1.00  0.00     0.034 A 
BRANCH  49  63
ATOM     63  C   UNL     1      10.684   1.175  13.352  1.00  0.00     0.023 A 
ATOM     64  C   UNL     1       9.934  -0.013  13.399  1.00  0.00     0.031 A 
ATOM     65  C   UNL     1      10.559   2.074  14.427  1.00  0.00     0.131 A 
ATOM     66  C   UNL     1       9.035  -0.232  14.455  1.00  0.00     0.055 A 
ATOM     67  C   UNL     1       9.724   1.812  15.515  1.00  0.00     0.041 A 
ATOM     68  F   UNL     1      11.233   3.235  14.429  1.00  0.00    -0.206 F 
ATOM     69  C   UNL     1       8.942   0.662  15.525  1.00  0.00     0.022 A 
BRANCH  66  70
ATOM     70  S   UNL     1       7.871  -1.619  14.331  1.00  0.00     0.124 S 
ATOM     71  O   UNL     1       7.191  -1.322  13.072  1.00  0.00    -0.237 OA
ATOM     72  O   UNL     1       8.759  -2.775  14.322  1.00  0.00    -0.237 OA
ATOM     73  O   UNL     1       7.041  -1.478  15.526  1.00  0.00    -0.744 OA
ENDBRANCH  66  70
ENDBRANCH  49  63
BRANCH  50  74
ATOM     74  C   UNL     1      16.011   3.793   5.268  1.00  0.00     0.023 A 
ATOM     75  C   UNL     1      16.990   2.968   4.693  1.00  0.00     0.031 A 
ATOM     76  C   UNL     1      15.807   5.067   4.705  1.00  0.00     0.131 A 
ATOM     77  C   UNL     1      17.746   3.436   3.606  1.00  0.00     0.055 A 
ATOM     78  C   UNL     1      16.527   5.507   3.594  1.00  0.00     0.041 A 
ATOM     79  F   UNL     1      14.885   5.897   5.219  1.00  0.00    -0.206 F 
ATOM     80  C   UNL     1      17.510   4.693   3.043  1.00  0.00     0.022 A 
BRANCH  77  81
ATOM     81  S   UNL     1      19.093   2.400   2.968  1.00  0.00     0.124 S 
ATOM     82  O   UNL     1      19.948   2.267   4.142  1.00  0.00    -0.237 OA
ATOM     83  O   UNL     1      18.379   1.196   2.554  1.00  0.00    -0.237 OA
ATOM     84  O   UNL     1      19.648   3.197   1.877  1.00  0.00    -0.744 OA
ENDBRANCH  77  81
ENDBRANCH  50  74
BRANCH  62  85
ATOM     85  C   UNL     1      17.677   2.497  11.912  1.00  0.00     0.023 A 
ATOM     86  C   UNL     1      18.394   3.687  12.127  1.00  0.00     0.031 A 
ATOM     87  C   UNL     1      18.235   1.293  12.377  1.00  0.00     0.131 A 
ATOM     88  C   UNL     1      19.655   3.640  12.742  1.00  0.00     0.055 A 
ATOM     89  C   UNL     1      19.464   1.260  13.037  1.00  0.00     0.041 A 
ATOM     90  F   UNL     1      17.593   0.128  12.196  1.00  0.00    -0.206 F 
ATOM     91  C   UNL     1      20.187   2.436  13.211  1.00  0.00     0.022 A 
BRANCH  88  92
ATOM     92  S   UNL     1      20.632   5.166  12.845  1.00  0.00     0.124 S 
ATOM     93  O   UNL     1      20.766   5.535  11.440  1.00  0.00    -0.237 OA
ATOM     94  O   UNL     1      19.778   6.030  13.653  1.00  0.00    -0.237 OA
ATOM     95  O   UNL     1      21.869   4.737  13.494  1.00  0.00    -0.744 OA
ENDBRANCH  88  92
ENDBRANCH  62  85
ENDBRANCH  36  37
ENDBRANCH  29  31
ENDBRANCH  28  29
ENDBRANCH  27  28
ENDBRANCH   1  27
TORSDOF 19
