REMARK SMILES O=C(C[C@@H]1C(=O)O[C@H]2[C@@H]3OC(=O)c4cc(O)c(O)c(O)c4-c4ccccc4C(=O)OC[C@@H]2O[C@@H](OC(=O)c2cc(O)c(O)c(O)c2)[C@@H]3OC(=O)c2cc(O)c(O)c3c2C1[C@H](O)C(=O)O3)OCCOC(=O)c1ccc(-c2c3nc(c(-c4cc(S(=O)(=O)[O-])ccc4F)c4ccc([nH]4)c(-c4cc(S(=O)(=O)[O-])ccc4F)c4nc(c(-c5cc(S(=O)(=O)[O-])ccc5F)c5ccc2[nH]5)C=C4)C=C3)cc1
REMARK SMILES IDX 4 1 3 3 2 4 1 5 65 6 66 7 67 8 68 9 69 10 70 11 71 12 72 13
REMARK SMILES IDX 133 14 73 15 132 16 74 17 75 18 76 19 126 20 77 21 131 22
REMARK SMILES IDX 125 23 127 24 78 25 130 26 124 27 123 28 79 30 111 31 91 32
REMARK SMILES IDX 110 33 92 34 95 35 109 36 128 37 93 38 94 39 108 41 129 42
REMARK SMILES IDX 96 43 80 44 81 45 89 46 82 47 88 48 90 49 87 50 83 51 84 52
REMARK SMILES IDX 85 53 86 54 112 55 113 56 121 57 114 58 120 59 122 60 119 61
REMARK SMILES IDX 115 62 116 63 117 64 118 65 97 66 98 67 106 68 99 69 105 70
REMARK SMILES IDX 107 71 104 72 100 73 101 74 102 75 103 76 59 77 58 78 60 79
REMARK SMILES IDX 51 80 57 81 62 82 52 83 55 84 64 85 63 86 53 87 61 88 49 90
REMARK SMILES IDX 50 91 48 92 47 93 9 94 34 95 8 96 33 97 32 98 10 100 11 101
REMARK SMILES IDX 12 102 13 103 14 104 21 105 15 106 19 107 17 108 22 109
REMARK SMILES IDX 23 110 27 111 24 112 26 113 25 114 28 115 29 116 30 117
REMARK SMILES IDX 31 118 16 120 20 122 18 124 35 126 36 127 37 128 38 129
REMARK SMILES IDX 39 130 46 131 40 132 44 133 42 134 41 135 45 137 43 139
REMARK SMILES IDX 7 141 5 142 6 143 56 145 54 147
REMARK H PARENT 127 29 95 40 61 89 16 121 20 123 18 125 41 136 45 138 43 140
REMARK H PARENT 56 146 54 148
REMARK Flexibility Score: 170.00
ROOT
ATOM      1  C   UNL     1       4.773  -0.821   2.446  1.00  0.00     0.121 CG0
ATOM      2  G   UNL     1       6.780  -0.150   2.128  1.00  0.00     0.000 G0
ENDROOT
BRANCH   1   3
ATOM      3  C   UNL     1       4.089  -2.337   2.526  1.00  0.00     0.138 C 
BRANCH   3   4
ATOM      4  C   UNL     1       3.226  -2.923   1.353  1.00  0.00     0.306 C 
ATOM      5  O   UNL     1       3.545  -4.008   0.860  1.00  0.00    -0.252 OA
BRANCH   4   6
ATOM      6  O   UNL     1       2.120  -2.336   0.844  1.00  0.00    -0.462 OA
BRANCH   6   7
ATOM      7  C   UNL     1       1.323  -1.188   1.207  1.00  0.00     0.274 C 
BRANCH   7   8
ATOM      8  C   UNL     1       0.271  -1.477   2.274  1.00  0.00     0.275 C 
BRANCH   8   9
ATOM      9  O   UNL     1       0.875  -2.191   3.360  1.00  0.00    -0.458 OA
BRANCH   9  10
ATOM     10  C   UNL     1       0.691  -3.544   3.388  1.00  0.00     0.338 C 
ATOM     11  O   UNL     1      -0.032  -4.183   2.649  1.00  0.00    -0.246 OA
BRANCH  10  12
ATOM     12  C   UNL     1       1.744  -4.100   4.281  1.00  0.00     0.060 A 
ATOM     13  C   UNL     1       1.950  -3.559   5.540  1.00  0.00     0.016 A 
ATOM     14  C   UNL     1       2.689  -4.996   3.763  1.00  0.00     0.016 A 
ATOM     15  C   UNL     1       3.169  -3.788   6.192  1.00  0.00     0.010 A 
ATOM     16  C   UNL     1       3.896  -5.264   4.453  1.00  0.00     0.010 A 
ATOM     17  C   UNL     1       4.180  -4.638   5.670  1.00  0.00    -0.014 A 
BRANCH  17  18
ATOM     18  C   UNL     1       5.364  -4.976   6.545  1.00  0.00     0.031 A 
ATOM     19  C   UNL     1       6.838  -4.793   6.207  1.00  0.00     0.074 A 
ATOM     20  C   UNL     1       5.061  -5.441   7.777  1.00  0.00     0.049 A 
ATOM     21  N   UNL     1       7.867  -4.774   7.031  1.00  0.00    -0.248 NA
ATOM     22  C   UNL     1       7.230  -4.596   4.805  1.00  0.00     0.031 C 
ATOM     23  C   UNL     1       3.700  -5.729   8.236  1.00  0.00     0.029 A 
ATOM     24  N   UNL     1       5.843  -5.727   8.867  1.00  0.00    -0.354 N 
ATOM     25  C   UNL     1       9.003  -4.486   6.270  1.00  0.00     0.074 A 
ATOM     26  C   UNL     1       8.543  -4.376   4.901  1.00  0.00     0.031 C 
ATOM     27  C   UNL     1       3.730  -6.051   9.527  1.00  0.00     0.029 A 
ATOM     28  C   UNL     1       5.119  -6.176   9.945  1.00  0.00     0.049 A 
ATOM     29  H   UNL     1       6.822  -5.622   8.876  1.00  0.00     0.167 HD
ATOM     30  C   UNL     1      10.302  -4.360   6.666  1.00  0.00     0.034 A 
ATOM     31  C   UNL     1       5.497  -6.710  11.121  1.00  0.00     0.034 A 
ATOM     32  C   UNL     1      10.789  -4.735   7.976  1.00  0.00     0.049 A 
ATOM     33  C   UNL     1       6.950  -6.771  11.459  1.00  0.00     0.074 A 
ATOM     34  C   UNL     1      12.096  -4.711   8.440  1.00  0.00     0.029 A 
ATOM     35  N   UNL     1      10.027  -5.292   8.994  1.00  0.00    -0.354 N 
ATOM     36  N   UNL     1       7.969  -6.315  10.773  1.00  0.00    -0.248 NA
ATOM     37  C   UNL     1       7.308  -7.408  12.729  1.00  0.00     0.031 C 
ATOM     38  C   UNL     1      12.143  -5.389   9.660  1.00  0.00     0.029 A 
ATOM     39  C   UNL     1      10.850  -5.714  10.031  1.00  0.00     0.049 A 
ATOM     40  H   UNL     1       9.047  -5.377   8.982  1.00  0.00     0.167 HD
ATOM     41  C   UNL     1       9.097  -6.608  11.531  1.00  0.00     0.074 A 
ATOM     42  C   UNL     1       8.623  -7.240  12.746  1.00  0.00     0.031 C 
ATOM     43  C   UNL     1      10.400  -6.378  11.235  1.00  0.00     0.034 A 
BRANCH  30  44
ATOM     44  C   UNL     1      11.347  -3.825   5.695  1.00  0.00     0.023 A 
ATOM     45  C   UNL     1      12.418  -4.625   5.248  1.00  0.00     0.031 A 
ATOM     46  C   UNL     1      11.413  -2.448   5.416  1.00  0.00     0.131 A 
ATOM     47  C   UNL     1      13.496  -4.038   4.558  1.00  0.00     0.055 A 
ATOM     48  C   UNL     1      12.450  -1.879   4.669  1.00  0.00     0.041 A 
ATOM     49  F   UNL     1      10.507  -1.613   5.942  1.00  0.00    -0.206 F 
ATOM     50  C   UNL     1      13.508  -2.675   4.248  1.00  0.00     0.022 A 
BRANCH  47  51
ATOM     51  S   UNL     1      14.978  -4.995   4.120  1.00  0.00     0.124 S 
ATOM     52  O   UNL     1      15.011  -4.843   2.667  1.00  0.00    -0.237 OA
ATOM     53  O   UNL     1      16.028  -4.284   4.844  1.00  0.00    -0.237 OA
ATOM     54  O   UNL     1      14.677  -6.339   4.598  1.00  0.00    -0.744 OA
ENDBRANCH  47  51
ENDBRANCH  30  44
BRANCH  31  55
ATOM     55  C   UNL     1       4.425  -7.246  12.010  1.00  0.00     0.023 A 
ATOM     56  C   UNL     1       3.549  -8.238  11.522  1.00  0.00     0.031 A 
ATOM     57  C   UNL     1       4.123  -6.635  13.233  1.00  0.00     0.131 A 
ATOM     58  C   UNL     1       2.335  -8.472  12.175  1.00  0.00     0.055 A 
ATOM     59  C   UNL     1       2.962  -6.956  13.939  1.00  0.00     0.041 A 
ATOM     60  F   UNL     1       4.924  -5.680  13.730  1.00  0.00    -0.206 F 
ATOM     61  C   UNL     1       2.045  -7.851  13.392  1.00  0.00     0.022 A 
BRANCH  58  62
ATOM     62  S   UNL     1       1.006  -9.386  11.339  1.00  0.00     0.124 S 
ATOM     63  O   UNL     1       0.797 -10.511  12.243  1.00  0.00    -0.237 OA
ATOM     64  O   UNL     1      -0.064  -8.390  11.307  1.00  0.00    -0.237 OA
ATOM     65  O   UNL     1       1.577  -9.715  10.037  1.00  0.00    -0.744 OA
ENDBRANCH  58  62
ENDBRANCH  31  55
BRANCH  43  66
ATOM     66  C   UNL     1      11.446  -6.832  12.228  1.00  0.00     0.023 A 
ATOM     67  C   UNL     1      12.331  -5.900  12.800  1.00  0.00     0.031 A 
ATOM     68  C   UNL     1      11.633  -8.193  12.534  1.00  0.00     0.131 A 
ATOM     69  C   UNL     1      13.379  -6.341  13.618  1.00  0.00     0.055 A 
ATOM     70  C   UNL     1      12.637  -8.621  13.404  1.00  0.00     0.041 A 
ATOM     71  F   UNL     1      10.829  -9.129  12.005  1.00  0.00    -0.206 F 
ATOM     72  C   UNL     1      13.525  -7.694  13.939  1.00  0.00     0.022 A 
BRANCH  69  73
ATOM     73  S   UNL     1      14.645  -5.189  14.219  1.00  0.00     0.124 S 
ATOM     74  O   UNL     1      14.486  -5.294  15.667  1.00  0.00    -0.237 OA
ATOM     75  O   UNL     1      15.870  -5.776  13.683  1.00  0.00    -0.237 OA
ATOM     76  O   UNL     1      14.258  -3.907  13.640  1.00  0.00    -0.744 OA
ENDBRANCH  69  73
ENDBRANCH  43  66
ENDBRANCH  17  18
ENDBRANCH  10  12
ENDBRANCH   9  10
ENDBRANCH   8   9
ENDBRANCH   7   8
ENDBRANCH   6   7
ENDBRANCH   4   6
ENDBRANCH   3   4
ENDBRANCH   1   3
BRANCH   1  77
ATOM     77  C   UNL     1       3.506   0.171   3.198  1.00  0.00     0.079 C 
ATOM     78  C   UNL     1       2.819   1.515   2.540  1.00  0.00     0.021 A 
ATOM     79  C   UNL     1       2.999  -0.249   4.644  1.00  0.00     0.232 C 
ATOM     80  C   UNL     1       3.287   2.494   1.493  1.00  0.00     0.071 A 
ATOM     81  C   UNL     1       1.823   1.999   3.433  1.00  0.00     0.180 A 
ATOM     82  C   UNL     1       1.537  -0.004   4.912  1.00  0.00     0.341 C 
ATOM     83  C   UNL     1       2.853   3.840   1.630  1.00  0.00     0.066 A 
ATOM     84  C   UNL     1       1.493   3.350   3.530  1.00  0.00     0.201 A 
ATOM     85  O   UNL     1       1.093   1.175   4.328  1.00  0.00    -0.420 OA
ATOM     86  O   UNL     1       0.861  -0.603   5.735  1.00  0.00    -0.249 OA
ATOM     87  C   UNL     1       2.040   4.260   2.659  1.00  0.00     0.162 A 
BRANCH  79  88
ATOM     88  O   UNL     1       3.785  -1.299   5.133  1.00  0.00    -0.381 OA
ATOM     89  H   UNL     1       3.746  -2.047   4.517  1.00  0.00     0.211 HD
ENDBRANCH  79  88
BRANCH  80  90
ATOM     90  C   UNL     1       4.308   2.552   0.237  1.00  0.00     0.339 C 
ATOM     91  O   UNL     1       4.131   3.408  -0.627  1.00  0.00    -0.246 OA
BRANCH  90  92
ATOM     92  O   UNL     1       5.399   1.742   0.082  1.00  0.00    -0.448 OA
BRANCH  92  93
ATOM     93  C   UNL     1       5.255   0.663   0.931  1.00  0.00     0.290 C 
ATOM     94  C   UNL     1       5.623   1.416   2.677  1.00  0.00     0.267 C 
ATOM     95  C   UNL     1       5.949  -1.187   0.568  1.00  0.00     0.357 C 
ATOM     96  C   UNL     1       6.222   0.191   3.746  1.00  0.00     0.254 C 
ATOM     97  O   UNL     1       6.597  -2.077   2.098  1.00  0.00    -0.329 OA
ATOM     98  C   UNL     1       6.550  -1.373   3.799  1.00  0.00     0.205 CG1
ATOM     99  G   UNL     1       7.843  -0.931   4.942  1.00  0.00     0.000 G1
BRANCH  94 100
ATOM    100  O   UNL     1       4.998   2.454   3.524  1.00  0.00    -0.450 OA
BRANCH 100 101
ATOM    101  C   UNL     1       4.989   2.405   4.917  1.00  0.00     0.339 C 
ATOM    102  O   UNL     1       5.023   1.494   5.725  1.00  0.00    -0.246 OA
BRANCH 101 103
ATOM    103  C   UNL     1       4.811   3.683   5.489  1.00  0.00     0.075 A 
ATOM    104  C   UNL     1       3.751   3.763   6.412  1.00  0.00     0.066 A 
ATOM    105  C   UNL     1       5.582   4.706   4.961  1.00  0.00     0.043 A 
ATOM    106  C   UNL     1       3.256   4.994   6.699  1.00  0.00     0.162 A 
ATOM    107  C   UNL     1       4.971   5.953   5.215  1.00  0.00     0.170 A 
ATOM    108  C   UNL     1       3.826   6.082   6.063  1.00  0.00     0.200 A 
BRANCH 105 109
ATOM    109  C   UNL     1       6.719   4.332   3.991  1.00  0.00     0.001 A 
ATOM    110  C   UNL     1       6.531   4.919   2.699  1.00  0.00     0.010 A 
ATOM    111  C   UNL     1       7.734   3.221   4.100  1.00  0.00     0.068 A 
ATOM    112  C   UNL     1       7.331   4.600   1.608  1.00  0.00     0.001 A 
ATOM    113  C   UNL     1       8.598   3.046   2.999  1.00  0.00     0.016 A 
ATOM    114  C   UNL     1       8.389   3.715   1.774  1.00  0.00     0.001 A 
BRANCH 111 115
ATOM    115  C   UNL     1       8.018   2.212   5.302  1.00  0.00     0.338 C 
ATOM    116  O   UNL     1       8.217   2.849   6.344  1.00  0.00    -0.246 OA
BRANCH 115 117
ATOM    117  O   UNL     1       8.075   0.790   5.376  1.00  0.00    -0.459 OA
BRANCH 117 118
ATOM    118  C   UNL     1       7.843  -0.931   4.942  1.00  0.00     0.269 CG1
ATOM    119  G   UNL     1       6.550  -1.373   3.799  1.00  0.00     0.000 G1
ENDBRANCH 117 118
ENDBRANCH 115 117
ENDBRANCH 111 115
ENDBRANCH 105 109
BRANCH 106 120
ATOM    120  O   UNL     1       2.169   5.088   7.507  1.00  0.00    -0.504 OA
ATOM    121  H   UNL     1       1.821   4.320   7.915  1.00  0.00     0.293 HD
ENDBRANCH 106 120
BRANCH 107 122
ATOM    122  O   UNL     1       5.338   7.130   4.608  1.00  0.00    -0.504 OA
ATOM    123  H   UNL     1       4.891   7.926   4.821  1.00  0.00     0.293 HD
ENDBRANCH 107 122
BRANCH 108 124
ATOM    124  O   UNL     1       3.200   7.292   6.223  1.00  0.00    -0.502 OA
ATOM    125  H   UNL     1       2.451   7.361   6.782  1.00  0.00     0.293 HD
ENDBRANCH 108 124
ENDBRANCH 101 103
ENDBRANCH 100 101
ENDBRANCH  94 100
BRANCH  95 126
ATOM    126  O   UNL     1       5.017  -1.972  -0.213  1.00  0.00    -0.428 OA
BRANCH 126 127
ATOM    127  C   UNL     1       4.613  -1.313  -1.325  1.00  0.00     0.340 C 
ATOM    128  O   UNL     1       4.973  -0.201  -1.670  1.00  0.00    -0.246 OA
BRANCH 127 129
ATOM    129  C   UNL     1       3.557  -1.994  -2.077  1.00  0.00     0.067 A 
ATOM    130  C   UNL     1       2.401  -1.251  -2.372  1.00  0.00     0.066 A 
ATOM    131  C   UNL     1       3.790  -3.244  -2.655  1.00  0.00     0.066 A 
ATOM    132  C   UNL     1       1.486  -1.761  -3.275  1.00  0.00     0.162 A 
ATOM    133  C   UNL     1       2.872  -3.715  -3.587  1.00  0.00     0.162 A 
ATOM    134  C   UNL     1       1.734  -2.973  -3.903  1.00  0.00     0.200 A 
BRANCH 132 135
ATOM    135  O   UNL     1       0.366  -1.042  -3.573  1.00  0.00    -0.504 OA
ATOM    136  H   UNL     1       0.206  -0.224  -3.145  1.00  0.00     0.293 HD
ENDBRANCH 132 135
BRANCH 133 137
ATOM    137  O   UNL     1       3.068  -4.889  -4.262  1.00  0.00    -0.504 OA
ATOM    138  H   UNL     1       2.433  -5.182  -4.885  1.00  0.00     0.293 HD
ENDBRANCH 133 137
BRANCH 134 139
ATOM    139  O   UNL     1       0.864  -3.410  -4.865  1.00  0.00    -0.502 OA
ATOM    140  H   UNL     1       0.102  -2.905  -5.072  1.00  0.00     0.293 HD
ENDBRANCH 134 139
ENDBRANCH 127 129
ENDBRANCH 126 127
ENDBRANCH  95 126
BRANCH  96 141
ATOM    141  O   UNL     1       7.403   0.369   3.179  1.00  0.00    -0.455 OA
BRANCH 141 142
ATOM    142  C   UNL     1       6.780  -0.150   2.128  1.00  0.00     0.310 CG0
ATOM    143  O   UNL     1       7.496   0.081   1.162  1.00  0.00    -0.252 OA
ATOM    144  G   UNL     1       4.773  -0.821   2.446  1.00  0.00     0.000 G0
ENDBRANCH 141 142
ENDBRANCH  96 141
ENDBRANCH  92  93
ENDBRANCH  90  92
ENDBRANCH  80  90
BRANCH  84 145
ATOM    145  O   UNL     1       0.705   3.840   4.534  1.00  0.00    -0.502 OA
ATOM    146  H   UNL     1       0.504   4.754   4.567  1.00  0.00     0.293 HD
ENDBRANCH  84 145
BRANCH  87 147
ATOM    147  O   UNL     1       1.827   5.597   2.817  1.00  0.00    -0.504 OA
ATOM    148  H   UNL     1       2.206   6.206   2.215  1.00  0.00     0.293 HD
ENDBRANCH  87 147
ENDBRANCH   1  77
TORSDOF 27
