REMARK SMILES CC[C@@](C)(NC(=O)c1c(C)cc(C)[nH]c1=O)C(=O)OCCOC(=O)c1ccc(-c2c3nc(c(-c4cc(S(=O)(=O)[O-])ccc4F)c4ccc([nH]4)c(-c4cc(S(=O)(=O)[O-])ccc4F)c4nc(c(-c5cc(S(=O)(=O)[O-])ccc5F)c5ccc2[nH]5)C=C4)C=C3)cc1
REMARK SMILES IDX 21 1 20 2 19 3 17 4 18 5 3 6 4 7 2 8 1 9 5 10 6 11 7 13 8 14
REMARK SMILES IDX 9 15 15 16 10 17 11 18 14 19 16 20 12 21 13 23 22 24 23 25
REMARK SMILES IDX 24 26 25 27 26 28 87 29 27 30 86 31 28 32 29 33 30 34 80 35
REMARK SMILES IDX 31 36 85 37 79 38 81 39 32 40 84 41 78 42 77 43 33 45 65 46
REMARK SMILES IDX 45 47 64 48 46 49 49 50 63 51 82 52 47 53 48 54 62 56 83 57
REMARK SMILES IDX 50 58 34 59 35 60 43 61 36 62 42 63 44 64 41 65 37 66 38 67
REMARK SMILES IDX 39 68 40 69 66 70 67 71 75 72 68 73 74 74 76 75 73 76 69 77
REMARK SMILES IDX 70 78 71 79 72 80 51 81 52 82 60 83 53 84 59 85 61 86 58 87
REMARK SMILES IDX 54 88 55 89 56 90 57 91
REMARK H PARENT 5 12 14 22 81 44 49 55
REMARK Flexibility Score: inf
ROOT
ATOM      1  C   UNL     1       5.546   0.536  -1.861  1.00  0.00     0.275 C 
ENDROOT
BRANCH   1   2
ATOM      2  C   UNL     1       4.620  -0.562  -2.364  1.00  0.00     0.274 C 
BRANCH   2   3
ATOM      3  O   UNL     1       3.365   0.005  -2.804  1.00  0.00    -0.460 OA
BRANCH   3   4
ATOM      4  C   UNL     1       2.256  -0.429  -2.162  1.00  0.00     0.331 C 
ATOM      5  O   UNL     1       2.308  -1.205  -1.211  1.00  0.00    -0.249 OA
BRANCH   4   6
ATOM      6  C   UNL     1       0.913   0.003  -2.827  1.00  0.00     0.135 C 
ATOM      7  C   UNL     1       0.376  -1.278  -3.495  1.00  0.00     0.047 C 
BRANCH   6   8
ATOM      8  C   UNL     1      -0.087   0.461  -1.700  1.00  0.00     0.037 C 
ATOM      9  C   UNL     1      -0.353  -0.450  -0.506  1.00  0.00     0.007 C 
ENDBRANCH   6   8
BRANCH   6  10
ATOM     10  N   UNL     1       0.828   1.128  -3.831  1.00  0.00    -0.336 N 
ATOM     11  C   UNL     1       1.399   1.388  -5.041  1.00  0.00     0.258 C 
ATOM     12  H   UNL     1       0.214   1.843  -3.543  1.00  0.00     0.165 HD
ATOM     13  O   UNL     1       0.672   1.797  -5.949  1.00  0.00    -0.269 OA
BRANCH  11  14
ATOM     14  C   UNL     1       2.861   1.492  -5.174  1.00  0.00     0.107 A 
ATOM     15  C   UNL     1       3.460   2.702  -5.056  1.00  0.00    -0.031 A 
ATOM     16  C   UNL     1       3.679   0.318  -5.580  1.00  0.00     0.261 A 
ATOM     17  C   UNL     1       2.771   4.016  -4.791  1.00  0.00     0.045 C 
ATOM     18  C   UNL     1       4.914   2.792  -5.123  1.00  0.00     0.025 A 
ATOM     19  N   UNL     1       5.044   0.514  -5.639  1.00  0.00    -0.326 N 
ATOM     20  O   UNL     1       3.192  -0.783  -5.816  1.00  0.00    -0.269 OA
ATOM     21  C   UNL     1       5.666   1.711  -5.375  1.00  0.00     0.015 A 
ATOM     22  H   UNL     1       5.609  -0.253  -5.887  1.00  0.00     0.169 HD
ATOM     23  C   UNL     1       7.160   1.715  -5.276  1.00  0.00     0.064 C 
ENDBRANCH  11  14
ENDBRANCH   6  10
ENDBRANCH   4   6
ENDBRANCH   3   4
ENDBRANCH   2   3
ENDBRANCH   1   2
BRANCH   1  24
ATOM     24  O   UNL     1       4.910   1.212  -0.773  1.00  0.00    -0.458 OA
BRANCH  24  25
ATOM     25  C   UNL     1       4.345   2.397  -1.096  1.00  0.00     0.338 C 
ATOM     26  O   UNL     1       4.431   3.025  -2.131  1.00  0.00    -0.246 OA
BRANCH  25  27
ATOM     27  C   UNL     1       3.597   2.864   0.063  1.00  0.00     0.060 A 
ATOM     28  C   UNL     1       2.439   2.192   0.447  1.00  0.00     0.016 A 
ATOM     29  C   UNL     1       4.071   3.972   0.759  1.00  0.00     0.016 A 
ATOM     30  C   UNL     1       1.733   2.634   1.550  1.00  0.00     0.010 A 
ATOM     31  C   UNL     1       3.412   4.362   1.916  1.00  0.00     0.010 A 
ATOM     32  C   UNL     1       2.252   3.682   2.321  1.00  0.00    -0.014 A 
BRANCH  32  33
ATOM     33  C   UNL     1       1.635   3.985   3.624  1.00  0.00     0.031 A 
ATOM     34  C   UNL     1       0.907   5.271   3.827  1.00  0.00     0.074 A 
ATOM     35  C   UNL     1       1.757   3.064   4.599  1.00  0.00     0.049 A 
ATOM     36  N   UNL     1       0.369   5.743   4.917  1.00  0.00    -0.248 NA
ATOM     37  C   UNL     1       0.775   6.149   2.653  1.00  0.00     0.031 C 
ATOM     38  C   UNL     1       2.440   1.773   4.452  1.00  0.00     0.029 A 
ATOM     39  N   UNL     1       1.300   3.050   5.887  1.00  0.00    -0.354 N 
ATOM     40  C   UNL     1      -0.149   6.984   4.572  1.00  0.00     0.074 A 
ATOM     41  C   UNL     1       0.154   7.198   3.173  1.00  0.00     0.031 C 
ATOM     42  C   UNL     1       2.306   1.072   5.586  1.00  0.00     0.029 A 
ATOM     43  C   UNL     1       1.604   1.892   6.563  1.00  0.00     0.049 A 
ATOM     44  H   UNL     1       0.803   3.797   6.292  1.00  0.00     0.167 HD
ATOM     45  C   UNL     1      -0.811   7.857   5.367  1.00  0.00     0.034 A 
ATOM     46  C   UNL     1       1.366   1.546   7.841  1.00  0.00     0.034 A 
ATOM     47  C   UNL     1      -1.083   7.597   6.759  1.00  0.00     0.049 A 
ATOM     48  C   UNL     1       0.672   2.550   8.714  1.00  0.00     0.074 A 
ATOM     49  C   UNL     1      -1.730   8.400   7.679  1.00  0.00     0.029 A 
ATOM     50  N   UNL     1      -0.713   6.436   7.432  1.00  0.00    -0.354 N 
ATOM     51  N   UNL     1       0.222   3.741   8.390  1.00  0.00    -0.248 NA
ATOM     52  C   UNL     1       0.474   2.186  10.120  1.00  0.00     0.031 C 
ATOM     53  C   UNL     1      -1.701   7.750   8.918  1.00  0.00     0.029 A 
ATOM     54  C   UNL     1      -1.090   6.513   8.761  1.00  0.00     0.049 A 
ATOM     55  H   UNL     1      -0.249   5.670   7.021  1.00  0.00     0.167 HD
ATOM     56  C   UNL     1      -0.308   4.277   9.555  1.00  0.00     0.074 A 
ATOM     57  C   UNL     1      -0.138   3.267  10.586  1.00  0.00     0.031 C 
ATOM     58  C   UNL     1      -0.878   5.491   9.759  1.00  0.00     0.034 A 
BRANCH  45  59
ATOM     59  C   UNL     1      -1.208   9.178   4.763  1.00  0.00     0.023 A 
ATOM     60  C   UNL     1      -2.175   9.269   3.747  1.00  0.00     0.031 A 
ATOM     61  C   UNL     1      -0.571  10.361   5.176  1.00  0.00     0.131 A 
ATOM     62  C   UNL     1      -2.433  10.507   3.136  1.00  0.00     0.055 A 
ATOM     63  C   UNL     1      -0.879  11.600   4.610  1.00  0.00     0.041 A 
ATOM     64  F   UNL     1       0.380  10.330   6.123  1.00  0.00    -0.206 F 
ATOM     65  C   UNL     1      -1.807  11.676   3.576  1.00  0.00     0.022 A 
BRANCH  62  66
ATOM     66  S   UNL     1      -3.516  10.553   1.682  1.00  0.00     0.124 S 
ATOM     67  O   UNL     1      -2.749   9.765   0.720  1.00  0.00    -0.237 OA
ATOM     68  O   UNL     1      -4.741   9.937   2.179  1.00  0.00    -0.237 OA
ATOM     69  O   UNL     1      -3.616  11.978   1.374  1.00  0.00    -0.744 OA
ENDBRANCH  62  66
ENDBRANCH  45  59
BRANCH  46  70
ATOM     70  C   UNL     1       1.834   0.227   8.348  1.00  0.00     0.023 A 
ATOM     71  C   UNL     1       0.927  -0.796   8.659  1.00  0.00     0.031 A 
ATOM     72  C   UNL     1       3.210  -0.051   8.457  1.00  0.00     0.131 A 
ATOM     73  C   UNL     1       1.408  -2.053   9.063  1.00  0.00     0.055 A 
ATOM     74  C   UNL     1       3.683  -1.311   8.825  1.00  0.00     0.041 A 
ATOM     75  F   UNL     1       4.118   0.891   8.154  1.00  0.00    -0.206 F 
ATOM     76  C   UNL     1       2.778  -2.321   9.133  1.00  0.00     0.022 A 
BRANCH  73  77
ATOM     77  S   UNL     1       0.214  -3.349   9.498  1.00  0.00     0.124 S 
ATOM     78  O   UNL     1      -0.420  -2.781  10.683  1.00  0.00    -0.237 OA
ATOM     79  O   UNL     1      -0.613  -3.420   8.298  1.00  0.00    -0.237 OA
ATOM     80  O   UNL     1       1.055  -4.519   9.740  1.00  0.00    -0.744 OA
ENDBRANCH  73  77
ENDBRANCH  46  70
BRANCH  58  81
ATOM     81  C   UNL     1      -1.354   5.785  11.152  1.00  0.00     0.023 A 
ATOM     82  C   UNL     1      -0.446   6.098  12.175  1.00  0.00     0.031 A 
ATOM     83  C   UNL     1      -2.729   5.808  11.439  1.00  0.00     0.131 A 
ATOM     84  C   UNL     1      -0.927   6.405  13.455  1.00  0.00     0.055 A 
ATOM     85  C   UNL     1      -3.203   6.156  12.702  1.00  0.00     0.041 A 
ATOM     86  F   UNL     1      -3.630   5.518  10.486  1.00  0.00    -0.206 F 
ATOM     87  C   UNL     1      -2.299   6.454  13.720  1.00  0.00     0.022 A 
BRANCH  84  88
ATOM     88  S   UNL     1       0.268   6.730  14.779  1.00  0.00     0.124 S 
ATOM     89  O   UNL     1       0.879   5.417  14.959  1.00  0.00    -0.237 OA
ATOM     90  O   UNL     1       1.123   7.756  14.192  1.00  0.00    -0.237 OA
ATOM     91  O   UNL     1      -0.568   7.183  15.889  1.00  0.00    -0.744 OA
ENDBRANCH  84  88
ENDBRANCH  58  81
ENDBRANCH  32  33
ENDBRANCH  25  27
ENDBRANCH  24  25
ENDBRANCH   1  24
TORSDOF 17
