REMARK SMILES CC1(C)[C@H](C(=O)OCCOC(=O)c2ccc(-c3c4nc(c(-c5cc(S(=O)(=O)[O-])ccc5F)c5ccc([nH]5)c(-c5cc(S(=O)(=O)[O-])ccc5F)c5nc(c(-c6cc(S(=O)(=O)[O-])ccc6F)c6ccc3[nH]6)C=C5)C=C4)cc2)[C@@H]1C(=O)Nc1ccc(NC(=O)C2CCC2)cc1
REMARK SMILES IDX 8 1 7 2 5 3 6 4 4 5 1 6 2 7 3 8 76 9 77 10 78 11 79 12 80 14
REMARK SMILES IDX 81 15 92 16 82 17 91 18 83 19 84 20 85 21 86 23 87 24 88 25
REMARK SMILES IDX 90 26 89 27 9 28 10 29 11 30 12 31 13 32 14 33 75 34 15 35
REMARK SMILES IDX 74 36 16 37 17 38 18 39 68 40 19 41 73 42 67 43 69 44 20 45
REMARK SMILES IDX 72 46 66 47 65 48 21 50 53 51 33 52 52 53 34 54 37 55 51 56
REMARK SMILES IDX 70 57 35 58 36 59 50 61 71 62 38 63 22 64 23 65 31 66 24 67
REMARK SMILES IDX 30 68 32 69 29 70 25 71 26 72 27 73 28 74 54 75 55 76 63 77
REMARK SMILES IDX 56 78 62 79 64 80 61 81 57 82 58 83 59 84 60 85 39 86 40 87
REMARK SMILES IDX 48 88 41 89 47 90 49 91 46 92 42 93 43 94 44 95 45 96
REMARK H PARENT 79 13 84 22 69 49 37 60
REMARK Flexibility Score: inf
ROOT
ATOM      1  C   UNL     1      -1.212   3.117  -2.502  1.00  0.00     0.274 C 
ENDROOT
BRANCH   1   2
ATOM      2  O   UNL     1      -0.639   2.220  -1.530  1.00  0.00    -0.462 OA
BRANCH   2   3
ATOM      3  C   UNL     1      -1.320   1.046  -1.383  1.00  0.00     0.310 C 
ATOM      4  O   UNL     1      -2.290   0.746  -2.050  1.00  0.00    -0.252 OA
BRANCH   3   5
ATOM      5  C   UNL     1      -0.748   0.044  -0.462  1.00  0.00     0.118 C 
ATOM      6  C   UNL     1       1.390  -1.018   0.380  1.00  0.00     0.013 C 
ATOM      7  C   UNL     1       0.446   0.164   0.437  1.00  0.00    -0.009 C 
ATOM      8  C   UNL     1       1.162   1.485   0.549  1.00  0.00     0.013 C 
ATOM      9  C   UNL     1      -0.971  -0.050   1.020  1.00  0.00     0.100 C 
BRANCH   9  10
ATOM     10  C   UNL     1      -1.578   0.955   1.919  1.00  0.00     0.228 C 
ATOM     11  O   UNL     1      -0.905   1.449   2.822  1.00  0.00    -0.274 OA
ATOM     12  N   UNL     1      -2.901   1.316   1.815  1.00  0.00    -0.326 N 
ATOM     13  H   UNL     1      -3.297   1.748   2.606  1.00  0.00     0.169 HD
BRANCH  12  14
ATOM     14  C   UNL     1      -3.746   1.139   0.720  1.00  0.00     0.041 A 
ATOM     15  C   UNL     1      -4.066   2.299   0.029  1.00  0.00     0.028 A 
ATOM     16  C   UNL     1      -4.202  -0.092   0.255  1.00  0.00     0.028 A 
ATOM     17  C   UNL     1      -4.707   2.209  -1.201  1.00  0.00     0.028 A 
ATOM     18  C   UNL     1      -4.967  -0.145  -0.929  1.00  0.00     0.028 A 
ATOM     19  C   UNL     1      -5.202   1.014  -1.689  1.00  0.00     0.041 A 
BRANCH  19  20
ATOM     20  N   UNL     1      -5.845   0.891  -2.929  1.00  0.00    -0.326 N 
ATOM     21  C   UNL     1      -6.217   1.760  -3.935  1.00  0.00     0.227 C 
ATOM     22  H   UNL     1      -6.089  -0.041  -3.131  1.00  0.00     0.169 HD
ATOM     23  O   UNL     1      -6.730   1.200  -4.925  1.00  0.00    -0.274 OA
BRANCH  21  24
ATOM     24  C   UNL     1      -6.047   3.299  -3.952  1.00  0.00     0.079 C 
ATOM     25  C   UNL     1      -7.252   4.036  -4.652  1.00  0.00     0.013 C 
ATOM     26  C   UNL     1      -6.330   4.285  -2.777  1.00  0.00     0.013 C 
ATOM     27  C   UNL     1      -6.944   5.258  -3.787  1.00  0.00     0.002 C 
ENDBRANCH  21  24
ENDBRANCH  19  20
ENDBRANCH  12  14
ENDBRANCH   9  10
ENDBRANCH   3   5
ENDBRANCH   2   3
ENDBRANCH   1   2
BRANCH   1  28
ATOM     28  C   UNL     1      -0.778   2.866  -3.957  1.00  0.00     0.275 C 
BRANCH  28  29
ATOM     29  O   UNL     1      -1.270   1.631  -4.513  1.00  0.00    -0.458 OA
BRANCH  29  30
ATOM     30  C   UNL     1      -0.451   0.568  -4.324  1.00  0.00     0.338 C 
ATOM     31  O   UNL     1       0.633   0.584  -3.760  1.00  0.00    -0.246 OA
BRANCH  30  32
ATOM     32  C   UNL     1      -1.080  -0.688  -4.769  1.00  0.00     0.060 A 
ATOM     33  C   UNL     1      -1.366  -1.651  -3.798  1.00  0.00     0.016 A 
ATOM     34  C   UNL     1      -1.212  -1.002  -6.119  1.00  0.00     0.016 A 
ATOM     35  C   UNL     1      -1.730  -2.942  -4.146  1.00  0.00     0.010 A 
ATOM     36  C   UNL     1      -1.587  -2.304  -6.478  1.00  0.00     0.010 A 
ATOM     37  C   UNL     1      -1.812  -3.286  -5.493  1.00  0.00    -0.014 A 
BRANCH  37  38
ATOM     38  C   UNL     1      -1.982  -4.710  -5.862  1.00  0.00     0.031 A 
ATOM     39  C   UNL     1      -0.803  -5.452  -6.423  1.00  0.00     0.074 A 
ATOM     40  C   UNL     1      -3.152  -5.338  -5.651  1.00  0.00     0.049 A 
ATOM     41  N   UNL     1      -0.756  -6.624  -6.995  1.00  0.00    -0.248 NA
ATOM     42  C   UNL     1       0.498  -4.772  -6.324  1.00  0.00     0.031 C 
ATOM     43  C   UNL     1      -4.321  -4.751  -4.995  1.00  0.00     0.029 A 
ATOM     44  N   UNL     1      -3.553  -6.608  -5.978  1.00  0.00    -0.354 N 
ATOM     45  C   UNL     1       0.571  -6.807  -7.368  1.00  0.00     0.074 A 
ATOM     46  C   UNL     1       1.293  -5.620  -6.960  1.00  0.00     0.031 C 
ATOM     47  C   UNL     1      -5.316  -5.653  -4.989  1.00  0.00     0.029 A 
ATOM     48  C   UNL     1      -4.880  -6.847  -5.707  1.00  0.00     0.049 A 
ATOM     49  H   UNL     1      -2.950  -7.282  -6.368  1.00  0.00     0.167 HD
ATOM     50  C   UNL     1       1.125  -7.869  -8.004  1.00  0.00     0.034 A 
ATOM     51  C   UNL     1      -5.665  -7.884  -6.059  1.00  0.00     0.034 A 
ATOM     52  C   UNL     1       0.374  -9.039  -8.389  1.00  0.00     0.049 A 
ATOM     53  C   UNL     1      -5.058  -9.007  -6.862  1.00  0.00     0.074 A 
ATOM     54  C   UNL     1       0.813 -10.168  -9.057  1.00  0.00     0.029 A 
ATOM     55  N   UNL     1      -0.981  -9.228  -8.139  1.00  0.00    -0.354 N 
ATOM     56  N   UNL     1      -3.821  -9.145  -7.285  1.00  0.00    -0.248 NA
ATOM     57  C   UNL     1      -5.949 -10.110  -7.240  1.00  0.00     0.031 C 
ATOM     58  C   UNL     1      -0.287 -11.006  -9.270  1.00  0.00     0.029 A 
ATOM     59  C   UNL     1      -1.397 -10.441  -8.661  1.00  0.00     0.049 A 
ATOM     60  H   UNL     1      -1.560  -8.591  -7.661  1.00  0.00     0.167 HD
ATOM     61  C   UNL     1      -3.780 -10.369  -7.947  1.00  0.00     0.074 A 
ATOM     62  C   UNL     1      -5.114 -10.928  -7.865  1.00  0.00     0.031 C 
ATOM     63  C   UNL     1      -2.734 -10.980  -8.560  1.00  0.00     0.034 A 
BRANCH  50  64
ATOM     64  C   UNL     1       2.581  -7.766  -8.388  1.00  0.00     0.023 A 
ATOM     65  C   UNL     1       3.605  -7.673  -7.429  1.00  0.00     0.031 A 
ATOM     66  C   UNL     1       2.946  -7.714  -9.746  1.00  0.00     0.131 A 
ATOM     67  C   UNL     1       4.931  -7.461  -7.839  1.00  0.00     0.055 A 
ATOM     68  C   UNL     1       4.277  -7.584 -10.148  1.00  0.00     0.041 A 
ATOM     69  F   UNL     1       2.011  -7.770 -10.707  1.00  0.00    -0.206 F 
ATOM     70  C   UNL     1       5.277  -7.441  -9.192  1.00  0.00     0.022 A 
BRANCH  67  71
ATOM     71  S   UNL     1       6.176  -7.064  -6.581  1.00  0.00     0.124 S 
ATOM     72  O   UNL     1       5.612  -5.859  -5.976  1.00  0.00    -0.237 OA
ATOM     73  O   UNL     1       6.174  -8.259  -5.746  1.00  0.00    -0.237 OA
ATOM     74  O   UNL     1       7.394  -6.849  -7.360  1.00  0.00    -0.744 OA
ENDBRANCH  67  71
ENDBRANCH  50  64
BRANCH  51  75
ATOM     75  C   UNL     1      -7.119  -7.875  -5.727  1.00  0.00     0.023 A 
ATOM     76  C   UNL     1      -7.679  -8.851  -4.891  1.00  0.00     0.031 A 
ATOM     77  C   UNL     1      -7.980  -6.907  -6.279  1.00  0.00     0.131 A 
ATOM     78  C   UNL     1      -9.064  -8.864  -4.660  1.00  0.00     0.055 A 
ATOM     79  C   UNL     1      -9.348  -6.890  -6.002  1.00  0.00     0.041 A 
ATOM     80  F   UNL     1      -7.498  -5.952  -7.090  1.00  0.00    -0.206 F 
ATOM     81  C   UNL     1      -9.900  -7.882  -5.197  1.00  0.00     0.022 A 
BRANCH  78  82
ATOM     82  S   UNL     1      -9.773 -10.238  -3.712  1.00  0.00     0.124 S 
ATOM     83  O   UNL     1      -9.353 -11.390  -4.500  1.00  0.00    -0.237 OA
ATOM     84  O   UNL     1      -9.125 -10.076  -2.415  1.00  0.00    -0.237 OA
ATOM     85  O   UNL     1     -11.207  -9.959  -3.729  1.00  0.00    -0.744 OA
ENDBRANCH  78  82
ENDBRANCH  51  75
BRANCH  63  86
ATOM     86  C   UNL     1      -2.977 -12.360  -9.118  1.00  0.00     0.023 A 
ATOM     87  C   UNL     1      -3.797 -12.578 -10.238  1.00  0.00     0.031 A 
ATOM     88  C   UNL     1      -2.361 -13.473  -8.518  1.00  0.00     0.131 A 
ATOM     89  C   UNL     1      -4.014 -13.887 -10.697  1.00  0.00     0.055 A 
ATOM     90  C   UNL     1      -2.535 -14.765  -9.013  1.00  0.00     0.041 A 
ATOM     91  F   UNL     1      -1.569 -13.318  -7.444  1.00  0.00    -0.206 F 
ATOM     92  C   UNL     1      -3.374 -14.978 -10.102  1.00  0.00     0.022 A 
BRANCH  89  93
ATOM     93  S   UNL     1      -5.202 -14.155 -12.040  1.00  0.00     0.124 S 
ATOM     94  O   UNL     1      -6.435 -13.628 -11.464  1.00  0.00    -0.237 OA
ATOM     95  O   UNL     1      -4.624 -13.377 -13.130  1.00  0.00    -0.237 OA
ATOM     96  O   UNL     1      -5.179 -15.604 -12.234  1.00  0.00    -0.744 OA
ENDBRANCH  89  93
ENDBRANCH  63  86
ENDBRANCH  37  38
ENDBRANCH  30  32
ENDBRANCH  29  30
ENDBRANCH  28  29
ENDBRANCH   1  28
TORSDOF 18
