REMARK SMILES Cc1cccc(-n2ncc(C(=O)Nc3cccc(C(=O)OCCOC(=O)c4ccc(-c5c6nc(c(-c7cc(S(=O)(=O)[O-])ccc7F)c7ccc([nH]7)c(-c7cc(S(=O)(=O)[O-])ccc7F)c7nc(c(-c8cc(S(=O)(=O)[O-])ccc8F)c8ccc5[nH]8)C=C7)C=C6)cc4)c3C)c2C)c1
REMARK SMILES IDX 22 1 21 2 19 3 20 4 18 5 14 6 15 7 90 8 16 9 91 10 17 11
REMARK SMILES IDX 13 12 11 13 12 14 10 16 7 17 8 18 92 19 9 20 93 21 6 22 1 23
REMARK SMILES IDX 2 24 3 25 94 26 4 27 5 28 23 29 24 30 25 31 26 32 27 33
REMARK SMILES IDX 28 34 89 35 29 36 88 37 30 38 31 39 32 40 82 41 33 42 87 43
REMARK SMILES IDX 81 44 83 45 34 46 86 47 80 48 79 49 35 51 67 52 47 53 66 54
REMARK SMILES IDX 48 55 51 56 65 57 84 58 49 59 50 60 64 62 85 63 52 64 36 65
REMARK SMILES IDX 37 66 45 67 38 68 44 69 46 70 43 71 39 72 40 73 41 74 42 75
REMARK SMILES IDX 68 76 69 77 77 78 70 79 76 80 78 81 75 82 71 83 72 84 73 85
REMARK SMILES IDX 74 86 53 87 54 88 62 89 55 90 61 91 63 92 60 93 56 94 57 95
REMARK SMILES IDX 58 96 59 97
REMARK H PARENT 13 15 83 50 51 61
REMARK Flexibility Score: inf
ROOT
ATOM      1  C   UNL     1      -2.916  10.927  -4.252  1.00  0.00     0.275 C 
ENDROOT
BRANCH   1   2
ATOM      2  O   UNL     1      -3.087   9.798  -3.382  1.00  0.00    -0.458 OA
BRANCH   2   3
ATOM      3  C   UNL     1      -4.338   9.367  -3.131  1.00  0.00     0.338 C 
ATOM      4  O   UNL     1      -5.393   9.919  -3.465  1.00  0.00    -0.246 OA
BRANCH   3   5
ATOM      5  C   UNL     1      -4.270   7.983  -2.618  1.00  0.00     0.065 A 
ATOM      6  C   UNL     1      -4.577   6.180  -1.023  1.00  0.00     0.045 A 
ATOM      7  C   UNL     1      -4.239   5.264  -2.027  1.00  0.00     0.026 A 
ATOM      8  C   UNL     1      -4.700   7.553  -1.340  1.00  0.00    -0.013 A 
ATOM      9  C   UNL     1      -3.830   5.697  -3.283  1.00  0.00     0.003 A 
ATOM     10  C   UNL     1      -5.244   8.498  -0.303  1.00  0.00     0.047 C 
ATOM     11  C   UNL     1      -3.806   7.053  -3.563  1.00  0.00     0.016 A 
BRANCH   6  12
ATOM     12  N   UNL     1      -4.817   5.748   0.299  1.00  0.00    -0.322 N 
ATOM     13  C   UNL     1      -4.344   4.665   1.011  1.00  0.00     0.259 C 
ATOM     14  O   UNL     1      -4.942   4.361   2.045  1.00  0.00    -0.269 OA
ATOM     15  H   UNL     1      -5.435   6.324   0.805  1.00  0.00     0.170 HD
BRANCH  13  16
ATOM     16  C   UNL     1      -3.146   3.947   0.587  1.00  0.00     0.081 A 
ATOM     17  N   UNL     1      -1.624   2.352   0.275  1.00  0.00    -0.237 N 
ATOM     18  N   UNL     1      -1.135   3.431  -0.378  1.00  0.00    -0.175 NA
ATOM     19  C   UNL     1      -2.752   2.680   1.012  1.00  0.00     0.054 A 
ATOM     20  C   UNL     1      -2.041   4.382  -0.177  1.00  0.00     0.149 A 
ATOM     21  C   UNL     1      -3.280   1.871   2.145  1.00  0.00     0.068 C 
BRANCH  17  22
ATOM     22  C   UNL     1      -0.970   1.101   0.143  1.00  0.00     0.065 A 
ATOM     23  C   UNL     1       2.611  -0.146  -0.132  1.00  0.00     0.044 C 
ATOM     24  C   UNL     1       1.112  -0.130  -0.076  1.00  0.00    -0.049 A 
ATOM     25  C   UNL     1       0.390  -1.329  -0.030  1.00  0.00     0.003 A 
ATOM     26  C   UNL     1       0.421   1.086  -0.029  1.00  0.00     0.031 A 
ATOM     27  C   UNL     1      -1.003  -1.314   0.079  1.00  0.00     0.002 A 
ATOM     28  C   UNL     1      -1.685  -0.101   0.176  1.00  0.00     0.028 A 
ENDBRANCH  17  22
ENDBRANCH  13  16
ENDBRANCH   6  12
ENDBRANCH   3   5
ENDBRANCH   2   3
ENDBRANCH   1   2
BRANCH   1  29
ATOM     29  C   UNL     1      -3.365  12.325  -3.780  1.00  0.00     0.275 C 
BRANCH  29  30
ATOM     30  O   UNL     1      -4.165  12.447  -2.579  1.00  0.00    -0.458 OA
BRANCH  30  31
ATOM     31  C   UNL     1      -3.858  12.014  -1.323  1.00  0.00     0.338 C 
ATOM     32  O   UNL     1      -4.725  11.811  -0.481  1.00  0.00    -0.246 OA
BRANCH  31  33
ATOM     33  C   UNL     1      -2.485  11.528  -1.123  1.00  0.00     0.060 A 
ATOM     34  C   UNL     1      -2.302  10.270  -0.526  1.00  0.00     0.016 A 
ATOM     35  C   UNL     1      -1.433  12.195  -1.728  1.00  0.00     0.016 A 
ATOM     36  C   UNL     1      -1.097   9.610  -0.649  1.00  0.00     0.010 A 
ATOM     37  C   UNL     1      -0.310  11.480  -2.035  1.00  0.00     0.010 A 
ATOM     38  C   UNL     1      -0.124  10.232  -1.421  1.00  0.00    -0.014 A 
BRANCH  38  39
ATOM     39  C   UNL     1       1.272   9.877  -1.299  1.00  0.00     0.031 A 
ATOM     40  C   UNL     1       1.773   8.687  -1.983  1.00  0.00     0.074 A 
ATOM     41  C   UNL     1       1.930  10.773  -0.530  1.00  0.00     0.049 A 
ATOM     42  N   UNL     1       2.693   7.919  -1.525  1.00  0.00    -0.248 NA
ATOM     43  C   UNL     1       1.190   8.186  -3.231  1.00  0.00     0.031 C 
ATOM     44  C   UNL     1       3.328  11.009  -0.250  1.00  0.00     0.029 A 
ATOM     45  N   UNL     1       1.288  11.640   0.355  1.00  0.00    -0.354 N 
ATOM     46  C   UNL     1       3.123   7.165  -2.597  1.00  0.00     0.074 A 
ATOM     47  C   UNL     1       2.030   7.188  -3.536  1.00  0.00     0.031 C 
ATOM     48  C   UNL     1       3.412  11.706   0.908  1.00  0.00     0.029 A 
ATOM     49  C   UNL     1       2.068  11.822   1.478  1.00  0.00     0.049 A 
ATOM     50  H   UNL     1       0.410  12.058   0.202  1.00  0.00     0.167 HD
ATOM     51  C   UNL     1       4.453   6.869  -2.682  1.00  0.00     0.034 A 
ATOM     52  C   UNL     1       1.596  11.216   2.614  1.00  0.00     0.034 A 
ATOM     53  C   UNL     1       5.153   7.434  -1.520  1.00  0.00     0.049 A 
ATOM     54  C   UNL     1       2.393   9.960   2.924  1.00  0.00     0.074 A 
ATOM     55  C   UNL     1       5.871   8.604  -1.329  1.00  0.00     0.029 A 
ATOM     56  N   UNL     1       4.807   6.993  -0.255  1.00  0.00    -0.354 N 
ATOM     57  N   UNL     1       3.202   9.372   2.081  1.00  0.00    -0.248 NA
ATOM     58  C   UNL     1       2.305   9.253   4.195  1.00  0.00     0.031 C 
ATOM     59  C   UNL     1       5.889   8.886   0.073  1.00  0.00     0.029 A 
ATOM     60  C   UNL     1       5.189   7.888   0.726  1.00  0.00     0.049 A 
ATOM     61  H   UNL     1       4.343   6.143  -0.075  1.00  0.00     0.167 HD
ATOM     62  C   UNL     1       3.804   8.306   2.681  1.00  0.00     0.074 A 
ATOM     63  C   UNL     1       3.140   8.223   3.977  1.00  0.00     0.031 C 
ATOM     64  C   UNL     1       4.817   7.588   2.100  1.00  0.00     0.034 A 
BRANCH  51  65
ATOM     65  C   UNL     1       5.172   6.424  -3.936  1.00  0.00     0.023 A 
ATOM     66  C   UNL     1       6.548   6.714  -4.056  1.00  0.00     0.031 A 
ATOM     67  C   UNL     1       4.604   5.749  -5.035  1.00  0.00     0.131 A 
ATOM     68  C   UNL     1       7.269   6.427  -5.228  1.00  0.00     0.055 A 
ATOM     69  C   UNL     1       5.314   5.490  -6.220  1.00  0.00     0.041 A 
ATOM     70  F   UNL     1       3.354   5.269  -5.002  1.00  0.00    -0.206 F 
ATOM     71  C   UNL     1       6.653   5.838  -6.326  1.00  0.00     0.022 A 
BRANCH  68  72
ATOM     72  S   UNL     1       9.034   6.836  -5.284  1.00  0.00     0.124 S 
ATOM     73  O   UNL     1       9.019   8.286  -5.116  1.00  0.00    -0.237 OA
ATOM     74  O   UNL     1       9.567   6.062  -4.169  1.00  0.00    -0.237 OA
ATOM     75  O   UNL     1       9.447   6.373  -6.609  1.00  0.00    -0.744 OA
ENDBRANCH  68  72
ENDBRANCH  51  65
BRANCH  52  76
ATOM     76  C   UNL     1       0.103  11.379   2.833  1.00  0.00     0.023 A 
ATOM     77  C   UNL     1      -0.465  12.662   2.624  1.00  0.00     0.031 A 
ATOM     78  C   UNL     1      -0.802  10.317   2.973  1.00  0.00     0.131 A 
ATOM     79  C   UNL     1      -1.845  12.829   2.403  1.00  0.00     0.055 A 
ATOM     80  C   UNL     1      -2.192  10.500   2.840  1.00  0.00     0.041 A 
ATOM     81  F   UNL     1      -0.371   9.060   3.149  1.00  0.00    -0.206 F 
ATOM     82  C   UNL     1      -2.719  11.752   2.512  1.00  0.00     0.022 A 
BRANCH  79  83
ATOM     83  S   UNL     1      -2.405  14.420   1.714  1.00  0.00     0.124 S 
ATOM     84  O   UNL     1      -2.373  15.290   2.884  1.00  0.00    -0.237 OA
ATOM     85  O   UNL     1      -1.394  14.682   0.690  1.00  0.00    -0.237 OA
ATOM     86  O   UNL     1      -3.733  14.133   1.186  1.00  0.00    -0.744 OA
ENDBRANCH  79  83
ENDBRANCH  52  76
BRANCH  64  87
ATOM     87  C   UNL     1       5.539   6.486   2.824  1.00  0.00     0.023 A 
ATOM     88  C   UNL     1       5.696   6.526   4.211  1.00  0.00     0.031 A 
ATOM     89  C   UNL     1       6.123   5.381   2.164  1.00  0.00     0.131 A 
ATOM     90  C   UNL     1       6.203   5.424   4.904  1.00  0.00     0.055 A 
ATOM     91  C   UNL     1       6.741   4.337   2.850  1.00  0.00     0.041 A 
ATOM     92  F   UNL     1       6.100   5.241   0.832  1.00  0.00    -0.206 F 
ATOM     93  C   UNL     1       6.746   4.332   4.235  1.00  0.00     0.022 A 
BRANCH  90  94
ATOM     94  S   UNL     1       6.002   5.408   6.698  1.00  0.00     0.124 S 
ATOM     95  O   UNL     1       6.588   6.683   7.097  1.00  0.00    -0.237 OA
ATOM     96  O   UNL     1       4.550   5.311   6.827  1.00  0.00    -0.237 OA
ATOM     97  O   UNL     1       6.745   4.221   7.113  1.00  0.00    -0.744 OA
ENDBRANCH  90  94
ENDBRANCH  64  87
ENDBRANCH  38  39
ENDBRANCH  31  33
ENDBRANCH  30  31
ENDBRANCH  29  30
ENDBRANCH   1  29
TORSDOF 17
