REMARK SMILES Cc1ccc([C@H](C)[N@@H+](CC(=O)OCCOC(=O)c2ccc(-c3c4nc(c(-c5cc(S(=O)(=O)[O-])ccc5F)c5ccc([nH]5)c(-c5cc(S(=O)(=O)[O-])ccc5F)c5nc(c(-c6cc(S(=O)(=O)[O-])ccc6F)c6ccc3[nH]6)C=C5)C=C4)cc2)CC(F)(F)F)cc1
REMARK SMILES IDX 13 1 12 2 10 3 11 4 9 5 8 6 6 8 7 9 5 10 1 11 2 12 3 13
REMARK SMILES IDX 87 14 4 15 86 16 81 17 82 18 83 19 84 20 85 21 14 22 15 23
REMARK SMILES IDX 16 24 17 25 18 26 19 27 80 28 20 29 79 30 21 31 22 32 23 33
REMARK SMILES IDX 73 34 24 35 78 36 72 37 74 38 25 39 77 40 71 41 70 42 26 44
REMARK SMILES IDX 58 45 38 46 57 47 39 48 42 49 56 50 75 51 40 52 41 53 55 55
REMARK SMILES IDX 76 56 43 57 27 58 28 59 36 60 29 61 35 62 37 63 34 64 30 65
REMARK SMILES IDX 31 66 32 67 33 68 59 69 60 70 68 71 61 72 67 73 69 74 66 75
REMARK SMILES IDX 62 76 63 77 64 78 65 79 44 80 45 81 53 82 46 83 52 84 54 85
REMARK SMILES IDX 51 86 47 87 48 88 49 89 50 90
REMARK H PARENT 8 7 74 43 42 54
REMARK Flexibility Score: inf
ROOT
ATOM      1  C   UNL     1      -5.389  -2.858  -2.743  1.00  0.00     0.274 C 
ENDROOT
BRANCH   1   2
ATOM      2  O   UNL     1      -5.115  -1.572  -2.164  1.00  0.00    -0.458 OA
BRANCH   2   3
ATOM      3  C   UNL     1      -4.028  -1.533  -1.384  1.00  0.00     0.361 C 
ATOM      4  O   UNL     1      -3.221  -2.450  -1.334  1.00  0.00    -0.245 OA
BRANCH   3   5
ATOM      5  C   UNL     1      -3.910  -0.269  -0.551  1.00  0.00     0.387 C 
BRANCH   5   6
ATOM      6  N   UNL     1      -2.542  -0.151   0.007  1.00  0.00    -0.312 N 
ATOM      7  H   UNL     1      -2.458   0.652   0.631  1.00  0.00     0.349 HD
BRANCH   6   8
ATOM      8  C   UNL     1      -1.534   0.363  -0.953  1.00  0.00     0.212 C 
ATOM      9  C   UNL     1      -0.096   0.389  -0.442  1.00  0.00     0.081 C 
BRANCH   8  10
ATOM     10  C   UNL     1      -1.660  -0.162  -2.395  1.00  0.00     0.009 A 
ATOM     11  C   UNL     1      -3.343  -2.165  -5.837  1.00  0.00     0.044 C 
ATOM     12  C   UNL     1      -2.647  -1.420  -4.734  1.00  0.00    -0.051 A 
ATOM     13  C   UNL     1      -2.974  -0.090  -4.459  1.00  0.00     0.004 A 
ATOM     14  C   UNL     1      -1.706  -2.062  -3.919  1.00  0.00     0.004 A 
ATOM     15  C   UNL     1      -2.481   0.534  -3.308  1.00  0.00     0.010 A 
ATOM     16  C   UNL     1      -1.199  -1.432  -2.770  1.00  0.00     0.010 A 
ENDBRANCH   8  10
ENDBRANCH   6   8
BRANCH   6  17
ATOM     17  C   UNL     1      -2.243  -1.192   1.042  1.00  0.00     0.380 C 
BRANCH  17  18
ATOM     18  C   UNL     1      -1.474  -2.553   0.948  1.00  0.00     0.438 C 
ATOM     19  F   UNL     1      -0.233  -2.412   0.430  1.00  0.00    -0.165 F 
ATOM     20  F   UNL     1      -1.282  -3.012   2.221  1.00  0.00    -0.165 F 
ATOM     21  F   UNL     1      -2.074  -3.554   0.293  1.00  0.00    -0.165 F 
ENDBRANCH  17  18
ENDBRANCH   6  17
ENDBRANCH   5   6
ENDBRANCH   3   5
ENDBRANCH   2   3
ENDBRANCH   1   2
BRANCH   1  22
ATOM     22  C   UNL     1      -5.120  -4.176  -1.930  1.00  0.00     0.275 C 
BRANCH  22  23
ATOM     23  O   UNL     1      -4.836  -4.248  -0.462  1.00  0.00    -0.458 OA
BRANCH  23  24
ATOM     24  C   UNL     1      -5.306  -3.779   0.729  1.00  0.00     0.338 C 
ATOM     25  O   UNL     1      -4.746  -4.017   1.795  1.00  0.00    -0.246 OA
BRANCH  24  26
ATOM     26  C   UNL     1      -6.384  -2.780   0.719  1.00  0.00     0.060 A 
ATOM     27  C   UNL     1      -6.601  -1.775   1.682  1.00  0.00     0.016 A 
ATOM     28  C   UNL     1      -7.099  -2.734  -0.427  1.00  0.00     0.016 A 
ATOM     29  C   UNL     1      -7.461  -0.699   1.369  1.00  0.00     0.010 A 
ATOM     30  C   UNL     1      -7.405  -1.490  -0.869  1.00  0.00     0.010 A 
ATOM     31  C   UNL     1      -7.850  -0.558   0.040  1.00  0.00    -0.014 A 
BRANCH  31  32
ATOM     32  C   UNL     1      -8.867   0.266  -0.614  1.00  0.00     0.031 A 
ATOM     33  C   UNL     1      -8.746   1.710  -0.757  1.00  0.00     0.074 A 
ATOM     34  C   UNL     1      -9.793  -0.428  -1.333  1.00  0.00     0.049 A 
ATOM     35  N   UNL     1      -9.648   2.554  -0.399  1.00  0.00    -0.248 NA
ATOM     36  C   UNL     1      -7.590   2.307  -1.423  1.00  0.00     0.031 C 
ATOM     37  C   UNL     1     -10.805  -0.022  -2.286  1.00  0.00     0.029 A 
ATOM     38  N   UNL     1      -9.973  -1.817  -1.273  1.00  0.00    -0.354 N 
ATOM     39  C   UNL     1      -9.371   3.704  -1.108  1.00  0.00     0.074 A 
ATOM     40  C   UNL     1      -8.002   3.574  -1.567  1.00  0.00     0.031 C 
ATOM     41  C   UNL     1     -11.668  -1.053  -2.447  1.00  0.00     0.029 A 
ATOM     42  C   UNL     1     -11.283  -2.141  -1.547  1.00  0.00     0.049 A 
ATOM     43  H   UNL     1      -9.264  -2.467  -1.064  1.00  0.00     0.167 HD
ATOM     44  C   UNL     1     -10.381   4.489  -1.583  1.00  0.00     0.034 A 
ATOM     45  C   UNL     1     -11.944  -2.704  -0.494  1.00  0.00     0.034 A 
ATOM     46  C   UNL     1     -11.655   3.761  -1.548  1.00  0.00     0.049 A 
ATOM     47  C   UNL     1     -12.857  -1.676   0.121  1.00  0.00     0.074 A 
ATOM     48  C   UNL     1     -12.381   3.154  -2.561  1.00  0.00     0.029 A 
ATOM     49  N   UNL     1     -12.180   3.281  -0.354  1.00  0.00    -0.354 N 
ATOM     50  N   UNL     1     -12.879  -0.423  -0.238  1.00  0.00    -0.248 NA
ATOM     51  C   UNL     1     -13.797  -1.969   1.192  1.00  0.00     0.031 C 
ATOM     52  C   UNL     1     -13.287   2.238  -1.968  1.00  0.00     0.029 A 
ATOM     53  C   UNL     1     -13.134   2.305  -0.594  1.00  0.00     0.049 A 
ATOM     54  H   UNL     1     -11.911   3.592   0.540  1.00  0.00     0.167 HD
ATOM     55  C   UNL     1     -13.717   0.275   0.573  1.00  0.00     0.074 A 
ATOM     56  C   UNL     1     -14.329  -0.753   1.403  1.00  0.00     0.031 C 
ATOM     57  C   UNL     1     -13.797   1.638   0.519  1.00  0.00     0.034 A 
BRANCH  44  58
ATOM     58  C   UNL     1     -10.176   5.726  -2.432  1.00  0.00     0.023 A 
ATOM     59  C   UNL     1     -11.204   6.160  -3.293  1.00  0.00     0.031 A 
ATOM     60  C   UNL     1      -9.038   6.556  -2.381  1.00  0.00     0.131 A 
ATOM     61  C   UNL     1     -11.059   7.296  -4.107  1.00  0.00     0.055 A 
ATOM     62  C   UNL     1      -8.876   7.674  -3.215  1.00  0.00     0.041 A 
ATOM     63  F   UNL     1      -8.053   6.338  -1.495  1.00  0.00    -0.206 F 
ATOM     64  C   UNL     1      -9.887   8.046  -4.091  1.00  0.00     0.022 A 
BRANCH  61  65
ATOM     65  S   UNL     1     -12.449   7.794  -5.160  1.00  0.00     0.124 S 
ATOM     66  O   UNL     1     -12.565   6.658  -6.069  1.00  0.00    -0.237 OA
ATOM     67  O   UNL     1     -13.528   7.959  -4.193  1.00  0.00    -0.237 OA
ATOM     68  O   UNL     1     -11.980   9.034  -5.776  1.00  0.00    -0.744 OA
ENDBRANCH  61  65
ENDBRANCH  44  58
BRANCH  45  69
ATOM     69  C   UNL     1     -11.089  -3.691   0.287  1.00  0.00     0.023 A 
ATOM     70  C   UNL     1     -10.509  -4.772  -0.422  1.00  0.00     0.031 A 
ATOM     71  C   UNL     1     -10.566  -3.429   1.566  1.00  0.00     0.131 A 
ATOM     72  C   UNL     1      -9.406  -5.480   0.097  1.00  0.00     0.055 A 
ATOM     73  C   UNL     1      -9.501  -4.176   2.105  1.00  0.00     0.041 A 
ATOM     74  F   UNL     1     -11.006  -2.388   2.286  1.00  0.00    -0.206 F 
ATOM     75  C   UNL     1      -8.900  -5.193   1.363  1.00  0.00     0.022 A 
BRANCH  72  76
ATOM     76  S   UNL     1      -8.470  -6.566  -1.026  1.00  0.00     0.124 S 
ATOM     77  O   UNL     1      -9.277  -7.779  -1.033  1.00  0.00    -0.237 OA
ATOM     78  O   UNL     1      -8.460  -5.788  -2.265  1.00  0.00    -0.237 OA
ATOM     79  O   UNL     1      -7.164  -6.674  -0.384  1.00  0.00    -0.744 OA
ENDBRANCH  72  76
ENDBRANCH  45  69
BRANCH  57  80
ATOM     80  C   UNL     1     -14.596   2.451   1.490  1.00  0.00     0.023 A 
ATOM     81  C   UNL     1     -14.901   1.989   2.772  1.00  0.00     0.031 A 
ATOM     82  C   UNL     1     -15.067   3.738   1.155  1.00  0.00     0.131 A 
ATOM     83  C   UNL     1     -15.789   2.692   3.590  1.00  0.00     0.055 A 
ATOM     84  C   UNL     1     -15.844   4.500   2.027  1.00  0.00     0.041 A 
ATOM     85  F   UNL     1     -14.804   4.299  -0.035  1.00  0.00    -0.206 F 
ATOM     86  C   UNL     1     -16.246   3.959   3.240  1.00  0.00     0.022 A 
BRANCH  83  87
ATOM     87  S   UNL     1     -16.457   1.821   5.026  1.00  0.00     0.124 S 
ATOM     88  O   UNL     1     -17.077   0.653   4.403  1.00  0.00    -0.237 OA
ATOM     89  O   UNL     1     -15.261   1.554   5.817  1.00  0.00    -0.237 OA
ATOM     90  O   UNL     1     -17.391   2.783   5.606  1.00  0.00    -0.744 OA
ENDBRANCH  83  87
ENDBRANCH  57  80
ENDBRANCH  31  32
ENDBRANCH  24  26
ENDBRANCH  23  24
ENDBRANCH  22  23
ENDBRANCH   1  22
TORSDOF 19
