REMARK SMILES Cc1c(Cl)cccc1NC(=O)C[C@](C)(C(=O)OCCOC(=O)c1ccc(-c2c3nc(c(-c4cc(S(=O)(=O)[O-])ccc4F)c4ccc([nH]4)c(-c4cc(S(=O)(=O)[O-])ccc4F)c4nc(c(-c5cc(S(=O)(=O)[O-])ccc5F)c5ccc2[nH]5)C=C4)C=C3)cc1)c1ccccc1
REMARK SMILES IDX 18 1 17 2 15 3 16 4 13 5 14 6 12 7 10 8 9 9 11 11 8 12 1 13
REMARK SMILES IDX 2 14 3 15 4 16 5 17 7 18 6 19 86 20 87 21 91 22 88 23 90 24
REMARK SMILES IDX 89 25 19 26 20 27 21 28 22 29 23 30 24 31 85 32 25 33 84 34
REMARK SMILES IDX 26 35 27 36 28 37 78 38 29 39 83 40 77 41 79 42 30 43 82 44
REMARK SMILES IDX 76 45 75 46 31 48 63 49 43 50 62 51 44 52 47 53 61 54 80 55
REMARK SMILES IDX 45 56 46 57 60 59 81 60 48 61 32 62 33 63 41 64 34 65 40 66
REMARK SMILES IDX 42 67 39 68 35 69 36 70 37 71 38 72 64 73 65 74 73 75 66 76
REMARK SMILES IDX 72 77 74 78 71 79 67 80 68 81 69 82 70 83 49 84 50 85 58 86
REMARK SMILES IDX 51 87 57 88 59 89 56 90 52 91 53 92 54 93 55 94
REMARK H PARENT 9 10 79 47 47 58
REMARK Flexibility Score: inf
ROOT
ATOM      1  C   UNL     1      -6.449  -2.552  -0.988  1.00  0.00     0.274 C 
ENDROOT
BRANCH   1   2
ATOM      2  O   UNL     1      -5.687  -1.330  -0.873  1.00  0.00    -0.461 OA
BRANCH   2   3
ATOM      3  C   UNL     1      -4.798  -1.051  -1.871  1.00  0.00     0.316 C 
ATOM      4  O   UNL     1      -4.637  -1.802  -2.826  1.00  0.00    -0.251 OA
BRANCH   3   5
ATOM      5  C   UNL     1      -3.948   0.236  -1.592  1.00  0.00     0.099 C 
ATOM      6  C   UNL     1      -4.564   1.027  -0.397  1.00  0.00     0.029 C 
BRANCH   5   7
ATOM      7  C   UNL     1      -2.482  -0.151  -1.223  1.00  0.00     0.123 C 
BRANCH   7   8
ATOM      8  C   UNL     1      -2.097  -1.619  -1.245  1.00  0.00     0.225 C 
ATOM      9  N   UNL     1      -2.498  -2.548  -0.335  1.00  0.00    -0.326 N 
ATOM     10  H   UNL     1      -2.204  -3.456  -0.576  1.00  0.00     0.169 HD
ATOM     11  O   UNL     1      -1.374  -2.039  -2.157  1.00  0.00    -0.275 OA
BRANCH   9  12
ATOM     12  C   UNL     1      -3.231  -2.529   0.867  1.00  0.00     0.045 A 
ATOM     13  C   UNL     1      -3.699  -5.057   0.646  1.00  0.00     0.048 C 
ATOM     14  C   UNL     1      -3.855  -3.717   1.327  1.00  0.00    -0.009 A 
ATOM     15  C   UNL     1      -4.718  -3.637   2.447  1.00  0.00     0.046 A 
ATOM     16  Cl  UNL     1      -5.597  -5.014   3.026  1.00  0.00    -0.084 Cl
ATOM     17  C   UNL     1      -4.929  -2.434   3.117  1.00  0.00     0.021 A 
ATOM     18  C   UNL     1      -3.375  -1.364   1.624  1.00  0.00     0.026 A 
ATOM     19  C   UNL     1      -4.236  -1.303   2.722  1.00  0.00     0.004 A 
ENDBRANCH   9  12
ENDBRANCH   7   8
ENDBRANCH   5   7
BRANCH   5  20
ATOM     20  C   UNL     1      -3.878   1.188  -2.837  1.00  0.00    -0.030 A 
ATOM     21  C   UNL     1      -3.882   2.595  -2.702  1.00  0.00     0.005 A 
ATOM     22  C   UNL     1      -3.767   0.686  -4.148  1.00  0.00     0.005 A 
ATOM     23  C   UNL     1      -3.860   3.446  -3.814  1.00  0.00     0.000 A 
ATOM     24  C   UNL     1      -3.749   1.537  -5.262  1.00  0.00     0.000 A 
ATOM     25  C   UNL     1      -3.807   2.916  -5.096  1.00  0.00     0.000 A 
ENDBRANCH   5  20
ENDBRANCH   3   5
ENDBRANCH   2   3
ENDBRANCH   1   2
BRANCH   1  26
ATOM     26  C   UNL     1      -7.886  -2.329  -0.512  1.00  0.00     0.275 C 
BRANCH  26  27
ATOM     27  O   UNL     1      -8.590  -1.560  -1.498  1.00  0.00    -0.458 OA
BRANCH  27  28
ATOM     28  C   UNL     1      -8.444  -0.217  -1.365  1.00  0.00     0.338 C 
ATOM     29  O   UNL     1      -8.066   0.387  -0.384  1.00  0.00    -0.246 OA
BRANCH  28  30
ATOM     30  C   UNL     1      -8.533   0.361  -2.719  1.00  0.00     0.060 A 
ATOM     31  C   UNL     1      -7.450   1.131  -3.142  1.00  0.00     0.016 A 
ATOM     32  C   UNL     1      -9.604   0.113  -3.578  1.00  0.00     0.016 A 
ATOM     33  C   UNL     1      -7.407   1.629  -4.434  1.00  0.00     0.010 A 
ATOM     34  C   UNL     1      -9.574   0.640  -4.873  1.00  0.00     0.010 A 
ATOM     35  C   UNL     1      -8.468   1.390  -5.307  1.00  0.00    -0.014 A 
BRANCH  35  36
ATOM     36  C   UNL     1      -8.457   2.047  -6.629  1.00  0.00     0.031 A 
ATOM     37  C   UNL     1      -9.116   3.383  -6.765  1.00  0.00     0.074 A 
ATOM     38  C   UNL     1      -7.792   1.504  -7.663  1.00  0.00     0.049 A 
ATOM     39  N   UNL     1      -9.359   4.085  -7.838  1.00  0.00    -0.248 NA
ATOM     40  C   UNL     1      -9.544   4.018  -5.510  1.00  0.00     0.031 C 
ATOM     41  C   UNL     1      -6.962   0.301  -7.596  1.00  0.00     0.029 A 
ATOM     42  N   UNL     1      -7.704   1.902  -8.973  1.00  0.00    -0.354 N 
ATOM     43  C   UNL     1      -9.980   5.244  -7.392  1.00  0.00     0.074 A 
ATOM     44  C   UNL     1     -10.084   5.142  -5.952  1.00  0.00     0.031 C 
ATOM     45  C   UNL     1      -6.458   0.054  -8.818  1.00  0.00     0.029 A 
ATOM     46  C   UNL     1      -6.989   1.033  -9.764  1.00  0.00     0.049 A 
ATOM     47  H   UNL     1      -8.113   2.730  -9.313  1.00  0.00     0.167 HD
ATOM     48  C   UNL     1     -10.432   6.290  -8.127  1.00  0.00     0.034 A 
ATOM     49  C   UNL     1      -6.837   1.009 -11.104  1.00  0.00     0.034 A 
ATOM     50  C   UNL     1     -10.351   6.339  -9.565  1.00  0.00     0.049 A 
ATOM     51  C   UNL     1      -7.540   2.068 -11.925  1.00  0.00     0.074 A 
ATOM     52  C   UNL     1     -10.843   7.302 -10.428  1.00  0.00     0.029 A 
ATOM     53  N   UNL     1      -9.748   5.368 -10.356  1.00  0.00    -0.354 N 
ATOM     54  N   UNL     1      -8.221   3.115 -11.517  1.00  0.00    -0.248 NA
ATOM     55  C   UNL     1      -7.477   1.925 -13.386  1.00  0.00     0.031 C 
ATOM     56  C   UNL     1     -10.608   6.873 -11.739  1.00  0.00     0.029 A 
ATOM     57  C   UNL     1      -9.894   5.684 -11.697  1.00  0.00     0.049 A 
ATOM     58  H   UNL     1      -9.284   4.570 -10.013  1.00  0.00     0.167 HD
ATOM     59  C   UNL     1      -8.646   3.768 -12.672  1.00  0.00     0.074 A 
ATOM     60  C   UNL     1      -8.135   3.002 -13.791  1.00  0.00     0.031 C 
ATOM     61  C   UNL     1      -9.388   4.898 -12.799  1.00  0.00     0.034 A 
BRANCH  48  62
ATOM     62  C   UNL     1     -11.146   7.385  -7.376  1.00  0.00     0.023 A 
ATOM     63  C   UNL     1     -10.491   8.174  -6.414  1.00  0.00     0.031 A 
ATOM     64  C   UNL     1     -12.529   7.572  -7.553  1.00  0.00     0.131 A 
ATOM     65  C   UNL     1     -11.235   9.042  -5.601  1.00  0.00     0.055 A 
ATOM     66  C   UNL     1     -13.247   8.504  -6.803  1.00  0.00     0.041 A 
ATOM     67  F   UNL     1     -13.213   6.825  -8.433  1.00  0.00    -0.206 F 
ATOM     68  C   UNL     1     -12.604   9.231  -5.805  1.00  0.00     0.022 A 
BRANCH  65  69
ATOM     69  S   UNL     1     -10.427   9.773  -4.150  1.00  0.00     0.124 S 
ATOM     70  O   UNL     1      -9.967   8.584  -3.436  1.00  0.00    -0.237 OA
ATOM     71  O   UNL     1      -9.386  10.600  -4.751  1.00  0.00    -0.237 OA
ATOM     72  O   UNL     1     -11.505  10.508  -3.490  1.00  0.00    -0.744 OA
ENDBRANCH  65  69
ENDBRANCH  48  62
BRANCH  49  73
ATOM     73  C   UNL     1      -6.080  -0.090 -11.772  1.00  0.00     0.023 A 
ATOM     74  C   UNL     1      -4.963   0.185 -12.578  1.00  0.00     0.031 A 
ATOM     75  C   UNL     1      -6.508  -1.428 -11.679  1.00  0.00     0.131 A 
ATOM     76  C   UNL     1      -4.341  -0.853 -13.291  1.00  0.00     0.055 A 
ATOM     77  C   UNL     1      -5.848  -2.465 -12.342  1.00  0.00     0.041 A 
ATOM     78  F   UNL     1      -7.582  -1.749 -10.941  1.00  0.00    -0.206 F 
ATOM     79  C   UNL     1      -4.765  -2.178 -13.165  1.00  0.00     0.022 A 
BRANCH  76  80
ATOM     80  S   UNL     1      -3.026  -0.434 -14.469  1.00  0.00     0.124 S 
ATOM     81  O   UNL     1      -3.726   0.454 -15.390  1.00  0.00    -0.237 OA
ATOM     82  O   UNL     1      -2.031   0.193 -13.604  1.00  0.00    -0.237 OA
ATOM     83  O   UNL     1      -2.639  -1.729 -15.023  1.00  0.00    -0.744 OA
ENDBRANCH  76  80
ENDBRANCH  49  73
BRANCH  61  84
ATOM     84  C   UNL     1      -9.658   5.394 -14.199  1.00  0.00     0.023 A 
ATOM     85  C   UNL     1     -10.498   4.695 -15.084  1.00  0.00     0.031 A 
ATOM     86  C   UNL     1      -9.085   6.599 -14.642  1.00  0.00     0.131 A 
ATOM     87  C   UNL     1     -10.712   5.190 -16.380  1.00  0.00     0.055 A 
ATOM     88  C   UNL     1      -9.347   7.115 -15.912  1.00  0.00     0.041 A 
ATOM     89  F   UNL     1      -8.273   7.305 -13.839  1.00  0.00    -0.206 F 
ATOM     90  C   UNL     1     -10.158   6.405 -16.791  1.00  0.00     0.022 A 
BRANCH  87  91
ATOM     91  S   UNL     1     -11.679   4.194 -17.547  1.00  0.00     0.124 S 
ATOM     92  O   UNL     1     -10.880   2.976 -17.641  1.00  0.00    -0.237 OA
ATOM     93  O   UNL     1     -12.961   4.064 -16.864  1.00  0.00    -0.237 OA
ATOM     94  O   UNL     1     -11.704   5.012 -18.758  1.00  0.00    -0.744 OA
ENDBRANCH  87  91
ENDBRANCH  61  84
ENDBRANCH  35  36
ENDBRANCH  28  30
ENDBRANCH  27  28
ENDBRANCH  26  27
ENDBRANCH   1  26
TORSDOF 18
