REMARK SMILES CC(C)c1csc(C(=O)N2C[C@@H]3c4ccccc4OC[C@]3(C(=O)OCCOC(=O)c3ccc(-c4c5nc(c(-c6cc(S(=O)(=O)[O-])ccc6F)c6ccc([nH]6)c(-c6cc(S(=O)(=O)[O-])ccc6F)c6nc(c(-c7cc(S(=O)(=O)[O-])ccc7F)c7ccc4[nH]7)C=C6)C=C5)cc3)C2)n1
REMARK SMILES IDX 25 1 24 2 22 3 23 4 21 5 10 6 11 7 93 8 12 9 13 10 20 11
REMARK SMILES IDX 14 12 18 13 19 14 15 15 17 16 16 17 8 18 9 19 7 20 4 21 5 22
REMARK SMILES IDX 94 23 6 24 2 25 1 26 3 27 26 28 27 29 28 30 29 31 30 32
REMARK SMILES IDX 31 33 92 34 32 35 91 36 33 37 34 38 35 39 85 40 36 41 90 42
REMARK SMILES IDX 84 43 86 44 37 45 89 46 83 47 82 48 38 50 70 51 50 52 69 53
REMARK SMILES IDX 51 54 54 55 68 56 87 57 52 58 53 59 67 61 88 62 55 63 39 64
REMARK SMILES IDX 40 65 48 66 41 67 47 68 49 69 46 70 42 71 43 72 44 73 45 74
REMARK SMILES IDX 71 75 72 76 80 77 73 78 79 79 81 80 78 81 74 82 75 83 76 84
REMARK SMILES IDX 77 85 56 86 57 87 65 88 58 89 64 90 66 91 63 92 59 93 60 94
REMARK SMILES IDX 61 95 62 96
REMARK H PARENT 86 49 54 60
REMARK Flexibility Score: inf
ROOT
ATOM      1  C   UNL     1      -2.112  -3.868   4.857  1.00  0.00     0.274 C 
ENDROOT
BRANCH   1   2
ATOM      2  O   UNL     1      -2.663  -3.370   3.620  1.00  0.00    -0.461 OA
BRANCH   2   3
ATOM      3  C   UNL     1      -2.111  -3.780   2.431  1.00  0.00     0.318 C 
ATOM      4  O   UNL     1      -0.985  -4.227   2.298  1.00  0.00    -0.251 OA
BRANCH   3   5
ATOM      5  C   UNL     1      -3.139  -3.563   1.332  1.00  0.00     0.128 C 
ATOM      6  N   UNL     1      -3.793  -1.672   0.041  1.00  0.00    -0.335 N 
ATOM      7  C   UNL     1      -3.616  -2.762  -0.883  1.00  0.00     0.129 C 
ATOM      8  C   UNL     1      -3.380  -2.041   1.377  1.00  0.00     0.143 C 
ATOM      9  C   UNL     1      -2.705  -3.754  -0.129  1.00  0.00     0.065 C 
ATOM     10  C   UNL     1      -2.946  -5.117  -0.693  1.00  0.00     0.000 A 
ATOM     11  C   UNL     1      -4.396  -4.390   1.652  1.00  0.00     0.251 C 
ATOM     12  C   UNL     1      -2.322  -5.511  -1.891  1.00  0.00     0.008 A 
ATOM     13  C   UNL     1      -3.873  -5.965  -0.101  1.00  0.00     0.122 A 
ATOM     14  O   UNL     1      -4.518  -5.688   1.063  1.00  0.00    -0.492 OA
ATOM     15  C   UNL     1      -2.627  -6.738  -2.482  1.00  0.00     0.001 A 
ATOM     16  C   UNL     1      -4.173  -7.196  -0.691  1.00  0.00     0.047 A 
ATOM     17  C   UNL     1      -3.554  -7.583  -1.881  1.00  0.00     0.004 A 
BRANCH   6  18
ATOM     18  C   UNL     1      -4.043  -0.388  -0.414  1.00  0.00     0.282 C 
ATOM     19  O   UNL     1      -4.975  -0.172  -1.190  1.00  0.00    -0.266 OA
BRANCH  18  20
ATOM     20  C   UNL     1      -3.061   0.617  -0.021  1.00  0.00     0.181 A 
ATOM     21  C   UNL     1      -1.037   1.487   0.265  1.00  0.00     0.055 A 
ATOM     22  C   UNL     1      -1.807   2.633   0.378  1.00  0.00     0.091 A 
ATOM     23  N   UNL     1      -1.779   0.331   0.107  1.00  0.00    -0.236 NA
ATOM     24  S   UNL     1      -3.470   2.265   0.157  1.00  0.00    -0.117 S 
BRANCH  21  25
ATOM     25  C   UNL     1       0.471   1.398   0.285  1.00  0.00     0.033 C 
ATOM     26  C   UNL     1       0.985  -0.033   0.079  1.00  0.00     0.014 C 
ATOM     27  C   UNL     1       1.099   2.309  -0.777  1.00  0.00     0.014 C 
ENDBRANCH  21  25
ENDBRANCH  18  20
ENDBRANCH   6  18
ENDBRANCH   3   5
ENDBRANCH   2   3
ENDBRANCH   1   2
BRANCH   1  28
ATOM     28  C   UNL     1      -2.891  -5.127   5.240  1.00  0.00     0.275 C 
BRANCH  28  29
ATOM     29  O   UNL     1      -2.422  -6.164   4.372  1.00  0.00    -0.458 OA
BRANCH  29  30
ATOM     30  C   UNL     1      -3.264  -7.178   4.084  1.00  0.00     0.338 C 
ATOM     31  O   UNL     1      -4.368  -7.376   4.570  1.00  0.00    -0.246 OA
BRANCH  30  32
ATOM     32  C   UNL     1      -2.555  -8.053   3.130  1.00  0.00     0.060 A 
ATOM     33  C   UNL     1      -2.613  -9.434   3.281  1.00  0.00     0.016 A 
ATOM     34  C   UNL     1      -1.781  -7.493   2.107  1.00  0.00     0.016 A 
ATOM     35  C   UNL     1      -1.813 -10.237   2.465  1.00  0.00     0.010 A 
ATOM     36  C   UNL     1      -1.045  -8.295   1.246  1.00  0.00     0.010 A 
ATOM     37  C   UNL     1      -1.008  -9.672   1.454  1.00  0.00    -0.014 A 
BRANCH  37  38
ATOM     38  C   UNL     1      -0.136 -10.531   0.620  1.00  0.00     0.031 A 
ATOM     39  C   UNL     1       1.362 -10.420   0.697  1.00  0.00     0.074 A 
ATOM     40  C   UNL     1      -0.714 -11.425  -0.203  1.00  0.00     0.049 A 
ATOM     41  N   UNL     1       2.268 -11.209   0.179  1.00  0.00    -0.248 NA
ATOM     42  C   UNL     1       1.923  -9.273   1.430  1.00  0.00     0.031 C 
ATOM     43  C   UNL     1      -2.155 -11.534  -0.426  1.00  0.00     0.029 A 
ATOM     44  N   UNL     1      -0.176 -12.419  -0.977  1.00  0.00    -0.354 N 
ATOM     45  C   UNL     1       3.497 -10.661   0.529  1.00  0.00     0.074 A 
ATOM     46  C   UNL     1       3.225  -9.435   1.242  1.00  0.00     0.031 C 
ATOM     47  C   UNL     1      -2.394 -12.584  -1.223  1.00  0.00     0.029 A 
ATOM     48  C   UNL     1      -1.122 -13.203  -1.593  1.00  0.00     0.049 A 
ATOM     49  H   UNL     1       0.793 -12.558  -1.082  1.00  0.00     0.167 HD
ATOM     50  C   UNL     1       4.736 -11.160   0.305  1.00  0.00     0.034 A 
ATOM     51  C   UNL     1      -0.984 -14.313  -2.347  1.00  0.00     0.034 A 
ATOM     52  C   UNL     1       4.973 -12.396  -0.397  1.00  0.00     0.049 A 
ATOM     53  C   UNL     1       0.398 -14.879  -2.547  1.00  0.00     0.074 A 
ATOM     54  C   UNL     1       6.177 -13.041  -0.608  1.00  0.00     0.029 A 
ATOM     55  N   UNL     1       3.992 -13.169  -1.003  1.00  0.00    -0.354 N 
ATOM     56  N   UNL     1       1.543 -14.435  -2.082  1.00  0.00    -0.248 NA
ATOM     57  C   UNL     1       0.514 -16.101  -3.354  1.00  0.00     0.031 C 
ATOM     58  C   UNL     1       5.935 -14.163  -1.400  1.00  0.00     0.029 A 
ATOM     59  C   UNL     1       4.569 -14.265  -1.621  1.00  0.00     0.049 A 
ATOM     60  H   UNL     1       3.028 -12.967  -0.996  1.00  0.00     0.167 HD
ATOM     61  C   UNL     1       2.514 -15.325  -2.533  1.00  0.00     0.074 A 
ATOM     62  C   UNL     1       1.815 -16.354  -3.276  1.00  0.00     0.031 C 
ATOM     63  C   UNL     1       3.859 -15.286  -2.357  1.00  0.00     0.034 A 
BRANCH  50  64
ATOM     64  C   UNL     1       5.935 -10.416   0.846  1.00  0.00     0.023 A 
ATOM     65  C   UNL     1       6.938  -9.953  -0.027  1.00  0.00     0.031 A 
ATOM     66  C   UNL     1       6.153 -10.288   2.231  1.00  0.00     0.131 A 
ATOM     67  C   UNL     1       8.122  -9.414   0.493  1.00  0.00     0.055 A 
ATOM     68  C   UNL     1       7.315  -9.709   2.743  1.00  0.00     0.041 A 
ATOM     69  F   UNL     1       5.234 -10.723   3.109  1.00  0.00    -0.206 F 
ATOM     70  C   UNL     1       8.312  -9.281   1.873  1.00  0.00     0.022 A 
BRANCH  67  71
ATOM     71  S   UNL     1       9.493  -8.928  -0.591  1.00  0.00     0.124 S 
ATOM     72  O   UNL     1       9.661  -7.517  -0.248  1.00  0.00    -0.237 OA
ATOM     73  O   UNL     1      10.566  -9.810  -0.141  1.00  0.00    -0.237 OA
ATOM     74  O   UNL     1       8.986  -9.183  -1.935  1.00  0.00    -0.744 OA
ENDBRANCH  67  71
ENDBRANCH  50  64
BRANCH  51  75
ATOM     75  C   UNL     1      -2.212 -14.984  -2.865  1.00  0.00     0.023 A 
ATOM     76  C   UNL     1      -3.090 -14.305  -3.731  1.00  0.00     0.031 A 
ATOM     77  C   UNL     1      -2.603 -16.246  -2.387  1.00  0.00     0.131 A 
ATOM     78  C   UNL     1      -4.346 -14.851  -4.021  1.00  0.00     0.055 A 
ATOM     79  C   UNL     1      -3.824 -16.822  -2.742  1.00  0.00     0.041 A 
ATOM     80  F   UNL     1      -1.810 -16.926  -1.545  1.00  0.00    -0.206 F 
ATOM     81  C   UNL     1      -4.713 -16.114  -3.546  1.00  0.00     0.022 A 
BRANCH  78  82
ATOM     82  S   UNL     1      -5.605 -13.871  -4.886  1.00  0.00     0.124 S 
ATOM     83  O   UNL     1      -5.843 -14.669  -6.084  1.00  0.00    -0.237 OA
ATOM     84  O   UNL     1      -6.693 -13.855  -3.911  1.00  0.00    -0.237 OA
ATOM     85  O   UNL     1      -4.951 -12.585  -5.103  1.00  0.00    -0.744 OA
ENDBRANCH  78  82
ENDBRANCH  51  75
BRANCH  63  86
ATOM     86  C   UNL     1       4.703 -16.364  -2.994  1.00  0.00     0.023 A 
ATOM     87  C   UNL     1       5.489 -17.211  -2.190  1.00  0.00     0.031 A 
ATOM     88  C   UNL     1       4.870 -16.424  -4.388  1.00  0.00     0.131 A 
ATOM     89  C   UNL     1       6.450 -18.039  -2.784  1.00  0.00     0.055 A 
ATOM     90  C   UNL     1       5.791 -17.290  -4.978  1.00  0.00     0.041 A 
ATOM     91  F   UNL     1       4.152 -15.627  -5.196  1.00  0.00    -0.206 F 
ATOM     92  C   UNL     1       6.599 -18.089  -4.173  1.00  0.00     0.022 A 
BRANCH  89  93
ATOM     93  S   UNL     1       7.611 -18.998  -1.773  1.00  0.00     0.124 S 
ATOM     94  O   UNL     1       7.334 -20.365  -2.209  1.00  0.00    -0.237 OA
ATOM     95  O   UNL     1       8.902 -18.459  -2.194  1.00  0.00    -0.237 OA
ATOM     96  O   UNL     1       7.221 -18.694  -0.401  1.00  0.00    -0.744 OA
ENDBRANCH  89  93
ENDBRANCH  63  86
ENDBRANCH  37  38
ENDBRANCH  30  32
ENDBRANCH  29  30
ENDBRANCH  28  29
ENDBRANCH   1  28
TORSDOF 17
