REMARK SMILES O=C(CCCN1C(=O)c2ccc3c4c(ccc(c24)C1=O)C(=O)NC3=O)OCCOC(=O)c1ccc(-c2c3nc(c(-c4cc(S(=O)(=O)[O-])ccc4F)c4ccc([nH]4)c(-c4cc(S(=O)(=O)[O-])ccc4F)c4nc(c(-c5cc(S(=O)(=O)[O-])ccc5F)c5ccc2[nH]5)C=C4)C=C3)cc1
REMARK SMILES IDX 27 1 26 2 2 3 1 4 3 5 4 6 5 7 6 8 19 9 7 10 20 11 17 12 9 13
REMARK SMILES IDX 8 14 16 15 18 16 10 17 15 18 13 19 11 20 14 21 12 22 21 23
REMARK SMILES IDX 24 24 23 25 22 26 25 27 28 29 29 30 30 31 31 32 32 33 33 34
REMARK SMILES IDX 94 35 34 36 93 37 35 38 36 39 37 40 87 41 38 42 92 43 86 44
REMARK SMILES IDX 88 45 39 46 91 47 85 48 84 49 40 51 72 52 52 53 71 54 53 55
REMARK SMILES IDX 56 56 70 57 89 58 54 59 55 60 69 62 90 63 57 64 41 65 42 66
REMARK SMILES IDX 50 67 43 68 49 69 51 70 48 71 44 72 45 73 46 74 47 75 73 76
REMARK SMILES IDX 74 77 82 78 75 79 81 80 83 81 80 82 76 83 77 84 78 85 79 86
REMARK SMILES IDX 58 87 59 88 67 89 60 90 66 91 68 92 65 93 61 94 62 95 63 96
REMARK SMILES IDX 64 97
REMARK H PARENT 23 28 88 50 56 61
REMARK Flexibility Score: inf
ROOT
ATOM      1  C   UNL     1       3.634   0.636   1.513  1.00  0.00     0.274 C 
ENDROOT
BRANCH   1   2
ATOM      2  O   UNL     1       2.482   0.851   0.682  1.00  0.00    -0.462 OA
BRANCH   2   3
ATOM      3  C   UNL     1       2.603   0.847  -0.670  1.00  0.00     0.305 C 
ATOM      4  O   UNL     1       2.034   1.690  -1.356  1.00  0.00    -0.252 OA
BRANCH   3   5
ATOM      5  C   UNL     1       3.339  -0.321  -1.289  1.00  0.00     0.124 C 
BRANCH   5   6
ATOM      6  C   UNL     1       4.416   0.071  -2.295  1.00  0.00     0.034 C 
BRANCH   6   7
ATOM      7  C   UNL     1       5.763   0.511  -1.698  1.00  0.00     0.130 C 
BRANCH   7   8
ATOM      8  N   UNL     1       6.367  -0.314  -0.638  1.00  0.00    -0.274 N 
ATOM      9  C   UNL     1       7.107   0.370   0.332  1.00  0.00     0.261 C 
ATOM     10  C   UNL     1       6.350  -1.705  -0.738  1.00  0.00     0.261 C 
ATOM     11  O   UNL     1       7.296   1.584   0.326  1.00  0.00    -0.269 OA
ATOM     12  C   UNL     1       7.665  -0.421   1.451  1.00  0.00     0.049 A 
ATOM     13  C   UNL     1       6.846  -2.473   0.433  1.00  0.00     0.049 A 
ATOM     14  O   UNL     1       5.951  -2.324  -1.717  1.00  0.00    -0.269 OA
ATOM     15  C   UNL     1       8.338   0.236   2.492  1.00  0.00     0.015 A 
ATOM     16  C   UNL     1       7.481  -1.805   1.484  1.00  0.00     0.009 A 
ATOM     17  C   UNL     1       6.668  -3.862   0.481  1.00  0.00     0.015 A 
ATOM     18  C   UNL     1       8.821  -0.487   3.580  1.00  0.00     0.015 A 
ATOM     19  C   UNL     1       7.955  -2.543   2.599  1.00  0.00     0.009 A 
ATOM     20  C   UNL     1       7.104  -4.590   1.589  1.00  0.00     0.015 A 
ATOM     21  C   UNL     1       8.621  -1.869   3.635  1.00  0.00     0.048 A 
ATOM     22  C   UNL     1       7.747  -3.931   2.640  1.00  0.00     0.048 A 
ATOM     23  C   UNL     1       9.122  -2.634   4.800  1.00  0.00     0.258 C 
ATOM     24  C   UNL     1       8.224  -4.702   3.813  1.00  0.00     0.258 C 
ATOM     25  N   UNL     1       8.870  -3.984   4.792  1.00  0.00    -0.288 N 
ATOM     26  O   UNL     1       9.727  -2.086   5.713  1.00  0.00    -0.269 OA
ATOM     27  O   UNL     1       8.056  -5.910   3.904  1.00  0.00    -0.269 OA
ATOM     28  H   UNL     1       9.185  -4.494   5.573  1.00  0.00     0.173 HD
ENDBRANCH   7   8
ENDBRANCH   6   7
ENDBRANCH   5   6
ENDBRANCH   3   5
ENDBRANCH   2   3
ENDBRANCH   1   2
BRANCH   1  29
ATOM     29  C   UNL     1       3.495  -0.585   2.426  1.00  0.00     0.275 C 
BRANCH  29  30
ATOM     30  O   UNL     1       3.350  -1.793   1.661  1.00  0.00    -0.458 OA
BRANCH  30  31
ATOM     31  C   UNL     1       2.057  -2.149   1.414  1.00  0.00     0.338 C 
ATOM     32  O   UNL     1       1.069  -1.618   1.876  1.00  0.00    -0.246 OA
BRANCH  31  33
ATOM     33  C   UNL     1       2.013  -3.184   0.352  1.00  0.00     0.060 A 
ATOM     34  C   UNL     1       0.943  -3.150  -0.551  1.00  0.00     0.016 A 
ATOM     35  C   UNL     1       2.994  -4.172   0.235  1.00  0.00     0.016 A 
ATOM     36  C   UNL     1       0.833  -4.121  -1.550  1.00  0.00     0.010 A 
ATOM     37  C   UNL     1       2.892  -5.135  -0.773  1.00  0.00     0.010 A 
ATOM     38  C   UNL     1       1.792  -5.136  -1.650  1.00  0.00    -0.014 A 
BRANCH  38  39
ATOM     39  C   UNL     1       1.555  -6.308  -2.532  1.00  0.00     0.031 A 
ATOM     40  C   UNL     1       1.073  -7.589  -1.905  1.00  0.00     0.074 A 
ATOM     41  C   UNL     1       1.771  -6.251  -3.858  1.00  0.00     0.049 A 
ATOM     42  N   UNL     1       0.877  -8.763  -2.446  1.00  0.00    -0.248 NA
ATOM     43  C   UNL     1       0.796  -7.534  -0.462  1.00  0.00     0.031 C 
ATOM     44  C   UNL     1       2.219  -5.069  -4.592  1.00  0.00     0.029 A 
ATOM     45  N   UNL     1       1.657  -7.223  -4.821  1.00  0.00    -0.354 N 
ATOM     46  C   UNL     1       0.465  -9.592  -1.408  1.00  0.00     0.074 A 
ATOM     47  C   UNL     1       0.492  -8.794  -0.200  1.00  0.00     0.031 C 
ATOM     48  C   UNL     1       2.361  -5.392  -5.890  1.00  0.00     0.029 A 
ATOM     49  C   UNL     1       2.046  -6.808  -6.073  1.00  0.00     0.049 A 
ATOM     50  H   UNL     1       1.329  -8.132  -4.633  1.00  0.00     0.167 HD
ATOM     51  C   UNL     1       0.085 -10.893  -1.456  1.00  0.00     0.034 A 
ATOM     52  C   UNL     1       2.162  -7.499  -7.227  1.00  0.00     0.034 A 
ATOM     53  C   UNL     1       0.071 -11.680  -2.664  1.00  0.00     0.049 A 
ATOM     54  C   UNL     1       1.800  -8.964  -7.254  1.00  0.00     0.074 A 
ATOM     55  C   UNL     1      -0.321 -12.997  -2.833  1.00  0.00     0.029 A 
ATOM     56  N   UNL     1       0.483 -11.227  -3.912  1.00  0.00    -0.354 N 
ATOM     57  N   UNL     1       1.390  -9.734  -6.272  1.00  0.00    -0.248 NA
ATOM     58  C   UNL     1       1.910  -9.653  -8.548  1.00  0.00     0.031 C 
ATOM     59  C   UNL     1      -0.081 -13.360  -4.163  1.00  0.00     0.029 A 
ATOM     60  C   UNL     1       0.388 -12.248  -4.845  1.00  0.00     0.049 A 
ATOM     61  H   UNL     1       0.797 -10.314  -4.104  1.00  0.00     0.167 HD
ATOM     62  C   UNL     1       1.164 -10.987  -6.837  1.00  0.00     0.074 A 
ATOM     63  C   UNL     1       1.484 -10.872  -8.245  1.00  0.00     0.031 C 
ATOM     64  C   UNL     1       0.717 -12.125  -6.247  1.00  0.00     0.034 A 
BRANCH  51  65
ATOM     65  C   UNL     1      -0.288 -11.543  -0.145  1.00  0.00     0.023 A 
ATOM     66  C   UNL     1      -1.370 -11.081   0.625  1.00  0.00     0.031 A 
ATOM     67  C   UNL     1       0.499 -12.581   0.382  1.00  0.00     0.131 A 
ATOM     68  C   UNL     1      -1.568 -11.579   1.921  1.00  0.00     0.055 A 
ATOM     69  C   UNL     1       0.237 -13.140   1.635  1.00  0.00     0.041 A 
ATOM     70  F   UNL     1       1.558 -13.050  -0.297  1.00  0.00    -0.206 F 
ATOM     71  C   UNL     1      -0.788 -12.623   2.422  1.00  0.00     0.022 A 
BRANCH  68  72
ATOM     72  S   UNL     1      -2.728 -10.707   3.011  1.00  0.00     0.124 S 
ATOM     73  O   UNL     1      -2.198  -9.346   2.978  1.00  0.00    -0.237 OA
ATOM     74  O   UNL     1      -4.006 -10.913   2.340  1.00  0.00    -0.237 OA
ATOM     75  O   UNL     1      -2.576 -11.393   4.293  1.00  0.00    -0.744 OA
ENDBRANCH  68  72
ENDBRANCH  51  65
BRANCH  52  76
ATOM     76  C   UNL     1       2.690  -6.825  -8.447  1.00  0.00     0.023 A 
ATOM     77  C   UNL     1       1.876  -6.596  -9.567  1.00  0.00     0.031 A 
ATOM     78  C   UNL     1       4.036  -6.425  -8.513  1.00  0.00     0.131 A 
ATOM     79  C   UNL     1       2.425  -6.011 -10.719  1.00  0.00     0.055 A 
ATOM     80  C   UNL     1       4.566  -5.804  -9.645  1.00  0.00     0.041 A 
ATOM     81  F   UNL     1       4.855  -6.621  -7.467  1.00  0.00    -0.206 F 
ATOM     82  C   UNL     1       3.760  -5.602 -10.761  1.00  0.00     0.022 A 
BRANCH  79  83
ATOM     83  S   UNL     1       1.378  -5.831 -12.190  1.00  0.00     0.124 S 
ATOM     84  O   UNL     1       1.079  -7.222 -12.513  1.00  0.00    -0.237 OA
ATOM     85  O   UNL     1       0.265  -5.038 -11.678  1.00  0.00    -0.237 OA
ATOM     86  O   UNL     1       2.245  -5.140 -13.142  1.00  0.00    -0.744 OA
ENDBRANCH  79  83
ENDBRANCH  52  76
BRANCH  64  87
ATOM     87  C   UNL     1       0.490 -13.327  -7.131  1.00  0.00     0.023 A 
ATOM     88  C   UNL     1       1.553 -14.043  -7.708  1.00  0.00     0.031 A 
ATOM     89  C   UNL     1      -0.821 -13.778  -7.372  1.00  0.00     0.131 A 
ATOM     90  C   UNL     1       1.284 -15.155  -8.523  1.00  0.00     0.055 A 
ATOM     91  C   UNL     1      -1.080 -14.911  -8.145  1.00  0.00     0.041 A 
ATOM     92  F   UNL     1      -1.873 -13.131  -6.846  1.00  0.00    -0.206 F 
ATOM     93  C   UNL     1      -0.024 -15.602  -8.732  1.00  0.00     0.022 A 
BRANCH  90  94
ATOM     94  S   UNL     1       2.665 -15.986  -9.356  1.00  0.00     0.124 S 
ATOM     95  O   UNL     1       3.211 -14.915 -10.183  1.00  0.00    -0.237 OA
ATOM     96  O   UNL     1       3.496 -16.414  -8.235  1.00  0.00    -0.237 OA
ATOM     97  O   UNL     1       2.019 -17.070 -10.095  1.00  0.00    -0.744 OA
ENDBRANCH  90  94
ENDBRANCH  64  87
ENDBRANCH  38  39
ENDBRANCH  31  33
ENDBRANCH  30  31
ENDBRANCH  29  30
ENDBRANCH   1  29
TORSDOF 17
