REMARK SMILES C[NH+]1CCN(c2nc3c(cc2F)c(=O)c(C(=O)OCCOC(=O)c2ccc(-c4c5nc(c(-c6cc(S(=O)(=O)[O-])ccc6F)c6ccc([nH]6)c(-c6cc(S(=O)(=O)[O-])ccc6F)c6nc(c(-c7cc(S(=O)(=O)[O-])ccc7F)c7ccc4[nH]7)C=C6)C=C5)cc2)cn3-c2ccc(F)cc2F)CC1
REMARK SMILES IDX 20 1 19 2 18 3 16 4 17 5 15 6 6 7 7 8 11 9 8 10 10 11 12 12
REMARK SMILES IDX 9 13 88 14 13 15 87 16 14 17 5 18 1 19 2 20 3 21 98 22 4 24
REMARK SMILES IDX 97 25 89 26 90 27 95 28 91 29 94 30 96 31 92 32 93 33 21 34
REMARK SMILES IDX 22 35 23 36 24 37 25 38 86 39 26 40 85 41 27 42 28 43 29 44
REMARK SMILES IDX 79 45 30 46 84 47 78 48 80 49 31 50 83 51 77 52 76 53 32 55
REMARK SMILES IDX 64 56 44 57 63 58 45 59 48 60 62 61 81 62 46 63 47 64 61 66
REMARK SMILES IDX 82 67 49 68 33 69 34 70 42 71 35 72 41 73 43 74 40 75 36 76
REMARK SMILES IDX 37 77 38 78 39 79 65 80 66 81 74 82 67 83 73 84 75 85 72 86
REMARK SMILES IDX 68 87 69 88 70 89 71 90 50 91 51 92 59 93 52 94 58 95 60 96
REMARK SMILES IDX 57 97 53 98 54 99 55 100 56 101
REMARK H PARENT 2 23 80 54 48 65
REMARK Flexibility Score: inf
ROOT
ATOM      1  C   UNL     1     -11.256   1.179   4.568  1.00  0.00     0.275 C 
ENDROOT
BRANCH   1   2
ATOM      2  C   UNL     1     -10.688  -0.204   4.260  1.00  0.00     0.275 C 
BRANCH   2   3
ATOM      3  O   UNL     1      -9.345  -0.090   3.752  1.00  0.00    -0.458 OA
BRANCH   3   4
ATOM      4  C   UNL     1      -9.168  -0.342   2.435  1.00  0.00     0.343 C 
ATOM      5  O   UNL     1     -10.037  -0.677   1.642  1.00  0.00    -0.246 OA
BRANCH   4   6
ATOM      6  C   UNL     1      -7.776  -0.087   2.032  1.00  0.00     0.124 A 
ATOM      7  C   UNL     1      -2.826  -0.142   0.991  1.00  0.00     0.167 A 
ATOM      8  N   UNL     1      -3.897   0.427   0.392  1.00  0.00    -0.209 NA
ATOM      9  C   UNL     1      -2.947  -0.805   2.219  1.00  0.00     0.166 A 
ATOM     10  C   UNL     1      -5.124   0.296   0.967  1.00  0.00     0.151 A 
ATOM     11  C   UNL     1      -4.170  -0.887   2.850  1.00  0.00     0.059 A 
ATOM     12  F   UNL     1      -1.876  -1.357   2.812  1.00  0.00    -0.203 F 
ATOM     13  C   UNL     1      -5.276  -0.342   2.208  1.00  0.00     0.069 A 
ATOM     14  N   UNL     1      -6.293   0.773   0.291  1.00  0.00    -0.297 N 
ATOM     15  C   UNL     1      -6.607  -0.505   2.825  1.00  0.00     0.205 A 
ATOM     16  C   UNL     1      -7.535   0.497   0.849  1.00  0.00     0.113 A 
ATOM     17  O   UNL     1      -6.709  -1.046   3.921  1.00  0.00    -0.288 OA
BRANCH   7  18
ATOM     18  N   UNL     1      -1.602  -0.073   0.376  1.00  0.00    -0.343 N 
ATOM     19  C   UNL     1       2.567   0.152  -0.005  1.00  0.00     0.332 C 
ATOM     20  N   UNL     1       1.166   0.040  -0.411  1.00  0.00    -0.334 N 
ATOM     21  C   UNL     1       0.406   1.250   0.006  1.00  0.00     0.283 C 
ATOM     22  C   UNL     1       0.567  -1.176   0.190  1.00  0.00     0.283 C 
ATOM     23  H   UNL     1       1.121  -0.034  -1.427  1.00  0.00     0.347 HD
ATOM     24  C   UNL     1      -1.124   1.154  -0.247  1.00  0.00     0.179 C 
ATOM     25  C   UNL     1      -0.947  -1.297  -0.070  1.00  0.00     0.179 C 
ENDBRANCH   7  18
BRANCH  14  26
ATOM     26  C   UNL     1      -6.232   1.457  -0.962  1.00  0.00     0.083 A 
ATOM     27  C   UNL     1      -5.804   0.787  -2.119  1.00  0.00     0.033 A 
ATOM     28  C   UNL     1      -6.633   2.802  -1.080  1.00  0.00     0.150 A 
ATOM     29  C   UNL     1      -5.785   1.446  -3.351  1.00  0.00     0.041 A 
ATOM     30  C   UNL     1      -6.600   3.470  -2.301  1.00  0.00     0.080 A 
ATOM     31  F   UNL     1      -7.050   3.472   0.005  1.00  0.00    -0.205 F 
ATOM     32  C   UNL     1      -6.176   2.780  -3.428  1.00  0.00     0.126 A 
ATOM     33  F   UNL     1      -6.138   3.403  -4.611  1.00  0.00    -0.207 F 
ENDBRANCH  14  26
ENDBRANCH   4   6
ENDBRANCH   3   4
ENDBRANCH   2   3
ENDBRANCH   1   2
BRANCH   1  34
ATOM     34  O   UNL     1     -11.487   1.898   3.344  1.00  0.00    -0.458 OA
BRANCH  34  35
ATOM     35  C   UNL     1     -10.552   2.825   3.034  1.00  0.00     0.338 C 
ATOM     36  O   UNL     1      -9.577   3.147   3.689  1.00  0.00    -0.246 OA
BRANCH  35  37
ATOM     37  C   UNL     1     -10.832   3.371   1.700  1.00  0.00     0.060 A 
ATOM     38  C   UNL     1     -10.528   2.596   0.583  1.00  0.00     0.016 A 
ATOM     39  C   UNL     1     -11.251   4.690   1.553  1.00  0.00     0.016 A 
ATOM     40  C   UNL     1     -10.524   3.169  -0.683  1.00  0.00     0.010 A 
ATOM     41  C   UNL     1     -11.346   5.235   0.269  1.00  0.00     0.010 A 
ATOM     42  C   UNL     1     -10.937   4.496  -0.856  1.00  0.00    -0.014 A 
BRANCH  42  43
ATOM     43  C   UNL     1     -10.911   5.125  -2.203  1.00  0.00     0.031 A 
ATOM     44  C   UNL     1     -10.045   6.329  -2.452  1.00  0.00     0.074 A 
ATOM     45  C   UNL     1     -11.664   4.621  -3.200  1.00  0.00     0.049 A 
ATOM     46  N   UNL     1     -10.008   7.115  -3.495  1.00  0.00    -0.248 NA
ATOM     47  C   UNL     1      -9.103   6.705  -1.384  1.00  0.00     0.031 C 
ATOM     48  C   UNL     1     -12.508   3.431  -3.098  1.00  0.00     0.029 A 
ATOM     49  N   UNL     1     -11.848   5.049  -4.493  1.00  0.00    -0.354 N 
ATOM     50  C   UNL     1      -9.085   8.109  -3.190  1.00  0.00     0.074 A 
ATOM     51  C   UNL     1      -8.584   7.828  -1.863  1.00  0.00     0.031 C 
ATOM     52  C   UNL     1     -13.103   3.211  -4.279  1.00  0.00     0.029 A 
ATOM     53  C   UNL     1     -12.753   4.290  -5.198  1.00  0.00     0.049 A 
ATOM     54  H   UNL     1     -11.377   5.823  -4.877  1.00  0.00     0.167 HD
ATOM     55  C   UNL     1      -8.696   9.159  -3.951  1.00  0.00     0.034 A 
ATOM     56  C   UNL     1     -13.279   4.462  -6.428  1.00  0.00     0.034 A 
ATOM     57  C   UNL     1      -9.166   9.396  -5.291  1.00  0.00     0.049 A 
ATOM     58  C   UNL     1     -12.844   5.644  -7.252  1.00  0.00     0.074 A 
ATOM     59  C   UNL     1      -8.805  10.417  -6.152  1.00  0.00     0.029 A 
ATOM     60  N   UNL     1     -10.078   8.603  -5.969  1.00  0.00    -0.354 N 
ATOM     61  N   UNL     1     -11.978   6.581  -6.946  1.00  0.00    -0.248 NA
ATOM     62  C   UNL     1     -13.456   5.803  -8.578  1.00  0.00     0.031 C 
ATOM     63  C   UNL     1      -9.529  10.264  -7.335  1.00  0.00     0.029 A 
ATOM     64  C   UNL     1     -10.304   9.120  -7.233  1.00  0.00     0.049 A 
ATOM     65  H   UNL     1     -10.503   7.792  -5.605  1.00  0.00     0.167 HD
ATOM     66  C   UNL     1     -11.927   7.430  -8.047  1.00  0.00     0.074 A 
ATOM     67  C   UNL     1     -12.839   6.887  -9.033  1.00  0.00     0.031 C 
ATOM     68  C   UNL     1     -11.195   8.557  -8.219  1.00  0.00     0.034 A 
BRANCH  55  69
ATOM     69  C   UNL     1      -7.719  10.147  -3.371  1.00  0.00     0.023 A 
ATOM     70  C   UNL     1      -8.135  11.467  -3.115  1.00  0.00     0.031 A 
ATOM     71  C   UNL     1      -6.365   9.825  -3.187  1.00  0.00     0.131 A 
ATOM     72  C   UNL     1      -7.197  12.426  -2.715  1.00  0.00     0.055 A 
ATOM     73  C   UNL     1      -5.439  10.777  -2.756  1.00  0.00     0.041 A 
ATOM     74  F   UNL     1      -5.925   8.576  -3.413  1.00  0.00    -0.206 F 
ATOM     75  C   UNL     1      -5.853  12.087  -2.528  1.00  0.00     0.022 A 
BRANCH  72  76
ATOM     76  S   UNL     1      -7.678  14.155  -2.455  1.00  0.00     0.124 S 
ATOM     77  O   UNL     1      -7.202  14.401  -1.095  1.00  0.00    -0.237 OA
ATOM     78  O   UNL     1      -6.934  14.839  -3.509  1.00  0.00    -0.237 OA
ATOM     79  O   UNL     1      -9.129  14.143  -2.609  1.00  0.00    -0.744 OA
ENDBRANCH  72  76
ENDBRANCH  55  69
BRANCH  56  80
ATOM     80  C   UNL     1     -14.268   3.466  -6.933  1.00  0.00     0.023 A 
ATOM     81  C   UNL     1     -15.507   3.290  -6.289  1.00  0.00     0.031 A 
ATOM     82  C   UNL     1     -13.936   2.596  -7.983  1.00  0.00     0.131 A 
ATOM     83  C   UNL     1     -16.332   2.218  -6.651  1.00  0.00     0.055 A 
ATOM     84  C   UNL     1     -14.793   1.570  -8.386  1.00  0.00     0.041 A 
ATOM     85  F   UNL     1     -12.761   2.722  -8.620  1.00  0.00    -0.206 F 
ATOM     86  C   UNL     1     -15.991   1.366  -7.706  1.00  0.00     0.022 A 
BRANCH  83  87
ATOM     87  S   UNL     1     -17.818   1.824  -5.688  1.00  0.00     0.124 S 
ATOM     88  O   UNL     1     -18.852   1.790  -6.718  1.00  0.00    -0.237 OA
ATOM     89  O   UNL     1     -17.461   0.531  -5.111  1.00  0.00    -0.237 OA
ATOM     90  O   UNL     1     -17.915   2.926  -4.737  1.00  0.00    -0.744 OA
ENDBRANCH  83  87
ENDBRANCH  56  80
BRANCH  68  91
ATOM     91  C   UNL     1     -11.308   9.302  -9.523  1.00  0.00     0.023 A 
ATOM     92  C   UNL     1     -10.197   9.373 -10.385  1.00  0.00     0.031 A 
ATOM     93  C   UNL     1     -12.441  10.076  -9.823  1.00  0.00     0.131 A 
ATOM     94  C   UNL     1     -10.226  10.239 -11.484  1.00  0.00     0.055 A 
ATOM     95  C   UNL     1     -12.479  10.908 -10.942  1.00  0.00     0.041 A 
ATOM     96  F   UNL     1     -13.518  10.044  -9.023  1.00  0.00    -0.206 F 
ATOM     97  C   UNL     1     -11.363  11.003 -11.770  1.00  0.00     0.022 A 
BRANCH  94  98
ATOM     98  S   UNL     1      -8.768  10.458 -12.539  1.00  0.00     0.124 S 
ATOM     99  O   UNL     1      -9.310  10.188 -13.869  1.00  0.00    -0.237 OA
ATOM    100  O   UNL     1      -8.410  11.850 -12.282  1.00  0.00    -0.237 OA
ATOM    101  O   UNL     1      -7.822   9.463 -12.044  1.00  0.00    -0.744 OA
ENDBRANCH  94  98
ENDBRANCH  68  91
ENDBRANCH  42  43
ENDBRANCH  35  37
ENDBRANCH  34  35
ENDBRANCH   1  34
TORSDOF 16
