REMARK SMILES Cc1ccccc1C(=O)Nc1ccc(N2CCC(n3c(C)nc4cccnc43)CC2)c(C(=O)OCCOC(=O)c2ccc(-c3c4nc(c(-c5cc(S(=O)(=O)[O-])ccc5F)c5ccc([nH]5)c(-c5cc(S(=O)(=O)[O-])ccc5F)c5nc(c(-c6cc(S(=O)(=O)[O-])ccc6F)c6ccc3[nH]6)C=C5)C=C4)cc2)c1
REMARK SMILES IDX 36 1 35 2 34 3 32 4 33 5 31 6 11 7 12 8 103 9 13 10 14 11
REMARK SMILES IDX 10 12 8 13 9 14 7 16 1 17 2 18 3 19 4 20 6 21 5 22 15 23
REMARK SMILES IDX 16 24 30 25 17 26 29 27 18 28 19 29 20 30 28 31 21 32 22 33
REMARK SMILES IDX 23 34 27 35 24 36 26 37 25 38 37 39 38 40 39 41 40 42 41 43
REMARK SMILES IDX 102 44 42 45 101 46 43 47 44 48 45 49 95 50 46 51 100 52
REMARK SMILES IDX 94 53 96 54 47 55 99 56 93 57 92 58 48 60 80 61 60 62 79 63
REMARK SMILES IDX 61 64 64 65 78 66 97 67 62 68 63 69 77 71 98 72 65 73 49 74
REMARK SMILES IDX 50 75 58 76 51 77 57 78 59 79 56 80 52 81 53 82 54 83 55 84
REMARK SMILES IDX 81 85 82 86 90 87 83 88 89 89 91 90 88 91 84 92 85 93 86 94
REMARK SMILES IDX 87 95 66 96 67 97 75 98 68 99 74 100 76 101 73 102 69 103
REMARK SMILES IDX 70 104 71 105 72 106
REMARK H PARENT 10 15 96 59 64 70
REMARK Flexibility Score: inf
ROOT
ATOM      1  C   UNL     1       9.871  -0.171   0.752  1.00  0.00     0.275 C 
ENDROOT
BRANCH   1   2
ATOM      2  C   UNL     1       8.847  -1.172   0.211  1.00  0.00     0.275 C 
BRANCH   2   3
ATOM      3  O   UNL     1       7.876  -0.603  -0.685  1.00  0.00    -0.458 OA
BRANCH   3   4
ATOM      4  C   UNL     1       6.628  -0.648  -0.168  1.00  0.00     0.340 C 
ATOM      5  O   UNL     1       6.326  -1.017   0.952  1.00  0.00    -0.246 OA
BRANCH   4   6
ATOM      6  C   UNL     1       5.527  -0.408  -1.085  1.00  0.00     0.085 A 
ATOM      7  C   UNL     1       3.498   0.891  -1.293  1.00  0.00     0.042 A 
ATOM      8  C   UNL     1       2.930  -0.140  -2.036  1.00  0.00     0.028 A 
ATOM      9  C   UNL     1       4.846   0.810  -0.931  1.00  0.00     0.044 A 
ATOM     10  C   UNL     1       3.627  -1.342  -2.211  1.00  0.00     0.029 A 
ATOM     11  C   UNL     1       4.886  -1.539  -1.625  1.00  0.00     0.051 A 
BRANCH   7  12
ATOM     12  N   UNL     1       2.763   1.966  -0.769  1.00  0.00    -0.322 N 
ATOM     13  C   UNL     1       1.437   2.102  -0.406  1.00  0.00     0.255 C 
ATOM     14  O   UNL     1       1.024   3.237  -0.147  1.00  0.00    -0.269 OA
ATOM     15  H   UNL     1       3.296   2.783  -0.633  1.00  0.00     0.170 HD
BRANCH  13  16
ATOM     16  C   UNL     1       0.474   0.966  -0.267  1.00  0.00     0.043 A 
ATOM     17  C   UNL     1       1.987  -0.601   1.114  1.00  0.00     0.045 C 
ATOM     18  C   UNL     1       0.730  -0.268   0.364  1.00  0.00    -0.038 A 
ATOM     19  C   UNL     1      -0.279  -1.255   0.369  1.00  0.00     0.004 A 
ATOM     20  C   UNL     1      -1.558  -0.986  -0.115  1.00  0.00     0.000 A 
ATOM     21  C   UNL     1      -0.840   1.237  -0.702  1.00  0.00     0.014 A 
ATOM     22  C   UNL     1      -1.850   0.276  -0.614  1.00  0.00     0.001 A 
ENDBRANCH  13  16
ENDBRANCH   7  12
BRANCH  11  23
ATOM     23  N   UNL     1       5.264  -2.858  -1.369  1.00  0.00    -0.371 N 
ATOM     24  C   UNL     1       6.351  -3.482  -2.100  1.00  0.00     0.118 C 
ATOM     25  C   UNL     1       5.190  -3.279   0.037  1.00  0.00     0.118 C 
ATOM     26  C   UNL     1       6.107  -4.996  -2.096  1.00  0.00     0.047 C 
ATOM     27  C   UNL     1       4.803  -4.729   0.064  1.00  0.00     0.047 C 
ATOM     28  C   UNL     1       5.812  -5.602  -0.689  1.00  0.00     0.094 C 
BRANCH  28  29
ATOM     29  N   UNL     1       5.408  -7.015  -0.778  1.00  0.00    -0.310 N 
ATOM     30  C   UNL     1       4.302  -7.678  -0.256  1.00  0.00     0.108 A 
ATOM     31  C   UNL     1       6.149  -7.975  -1.441  1.00  0.00     0.160 A 
ATOM     32  C   UNL     1       3.338  -7.169   0.747  1.00  0.00     0.088 C 
ATOM     33  N   UNL     1       4.228  -8.918  -0.704  1.00  0.00    -0.232 NA
ATOM     34  C   UNL     1       5.373  -9.123  -1.401  1.00  0.00     0.108 A 
ATOM     35  N   UNL     1       7.356  -7.835  -2.030  1.00  0.00    -0.237 NA
ATOM     36  C   UNL     1       5.844 -10.274  -2.034  1.00  0.00     0.034 A 
ATOM     37  C   UNL     1       7.775  -8.978  -2.624  1.00  0.00     0.113 A 
ATOM     38  C   UNL     1       7.083 -10.185  -2.662  1.00  0.00     0.022 A 
ENDBRANCH  28  29
ENDBRANCH  11  23
ENDBRANCH   4   6
ENDBRANCH   3   4
ENDBRANCH   2   3
ENDBRANCH   1   2
BRANCH   1  39
ATOM     39  O   UNL     1       9.433   1.164   1.121  1.00  0.00    -0.458 OA
BRANCH  39  40
ATOM     40  C   UNL     1       8.220   1.534   1.610  1.00  0.00     0.338 C 
ATOM     41  O   UNL     1       7.592   2.448   1.079  1.00  0.00    -0.246 OA
BRANCH  40  42
ATOM     42  C   UNL     1       7.604   0.711   2.685  1.00  0.00     0.060 A 
ATOM     43  C   UNL     1       6.213   0.811   2.901  1.00  0.00     0.016 A 
ATOM     44  C   UNL     1       8.324  -0.300   3.308  1.00  0.00     0.016 A 
ATOM     45  C   UNL     1       5.532  -0.191   3.604  1.00  0.00     0.010 A 
ATOM     46  C   UNL     1       7.645  -1.362   3.871  1.00  0.00     0.010 A 
ATOM     47  C   UNL     1       6.250  -1.312   4.037  1.00  0.00    -0.014 A 
BRANCH  47  48
ATOM     48  C   UNL     1       5.756  -2.285   5.017  1.00  0.00     0.031 A 
ATOM     49  C   UNL     1       4.892  -3.444   4.649  1.00  0.00     0.074 A 
ATOM     50  C   UNL     1       6.183  -1.980   6.264  1.00  0.00     0.049 A 
ATOM     51  N   UNL     1       5.061  -4.679   5.019  1.00  0.00    -0.248 NA
ATOM     52  C   UNL     1       3.728  -3.255   3.771  1.00  0.00     0.031 C 
ATOM     53  C   UNL     1       5.947  -2.652   7.521  1.00  0.00     0.029 A 
ATOM     54  N   UNL     1       6.738  -0.753   6.668  1.00  0.00    -0.354 N 
ATOM     55  C   UNL     1       3.949  -5.419   4.594  1.00  0.00     0.074 A 
ATOM     56  C   UNL     1       3.210  -4.487   3.731  1.00  0.00     0.031 C 
ATOM     57  C   UNL     1       5.933  -1.708   8.488  1.00  0.00     0.029 A 
ATOM     58  C   UNL     1       6.069  -0.406   7.831  1.00  0.00     0.049 A 
ATOM     59  H   UNL     1       7.452  -0.246   6.218  1.00  0.00     0.167 HD
ATOM     60  C   UNL     1       3.193  -6.105   5.508  1.00  0.00     0.034 A 
ATOM     61  C   UNL     1       5.155   0.614   7.846  1.00  0.00     0.034 A 
ATOM     62  C   UNL     1       3.129  -5.452   6.783  1.00  0.00     0.049 A 
ATOM     63  C   UNL     1       3.804   0.057   8.222  1.00  0.00     0.074 A 
ATOM     64  C   UNL     1       3.892  -5.527   7.929  1.00  0.00     0.029 A 
ATOM     65  N   UNL     1       2.264  -4.384   6.927  1.00  0.00    -0.354 N 
ATOM     66  N   UNL     1       3.362  -1.106   7.818  1.00  0.00    -0.248 NA
ATOM     67  C   UNL     1       2.907   0.727   9.154  1.00  0.00     0.031 C 
ATOM     68  C   UNL     1       3.511  -4.446   8.758  1.00  0.00     0.029 A 
ATOM     69  C   UNL     1       2.509  -3.739   8.114  1.00  0.00     0.049 A 
ATOM     70  H   UNL     1       1.574  -4.125   6.275  1.00  0.00     0.167 HD
ATOM     71  C   UNL     1       2.241  -1.412   8.550  1.00  0.00     0.074 A 
ATOM     72  C   UNL     1       1.965  -0.213   9.325  1.00  0.00     0.031 C 
ATOM     73  C   UNL     1       1.663  -2.650   8.550  1.00  0.00     0.034 A 
BRANCH  60  74
ATOM     74  C   UNL     1       3.002  -7.580   5.298  1.00  0.00     0.023 A 
ATOM     75  C   UNL     1       3.268  -8.516   6.315  1.00  0.00     0.031 A 
ATOM     76  C   UNL     1       2.544  -8.098   4.079  1.00  0.00     0.131 A 
ATOM     77  C   UNL     1       3.165  -9.898   6.070  1.00  0.00     0.055 A 
ATOM     78  C   UNL     1       2.502  -9.473   3.809  1.00  0.00     0.041 A 
ATOM     79  F   UNL     1       2.073  -7.266   3.138  1.00  0.00    -0.206 F 
ATOM     80  C   UNL     1       2.833 -10.383   4.806  1.00  0.00     0.022 A 
BRANCH  77  81
ATOM     81  S   UNL     1       3.454 -11.063   7.433  1.00  0.00     0.124 S 
ATOM     82  O   UNL     1       4.712 -10.589   8.002  1.00  0.00    -0.237 OA
ATOM     83  O   UNL     1       2.264 -10.868   8.254  1.00  0.00    -0.237 OA
ATOM     84  O   UNL     1       3.534 -12.360   6.762  1.00  0.00    -0.744 OA
ENDBRANCH  77  81
ENDBRANCH  60  74
BRANCH  61  85
ATOM     85  C   UNL     1       5.361   1.781   6.922  1.00  0.00     0.023 A 
ATOM     86  C   UNL     1       6.668   2.300   6.782  1.00  0.00     0.031 A 
ATOM     87  C   UNL     1       4.387   2.294   6.052  1.00  0.00     0.131 A 
ATOM     88  C   UNL     1       7.005   3.154   5.720  1.00  0.00     0.055 A 
ATOM     89  C   UNL     1       4.710   3.210   5.033  1.00  0.00     0.041 A 
ATOM     90  F   UNL     1       3.117   1.867   6.115  1.00  0.00    -0.206 F 
ATOM     91  C   UNL     1       6.031   3.616   4.839  1.00  0.00     0.022 A 
BRANCH  88  92
ATOM     92  S   UNL     1       8.770   3.425   5.373  1.00  0.00     0.124 S 
ATOM     93  O   UNL     1       9.110   4.476   6.326  1.00  0.00    -0.237 OA
ATOM     94  O   UNL     1       9.345   2.109   5.640  1.00  0.00    -0.237 OA
ATOM     95  O   UNL     1       8.786   3.816   3.968  1.00  0.00    -0.744 OA
ENDBRANCH  88  92
ENDBRANCH  61  85
BRANCH  73  96
ATOM     96  C   UNL     1       0.308  -2.985   9.117  1.00  0.00     0.023 A 
ATOM     97  C   UNL     1      -0.654  -2.003   9.366  1.00  0.00     0.031 A 
ATOM     98  C   UNL     1      -0.103  -4.324   9.335  1.00  0.00     0.131 A 
ATOM     99  C   UNL     1      -1.896  -2.335   9.925  1.00  0.00     0.055 A 
ATOM    100  C   UNL     1      -1.377  -4.660   9.798  1.00  0.00     0.041 A 
ATOM    101  F   UNL     1       0.705  -5.366   9.091  1.00  0.00    -0.206 F 
ATOM    102  C   UNL     1      -2.277  -3.659  10.121  1.00  0.00     0.022 A 
BRANCH  99 103
ATOM    103  S   UNL     1      -2.950  -0.974  10.472  1.00  0.00     0.124 S 
ATOM    104  O   UNL     1      -2.118  -0.354  11.501  1.00  0.00    -0.237 OA
ATOM    105  O   UNL     1      -3.120  -0.200   9.246  1.00  0.00    -0.237 OA
ATOM    106  O   UNL     1      -4.151  -1.645  10.961  1.00  0.00    -0.744 OA
ENDBRANCH  99 103
ENDBRANCH  73  96
ENDBRANCH  47  48
ENDBRANCH  40  42
ENDBRANCH  39  40
ENDBRANCH   1  39
TORSDOF 18
