REMARK SMILES C[C@H]1[C@H](C(=O)OCCOC(=O)c2ccc(-c3c4nc(c(-c5cc(S(=O)(=O)[O-])ccc5F)c5ccc([nH]5)c(-c5cc(S(=O)(=O)[O-])ccc5F)c5nc(c(-c6cc(S(=O)(=O)[O-])ccc6F)c6ccc3[nH]6)C=C5)C=C4)cc2)CC[N@@H+]1[C@@H](c1ccccc1)c1ccco1
REMARK SMILES IDX 8 1 7 2 6 3 4 4 5 5 3 6 1 7 2 8 77 9 75 10 76 11 78 13 79 14
REMARK SMILES IDX 80 15 84 16 81 17 83 18 82 19 85 20 86 21 89 22 87 23 88 24
REMARK SMILES IDX 9 25 10 26 11 27 12 28 13 29 74 30 14 31 73 32 15 33 16 34
REMARK SMILES IDX 17 35 67 36 18 37 72 38 66 39 68 40 19 41 71 42 65 43 64 44
REMARK SMILES IDX 20 46 52 47 32 48 51 49 33 50 36 51 50 52 69 53 34 54 35 55
REMARK SMILES IDX 49 57 70 58 37 59 21 60 22 61 30 62 23 63 29 64 31 65 28 66
REMARK SMILES IDX 24 67 25 68 26 69 27 70 53 71 54 72 62 73 55 74 61 75 63 76
REMARK SMILES IDX 60 77 56 78 57 79 58 80 59 81 38 82 39 83 47 84 40 85 46 86
REMARK SMILES IDX 48 87 45 88 41 89 42 90 43 91 44 92
REMARK H PARENT 77 12 68 45 36 56
REMARK Flexibility Score: inf
ROOT
ATOM      1  C   UNL     1       1.033   3.717   3.576  1.00  0.00     0.275 C 
ENDROOT
BRANCH   1   2
ATOM      2  C   UNL     1      -0.338   3.119   3.263  1.00  0.00     0.274 C 
BRANCH   2   3
ATOM      3  O   UNL     1      -0.197   2.041   2.318  1.00  0.00    -0.462 OA
BRANCH   3   4
ATOM      4  C   UNL     1      -0.765   2.203   1.101  1.00  0.00     0.315 C 
ATOM      5  O   UNL     1      -1.454   3.168   0.783  1.00  0.00    -0.252 OA
BRANCH   4   6
ATOM      6  C   UNL     1      -0.432   1.099   0.112  1.00  0.00     0.162 C 
ATOM      7  C   UNL     1       1.688  -0.213  -0.275  1.00  0.00     0.076 C 
ATOM      8  C   UNL     1       0.439  -0.062   0.609  1.00  0.00     0.196 C 
ATOM      9  N   UNL     1      -0.367  -1.282   0.447  1.00  0.00    -0.319 N 
ATOM     10  C   UNL     1      -1.711   0.481  -0.433  1.00  0.00     0.083 C 
ATOM     11  C   UNL     1      -1.429  -1.003  -0.512  1.00  0.00     0.264 C 
ATOM     12  H   UNL     1       0.206  -2.024   0.045  1.00  0.00     0.349 HD
BRANCH   9  13
ATOM     13  C   UNL     1      -0.738  -1.962   1.706  1.00  0.00     0.283 C 
BRANCH  13  14
ATOM     14  C   UNL     1      -1.469  -1.120   2.756  1.00  0.00     0.017 A 
ATOM     15  C   UNL     1      -0.818  -0.802   3.964  1.00  0.00     0.010 A 
ATOM     16  C   UNL     1      -2.778  -0.650   2.576  1.00  0.00     0.010 A 
ATOM     17  C   UNL     1      -1.450  -0.030   4.943  1.00  0.00     0.001 A 
ATOM     18  C   UNL     1      -3.401   0.145   3.542  1.00  0.00     0.001 A 
ATOM     19  C   UNL     1      -2.738   0.452   4.726  1.00  0.00     0.000 A 
ENDBRANCH  13  14
BRANCH  13  20
ATOM     20  C   UNL     1      -1.367  -3.309   1.417  1.00  0.00     0.165 A 
ATOM     21  C   UNL     1      -0.932  -4.384   0.663  1.00  0.00     0.052 A 
ATOM     22  O   UNL     1      -2.604  -3.586   1.931  1.00  0.00    -0.463 OA
ATOM     23  C   UNL     1      -1.959  -5.355   0.710  1.00  0.00     0.042 A 
ATOM     24  C   UNL     1      -2.952  -4.821   1.495  1.00  0.00     0.195 A 
ENDBRANCH  13  20
ENDBRANCH   9  13
ENDBRANCH   4   6
ENDBRANCH   3   4
ENDBRANCH   2   3
ENDBRANCH   1   2
BRANCH   1  25
ATOM     25  O   UNL     1       1.561   4.396   2.425  1.00  0.00    -0.458 OA
BRANCH  25  26
ATOM     26  C   UNL     1       2.295   3.619   1.597  1.00  0.00     0.338 C 
ATOM     27  O   UNL     1       2.620   2.456   1.758  1.00  0.00    -0.246 OA
BRANCH  26  28
ATOM     28  C   UNL     1       2.557   4.366   0.363  1.00  0.00     0.060 A 
ATOM     29  C   UNL     1       1.801   4.066  -0.771  1.00  0.00     0.016 A 
ATOM     30  C   UNL     1       3.587   5.298   0.308  1.00  0.00     0.016 A 
ATOM     31  C   UNL     1       2.098   4.659  -1.990  1.00  0.00     0.010 A 
ATOM     32  C   UNL     1       3.857   5.930  -0.906  1.00  0.00     0.010 A 
ATOM     33  C   UNL     1       3.126   5.601  -2.065  1.00  0.00    -0.014 A 
BRANCH  33  34
ATOM     34  C   UNL     1       3.484   6.224  -3.358  1.00  0.00     0.031 A 
ATOM     35  C   UNL     1       4.826   5.928  -3.957  1.00  0.00     0.074 A 
ATOM     36  C   UNL     1       2.630   7.072  -3.959  1.00  0.00     0.049 A 
ATOM     37  N   UNL     1       5.465   6.552  -4.909  1.00  0.00    -0.248 NA
ATOM     38  C   UNL     1       5.550   4.781  -3.389  1.00  0.00     0.031 C 
ATOM     39  C   UNL     1       1.267   7.363  -3.507  1.00  0.00     0.029 A 
ATOM     40  N   UNL     1       2.791   7.867  -5.065  1.00  0.00    -0.354 N 
ATOM     41  C   UNL     1       6.690   5.905  -5.025  1.00  0.00     0.074 A 
ATOM     42  C   UNL     1       6.703   4.845  -4.039  1.00  0.00     0.031 C 
ATOM     43  C   UNL     1       0.725   8.285  -4.318  1.00  0.00     0.029 A 
ATOM     44  C   UNL     1       1.727   8.710  -5.289  1.00  0.00     0.049 A 
ATOM     45  H   UNL     1       3.589   7.837  -5.641  1.00  0.00     0.167 HD
ATOM     46  C   UNL     1       7.708   6.188  -5.874  1.00  0.00     0.034 A 
ATOM     47  C   UNL     1       1.604   9.751  -6.135  1.00  0.00     0.034 A 
ATOM     48  C   UNL     1       7.649   7.248  -6.851  1.00  0.00     0.049 A 
ATOM     49  C   UNL     1       2.777  10.104  -7.013  1.00  0.00     0.074 A 
ATOM     50  C   UNL     1       8.612   7.638  -7.764  1.00  0.00     0.029 A 
ATOM     51  N   UNL     1       6.558   8.090  -7.040  1.00  0.00    -0.354 N 
ATOM     52  N   UNL     1       3.959   9.534  -7.077  1.00  0.00    -0.248 NA
ATOM     53  C   UNL     1       2.607  11.242  -7.923  1.00  0.00     0.031 C 
ATOM     54  C   UNL     1       8.129   8.751  -8.461  1.00  0.00     0.029 A 
ATOM     55  C   UNL     1       6.834   9.010  -8.037  1.00  0.00     0.049 A 
ATOM     56  H   UNL     1       5.713   8.039  -6.537  1.00  0.00     0.167 HD
ATOM     57  C   UNL     1       4.661  10.223  -8.060  1.00  0.00     0.074 A 
ATOM     58  C   UNL     1       3.771  11.253  -8.559  1.00  0.00     0.031 C 
ATOM     59  C   UNL     1       5.922  10.021  -8.518  1.00  0.00     0.034 A 
BRANCH  46  60
ATOM     60  C   UNL     1       8.980   5.390  -5.725  1.00  0.00     0.023 A 
ATOM     61  C   UNL     1       9.025   4.005  -5.960  1.00  0.00     0.031 A 
ATOM     62  C   UNL     1      10.161   6.023  -5.295  1.00  0.00     0.131 A 
ATOM     63  C   UNL     1      10.203   3.289  -5.696  1.00  0.00     0.055 A 
ATOM     64  C   UNL     1      11.351   5.318  -5.110  1.00  0.00     0.041 A 
ATOM     65  F   UNL     1      10.172   7.339  -5.029  1.00  0.00    -0.206 F 
ATOM     66  C   UNL     1      11.373   3.939  -5.296  1.00  0.00     0.022 A 
BRANCH  63  67
ATOM     67  S   UNL     1      10.146   1.476  -5.742  1.00  0.00     0.124 S 
ATOM     68  O   UNL     1       9.124   1.188  -4.737  1.00  0.00    -0.237 OA
ATOM     69  O   UNL     1       9.774   1.207  -7.126  1.00  0.00    -0.237 OA
ATOM     70  O   UNL     1      11.503   1.080  -5.371  1.00  0.00    -0.744 OA
ENDBRANCH  63  67
ENDBRANCH  46  60
BRANCH  47  71
ATOM     71  C   UNL     1       0.361  10.573  -6.139  1.00  0.00     0.023 A 
ATOM     72  C   UNL     1      -0.465  10.632  -7.271  1.00  0.00     0.031 A 
ATOM     73  C   UNL     1      -0.008  11.335  -5.013  1.00  0.00     0.131 A 
ATOM     74  C   UNL     1      -1.599  11.459  -7.267  1.00  0.00     0.055 A 
ATOM     75  C   UNL     1      -1.165  12.114  -4.995  1.00  0.00     0.041 A 
ATOM     76  F   UNL     1       0.747  11.316  -3.903  1.00  0.00    -0.206 F 
ATOM     77  C   UNL     1      -1.963  12.188  -6.132  1.00  0.00     0.022 A 
BRANCH  74  78
ATOM     78  S   UNL     1      -2.553  11.630  -8.799  1.00  0.00     0.124 S 
ATOM     79  O   UNL     1      -1.538  12.116  -9.728  1.00  0.00    -0.237 OA
ATOM     80  O   UNL     1      -3.022  10.266  -9.018  1.00  0.00    -0.237 OA
ATOM     81  O   UNL     1      -3.591  12.596  -8.448  1.00  0.00    -0.744 OA
ENDBRANCH  74  78
ENDBRANCH  47  71
BRANCH  59  82
ATOM     82  C   UNL     1       6.380  10.881  -9.665  1.00  0.00     0.023 A 
ATOM     83  C   UNL     1       6.679  12.243  -9.500  1.00  0.00     0.031 A 
ATOM     84  C   UNL     1       6.543  10.311 -10.940  1.00  0.00     0.131 A 
ATOM     85  C   UNL     1       7.097  13.001 -10.605  1.00  0.00     0.055 A 
ATOM     86  C   UNL     1       7.005  11.057 -12.023  1.00  0.00     0.041 A 
ATOM     87  F   UNL     1       6.270   9.012 -11.147  1.00  0.00    -0.206 F 
ATOM     88  C   UNL     1       7.279  12.412 -11.860  1.00  0.00     0.022 A 
BRANCH  85  89
ATOM     89  S   UNL     1       7.362  14.782 -10.393  1.00  0.00     0.124 S 
ATOM     90  O   UNL     1       6.025  15.246 -10.036  1.00  0.00    -0.237 OA
ATOM     91  O   UNL     1       8.358  14.829  -9.328  1.00  0.00    -0.237 OA
ATOM     92  O   UNL     1       7.839  15.216 -11.705  1.00  0.00    -0.744 OA
ENDBRANCH  85  89
ENDBRANCH  59  82
ENDBRANCH  33  34
ENDBRANCH  26  28
ENDBRANCH  25  26
ENDBRANCH   1  25
TORSDOF 17
