REMARK SMILES CC[C@@H](C)[C@H](C(=O)OCCOC(=O)c1ccc(-c2c3nc(c(-c4cc(S(=O)(=O)[O-])ccc4F)c4ccc([nH]4)c(-c4cc(S(=O)(=O)[O-])ccc4F)c4nc(c(-c5cc(S(=O)(=O)[O-])ccc5F)c5ccc2[nH]5)C=C4)C=C3)cc1)N1C(=O)/C(=C/c2ccc3c(c2)OCO3)SC1=S
REMARK SMILES IDX 10 1 9 2 8 3 6 4 7 5 5 6 3 7 4 8 2 9 1 10 77 11 78 12 92 13
REMARK SMILES IDX 79 14 80 15 91 16 93 17 81 18 82 19 83 20 87 21 84 22 86 23
REMARK SMILES IDX 85 24 88 25 90 26 89 27 11 28 12 29 13 30 14 31 15 32 76 33
REMARK SMILES IDX 16 34 75 35 17 36 18 37 19 38 69 39 20 40 74 41 68 42 70 43
REMARK SMILES IDX 21 44 73 45 67 46 66 47 22 49 54 50 34 51 53 52 35 53 38 54
REMARK SMILES IDX 52 55 71 56 36 57 37 58 51 60 72 61 39 62 23 63 24 64 32 65
REMARK SMILES IDX 25 66 31 67 33 68 30 69 26 70 27 71 28 72 29 73 55 74 56 75
REMARK SMILES IDX 64 76 57 77 63 78 65 79 62 80 58 81 59 82 60 83 61 84 40 85
REMARK SMILES IDX 41 86 49 87 42 88 48 89 50 90 47 91 43 92 44 93 45 94 46 95
REMARK H PARENT 70 48 38 59
REMARK Flexibility Score: inf
ROOT
ATOM      1  C   UNL     1       0.384   0.958  -1.108  1.00  0.00     0.275 C 
ENDROOT
BRANCH   1   2
ATOM      2  C   UNL     1       1.140   0.359   0.076  1.00  0.00     0.274 C 
BRANCH   2   3
ATOM      3  O   UNL     1       0.610   0.803   1.343  1.00  0.00    -0.461 OA
BRANCH   3   4
ATOM      4  C   UNL     1       1.305   1.803   1.961  1.00  0.00     0.329 C 
ATOM      5  O   UNL     1       2.276   2.364   1.472  1.00  0.00    -0.250 OA
BRANCH   4   6
ATOM      6  C   UNL     1       0.740   2.089   3.366  1.00  0.00     0.204 C 
BRANCH   6   7
ATOM      7  C   UNL     1       0.942   0.942   4.415  1.00  0.00     0.020 C 
ATOM      8  C   UNL     1       1.024   1.437   5.869  1.00  0.00     0.010 C 
BRANCH   7   9
ATOM      9  C   UNL     1       2.050  -0.069   4.037  1.00  0.00     0.002 C 
ATOM     10  C   UNL     1       2.451  -1.031   5.145  1.00  0.00     0.004 C 
ENDBRANCH   7   9
ENDBRANCH   6   7
BRANCH   6  11
ATOM     11  N   UNL     1       1.095   3.456   3.829  1.00  0.00    -0.278 N 
ATOM     12  C   UNL     1       0.116   4.452   3.763  1.00  0.00     0.267 C 
ATOM     13  C   UNL     1       2.326   3.874   4.301  1.00  0.00     0.149 C 
ATOM     14  O   UNL     1      -1.027   4.315   3.354  1.00  0.00    -0.268 OA
ATOM     15  C   UNL     1       0.693   5.755   4.190  1.00  0.00     0.081 C 
ATOM     16  S   UNL     1       2.134   5.435   5.073  1.00  0.00    -0.054 SA
ATOM     17  S   UNL     1       3.824   3.146   4.243  1.00  0.00    -0.052 S 
ATOM     18  C   UNL     1       0.233   6.946   3.765  1.00  0.00     0.029 C 
BRANCH  18  19
ATOM     19  C   UNL     1       0.989   8.210   3.877  1.00  0.00    -0.020 A 
ATOM     20  C   UNL     1       0.365   9.417   4.246  1.00  0.00     0.012 A 
ATOM     21  C   UNL     1       2.363   8.219   3.583  1.00  0.00     0.058 A 
ATOM     22  C   UNL     1       1.125  10.585   4.435  1.00  0.00     0.051 A 
ATOM     23  C   UNL     1       3.089   9.349   3.849  1.00  0.00     0.166 A 
ATOM     24  C   UNL     1       2.492  10.503   4.273  1.00  0.00     0.165 A 
ATOM     25  O   UNL     1       4.441   9.430   3.783  1.00  0.00    -0.454 OA
ATOM     26  O   UNL     1       3.403  11.479   4.525  1.00  0.00    -0.454 OA
ATOM     27  C   UNL     1       4.640  10.759   4.308  1.00  0.00     0.468 C 
ENDBRANCH  18  19
ENDBRANCH   6  11
ENDBRANCH   4   6
ENDBRANCH   3   4
ENDBRANCH   2   3
ENDBRANCH   1   2
BRANCH   1  28
ATOM     28  O   UNL     1       0.608   2.375  -1.197  1.00  0.00    -0.458 OA
BRANCH  28  29
ATOM     29  C   UNL     1      -0.404   3.146  -0.745  1.00  0.00     0.338 C 
ATOM     30  O   UNL     1      -1.485   2.765  -0.312  1.00  0.00    -0.246 OA
BRANCH  29  31
ATOM     31  C   UNL     1       0.000   4.556  -0.779  1.00  0.00     0.060 A 
ATOM     32  C   UNL     1       0.740   5.059   0.287  1.00  0.00     0.016 A 
ATOM     33  C   UNL     1      -0.448   5.408  -1.787  1.00  0.00     0.016 A 
ATOM     34  C   UNL     1       0.974   6.426   0.387  1.00  0.00     0.010 A 
ATOM     35  C   UNL     1      -0.171   6.780  -1.703  1.00  0.00     0.010 A 
ATOM     36  C   UNL     1       0.501   7.311  -0.587  1.00  0.00    -0.014 A 
BRANCH  36  37
ATOM     37  C   UNL     1       0.612   8.784  -0.361  1.00  0.00     0.031 A 
ATOM     38  C   UNL     1      -0.647   9.603  -0.215  1.00  0.00     0.074 A 
ATOM     39  C   UNL     1       1.816   9.377  -0.221  1.00  0.00     0.049 A 
ATOM     40  N   UNL     1      -0.791  10.901  -0.134  1.00  0.00    -0.248 NA
ATOM     41  C   UNL     1      -1.916   8.859  -0.169  1.00  0.00     0.031 C 
ATOM     42  C   UNL     1       3.103   8.681  -0.243  1.00  0.00     0.029 A 
ATOM     43  N   UNL     1       2.158  10.689   0.002  1.00  0.00    -0.354 N 
ATOM     44  C   UNL     1      -2.164  11.133  -0.127  1.00  0.00     0.074 A 
ATOM     45  C   UNL     1      -2.808   9.839  -0.182  1.00  0.00     0.031 C 
ATOM     46  C   UNL     1       4.082   9.558   0.029  1.00  0.00     0.029 A 
ATOM     47  C   UNL     1       3.514  10.897   0.148  1.00  0.00     0.049 A 
ATOM     48  H   UNL     1       1.496  11.416   0.052  1.00  0.00     0.167 HD
ATOM     49  C   UNL     1      -2.819  12.320  -0.100  1.00  0.00     0.034 A 
ATOM     50  C   UNL     1       4.214  12.036   0.345  1.00  0.00     0.034 A 
ATOM     51  C   UNL     1      -2.159  13.596   0.037  1.00  0.00     0.049 A 
ATOM     52  C   UNL     1       3.447  13.335   0.431  1.00  0.00     0.074 A 
ATOM     53  C   UNL     1      -2.718  14.862   0.062  1.00  0.00     0.029 A 
ATOM     54  N   UNL     1      -0.789  13.765   0.197  1.00  0.00    -0.354 N 
ATOM     55  N   UNL     1       2.149  13.538   0.392  1.00  0.00    -0.248 NA
ATOM     56  C   UNL     1       4.242  14.559   0.588  1.00  0.00     0.031 C 
ATOM     57  C   UNL     1      -1.684  15.798   0.186  1.00  0.00     0.029 A 
ATOM     58  C   UNL     1      -0.485  15.114   0.299  1.00  0.00     0.049 A 
ATOM     59  H   UNL     1      -0.131  13.034   0.233  1.00  0.00     0.167 HD
ATOM     60  C   UNL     1       1.978  14.911   0.542  1.00  0.00     0.074 A 
ATOM     61  C   UNL     1       3.298  15.476   0.731  1.00  0.00     0.031 C 
ATOM     62  C   UNL     1       0.840  15.650   0.496  1.00  0.00     0.034 A 
BRANCH  49  63
ATOM     63  C   UNL     1      -4.312  12.296  -0.329  1.00  0.00     0.023 A 
ATOM     64  C   UNL     1      -5.214  11.730   0.587  1.00  0.00     0.031 A 
ATOM     65  C   UNL     1      -4.832  12.822  -1.527  1.00  0.00     0.131 A 
ATOM     66  C   UNL     1      -6.578  11.644   0.260  1.00  0.00     0.055 A 
ATOM     67  C   UNL     1      -6.198  12.801  -1.812  1.00  0.00     0.041 A 
ATOM     68  F   UNL     1      -4.016  13.355  -2.450  1.00  0.00    -0.206 F 
ATOM     69  C   UNL     1      -7.079  12.196  -0.922  1.00  0.00     0.022 A 
BRANCH  66  70
ATOM     70  S   UNL     1      -7.672  10.679   1.338  1.00  0.00     0.124 S 
ATOM     71  O   UNL     1      -7.044   9.361   1.291  1.00  0.00    -0.237 OA
ATOM     72  O   UNL     1      -7.572  11.390   2.607  1.00  0.00    -0.237 OA
ATOM     73  O   UNL     1      -8.972  10.766   0.674  1.00  0.00    -0.744 OA
ENDBRANCH  66  70
ENDBRANCH  49  63
BRANCH  50  74
ATOM     74  C   UNL     1       5.702  12.013   0.525  1.00  0.00     0.023 A 
ATOM     75  C   UNL     1       6.280  12.531   1.695  1.00  0.00     0.031 A 
ATOM     76  C   UNL     1       6.578  11.469  -0.429  1.00  0.00     0.131 A 
ATOM     77  C   UNL     1       7.660  12.437   1.925  1.00  0.00     0.055 A 
ATOM     78  C   UNL     1       7.956  11.372  -0.201  1.00  0.00     0.041 A 
ATOM     79  F   UNL     1       6.107  10.991  -1.592  1.00  0.00    -0.206 F 
ATOM     80  C   UNL     1       8.504  11.850   0.986  1.00  0.00     0.022 A 
BRANCH  77  81
ATOM     81  S   UNL     1       8.313  13.068   3.493  1.00  0.00     0.124 S 
ATOM     82  O   UNL     1       7.856  14.452   3.477  1.00  0.00    -0.237 OA
ATOM     83  O   UNL     1       7.657  12.189   4.458  1.00  0.00    -0.237 OA
ATOM     84  O   UNL     1       9.756  12.882   3.361  1.00  0.00    -0.744 OA
ENDBRANCH  77  81
ENDBRANCH  50  74
BRANCH  62  85
ATOM     85  C   UNL     1       0.993  17.141   0.665  1.00  0.00     0.023 A 
ATOM     86  C   UNL     1       1.678  17.914  -0.289  1.00  0.00     0.031 A 
ATOM     87  C   UNL     1       0.481  17.792   1.800  1.00  0.00     0.131 A 
ATOM     88  C   UNL     1       1.901  19.278  -0.057  1.00  0.00     0.055 A 
ATOM     89  C   UNL     1       0.649  19.164   1.995  1.00  0.00     0.041 A 
ATOM     90  F   UNL     1      -0.186  17.104   2.741  1.00  0.00    -0.206 F 
ATOM     91  C   UNL     1       1.377  19.912   1.072  1.00  0.00     0.022 A 
BRANCH  88  92
ATOM     92  S   UNL     1       2.971  20.188  -1.202  1.00  0.00     0.124 S 
ATOM     93  O   UNL     1       4.234  19.468  -1.073  1.00  0.00    -0.237 OA
ATOM     94  O   UNL     1       2.275  20.030  -2.475  1.00  0.00    -0.237 OA
ATOM     95  O   UNL     1       2.973  21.547  -0.664  1.00  0.00    -0.744 OA
ENDBRANCH  88  92
ENDBRANCH  62  85
ENDBRANCH  36  37
ENDBRANCH  29  31
ENDBRANCH  28  29
ENDBRANCH   1  28
TORSDOF 18
