REMARK SMILES Cc1ccc(/C=C2/C[N@@H+](C)Cc3c2nc2ccccc2c3C(=O)OCCOC(=O)c2ccc(-c3c4nc(c(-c5cc(S(=O)(=O)[O-])ccc5F)c5ccc([nH]5)c(-c5cc(S(=O)(=O)[O-])ccc5F)c5nc(c(-c6cc(S(=O)(=O)[O-])ccc6F)c6ccc3[nH]6)C=C5)C=C4)cc2)cc1
REMARK SMILES IDX 26 1 25 2 24 3 22 4 23 5 21 6 6 7 7 8 8 9 13 10 9 11 12 12
REMARK SMILES IDX 14 13 10 14 11 15 15 17 20 18 16 19 19 20 17 21 18 22 5 23
REMARK SMILES IDX 1 24 2 25 3 26 94 27 4 28 93 29 27 30 28 31 29 32 30 33
REMARK SMILES IDX 31 34 92 35 32 36 91 37 33 38 34 39 35 40 85 41 36 42 90 43
REMARK SMILES IDX 84 44 86 45 37 46 89 47 83 48 82 49 38 51 70 52 50 53 69 54
REMARK SMILES IDX 51 55 54 56 68 57 87 58 52 59 53 60 67 62 88 63 55 64 39 65
REMARK SMILES IDX 40 66 48 67 41 68 47 69 49 70 46 71 42 72 43 73 44 74 45 75
REMARK SMILES IDX 71 76 72 77 80 78 73 79 79 80 81 81 78 82 74 83 75 84 76 85
REMARK SMILES IDX 77 86 56 87 57 88 65 89 58 90 64 91 66 92 63 93 59 94 60 95
REMARK SMILES IDX 61 96 62 97
REMARK H PARENT 9 16 86 50 54 61
REMARK Flexibility Score: inf
ROOT
ATOM      1  C   UNL     1      -6.256  -9.025  -0.814  1.00  0.00     0.275 C 
ENDROOT
BRANCH   1   2
ATOM      2  C   UNL     1      -6.029  -8.894   0.697  1.00  0.00     0.275 C 
BRANCH   2   3
ATOM      3  O   UNL     1      -5.664  -7.526   0.980  1.00  0.00    -0.458 OA
BRANCH   3   4
ATOM      4  C   UNL     1      -4.236  -7.124   0.680  1.00  0.00     0.339 C 
ATOM      5  O   UNL     1      -3.689  -8.248   0.871  1.00  0.00    -0.246 OA
BRANCH   4   6
ATOM      6  C   UNL     1      -3.500  -5.173   0.082  1.00  0.00     0.080 A 
ATOM      7  C   UNL     1      -3.235  -0.013   0.158  1.00  0.00     0.020 C 
ATOM      8  C   UNL     1      -4.001  -1.103  -0.117  1.00  0.00     0.033 C 
ATOM      9  C   UNL     1      -5.483  -0.966  -0.182  1.00  0.00     0.301 C 
ATOM     10  C   UNL     1      -3.539  -2.506  -0.341  1.00  0.00     0.082 A 
ATOM     11  N   UNL     1      -6.014  -1.904   0.788  1.00  0.00    -0.330 N 
ATOM     12  C   UNL     1      -4.221  -3.692   0.076  1.00  0.00     0.048 A 
ATOM     13  N   UNL     1      -2.407  -2.510  -1.023  1.00  0.00    -0.247 NA
ATOM     14  C   UNL     1      -7.448  -1.700   0.993  1.00  0.00     0.333 C 
ATOM     15  C   UNL     1      -5.749  -3.274   0.297  1.00  0.00     0.302 C 
ATOM     16  H   UNL     1      -5.558  -1.757   1.688  1.00  0.00     0.348 HD
ATOM     17  C   UNL     1      -1.616  -3.542  -1.020  1.00  0.00     0.072 A 
ATOM     18  C   UNL     1      -1.914  -4.820  -0.471  1.00  0.00     0.015 A 
ATOM     19  C   UNL     1      -0.397  -3.126  -1.569  1.00  0.00     0.029 A 
ATOM     20  C   UNL     1      -0.588  -5.545  -0.564  1.00  0.00     0.011 A 
ATOM     21  C   UNL     1       0.754  -3.888  -1.588  1.00  0.00     0.002 A 
ATOM     22  C   UNL     1       0.661  -5.134  -1.062  1.00  0.00     0.001 A 
BRANCH   7  23
ATOM     23  C   UNL     1      -1.770   0.123   0.316  1.00  0.00    -0.025 A 
ATOM     24  C   UNL     1       2.537   0.299   0.113  1.00  0.00     0.044 C 
ATOM     25  C   UNL     1       1.051   0.317   0.312  1.00  0.00    -0.051 A 
ATOM     26  C   UNL     1       0.412  -0.781   0.892  1.00  0.00     0.004 A 
ATOM     27  C   UNL     1       0.269   1.371  -0.168  1.00  0.00     0.004 A 
ATOM     28  C   UNL     1      -0.984  -0.850   0.936  1.00  0.00     0.008 A 
ATOM     29  C   UNL     1      -1.130   1.275  -0.164  1.00  0.00     0.008 A 
ENDBRANCH   7  23
ENDBRANCH   4   6
ENDBRANCH   3   4
ENDBRANCH   2   3
ENDBRANCH   1   2
BRANCH   1  30
ATOM     30  O   UNL     1      -5.075  -8.851  -1.640  1.00  0.00    -0.458 OA
BRANCH  30  31
ATOM     31  C   UNL     1      -4.864  -7.662  -2.264  1.00  0.00     0.338 C 
ATOM     32  O   UNL     1      -4.991  -7.437  -3.454  1.00  0.00    -0.246 OA
BRANCH  31  33
ATOM     33  C   UNL     1      -4.301  -6.671  -1.330  1.00  0.00     0.060 A 
ATOM     34  C   UNL     1      -2.698  -7.082  -0.636  1.00  0.00     0.016 A 
ATOM     35  C   UNL     1      -5.513  -5.835  -0.315  1.00  0.00     0.016 A 
ATOM     36  C   UNL     1      -2.301  -6.643   1.127  1.00  0.00     0.010 A 
ATOM     37  C   UNL     1      -5.136  -5.490   1.460  1.00  0.00     0.010 A 
ATOM     38  C   UNL     1      -3.533  -5.875   2.158  1.00  0.00    -0.014 A 
BRANCH  38  39
ATOM     39  C   UNL     1      -3.658  -6.131   3.584  1.00  0.00     0.031 A 
ATOM     40  C   UNL     1      -4.179  -5.029   4.412  1.00  0.00     0.074 A 
ATOM     41  C   UNL     1      -3.594  -7.421   3.998  1.00  0.00     0.049 A 
ATOM     42  N   UNL     1      -4.336  -5.124   5.676  1.00  0.00    -0.248 NA
ATOM     43  C   UNL     1      -4.560  -3.705   3.910  1.00  0.00     0.031 C 
ATOM     44  C   UNL     1      -4.103  -8.033   5.222  1.00  0.00     0.029 A 
ATOM     45  N   UNL     1      -2.901  -8.465   3.397  1.00  0.00    -0.354 N 
ATOM     46  C   UNL     1      -5.003  -4.012   6.129  1.00  0.00     0.074 A 
ATOM     47  C   UNL     1      -5.104  -3.139   4.994  1.00  0.00     0.031 C 
ATOM     48  C   UNL     1      -3.515  -9.232   5.400  1.00  0.00     0.029 A 
ATOM     49  C   UNL     1      -2.519  -9.407   4.354  1.00  0.00     0.049 A 
ATOM     50  H   UNL     1      -2.707  -8.531   2.434  1.00  0.00     0.167 HD
ATOM     51  C   UNL     1      -5.435  -4.045   7.415  1.00  0.00     0.034 A 
ATOM     52  C   UNL     1      -1.183  -9.588   4.583  1.00  0.00     0.034 A 
ATOM     53  C   UNL     1      -4.764  -5.148   8.106  1.00  0.00     0.049 A 
ATOM     54  C   UNL     1      -0.749  -8.831   5.837  1.00  0.00     0.074 A 
ATOM     55  C   UNL     1      -5.132  -6.446   8.404  1.00  0.00     0.029 A 
ATOM     56  N   UNL     1      -3.377  -5.101   8.189  1.00  0.00    -0.354 N 
ATOM     57  N   UNL     1      -1.484  -7.934   6.447  1.00  0.00    -0.248 NA
ATOM     58  C   UNL     1       0.506  -9.077   6.540  1.00  0.00     0.031 C 
ATOM     59  C   UNL     1      -3.929  -7.208   8.521  1.00  0.00     0.029 A 
ATOM     60  C   UNL     1      -2.842  -6.362   8.357  1.00  0.00     0.049 A 
ATOM     61  H   UNL     1      -2.845  -4.274   8.135  1.00  0.00     0.167 HD
ATOM     62  C   UNL     1      -0.856  -7.491   7.578  1.00  0.00     0.074 A 
ATOM     63  C   UNL     1       0.384  -8.254   7.597  1.00  0.00     0.031 C 
ATOM     64  C   UNL     1      -1.393  -6.542   8.412  1.00  0.00     0.034 A 
BRANCH  51  65
ATOM     65  C   UNL     1      -6.527  -3.222   8.041  1.00  0.00     0.023 A 
ATOM     66  C   UNL     1      -6.873  -3.522   9.374  1.00  0.00     0.031 A 
ATOM     67  C   UNL     1      -7.350  -2.273   7.400  1.00  0.00     0.131 A 
ATOM     68  C   UNL     1      -7.985  -2.935   9.999  1.00  0.00     0.055 A 
ATOM     69  C   UNL     1      -8.438  -1.657   8.037  1.00  0.00     0.041 A 
ATOM     70  F   UNL     1      -7.181  -1.923   6.120  1.00  0.00    -0.206 F 
ATOM     71  C   UNL     1      -8.769  -1.994   9.341  1.00  0.00     0.022 A 
BRANCH  68  72
ATOM     72  S   UNL     1      -8.418  -3.477  11.672  1.00  0.00     0.124 S 
ATOM     73  O   UNL     1      -8.714  -4.892  11.468  1.00  0.00    -0.237 OA
ATOM     74  O   UNL     1      -7.205  -3.169  12.420  1.00  0.00    -0.237 OA
ATOM     75  O   UNL     1      -9.576  -2.649  12.006  1.00  0.00    -0.744 OA
ENDBRANCH  68  72
ENDBRANCH  51  65
BRANCH  52  76
ATOM     76  C   UNL     1      -0.420  -9.755   3.299  1.00  0.00     0.023 A 
ATOM     77  C   UNL     1      -0.826 -10.811   2.441  1.00  0.00     0.031 A 
ATOM     78  C   UNL     1       0.345  -8.730   2.732  1.00  0.00     0.131 A 
ATOM     79  C   UNL     1      -0.659 -10.711   1.050  1.00  0.00     0.055 A 
ATOM     80  C   UNL     1       0.568  -8.670   1.346  1.00  0.00     0.041 A 
ATOM     81  F   UNL     1       0.749  -7.686   3.469  1.00  0.00    -0.206 F 
ATOM     82  C   UNL     1      -0.002  -9.616   0.493  1.00  0.00     0.022 A 
BRANCH  79  83
ATOM     83  S   UNL     1      -1.478 -11.911  -0.050  1.00  0.00     0.124 S 
ATOM     84  O   UNL     1      -0.459 -12.951  -0.161  1.00  0.00    -0.237 OA
ATOM     85  O   UNL     1      -2.680 -12.283   0.691  1.00  0.00    -0.237 OA
ATOM     86  O   UNL     1      -1.715 -11.141  -1.270  1.00  0.00    -0.744 OA
ENDBRANCH  79  83
ENDBRANCH  52  76
BRANCH  64  87
ATOM     87  C   UNL     1      -0.588  -5.758   9.432  1.00  0.00     0.023 A 
ATOM     88  C   UNL     1       0.808  -5.774   9.440  1.00  0.00     0.031 A 
ATOM     89  C   UNL     1      -1.185  -4.915  10.403  1.00  0.00     0.131 A 
ATOM     90  C   UNL     1       1.538  -5.162  10.467  1.00  0.00     0.055 A 
ATOM     91  C   UNL     1      -0.447  -4.178  11.334  1.00  0.00     0.041 A 
ATOM     92  F   UNL     1      -2.512  -4.755  10.499  1.00  0.00    -0.206 F 
ATOM     93  C   UNL     1       0.926  -4.336  11.401  1.00  0.00     0.022 A 
BRANCH  90  94
ATOM     94  S   UNL     1       3.275  -5.632  10.634  1.00  0.00     0.124 S 
ATOM     95  O   UNL     1       3.170  -7.074  10.848  1.00  0.00    -0.237 OA
ATOM     96  O   UNL     1       3.837  -5.225   9.350  1.00  0.00    -0.237 OA
ATOM     97  O   UNL     1       3.729  -4.863  11.789  1.00  0.00    -0.744 OA
ENDBRANCH  90  94
ENDBRANCH  64  87
ENDBRANCH  38  39
ENDBRANCH  31  33
ENDBRANCH  30  31
ENDBRANCH   1  30
TORSDOF 15
