REMARK SMILES O=C(OCCOC(=O)c1cccnc1NC[C@H](c1ccccc1)[NH+]1CCOCC1)c1ccc(-c2c3nc(c(-c4cc(S(=O)(=O)[O-])ccc4F)c4ccc([nH]4)c(-c4cc(S(=O)(=O)[O-])ccc4F)c4nc(c(-c5cc(S(=O)(=O)[O-])ccc5F)c5ccc2[nH]5)C=C4)C=C3)cc1
REMARK SMILES IDX 5 1 4 2 3 3 2 4 1 5 30 6 31 7 92 8 32 9 91 10 33 11 34 12
REMARK SMILES IDX 35 13 85 14 36 15 90 16 84 17 86 18 37 19 89 20 83 21 82 22
REMARK SMILES IDX 38 24 70 25 50 26 69 27 51 28 54 29 68 30 87 31 52 32 53 33
REMARK SMILES IDX 67 35 88 36 55 37 39 38 40 39 48 40 41 41 47 42 49 43 46 44
REMARK SMILES IDX 42 45 43 46 44 47 45 48 71 49 72 50 80 51 73 52 79 53 81 54
REMARK SMILES IDX 78 55 74 56 75 57 76 58 77 59 56 60 57 61 65 62 58 63 64 64
REMARK SMILES IDX 66 65 63 66 59 67 60 68 61 69 62 70 6 71 7 72 8 73 9 74
REMARK SMILES IDX 10 75 14 76 11 77 13 78 12 79 15 80 16 82 17 83 24 84 25 85
REMARK SMILES IDX 29 86 26 88 28 89 27 90 18 91 19 92 23 93 20 94 22 95 21 96
REMARK H PARENT 86 23 54 34 15 81 24 87
REMARK Flexibility Score: inf
ROOT
ATOM      1  C   UNL     1      -2.959   5.387  -4.811  1.00  0.00     0.275 C 
ENDROOT
BRANCH   1   2
ATOM      2  C   UNL     1      -1.802   6.390  -4.814  1.00  0.00     0.275 C 
BRANCH   2   3
ATOM      3  O   UNL     1      -0.518   5.882  -4.383  1.00  0.00    -0.458 OA
BRANCH   3   4
ATOM      4  C   UNL     1      -0.340   5.134  -3.267  1.00  0.00     0.338 C 
ATOM      5  O   UNL     1       0.268   4.069  -3.324  1.00  0.00    -0.246 OA
BRANCH   4   6
ATOM      6  C   UNL     1      -0.918   5.604  -1.970  1.00  0.00     0.060 A 
ATOM      7  C   UNL     1      -1.470   6.871  -1.763  1.00  0.00     0.016 A 
ATOM      8  C   UNL     1      -0.982   4.666  -0.933  1.00  0.00     0.016 A 
ATOM      9  C   UNL     1      -2.228   7.133  -0.618  1.00  0.00     0.010 A 
ATOM     10  C   UNL     1      -1.751   4.913   0.201  1.00  0.00     0.010 A 
ATOM     11  C   UNL     1      -2.397   6.145   0.354  1.00  0.00    -0.014 A 
BRANCH  11  12
ATOM     12  C   UNL     1      -3.095   6.442   1.621  1.00  0.00     0.031 A 
ATOM     13  C   UNL     1      -2.251   6.714   2.829  1.00  0.00     0.074 A 
ATOM     14  C   UNL     1      -4.440   6.446   1.692  1.00  0.00     0.049 A 
ATOM     15  N   UNL     1      -2.624   7.033   4.037  1.00  0.00    -0.248 NA
ATOM     16  C   UNL     1      -0.791   6.638   2.645  1.00  0.00     0.031 C 
ATOM     17  C   UNL     1      -5.348   6.228   0.567  1.00  0.00     0.029 A 
ATOM     18  N   UNL     1      -5.282   6.605   2.764  1.00  0.00    -0.354 N 
ATOM     19  C   UNL     1      -1.447   7.258   4.738  1.00  0.00     0.074 A 
ATOM     20  C   UNL     1      -0.350   6.936   3.855  1.00  0.00     0.031 C 
ATOM     21  C   UNL     1      -6.614   6.175   1.022  1.00  0.00     0.029 A 
ATOM     22  C   UNL     1      -6.606   6.372   2.466  1.00  0.00     0.049 A 
ATOM     23  H   UNL     1      -4.968   6.860   3.661  1.00  0.00     0.167 HD
ATOM     24  C   UNL     1      -1.301   7.747   5.990  1.00  0.00     0.034 A 
ATOM     25  C   UNL     1      -7.679   6.309   3.281  1.00  0.00     0.034 A 
ATOM     26  C   UNL     1      -2.413   8.021   6.857  1.00  0.00     0.049 A 
ATOM     27  C   UNL     1      -7.479   6.675   4.732  1.00  0.00     0.074 A 
ATOM     28  C   UNL     1      -2.409   8.574   8.122  1.00  0.00     0.029 A 
ATOM     29  N   UNL     1      -3.735   7.725   6.550  1.00  0.00    -0.354 N 
ATOM     30  N   UNL     1      -6.370   7.027   5.345  1.00  0.00    -0.248 NA
ATOM     31  C   UNL     1      -8.670   6.686   5.589  1.00  0.00     0.031 C 
ATOM     32  C   UNL     1      -3.721   8.546   8.608  1.00  0.00     0.029 A 
ATOM     33  C   UNL     1      -4.552   8.030   7.623  1.00  0.00     0.049 A 
ATOM     34  H   UNL     1      -4.045   7.351   5.693  1.00  0.00     0.167 HD
ATOM     35  C   UNL     1      -6.743   7.362   6.642  1.00  0.00     0.074 A 
ATOM     36  C   UNL     1      -8.176   7.158   6.725  1.00  0.00     0.031 C 
ATOM     37  C   UNL     1      -5.979   7.818   7.668  1.00  0.00     0.034 A 
BRANCH  24  38
ATOM     38  C   UNL     1       0.105   7.992   6.463  1.00  0.00     0.023 A 
ATOM     39  C   UNL     1       0.915   8.970   5.855  1.00  0.00     0.031 A 
ATOM     40  C   UNL     1       0.666   7.205   7.481  1.00  0.00     0.131 A 
ATOM     41  C   UNL     1       2.262   9.089   6.222  1.00  0.00     0.055 A 
ATOM     42  C   UNL     1       1.990   7.374   7.889  1.00  0.00     0.041 A 
ATOM     43  F   UNL     1      -0.055   6.241   8.073  1.00  0.00    -0.206 F 
ATOM     44  C   UNL     1       2.800   8.311   7.250  1.00  0.00     0.022 A 
BRANCH  41  45
ATOM     45  S   UNL     1       3.332  10.192   5.259  1.00  0.00     0.124 S 
ATOM     46  O   UNL     1       3.309   9.553   3.945  1.00  0.00    -0.237 OA
ATOM     47  O   UNL     1       2.639  11.472   5.356  1.00  0.00    -0.237 OA
ATOM     48  O   UNL     1       4.613  10.123   5.957  1.00  0.00    -0.744 OA
ENDBRANCH  41  45
ENDBRANCH  24  38
BRANCH  25  49
ATOM     49  C   UNL     1      -9.012   5.865   2.777  1.00  0.00     0.023 A 
ATOM     50  C   UNL     1     -10.130   6.713   2.797  1.00  0.00     0.031 A 
ATOM     51  C   UNL     1      -9.206   4.537   2.352  1.00  0.00     0.131 A 
ATOM     52  C   UNL     1     -11.400   6.211   2.461  1.00  0.00     0.055 A 
ATOM     53  C   UNL     1     -10.463   4.052   1.980  1.00  0.00     0.041 A 
ATOM     54  F   UNL     1      -8.171   3.681   2.303  1.00  0.00    -0.206 F 
ATOM     55  C   UNL     1     -11.573   4.887   2.050  1.00  0.00     0.022 A 
BRANCH  52  56
ATOM     56  S   UNL     1     -12.847   7.286   2.675  1.00  0.00     0.124 S 
ATOM     57  O   UNL     1     -12.680   7.742   4.050  1.00  0.00    -0.237 OA
ATOM     58  O   UNL     1     -12.629   8.287   1.635  1.00  0.00    -0.237 OA
ATOM     59  O   UNL     1     -13.976   6.386   2.448  1.00  0.00    -0.744 OA
ENDBRANCH  52  56
ENDBRANCH  25  49
BRANCH  37  60
ATOM     60  C   UNL     1      -6.696   8.172   8.941  1.00  0.00     0.023 A 
ATOM     61  C   UNL     1      -7.273   7.185   9.754  1.00  0.00     0.031 A 
ATOM     62  C   UNL     1      -6.795   9.515   9.345  1.00  0.00     0.131 A 
ATOM     63  C   UNL     1      -7.968   7.560  10.912  1.00  0.00     0.055 A 
ATOM     64  C   UNL     1      -7.433   9.877  10.530  1.00  0.00     0.041 A 
ATOM     65  F   UNL     1      -6.260  10.495   8.598  1.00  0.00    -0.206 F 
ATOM     66  C   UNL     1      -8.034   8.897  11.316  1.00  0.00     0.022 A 
BRANCH  63  67
ATOM     67  S   UNL     1      -8.844   6.280  11.848  1.00  0.00     0.124 S 
ATOM     68  O   UNL     1      -9.833   5.822  10.877  1.00  0.00    -0.237 OA
ATOM     69  O   UNL     1      -7.777   5.335  12.163  1.00  0.00    -0.237 OA
ATOM     70  O   UNL     1      -9.386   7.005  12.995  1.00  0.00    -0.744 OA
ENDBRANCH  63  67
ENDBRANCH  37  60
ENDBRANCH  11  12
ENDBRANCH   4   6
ENDBRANCH   3   4
ENDBRANCH   2   3
ENDBRANCH   1   2
BRANCH   1  71
ATOM     71  O   UNL     1      -3.162   4.787  -3.522  1.00  0.00    -0.458 OA
BRANCH  71  72
ATOM     72  C   UNL     1      -4.032   3.749  -3.531  1.00  0.00     0.342 C 
ATOM     73  O   UNL     1      -4.656   3.350  -4.510  1.00  0.00    -0.246 OA
BRANCH  72  74
ATOM     74  C   UNL     1      -4.239   3.230  -2.174  1.00  0.00     0.102 A 
ATOM     75  C   UNL     1      -5.480   3.511  -1.593  1.00  0.00     0.021 A 
ATOM     76  C   UNL     1      -3.329   2.397  -1.505  1.00  0.00     0.140 A 
ATOM     77  C   UNL     1      -5.771   3.014  -0.333  1.00  0.00     0.021 A 
ATOM     78  N   UNL     1      -3.622   1.928  -0.268  1.00  0.00    -0.239 NA
ATOM     79  C   UNL     1      -4.807   2.255   0.298  1.00  0.00     0.113 A 
BRANCH  76  80
ATOM     80  N   UNL     1      -2.153   1.949  -2.086  1.00  0.00    -0.363 N 
ATOM     81  H   UNL     1      -1.749   2.461  -2.824  1.00  0.00     0.162 HD
BRANCH  80  82
ATOM     82  C   UNL     1      -1.506   0.727  -1.617  1.00  0.00     0.184 C 
BRANCH  82  83
ATOM     83  C   UNL     1      -1.284  -0.400  -2.716  1.00  0.00     0.234 C 
BRANCH  83  84
ATOM     84  N   UNL     1      -2.099  -0.472  -3.974  1.00  0.00    -0.323 N 
ATOM     85  C   UNL     1      -1.650  -1.432  -5.004  1.00  0.00     0.291 C 
ATOM     86  C   UNL     1      -2.449   0.755  -4.693  1.00  0.00     0.291 C 
ATOM     87  H   UNL     1      -2.936  -0.799  -3.493  1.00  0.00     0.348 HD
ATOM     88  C   UNL     1      -0.592  -0.877  -5.991  1.00  0.00     0.221 C 
ATOM     89  C   UNL     1      -1.302   1.329  -5.519  1.00  0.00     0.221 C 
ATOM     90  O   UNL     1      -0.946   0.398  -6.551  1.00  0.00    -0.370 OA
ENDBRANCH  83  84
BRANCH  83  91
ATOM     91  C   UNL     1       0.206  -0.760  -2.863  1.00  0.00     0.011 A 
ATOM     92  C   UNL     1       1.196   0.196  -3.126  1.00  0.00     0.010 A 
ATOM     93  C   UNL     1       0.594  -2.117  -2.803  1.00  0.00     0.010 A 
ATOM     94  C   UNL     1       2.506  -0.203  -3.418  1.00  0.00     0.001 A 
ATOM     95  C   UNL     1       1.897  -2.513  -3.104  1.00  0.00     0.001 A 
ATOM     96  C   UNL     1       2.849  -1.554  -3.431  1.00  0.00     0.000 A 
ENDBRANCH  83  91
ENDBRANCH  82  83
ENDBRANCH  80  82
ENDBRANCH  76  80
ENDBRANCH  72  74
ENDBRANCH  71  72
ENDBRANCH   1  71
TORSDOF 19
