REMARK SMILES Cc1cc(C)cc(C[N@@H+]2CCO[C@@H](CC(=O)OCCOC(=O)c3ccc(-c4c5nc(c(-c6cc(S(=O)(=O)[O-])ccc6F)c6ccc([nH]6)c(-c6cc(S(=O)(=O)[O-])ccc6F)c6nc(c(-c7cc(S(=O)(=O)[O-])ccc7F)c7ccc4[nH]7)C=C6)C=C5)cc3)C2)c1
REMARK SMILES IDX 18 1 17 2 15 3 16 4 14 5 13 6 9 7 10 8 86 9 11 11 12 12 8 13
REMARK SMILES IDX 7 14 1 15 2 16 3 17 87 18 4 19 5 20 6 21 19 22 20 23 21 24
REMARK SMILES IDX 22 25 23 26 24 27 85 28 25 29 84 30 26 31 27 32 28 33 78 34
REMARK SMILES IDX 29 35 83 36 77 37 79 38 30 39 82 40 76 41 75 42 31 44 63 45
REMARK SMILES IDX 43 46 62 47 44 48 47 49 61 50 80 51 45 52 46 53 60 55 81 56
REMARK SMILES IDX 48 57 32 58 33 59 41 60 34 61 40 62 42 63 39 64 35 65 36 66
REMARK SMILES IDX 37 67 38 68 64 69 65 70 73 71 66 72 72 73 74 74 71 75 67 76
REMARK SMILES IDX 68 77 69 78 70 79 49 80 50 81 58 82 51 83 57 84 59 85 56 86
REMARK SMILES IDX 52 87 53 88 54 89 55 90
REMARK H PARENT 9 10 79 43 47 54
REMARK Flexibility Score: inf
ROOT
ATOM      1  C   UNL     1       3.972  -3.374   3.886  1.00  0.00     0.274 C 
ENDROOT
BRANCH   1   2
ATOM      2  O   UNL     1       2.534  -3.275   3.836  1.00  0.00    -0.462 OA
BRANCH   2   3
ATOM      3  C   UNL     1       1.990  -2.171   4.415  1.00  0.00     0.308 C 
ATOM      4  O   UNL     1       2.634  -1.296   4.980  1.00  0.00    -0.252 OA
BRANCH   3   5
ATOM      5  C   UNL     1       0.488  -2.203   4.400  1.00  0.00     0.160 C 
BRANCH   5   6
ATOM      6  C   UNL     1      -0.226  -2.181   3.047  1.00  0.00     0.184 C 
ATOM      7  N   UNL     1      -0.862  -3.643   1.031  1.00  0.00    -0.327 N 
ATOM      8  C   UNL     1      -2.252  -3.377   1.401  1.00  0.00     0.291 C 
ATOM      9  C   UNL     1       0.065  -3.415   2.154  1.00  0.00     0.295 C 
ATOM     10  H   UNL     1      -0.819  -4.647   0.856  1.00  0.00     0.348 HD
ATOM     11  C   UNL     1      -2.465  -2.124   2.261  1.00  0.00     0.222 C 
ATOM     12  O   UNL     1      -1.629  -2.155   3.416  1.00  0.00    -0.366 OA
BRANCH   7  13
ATOM     13  C   UNL     1      -0.431  -3.171  -0.289  1.00  0.00     0.299 C 
BRANCH  13  14
ATOM     14  C   UNL     1      -0.366  -1.683  -0.544  1.00  0.00     0.007 A 
ATOM     15  C   UNL     1       2.284   1.022  -1.033  1.00  0.00     0.044 C 
ATOM     16  C   UNL     1       0.958   0.341  -0.882  1.00  0.00    -0.050 A 
ATOM     17  C   UNL     1      -0.216   1.098  -0.924  1.00  0.00     0.006 A 
ATOM     18  C   UNL     1       0.873  -1.043  -0.684  1.00  0.00     0.013 A 
ATOM     19  C   UNL     1      -1.464   0.478  -0.829  1.00  0.00    -0.050 A 
ATOM     20  C   UNL     1      -2.712   1.311  -0.809  1.00  0.00     0.044 C 
ATOM     21  C   UNL     1      -1.527  -0.913  -0.689  1.00  0.00     0.013 A 
ENDBRANCH  13  14
ENDBRANCH   7  13
ENDBRANCH   5   6
ENDBRANCH   3   5
ENDBRANCH   2   3
ENDBRANCH   1   2
BRANCH   1  22
ATOM     22  C   UNL     1       4.654  -2.803   2.635  1.00  0.00     0.275 C 
BRANCH  22  23
ATOM     23  O   UNL     1       4.705  -1.363   2.635  1.00  0.00    -0.458 OA
BRANCH  23  24
ATOM     24  C   UNL     1       3.588  -0.771   2.156  1.00  0.00     0.338 C 
ATOM     25  O   UNL     1       2.606  -1.358   1.721  1.00  0.00    -0.246 OA
BRANCH  24  26
ATOM     26  C   UNL     1       3.627   0.693   2.299  1.00  0.00     0.060 A 
ATOM     27  C   UNL     1       2.480   1.333   2.785  1.00  0.00     0.016 A 
ATOM     28  C   UNL     1       4.725   1.440   1.866  1.00  0.00     0.016 A 
ATOM     29  C   UNL     1       2.427   2.723   2.841  1.00  0.00     0.010 A 
ATOM     30  C   UNL     1       4.668   2.837   1.919  1.00  0.00     0.010 A 
ATOM     31  C   UNL     1       3.518   3.485   2.403  1.00  0.00    -0.014 A 
BRANCH  31  32
ATOM     32  C   UNL     1       3.469   4.963   2.494  1.00  0.00     0.031 A 
ATOM     33  C   UNL     1       3.146   5.798   1.290  1.00  0.00     0.074 A 
ATOM     34  C   UNL     1       3.718   5.545   3.681  1.00  0.00     0.049 A 
ATOM     35  N   UNL     1       3.101   7.099   1.172  1.00  0.00    -0.248 NA
ATOM     36  C   UNL     1       2.828   5.070   0.055  1.00  0.00     0.031 C 
ATOM     37  C   UNL     1       4.004   4.826   4.924  1.00  0.00     0.029 A 
ATOM     38  N   UNL     1       3.782   6.868   4.036  1.00  0.00    -0.354 N 
ATOM     39  C   UNL     1       2.741   7.352  -0.147  1.00  0.00     0.074 A 
ATOM     40  C   UNL     1       2.609   6.063  -0.796  1.00  0.00     0.031 C 
ATOM     41  C   UNL     1       4.230   5.717   5.901  1.00  0.00     0.029 A 
ATOM     42  C   UNL     1       4.145   7.065   5.347  1.00  0.00     0.049 A 
ATOM     43  H   UNL     1       3.586   7.604   3.413  1.00  0.00     0.167 HD
ATOM     44  C   UNL     1       2.538   8.548  -0.753  1.00  0.00     0.034 A 
ATOM     45  C   UNL     1       4.413   8.203   6.015  1.00  0.00     0.034 A 
ATOM     46  C   UNL     1       2.706   9.822  -0.093  1.00  0.00     0.049 A 
ATOM     47  C   UNL     1       4.276   9.518   5.294  1.00  0.00     0.074 A 
ATOM     48  C   UNL     1       2.518  11.093  -0.608  1.00  0.00     0.029 A 
ATOM     49  N   UNL     1       3.122   9.987   1.222  1.00  0.00    -0.354 N 
ATOM     50  N   UNL     1       3.925   9.744   4.049  1.00  0.00    -0.248 NA
ATOM     51  C   UNL     1       4.565  10.731   6.069  1.00  0.00     0.031 C 
ATOM     52  C   UNL     1       2.884  12.024   0.372  1.00  0.00     0.029 A 
ATOM     53  C   UNL     1       3.233  11.336   1.524  1.00  0.00     0.049 A 
ATOM     54  H   UNL     1       3.312   9.252   1.850  1.00  0.00     0.167 HD
ATOM     55  C   UNL     1       3.925  11.127   3.901  1.00  0.00     0.074 A 
ATOM     56  C   UNL     1       4.303  11.682   5.185  1.00  0.00     0.031 C 
ATOM     57  C   UNL     1       3.631  11.872   2.804  1.00  0.00     0.034 A 
BRANCH  44  58
ATOM     58  C   UNL     1       2.167   8.532  -2.216  1.00  0.00     0.023 A 
ATOM     59  C   UNL     1       0.942   8.006  -2.664  1.00  0.00     0.031 A 
ATOM     60  C   UNL     1       3.055   9.043  -3.179  1.00  0.00     0.131 A 
ATOM     61  C   UNL     1       0.663   7.952  -4.039  1.00  0.00     0.055 A 
ATOM     62  C   UNL     1       2.744   9.047  -4.540  1.00  0.00     0.041 A 
ATOM     63  F   UNL     1       4.248   9.538  -2.813  1.00  0.00    -0.206 F 
ATOM     64  C   UNL     1       1.547   8.489  -4.978  1.00  0.00     0.022 A 
BRANCH  61  65
ATOM     65  S   UNL     1      -0.817   7.061  -4.593  1.00  0.00     0.124 S 
ATOM     66  O   UNL     1      -0.590   5.731  -4.030  1.00  0.00    -0.237 OA
ATOM     67  O   UNL     1      -1.895   7.834  -3.989  1.00  0.00    -0.237 OA
ATOM     68  O   UNL     1      -0.736   7.134  -6.050  1.00  0.00    -0.744 OA
ENDBRANCH  61  65
ENDBRANCH  44  58
BRANCH  45  69
ATOM     69  C   UNL     1       4.881   8.145   7.427  1.00  0.00     0.023 A 
ATOM     70  C   UNL     1       4.107   8.667   8.473  1.00  0.00     0.031 A 
ATOM     71  C   UNL     1       6.131   7.582   7.745  1.00  0.00     0.131 A 
ATOM     72  C   UNL     1       4.604   8.646   9.786  1.00  0.00     0.055 A 
ATOM     73  C   UNL     1       6.600   7.519   9.057  1.00  0.00     0.041 A 
ATOM     74  F   UNL     1       6.909   7.067   6.779  1.00  0.00    -0.206 F 
ATOM     75  C   UNL     1       5.839   8.064  10.086  1.00  0.00     0.022 A 
BRANCH  72  76
ATOM     76  S   UNL     1       3.643   9.458  11.092  1.00  0.00     0.124 S 
ATOM     77  O   UNL     1       3.536  10.820  10.580  1.00  0.00    -0.237 OA
ATOM     78  O   UNL     1       2.413   8.675  11.094  1.00  0.00    -0.237 OA
ATOM     79  O   UNL     1       4.482   9.301  12.278  1.00  0.00    -0.744 OA
ENDBRANCH  72  76
ENDBRANCH  45  69
BRANCH  57  80
ATOM     80  C   UNL     1       3.670  13.370   2.971  1.00  0.00     0.023 A 
ATOM     81  C   UNL     1       4.879  14.060   3.169  1.00  0.00     0.031 A 
ATOM     82  C   UNL     1       2.477  14.113   2.951  1.00  0.00     0.131 A 
ATOM     83  C   UNL     1       4.863  15.445   3.389  1.00  0.00     0.055 A 
ATOM     84  C   UNL     1       2.472  15.498   3.118  1.00  0.00     0.041 A 
ATOM     85  F   UNL     1       1.295  13.503   2.768  1.00  0.00    -0.206 F 
ATOM     86  C   UNL     1       3.669  16.171   3.351  1.00  0.00     0.022 A 
BRANCH  83  87
ATOM     87  S   UNL     1       6.418  16.280   3.806  1.00  0.00     0.124 S 
ATOM     88  O   UNL     1       6.810  15.597   5.035  1.00  0.00    -0.237 OA
ATOM     89  O   UNL     1       7.244  16.007   2.634  1.00  0.00    -0.237 OA
ATOM     90  O   UNL     1       6.024  17.678   3.973  1.00  0.00    -0.744 OA
ENDBRANCH  83  87
ENDBRANCH  57  80
ENDBRANCH  31  32
ENDBRANCH  24  26
ENDBRANCH  23  24
ENDBRANCH  22  23
ENDBRANCH   1  22
TORSDOF 17
