REMARK SMILES O=C(OCCOC(=O)[C@@H]1[C@H](C(=O)NCc2ccncc2)[C@H]2C=C[C@@H]1O2)c1ccc(-c2c3nc(c(-c4cc(S(=O)(=O)[O-])ccc4F)c4ccc([nH]4)c(-c4cc(S(=O)(=O)[O-])ccc4F)c4nc(c(-c5cc(S(=O)(=O)[O-])ccc5F)c5ccc2[nH]5)C=C4)C=C3)cc1
REMARK SMILES IDX 4 1 3 2 2 3 1 4 26 5 27 6 88 7 28 8 87 9 29 10 30 11 31 12
REMARK SMILES IDX 81 13 32 14 86 15 80 16 82 17 33 18 85 19 79 20 78 21 34 23
REMARK SMILES IDX 66 24 46 25 65 26 47 27 50 28 64 29 83 30 48 31 49 32 63 34
REMARK SMILES IDX 84 35 51 36 35 37 36 38 44 39 37 40 43 41 45 42 42 43 38 44
REMARK SMILES IDX 39 45 40 46 41 47 67 48 68 49 76 50 69 51 75 52 77 53 74 54
REMARK SMILES IDX 70 55 71 56 72 57 73 58 52 59 53 60 61 61 54 62 60 63 62 64
REMARK SMILES IDX 59 65 55 66 56 67 57 68 58 69 5 70 6 71 7 72 8 73 9 74 10 75
REMARK SMILES IDX 24 76 21 77 23 78 25 79 22 80 11 81 12 82 13 83 14 85 15 86
REMARK SMILES IDX 16 87 20 88 17 89 19 90 18 91
REMARK H PARENT 82 22 50 33 13 84
REMARK Flexibility Score: inf
ROOT
ATOM      1  C   UNL     1       3.220  -0.797  -1.185  1.00  0.00     0.275 C 
ENDROOT
BRANCH   1   2
ATOM      2  O   UNL     1       2.425  -1.398  -0.143  1.00  0.00    -0.458 OA
BRANCH   2   3
ATOM      3  C   UNL     1       2.086  -0.844   1.043  1.00  0.00     0.338 C 
ATOM      4  O   UNL     1       0.921  -0.929   1.429  1.00  0.00    -0.246 OA
BRANCH   3   5
ATOM      5  C   UNL     1       3.099  -0.212   1.955  1.00  0.00     0.060 A 
ATOM      6  C   UNL     1       4.382   0.197   1.593  1.00  0.00     0.016 A 
ATOM      7  C   UNL     1       2.666   0.100   3.258  1.00  0.00     0.016 A 
ATOM      8  C   UNL     1       5.174   0.974   2.450  1.00  0.00     0.010 A 
ATOM      9  C   UNL     1       3.436   0.918   4.098  1.00  0.00     0.010 A 
ATOM     10  C   UNL     1       4.698   1.381   3.689  1.00  0.00    -0.014 A 
BRANCH  10  11
ATOM     11  C   UNL     1       5.599   2.086   4.641  1.00  0.00     0.031 A 
ATOM     12  C   UNL     1       6.102   1.282   5.798  1.00  0.00     0.074 A 
ATOM     13  C   UNL     1       6.009   3.362   4.482  1.00  0.00     0.049 A 
ATOM     14  N   UNL     1       6.818   1.656   6.820  1.00  0.00    -0.248 NA
ATOM     15  C   UNL     1       5.763  -0.150   5.779  1.00  0.00     0.031 C 
ATOM     16  C   UNL     1       5.772   4.188   3.307  1.00  0.00     0.029 A 
ATOM     17  N   UNL     1       6.707   4.204   5.316  1.00  0.00    -0.354 N 
ATOM     18  C   UNL     1       7.023   0.502   7.561  1.00  0.00     0.074 A 
ATOM     19  C   UNL     1       6.270  -0.556   6.927  1.00  0.00     0.031 C 
ATOM     20  C   UNL     1       6.199   5.442   3.526  1.00  0.00     0.029 A 
ATOM     21  C   UNL     1       6.789   5.503   4.854  1.00  0.00     0.049 A 
ATOM     22  H   UNL     1       7.111   3.908   6.163  1.00  0.00     0.167 HD
ATOM     23  C   UNL     1       7.814   0.329   8.644  1.00  0.00     0.034 A 
ATOM     24  C   UNL     1       7.295   6.612   5.430  1.00  0.00     0.034 A 
ATOM     25  C   UNL     1       8.544   1.403   9.261  1.00  0.00     0.049 A 
ATOM     26  C   UNL     1       8.009   6.443   6.745  1.00  0.00     0.074 A 
ATOM     27  C   UNL     1       9.350   1.366  10.382  1.00  0.00     0.029 A 
ATOM     28  N   UNL     1       8.542   2.719   8.809  1.00  0.00    -0.354 N 
ATOM     29  N   UNL     1       8.199   5.344   7.440  1.00  0.00    -0.248 NA
ATOM     30  C   UNL     1       8.629   7.639   7.324  1.00  0.00     0.031 C 
ATOM     31  C   UNL     1       9.771   2.672  10.653  1.00  0.00     0.029 A 
ATOM     32  C   UNL     1       9.303   3.511   9.653  1.00  0.00     0.049 A 
ATOM     33  H   UNL     1       8.069   3.040   8.008  1.00  0.00     0.167 HD
ATOM     34  C   UNL     1       9.027   5.703   8.496  1.00  0.00     0.074 A 
ATOM     35  C   UNL     1       9.287   7.122   8.350  1.00  0.00     0.031 C 
ATOM     36  C   UNL     1       9.547   4.926   9.482  1.00  0.00     0.034 A 
BRANCH  23  37
ATOM     37  C   UNL     1       7.840  -1.059   9.227  1.00  0.00     0.023 A 
ATOM     38  C   UNL     1       8.295  -2.161   8.477  1.00  0.00     0.031 A 
ATOM     39  C   UNL     1       7.253  -1.308  10.478  1.00  0.00     0.131 A 
ATOM     40  C   UNL     1       8.036  -3.463   8.927  1.00  0.00     0.055 A 
ATOM     41  C   UNL     1       7.094  -2.605  10.967  1.00  0.00     0.041 A 
ATOM     42  F   UNL     1       6.770  -0.298  11.219  1.00  0.00    -0.206 F 
ATOM     43  C   UNL     1       7.462  -3.693  10.179  1.00  0.00     0.022 A 
BRANCH  40  44
ATOM     44  S   UNL     1       8.248  -4.836   7.758  1.00  0.00     0.124 S 
ATOM     45  O   UNL     1       7.305  -4.471   6.703  1.00  0.00    -0.237 OA
ATOM     46  O   UNL     1       9.661  -4.742   7.411  1.00  0.00    -0.237 OA
ATOM     47  O   UNL     1       7.873  -6.012   8.540  1.00  0.00    -0.744 OA
ENDBRANCH  40  44
ENDBRANCH  23  37
BRANCH  24  48
ATOM     48  C   UNL     1       7.188   7.954   4.779  1.00  0.00     0.023 A 
ATOM     49  C   UNL     1       8.330   8.659   4.364  1.00  0.00     0.031 A 
ATOM     50  C   UNL     1       5.941   8.591   4.634  1.00  0.00     0.131 A 
ATOM     51  C   UNL     1       8.212   9.975   3.882  1.00  0.00     0.055 A 
ATOM     52  C   UNL     1       5.824   9.885   4.115  1.00  0.00     0.041 A 
ATOM     53  F   UNL     1       4.812   7.966   5.004  1.00  0.00    -0.206 F 
ATOM     54  C   UNL     1       6.966  10.591   3.750  1.00  0.00     0.022 A 
BRANCH  51  55
ATOM     55  S   UNL     1       9.726  10.906   3.510  1.00  0.00     0.124 S 
ATOM     56  O   UNL     1      10.436  10.840   4.782  1.00  0.00    -0.237 OA
ATOM     57  O   UNL     1      10.294  10.127   2.415  1.00  0.00    -0.237 OA
ATOM     58  O   UNL     1       9.229  12.229   3.139  1.00  0.00    -0.744 OA
ENDBRANCH  51  55
ENDBRANCH  24  48
BRANCH  36  59
ATOM     59  C   UNL     1      10.505   5.591  10.435  1.00  0.00     0.023 A 
ATOM     60  C   UNL     1      10.094   6.614  11.304  1.00  0.00     0.031 A 
ATOM     61  C   UNL     1      11.854   5.196  10.463  1.00  0.00     0.131 A 
ATOM     62  C   UNL     1      11.039   7.256  12.116  1.00  0.00     0.055 A 
ATOM     63  C   UNL     1      12.772   5.784  11.332  1.00  0.00     0.041 A 
ATOM     64  F   UNL     1      12.301   4.226   9.649  1.00  0.00    -0.206 F 
ATOM     65  C   UNL     1      12.370   6.832  12.153  1.00  0.00     0.022 A 
BRANCH  62  66
ATOM     66  S   UNL     1      10.525   8.732  13.033  1.00  0.00     0.124 S 
ATOM     67  O   UNL     1      10.061   9.607  11.961  1.00  0.00    -0.237 OA
ATOM     68  O   UNL     1       9.491   8.205  13.918  1.00  0.00    -0.237 OA
ATOM     69  O   UNL     1      11.751   9.164  13.701  1.00  0.00    -0.744 OA
ENDBRANCH  62  66
ENDBRANCH  36  59
ENDBRANCH  10  11
ENDBRANCH   3   5
ENDBRANCH   2   3
ENDBRANCH   1   2
BRANCH   1  70
ATOM     70  C   UNL     1       2.759   0.582  -1.663  1.00  0.00     0.274 C 
BRANCH  70  71
ATOM     71  O   UNL     1       2.635   1.558  -0.610  1.00  0.00    -0.462 OA
BRANCH  71  72
ATOM     72  C   UNL     1       1.523   2.338  -0.672  1.00  0.00     0.312 C 
ATOM     73  O   UNL     1       0.630   2.200  -1.509  1.00  0.00    -0.252 OA
BRANCH  72  74
ATOM     74  C   UNL     1       1.464   3.457   0.338  1.00  0.00     0.147 C 
ATOM     75  C   UNL     1       2.217   4.753  -0.049  1.00  0.00     0.128 C 
ATOM     76  C   UNL     1       2.080   3.140   1.690  1.00  0.00     0.157 C 
ATOM     77  C   UNL     1       3.088   4.996   1.177  1.00  0.00     0.155 C 
ATOM     78  C   UNL     1       1.670   4.128   2.736  1.00  0.00     0.004 C 
ATOM     79  O   UNL     1       3.418   3.616   1.475  1.00  0.00    -0.365 OA
ATOM     80  C   UNL     1       2.268   5.282   2.408  1.00  0.00     0.004 C 
BRANCH  75  81
ATOM     81  C   UNL     1       2.937   4.741  -1.389  1.00  0.00     0.227 C 
ATOM     82  O   UNL     1       2.331   5.214  -2.363  1.00  0.00    -0.275 OA
ATOM     83  N   UNL     1       4.146   4.223  -1.690  1.00  0.00    -0.352 N 
ATOM     84  H   UNL     1       4.314   4.240  -2.659  1.00  0.00     0.163 HD
BRANCH  83  85
ATOM     85  C   UNL     1       5.274   3.644  -0.962  1.00  0.00     0.151 C 
BRANCH  85  86
ATOM     86  C   UNL     1       5.937   2.491  -1.697  1.00  0.00    -0.026 A 
ATOM     87  C   UNL     1       6.564   1.476  -0.963  1.00  0.00     0.025 A 
ATOM     88  C   UNL     1       5.984   2.380  -3.088  1.00  0.00     0.025 A 
ATOM     89  C   UNL     1       7.056   0.353  -1.614  1.00  0.00     0.111 A 
ATOM     90  C   UNL     1       6.517   1.229  -3.657  1.00  0.00     0.111 A 
ATOM     91  N   UNL     1       7.016   0.195  -2.950  1.00  0.00    -0.265 NA
ENDBRANCH  85  86
ENDBRANCH  83  85
ENDBRANCH  75  81
ENDBRANCH  72  74
ENDBRANCH  71  72
ENDBRANCH  70  71
ENDBRANCH   1  70
TORSDOF 17
