REMARK SMILES Cc1c(NCc2ccc(-c3ccc(Cl)cc3)o2)cccc1C(=O)OCCOC(=O)c1ccc(-c2c3nc(c(-c4cc(S(=O)(=O)[O-])ccc4F)c4ccc([nH]4)c(-c4cc(S(=O)(=O)[O-])ccc4F)c4nc(c(-c5cc(S(=O)(=O)[O-])ccc5F)c5ccc2[nH]5)C=C4)C=C3)cc1
REMARK SMILES IDX 25 1 24 2 22 3 23 4 21 5 1 6 2 7 3 8 18 9 20 10 19 11 4 12
REMARK SMILES IDX 5 14 6 15 7 16 17 17 8 18 9 19 10 20 11 21 16 22 12 23 15 24
REMARK SMILES IDX 13 25 14 26 26 27 27 28 28 29 29 30 30 31 31 32 92 33 32 34
REMARK SMILES IDX 91 35 33 36 34 37 35 38 85 39 36 40 90 41 84 42 86 43 37 44
REMARK SMILES IDX 89 45 83 46 82 47 38 49 70 50 50 51 69 52 51 53 54 54 68 55
REMARK SMILES IDX 87 56 52 57 53 58 67 60 88 61 55 62 39 63 40 64 48 65 41 66
REMARK SMILES IDX 47 67 49 68 46 69 42 70 43 71 44 72 45 73 71 74 72 75 80 76
REMARK SMILES IDX 73 77 79 78 81 79 78 80 74 81 75 82 76 83 77 84 56 85 57 86
REMARK SMILES IDX 65 87 58 88 64 89 66 90 63 91 59 92 60 93 61 94 62 95
REMARK H PARENT 4 13 86 48 54 59
REMARK Flexibility Score: inf
ROOT
ATOM      1  C   UNL     1       3.212   2.905  -2.205  1.00  0.00     0.275 C 
ENDROOT
BRANCH   1   2
ATOM      2  O   UNL     1       2.150   1.938  -2.193  1.00  0.00    -0.458 OA
BRANCH   2   3
ATOM      3  C   UNL     1       2.133   1.238  -1.030  1.00  0.00     0.338 C 
ATOM      4  O   UNL     1       2.934   1.381  -0.118  1.00  0.00    -0.246 OA
BRANCH   3   5
ATOM      5  C   UNL     1       1.104   0.178  -0.957  1.00  0.00     0.065 A 
ATOM      6  C   UNL     1       2.940  -1.456  -0.296  1.00  0.00     0.047 C 
ATOM      7  C   UNL     1       1.482  -1.070  -0.415  1.00  0.00    -0.013 A 
ATOM      8  C   UNL     1       0.484  -1.994  -0.036  1.00  0.00     0.038 A 
ATOM      9  C   UNL     1      -0.860  -1.668  -0.268  1.00  0.00     0.026 A 
ATOM     10  C   UNL     1      -0.239   0.454  -1.232  1.00  0.00     0.016 A 
ATOM     11  C   UNL     1      -1.222  -0.464  -0.871  1.00  0.00     0.003 A 
BRANCH   8  12
ATOM     12  N   UNL     1       0.850  -3.226   0.485  1.00  0.00    -0.378 N 
ATOM     13  H   UNL     1       1.571  -3.262   1.154  1.00  0.00     0.161 HD
BRANCH  12  14
ATOM     14  C   UNL     1       0.210  -4.464   0.080  1.00  0.00     0.188 C 
BRANCH  14  15
ATOM     15  C   UNL     1       0.488  -4.890  -1.323  1.00  0.00     0.123 A 
ATOM     16  C   UNL     1       0.915  -4.239  -2.464  1.00  0.00     0.048 A 
ATOM     17  O   UNL     1       0.301  -6.213  -1.591  1.00  0.00    -0.459 OA
ATOM     18  C   UNL     1       1.033  -5.223  -3.472  1.00  0.00     0.051 A 
ATOM     19  C   UNL     1       0.643  -6.410  -2.894  1.00  0.00     0.134 A 
BRANCH  19  20
ATOM     20  C   UNL     1       0.542  -7.777  -3.356  1.00  0.00     0.017 A 
ATOM     21  C   UNL     1       1.625  -8.392  -3.995  1.00  0.00     0.013 A 
ATOM     22  C   UNL     1      -0.641  -8.500  -3.155  1.00  0.00     0.013 A 
ATOM     23  C   UNL     1       1.528  -9.718  -4.422  1.00  0.00     0.021 A 
ATOM     24  C   UNL     1      -0.745  -9.821  -3.593  1.00  0.00     0.021 A 
ATOM     25  C   UNL     1       0.342 -10.424  -4.222  1.00  0.00     0.041 A 
ATOM     26  Cl  UNL     1       0.220 -12.055  -4.757  1.00  0.00    -0.084 Cl
ENDBRANCH  19  20
ENDBRANCH  14  15
ENDBRANCH  12  14
ENDBRANCH   8  12
ENDBRANCH   3   5
ENDBRANCH   2   3
ENDBRANCH   1   2
BRANCH   1  27
ATOM     27  C   UNL     1       2.893   4.193  -2.974  1.00  0.00     0.275 C 
BRANCH  27  28
ATOM     28  O   UNL     1       1.586   4.819  -2.896  1.00  0.00    -0.458 OA
BRANCH  28  29
ATOM     29  C   UNL     1       0.558   4.312  -2.174  1.00  0.00     0.338 C 
ATOM     30  O   UNL     1      -0.428   3.797  -2.699  1.00  0.00    -0.246 OA
BRANCH  29  31
ATOM     31  C   UNL     1       0.787   4.288  -0.712  1.00  0.00     0.060 A 
ATOM     32  C   UNL     1      -0.033   3.481   0.096  1.00  0.00     0.016 A 
ATOM     33  C   UNL     1       1.942   4.868  -0.196  1.00  0.00     0.016 A 
ATOM     34  C   UNL     1       0.367   3.143   1.381  1.00  0.00     0.010 A 
ATOM     35  C   UNL     1       2.426   4.406   0.998  1.00  0.00     0.010 A 
ATOM     36  C   UNL     1       1.615   3.591   1.802  1.00  0.00    -0.014 A 
BRANCH  36  37
ATOM     37  C   UNL     1       2.021   3.610   3.194  1.00  0.00     0.031 A 
ATOM     38  C   UNL     1       2.603   2.430   3.845  1.00  0.00     0.074 A 
ATOM     39  C   UNL     1       1.890   4.859   3.697  1.00  0.00     0.049 A 
ATOM     40  N   UNL     1       2.645   2.263   5.117  1.00  0.00    -0.248 NA
ATOM     41  C   UNL     1       3.151   1.281   3.128  1.00  0.00     0.031 C 
ATOM     42  C   UNL     1       2.369   5.496   4.905  1.00  0.00     0.029 A 
ATOM     43  N   UNL     1       1.047   5.826   3.143  1.00  0.00    -0.354 N 
ATOM     44  C   UNL     1       3.521   1.225   5.378  1.00  0.00     0.074 A 
ATOM     45  C   UNL     1       3.678   0.550   4.120  1.00  0.00     0.031 C 
ATOM     46  C   UNL     1       1.596   6.579   5.148  1.00  0.00     0.029 A 
ATOM     47  C   UNL     1       0.512   6.586   4.163  1.00  0.00     0.049 A 
ATOM     48  H   UNL     1       0.865   5.946   2.183  1.00  0.00     0.167 HD
ATOM     49  C   UNL     1       4.138   1.208   6.595  1.00  0.00     0.034 A 
ATOM     50  C   UNL     1      -0.816   6.380   4.422  1.00  0.00     0.034 A 
ATOM     51  C   UNL     1       3.595   2.296   7.407  1.00  0.00     0.049 A 
ATOM     52  C   UNL     1      -0.949   5.655   5.742  1.00  0.00     0.074 A 
ATOM     53  C   UNL     1       4.035   3.592   7.619  1.00  0.00     0.029 A 
ATOM     54  N   UNL     1       2.252   2.264   7.757  1.00  0.00    -0.354 N 
ATOM     55  N   UNL     1      -0.106   4.760   6.193  1.00  0.00    -0.248 NA
ATOM     56  C   UNL     1      -1.963   6.035   6.714  1.00  0.00     0.031 C 
ATOM     57  C   UNL     1       2.897   4.370   7.974  1.00  0.00     0.029 A 
ATOM     58  C   UNL     1       1.785   3.543   7.990  1.00  0.00     0.049 A 
ATOM     59  H   UNL     1       1.710   1.446   7.829  1.00  0.00     0.167 HD
ATOM     60  C   UNL     1      -0.374   4.530   7.518  1.00  0.00     0.074 A 
ATOM     61  C   UNL     1      -1.556   5.340   7.787  1.00  0.00     0.031 C 
ATOM     62  C   UNL     1       0.393   3.751   8.344  1.00  0.00     0.034 A 
BRANCH  49  63
ATOM     63  C   UNL     1       5.403   0.472   6.988  1.00  0.00     0.023 A 
ATOM     64  C   UNL     1       6.099   0.930   8.132  1.00  0.00     0.031 A 
ATOM     65  C   UNL     1       6.016  -0.598   6.309  1.00  0.00     0.131 A 
ATOM     66  C   UNL     1       7.342   0.396   8.517  1.00  0.00     0.055 A 
ATOM     67  C   UNL     1       7.260  -1.132   6.691  1.00  0.00     0.041 A 
ATOM     68  F   UNL     1       5.444  -1.200   5.261  1.00  0.00    -0.206 F 
ATOM     69  C   UNL     1       7.935  -0.631   7.795  1.00  0.00     0.022 A 
BRANCH  66  70
ATOM     70  S   UNL     1       8.178   1.089   9.971  1.00  0.00     0.124 S 
ATOM     71  O   UNL     1       8.398   2.474   9.568  1.00  0.00    -0.237 OA
ATOM     72  O   UNL     1       7.196   0.871  11.027  1.00  0.00    -0.237 OA
ATOM     73  O   UNL     1       9.391   0.280  10.082  1.00  0.00    -0.744 OA
ENDBRANCH  66  70
ENDBRANCH  49  63
BRANCH  50  74
ATOM     74  C   UNL     1      -1.674   6.175   3.193  1.00  0.00     0.023 A 
ATOM     75  C   UNL     1      -1.506   7.079   2.112  1.00  0.00     0.031 A 
ATOM     76  C   UNL     1      -2.430   5.025   2.930  1.00  0.00     0.131 A 
ATOM     77  C   UNL     1      -1.941   6.765   0.814  1.00  0.00     0.055 A 
ATOM     78  C   UNL     1      -2.930   4.744   1.641  1.00  0.00     0.041 A 
ATOM     79  F   UNL     1      -2.639   4.106   3.883  1.00  0.00    -0.206 F 
ATOM     80  C   UNL     1      -2.657   5.597   0.568  1.00  0.00     0.022 A 
BRANCH  77  81
ATOM     81  S   UNL     1      -1.327   7.774  -0.573  1.00  0.00     0.124 S 
ATOM     82  O   UNL     1      -2.242   8.911  -0.554  1.00  0.00    -0.237 OA
ATOM     83  O   UNL     1       0.051   8.056  -0.173  1.00  0.00    -0.237 OA
ATOM     84  O   UNL     1      -1.451   6.887  -1.725  1.00  0.00    -0.744 OA
ENDBRANCH  77  81
ENDBRANCH  50  74
BRANCH  62  85
ATOM     85  C   UNL     1      -0.103   3.180   9.648  1.00  0.00     0.023 A 
ATOM     86  C   UNL     1      -1.463   3.149   9.962  1.00  0.00     0.031 A 
ATOM     87  C   UNL     1       0.758   2.552  10.579  1.00  0.00     0.131 A 
ATOM     88  C   UNL     1      -1.908   2.684  11.201  1.00  0.00     0.055 A 
ATOM     89  C   UNL     1       0.294   1.951  11.750  1.00  0.00     0.041 A 
ATOM     90  F   UNL     1       2.084   2.480  10.393  1.00  0.00    -0.206 F 
ATOM     91  C   UNL     1      -1.047   2.047  12.088  1.00  0.00     0.022 A 
BRANCH  88  92
ATOM     92  S   UNL     1      -3.605   3.089  11.664  1.00  0.00     0.124 S 
ATOM     93  O   UNL     1      -3.575   4.550  11.640  1.00  0.00    -0.237 OA
ATOM     94  O   UNL     1      -4.382   2.458  10.602  1.00  0.00    -0.237 OA
ATOM     95  O   UNL     1      -3.751   2.491  12.988  1.00  0.00    -0.744 OA
ENDBRANCH  88  92
ENDBRANCH  62  85
ENDBRANCH  36  37
ENDBRANCH  29  31
ENDBRANCH  28  29
ENDBRANCH  27  28
ENDBRANCH   1  27
TORSDOF 18
