REMARK SMILES CC(=O)Nc1ccc(N2CCCCCC2)c(C(=O)OCCOC(=O)c2ccc(-c3c4nc(c(-c5cc(S(=O)(=O)[O-])ccc5F)c5ccc([nH]5)c(-c5cc(S(=O)(=O)[O-])ccc5F)c5nc(c(-c6cc(S(=O)(=O)[O-])ccc6F)c6ccc3[nH]6)C=C5)C=C4)cc2)c1
REMARK SMILES IDX 20 1 19 2 17 3 18 4 16 5 5 6 6 7 88 8 7 9 8 10 4 11 1 12
REMARK SMILES IDX 2 13 3 14 9 16 10 17 11 18 12 19 15 21 14 22 13 23 21 25
REMARK SMILES IDX 22 26 23 27 24 28 25 29 26 30 87 31 27 32 86 33 28 34 29 35
REMARK SMILES IDX 30 36 80 37 31 38 85 39 79 40 81 41 32 42 84 43 78 44 77 45
REMARK SMILES IDX 33 47 65 48 45 49 64 50 46 51 49 52 63 53 82 54 47 55 48 56
REMARK SMILES IDX 62 58 83 59 50 60 34 61 35 62 43 63 36 64 42 65 44 66 41 67
REMARK SMILES IDX 37 68 38 69 39 70 40 71 66 72 67 73 75 74 68 75 74 76 76 77
REMARK SMILES IDX 73 78 69 79 70 80 71 81 72 82 51 83 52 84 60 85 53 86 59 87
REMARK SMILES IDX 61 88 58 89 54 90 55 91 56 92 57 93
REMARK H PARENT 4 15 81 46 49 57
REMARK Flexibility Score: 90.00
ROOT
ATOM      1  C   UNL     1       6.109   0.430   1.121  1.00  0.00     0.275 C 
ENDROOT
BRANCH   1   2
ATOM      2  O   UNL     1       5.051   1.228   0.544  1.00  0.00    -0.458 OA
BRANCH   2   3
ATOM      3  C   UNL     1       4.429   2.115   1.370  1.00  0.00     0.340 C 
ATOM      4  O   UNL     1       4.724   2.343   2.530  1.00  0.00    -0.246 OA
BRANCH   3   5
ATOM      5  C   UNL     1       3.243   2.680   0.668  1.00  0.00     0.085 A 
ATOM      6  C   UNL     1       1.258   2.243  -0.681  1.00  0.00     0.042 A 
ATOM      7  C   UNL     1       0.952   3.602  -0.638  1.00  0.00     0.028 A 
ATOM      8  C   UNL     1       2.403   1.786  -0.028  1.00  0.00     0.044 A 
ATOM      9  C   UNL     1       1.768   4.486   0.062  1.00  0.00     0.029 A 
ATOM     10  C   UNL     1       2.934   4.051   0.709  1.00  0.00     0.051 A 
BRANCH   6  11
ATOM     11  N   UNL     1       0.411   1.436  -1.455  1.00  0.00    -0.326 N 
ATOM     12  C   UNL     1       0.648  -0.760  -0.311  1.00  0.00     0.114 C 
ATOM     13  C   UNL     1       0.183   0.092  -1.458  1.00  0.00     0.221 C 
ATOM     14  O   UNL     1      -0.465  -0.403  -2.383  1.00  0.00    -0.275 OA
ATOM     15  H   UNL     1      -0.118   1.932  -2.121  1.00  0.00     0.169 HD
ENDBRANCH   6  11
BRANCH  10  16
ATOM     16  N   UNL     1       3.783   5.026   1.214  1.00  0.00    -0.371 N 
BRANCH  16  17
ATOM     17  C   UNL     1       3.588   5.511   2.572  1.00  0.00     0.116 C 
BRANCH  17  18
ATOM     18  C   UNL     1       2.831   6.836   2.625  1.00  0.00     0.021 C 
BRANCH  18  19
ATOM     19  C   UNL     1       3.651   8.052   2.202  1.00  0.00     0.002 CG0
ATOM     20  G   UNL     1       4.121   8.019   0.750  1.00  0.00     0.000 G0
ENDBRANCH  18  19
ENDBRANCH  17  18
ENDBRANCH  16  17
BRANCH  16  21
ATOM     21  C   UNL     1       4.736   5.567   0.254  1.00  0.00     0.116 C 
BRANCH  21  22
ATOM     22  C   UNL     1       5.208   6.984   0.512  1.00  0.00     0.021 C 
BRANCH  22  23
ATOM     23  C   UNL     1       4.121   8.019   0.750  1.00  0.00     0.002 CG0
ATOM     24  G   UNL     1       3.651   8.052   2.202  1.00  0.00     0.000 G0
ENDBRANCH  22  23
ENDBRANCH  21  22
ENDBRANCH  16  21
ENDBRANCH  10  16
ENDBRANCH   3   5
ENDBRANCH   2   3
ENDBRANCH   1   2
BRANCH   1  25
ATOM     25  C   UNL     1       7.480   0.949   0.691  1.00  0.00     0.275 C 
BRANCH  25  26
ATOM     26  O   UNL     1       7.745   2.167   1.400  1.00  0.00    -0.458 OA
BRANCH  26  27
ATOM     27  C   UNL     1       8.506   3.090   0.766  1.00  0.00     0.338 C 
ATOM     28  O   UNL     1       9.091   2.938  -0.293  1.00  0.00    -0.246 OA
BRANCH  27  29
ATOM     29  C   UNL     1       8.492   4.363   1.539  1.00  0.00     0.060 A 
ATOM     30  C   UNL     1       7.513   4.602   2.497  1.00  0.00     0.016 A 
ATOM     31  C   UNL     1       9.398   5.384   1.232  1.00  0.00     0.016 A 
ATOM     32  C   UNL     1       7.370   5.881   3.039  1.00  0.00     0.010 A 
ATOM     33  C   UNL     1       9.285   6.651   1.841  1.00  0.00     0.010 A 
ATOM     34  C   UNL     1       8.214   6.953   2.698  1.00  0.00    -0.014 A 
BRANCH  34  35
ATOM     35  C   UNL     1       7.852   8.371   3.095  1.00  0.00     0.031 A 
ATOM     36  C   UNL     1       7.829   9.493   2.060  1.00  0.00     0.074 A 
ATOM     37  C   UNL     1       7.385   8.671   4.331  1.00  0.00     0.049 A 
ATOM     38  N   UNL     1       7.681  10.785   2.241  1.00  0.00    -0.248 NA
ATOM     39  C   UNL     1       7.983   9.122   0.644  1.00  0.00     0.031 C 
ATOM     40  C   UNL     1       7.221   7.724   5.434  1.00  0.00     0.029 A 
ATOM     41  N   UNL     1       6.908   9.854   4.857  1.00  0.00    -0.354 N 
ATOM     42  C   UNL     1       7.794  11.375   0.983  1.00  0.00     0.074 A 
ATOM     43  C   UNL     1       7.997  10.301   0.038  1.00  0.00     0.031 C 
ATOM     44  C   UNL     1       6.575   8.322   6.444  1.00  0.00     0.029 A 
ATOM     45  C   UNL     1       6.445   9.744   6.152  1.00  0.00     0.049 A 
ATOM     46  H   UNL     1       6.899  10.701   4.354  1.00  0.00     0.167 HD
ATOM     47  C   UNL     1       7.748  12.687   0.639  1.00  0.00     0.034 A 
ATOM     48  C   UNL     1       6.038  10.671   7.047  1.00  0.00     0.034 A 
ATOM     49  C   UNL     1       7.481  13.766   1.557  1.00  0.00     0.049 A 
ATOM     50  C   UNL     1       6.106  12.130   6.677  1.00  0.00     0.074 A 
ATOM     51  C   UNL     1       7.449  15.127   1.298  1.00  0.00     0.029 A 
ATOM     52  N   UNL     1       7.181  13.614   2.900  1.00  0.00    -0.354 N 
ATOM     53  N   UNL     1       6.396  12.676   5.520  1.00  0.00    -0.248 NA
ATOM     54  C   UNL     1       5.846  13.098   7.752  1.00  0.00     0.031 C 
ATOM     55  C   UNL     1       7.190  15.800   2.497  1.00  0.00     0.029 A 
ATOM     56  C   UNL     1       6.994  14.857   3.489  1.00  0.00     0.049 A 
ATOM     57  H   UNL     1       7.111  12.751   3.369  1.00  0.00     0.167 HD
ATOM     58  C   UNL     1       6.372  14.052   5.738  1.00  0.00     0.074 A 
ATOM     59  C   UNL     1       5.992  14.253   7.119  1.00  0.00     0.031 C 
ATOM     60  C   UNL     1       6.658  15.058   4.875  1.00  0.00     0.034 A 
BRANCH  47  61
ATOM     61  C   UNL     1       8.090  13.058  -0.783  1.00  0.00     0.023 A 
ATOM     62  C   UNL     1       7.205  12.858  -1.855  1.00  0.00     0.031 A 
ATOM     63  C   UNL     1       9.323  13.685  -1.046  1.00  0.00     0.131 A 
ATOM     64  C   UNL     1       7.578  13.268  -3.147  1.00  0.00     0.055 A 
ATOM     65  C   UNL     1       9.665  14.134  -2.321  1.00  0.00     0.041 A 
ATOM     66  F   UNL     1      10.210  13.884  -0.058  1.00  0.00    -0.206 F 
ATOM     67  C   UNL     1       8.791  13.923  -3.382  1.00  0.00     0.022 A 
BRANCH  64  68
ATOM     68  S   UNL     1       6.487  12.872  -4.542  1.00  0.00     0.124 S 
ATOM     69  O   UNL     1       6.413  11.416  -4.458  1.00  0.00    -0.237 OA
ATOM     70  O   UNL     1       5.267  13.595  -4.202  1.00  0.00    -0.237 OA
ATOM     71  O   UNL     1       7.213  13.386  -5.702  1.00  0.00    -0.744 OA
ENDBRANCH  64  68
ENDBRANCH  47  61
BRANCH  48  72
ATOM     72  C   UNL     1       5.677  10.273   8.445  1.00  0.00     0.023 A 
ATOM     73  C   UNL     1       4.421  10.578   8.996  1.00  0.00     0.031 A 
ATOM     74  C   UNL     1       6.621   9.643   9.279  1.00  0.00     0.131 A 
ATOM     75  C   UNL     1       4.157  10.276  10.343  1.00  0.00     0.055 A 
ATOM     76  C   UNL     1       6.326   9.274  10.591  1.00  0.00     0.041 A 
ATOM     77  F   UNL     1       7.852   9.361   8.823  1.00  0.00    -0.206 F 
ATOM     78  C   UNL     1       5.090   9.602  11.134  1.00  0.00     0.022 A 
BRANCH  75  79
ATOM     79  S   UNL     1       2.616  10.878  11.089  1.00  0.00     0.124 S 
ATOM     80  O   UNL     1       2.720  12.315  10.864  1.00  0.00    -0.237 OA
ATOM     81  O   UNL     1       1.605  10.176  10.307  1.00  0.00    -0.237 OA
ATOM     82  O   UNL     1       2.727  10.456  12.484  1.00  0.00    -0.744 OA
ENDBRANCH  75  79
ENDBRANCH  48  72
BRANCH  60  83
ATOM     83  C   UNL     1       6.573  16.464   5.411  1.00  0.00     0.023 A 
ATOM     84  C   UNL     1       7.490  16.935   6.367  1.00  0.00     0.031 A 
ATOM     85  C   UNL     1       5.551  17.331   4.990  1.00  0.00     0.131 A 
ATOM     86  C   UNL     1       7.335  18.217   6.914  1.00  0.00     0.055 A 
ATOM     87  C   UNL     1       5.431  18.625   5.499  1.00  0.00     0.041 A 
ATOM     88  F   UNL     1       4.647  16.932   4.081  1.00  0.00    -0.206 F 
ATOM     89  C   UNL     1       6.318  19.070   6.477  1.00  0.00     0.022 A 
BRANCH  86  90
ATOM     90  S   UNL     1       8.425  18.724   8.272  1.00  0.00     0.124 S 
ATOM     91  O   UNL     1       8.172  17.689   9.269  1.00  0.00    -0.237 OA
ATOM     92  O   UNL     1       9.742  18.695   7.643  1.00  0.00    -0.237 OA
ATOM     93  O   UNL     1       7.938  20.056   8.625  1.00  0.00    -0.744 OA
ENDBRANCH  86  90
ENDBRANCH  60  83
ENDBRANCH  34  35
ENDBRANCH  27  29
ENDBRANCH  26  27
ENDBRANCH  25  26
ENDBRANCH   1  25
TORSDOF 16
