REMARK SMILES CC[C@@H](C(=O)OCCOC(=O)c1ccc(-c2c3nc(c(-c4cc(S(=O)(=O)[O-])ccc4F)c4ccc([nH]4)c(-c4cc(S(=O)(=O)[O-])ccc4F)c4nc(c(-c5cc(S(=O)(=O)[O-])ccc5F)c5ccc2[nH]5)C=C4)C=C3)cc1)N(C)C(=O)N(C)C[C@@H]1CCC[N@H+]1C
REMARK SMILES IDX 7 1 6 2 4 3 5 4 3 5 2 6 1 7 75 8 76 9 77 10 78 11 79 12
REMARK SMILES IDX 80 13 81 14 82 15 83 16 86 17 84 18 85 19 87 20 8 22 9 23
REMARK SMILES IDX 10 24 11 25 12 26 13 27 74 28 14 29 73 30 15 31 16 32 17 33
REMARK SMILES IDX 67 34 18 35 72 36 66 37 68 38 19 39 71 40 65 41 64 42 20 44
REMARK SMILES IDX 52 45 32 46 51 47 33 48 36 49 50 50 69 51 34 52 35 53 49 55
REMARK SMILES IDX 70 56 37 57 21 58 22 59 30 60 23 61 29 62 31 63 28 64 24 65
REMARK SMILES IDX 25 66 26 67 27 68 53 69 54 70 62 71 55 72 61 73 63 74 60 75
REMARK SMILES IDX 56 76 57 77 58 78 59 79 38 80 39 81 47 82 40 83 46 84 48 85
REMARK SMILES IDX 45 86 41 87 42 88 43 89 44 90
REMARK H PARENT 86 21 68 43 36 54
REMARK Flexibility Score: inf
ROOT
ATOM      1  C   UNL     1      -5.978  -0.707   0.592  1.00  0.00     0.274 C 
ENDROOT
BRANCH   1   2
ATOM      2  O   UNL     1      -4.629  -0.794   0.078  1.00  0.00    -0.461 OA
BRANCH   2   3
ATOM      3  C   UNL     1      -4.399  -0.457  -1.218  1.00  0.00     0.329 C 
ATOM      4  O   UNL     1      -5.301  -0.188  -2.007  1.00  0.00    -0.250 OA
BRANCH   3   5
ATOM      5  C   UNL     1      -2.890  -0.510  -1.628  1.00  0.00     0.196 C 
BRANCH   5   6
ATOM      6  C   UNL     1      -1.904  -0.870  -0.501  1.00  0.00     0.034 C 
ATOM      7  C   UNL     1      -2.161  -2.210   0.179  1.00  0.00     0.007 C 
ENDBRANCH   5   6
BRANCH   5   8
ATOM      8  N   UNL     1      -2.495   0.688  -2.471  1.00  0.00    -0.314 N 
ATOM      9  C   UNL     1      -3.020   0.649  -3.838  1.00  0.00     0.149 C 
BRANCH   8  10
ATOM     10  C   UNL     1      -1.935   1.824  -1.853  1.00  0.00     0.320 C 
ATOM     11  O   UNL     1      -1.510   1.790  -0.701  1.00  0.00    -0.248 OA
BRANCH  10  12
ATOM     12  N   UNL     1      -2.048   3.066  -2.466  1.00  0.00    -0.322 N 
ATOM     13  C   UNL     1      -1.574   3.330  -3.840  1.00  0.00     0.149 C 
BRANCH  12  14
ATOM     14  C   UNL     1      -2.122   4.309  -1.583  1.00  0.00     0.185 C 
BRANCH  14  15
ATOM     15  C   UNL     1      -3.545   5.035  -0.640  1.00  0.00     0.203 C 
ATOM     16  C   UNL     1      -5.728   4.723  -0.951  1.00  0.00     0.073 C 
ATOM     17  N   UNL     1      -3.384   7.005  -0.634  1.00  0.00    -0.333 N 
ATOM     18  C   UNL     1      -6.486   6.530  -1.196  1.00  0.00     0.068 C 
ATOM     19  C   UNL     1      -5.059   7.799  -1.008  1.00  0.00     0.262 C 
ATOM     20  C   UNL     1      -2.839   7.725   0.534  1.00  0.00     0.333 C 
ATOM     21  H   UNL     1      -2.662   7.112  -1.346  1.00  0.00     0.348 HD
ENDBRANCH  14  15
ENDBRANCH  12  14
ENDBRANCH  10  12
ENDBRANCH   8  10
ENDBRANCH   5   8
ENDBRANCH   3   5
ENDBRANCH   2   3
ENDBRANCH   1   2
BRANCH   1  22
ATOM     22  C   UNL     1      -6.009   0.258   1.775  1.00  0.00     0.275 C 
BRANCH  22  23
ATOM     23  O   UNL     1      -5.838   1.583   1.272  1.00  0.00    -0.458 OA
BRANCH  23  24
ATOM     24  C   UNL     1      -4.554   1.986   1.188  1.00  0.00     0.338 C 
ATOM     25  O   UNL     1      -3.565   1.478   1.673  1.00  0.00    -0.246 OA
BRANCH  24  26
ATOM     26  C   UNL     1      -4.609   3.170   0.345  1.00  0.00     0.060 A 
ATOM     27  C   UNL     1      -4.472   2.980  -1.319  1.00  0.00     0.016 A 
ATOM     28  C   UNL     1      -4.882   4.580   1.092  1.00  0.00     0.016 A 
ATOM     29  C   UNL     1      -4.408   4.227  -2.487  1.00  0.00     0.010 A 
ATOM     30  C   UNL     1      -4.939   5.966   0.087  1.00  0.00     0.010 A 
ATOM     31  C   UNL     1      -4.573   5.855  -1.898  1.00  0.00    -0.014 A 
BRANCH  31  32
ATOM     32  C   UNL     1      -3.769   6.792  -3.089  1.00  0.00     0.031 A 
ATOM     33  C   UNL     1      -2.344   7.569  -2.974  1.00  0.00     0.074 A 
ATOM     34  C   UNL     1      -4.306   6.793  -4.324  1.00  0.00     0.049 A 
ATOM     35  N   UNL     1      -1.900   8.616  -3.662  1.00  0.00    -0.248 NA
ATOM     36  C   UNL     1      -1.299   7.145  -2.014  1.00  0.00     0.031 C 
ATOM     37  C   UNL     1      -5.463   6.008  -4.748  1.00  0.00     0.029 A 
ATOM     38  N   UNL     1      -3.929   7.473  -5.456  1.00  0.00    -0.354 N 
ATOM     39  C   UNL     1      -0.682   9.021  -3.058  1.00  0.00     0.074 A 
ATOM     40  C   UNL     1      -0.394   8.096  -2.023  1.00  0.00     0.031 C 
ATOM     41  C   UNL     1      -5.673   6.211  -6.055  1.00  0.00     0.029 A 
ATOM     42  C   UNL     1      -4.793   7.283  -6.505  1.00  0.00     0.049 A 
ATOM     43  H   UNL     1      -3.124   8.038  -5.509  1.00  0.00     0.167 HD
ATOM     44  C   UNL     1       0.132  10.082  -3.290  1.00  0.00     0.034 A 
ATOM     45  C   UNL     1      -4.953   7.966  -7.653  1.00  0.00     0.034 A 
ATOM     46  C   UNL     1      -0.029  10.912  -4.446  1.00  0.00     0.049 A 
ATOM     47  C   UNL     1      -4.069   9.149  -7.935  1.00  0.00     0.074 A 
ATOM     48  C   UNL     1       0.712  12.007  -4.843  1.00  0.00     0.029 A 
ATOM     49  N   UNL     1      -0.982  10.683  -5.422  1.00  0.00    -0.354 N 
ATOM     50  N   UNL     1      -3.100   9.660  -7.210  1.00  0.00    -0.248 NA
ATOM     51  C   UNL     1      -4.321   9.855  -9.195  1.00  0.00     0.031 C 
ATOM     52  C   UNL     1       0.157  12.486  -6.032  1.00  0.00     0.029 A 
ATOM     53  C   UNL     1      -0.857  11.624  -6.421  1.00  0.00     0.049 A 
ATOM     54  H   UNL     1      -1.649   9.959  -5.405  1.00  0.00     0.167 HD
ATOM     55  C   UNL     1      -2.617  10.745  -7.938  1.00  0.00     0.074 A 
ATOM     56  C   UNL     1      -3.382  10.788  -9.168  1.00  0.00     0.031 C 
ATOM     57  C   UNL     1      -1.640  11.636  -7.626  1.00  0.00     0.034 A 
BRANCH  44  58
ATOM     58  C   UNL     1       1.171  10.481  -2.235  1.00  0.00     0.023 A 
ATOM     59  C   UNL     1       2.236   9.666  -1.797  1.00  0.00     0.031 A 
ATOM     60  C   UNL     1       1.035  11.737  -1.605  1.00  0.00     0.131 A 
ATOM     61  C   UNL     1       3.050  10.078  -0.720  1.00  0.00     0.055 A 
ATOM     62  C   UNL     1       1.913  12.184  -0.613  1.00  0.00     0.041 A 
ATOM     63  F   UNL     1       0.027  12.561  -1.934  1.00  0.00    -0.206 F 
ATOM     64  C   UNL     1       2.918  11.345  -0.151  1.00  0.00     0.022 A 
BRANCH  61  65
ATOM     65  S   UNL     1       4.181   8.878   0.049  1.00  0.00     0.124 S 
ATOM     66  O   UNL     1       3.252   7.843   0.497  1.00  0.00    -0.237 OA
ATOM     67  O   UNL     1       5.059   8.515  -1.057  1.00  0.00    -0.237 OA
ATOM     68  O   UNL     1       4.815   9.640   1.123  1.00  0.00    -0.744 OA
ENDBRANCH  61  65
ENDBRANCH  44  58
BRANCH  45  69
ATOM     69  C   UNL     1      -6.085   7.606  -8.554  1.00  0.00     0.023 A 
ATOM     70  C   UNL     1      -5.855   7.124  -9.848  1.00  0.00     0.031 A 
ATOM     71  C   UNL     1      -7.419   7.713  -8.114  1.00  0.00     0.131 A 
ATOM     72  C   UNL     1      -6.943   6.774 -10.661  1.00  0.00     0.055 A 
ATOM     73  C   UNL     1      -8.492   7.295  -8.898  1.00  0.00     0.041 A 
ATOM     74  F   UNL     1      -7.695   8.179  -6.884  1.00  0.00    -0.206 F 
ATOM     75  C   UNL     1      -8.256   6.828 -10.186  1.00  0.00     0.022 A 
BRANCH  72  76
ATOM     76  S   UNL     1      -6.620   6.308 -12.382  1.00  0.00     0.124 S 
ATOM     77  O   UNL     1      -5.939   7.494 -12.888  1.00  0.00    -0.237 OA
ATOM     78  O   UNL     1      -5.797   5.114 -12.222  1.00  0.00    -0.237 OA
ATOM     79  O   UNL     1      -7.956   6.074 -12.926  1.00  0.00    -0.744 OA
ENDBRANCH  72  76
ENDBRANCH  45  69
BRANCH  57  80
ATOM     80  C   UNL     1      -1.313  12.679  -8.656  1.00  0.00     0.023 A 
ATOM     81  C   UNL     1      -2.251  13.655  -9.024  1.00  0.00     0.031 A 
ATOM     82  C   UNL     1      -0.065  12.671  -9.302  1.00  0.00     0.131 A 
ATOM     83  C   UNL     1      -1.967  14.515 -10.089  1.00  0.00     0.055 A 
ATOM     84  C   UNL     1       0.245  13.591 -10.300  1.00  0.00     0.041 A 
ATOM     85  F   UNL     1       0.869  11.761  -8.978  1.00  0.00    -0.206 F 
ATOM     86  C   UNL     1      -0.719  14.504 -10.717  1.00  0.00     0.022 A 
BRANCH  83  87
ATOM     87  S   UNL     1      -3.317  15.525 -10.750  1.00  0.00     0.124 S 
ATOM     88  O   UNL     1      -4.325  14.515 -11.056  1.00  0.00    -0.237 OA
ATOM     89  O   UNL     1      -3.621  16.411  -9.631  1.00  0.00    -0.237 OA
ATOM     90  O   UNL     1      -2.717  16.176 -11.914  1.00  0.00    -0.744 OA
ENDBRANCH  83  87
ENDBRANCH  57  80
ENDBRANCH  31  32
ENDBRANCH  24  26
ENDBRANCH  23  24
ENDBRANCH  22  23
ENDBRANCH   1  22
TORSDOF 20
