REMARK SMILES CC(C)(C)[N@H+](CCC(=O)Nc1ccccc1F)CC(=O)OCCOC(=O)c1ccc(-c2c3nc(c(-c4cc(S(=O)(=O)[O-])ccc4F)c4ccc([nH]4)c(-c4cc(S(=O)(=O)[O-])ccc4F)c4nc(c(-c5cc(S(=O)(=O)[O-])ccc5F)c5ccc2[nH]5)C=C4)C=C3)cc1
REMARK SMILES IDX 22 1 21 2 19 3 20 4 18 5 5 6 2 8 1 9 3 10 4 11 6 12 7 13
REMARK SMILES IDX 8 14 9 15 10 16 11 18 12 19 16 20 13 21 15 22 17 23 14 24
REMARK SMILES IDX 23 25 24 26 25 27 26 28 27 29 28 30 89 31 29 32 88 33 30 34
REMARK SMILES IDX 31 35 32 36 82 37 33 38 87 39 81 40 83 41 34 42 86 43 80 44
REMARK SMILES IDX 79 45 35 47 67 48 47 49 66 50 48 51 51 52 65 53 84 54 49 55
REMARK SMILES IDX 50 56 64 58 85 59 52 60 36 61 37 62 45 63 38 64 44 65 46 66
REMARK SMILES IDX 43 67 39 68 40 69 41 70 42 71 68 72 69 73 77 74 70 75 76 76
REMARK SMILES IDX 78 77 75 78 71 79 72 80 73 81 74 82 53 83 54 84 62 85 55 86
REMARK SMILES IDX 61 87 63 88 60 89 56 90 57 91 58 92 59 93
REMARK H PARENT 5 7 10 17 83 46 51 57
REMARK Flexibility Score: inf
ROOT
ATOM      1  C   UNL     1       2.819  -5.350   2.337  1.00  0.00     0.274 C 
ENDROOT
BRANCH   1   2
ATOM      2  O   UNL     1       2.650  -4.111   1.635  1.00  0.00    -0.458 OA
BRANCH   2   3
ATOM      3  C   UNL     1       1.656  -4.122   0.704  1.00  0.00     0.361 C 
ATOM      4  O   UNL     1       1.145  -5.133   0.233  1.00  0.00    -0.245 OA
BRANCH   3   5
ATOM      5  C   UNL     1       1.080  -2.735   0.515  1.00  0.00     0.386 C 
BRANCH   5   6
ATOM      6  N   UNL     1       2.060  -1.702   0.114  1.00  0.00    -0.321 N 
ATOM      7  H   UNL     1       2.965  -1.940   0.521  1.00  0.00     0.349 HD
BRANCH   6   8
ATOM      8  C   UNL     1       1.658  -0.353   0.668  1.00  0.00     0.090 C 
ATOM      9  C   UNL     1       2.437   0.830   0.040  1.00  0.00     0.078 C 
ATOM     10  C   UNL     1       2.016  -0.342   2.175  1.00  0.00     0.078 C 
ATOM     11  C   UNL     1       0.151  -0.024   0.505  1.00  0.00     0.078 C 
ENDBRANCH   6   8
BRANCH   6  12
ATOM     12  C   UNL     1       2.281  -1.684  -1.352  1.00  0.00     0.273 C 
BRANCH  12  13
ATOM     13  C   UNL     1       2.861  -2.897  -2.093  1.00  0.00     0.161 C 
BRANCH  13  14
ATOM     14  C   UNL     1       2.129  -4.172  -2.489  1.00  0.00     0.230 C 
ATOM     15  O   UNL     1       2.818  -5.183  -2.701  1.00  0.00    -0.275 OA
ATOM     16  N   UNL     1       0.787  -4.332  -2.592  1.00  0.00    -0.323 N 
ATOM     17  H   UNL     1       0.506  -5.275  -2.632  1.00  0.00     0.170 HD
BRANCH  16  18
ATOM     18  C   UNL     1      -0.279  -3.429  -2.654  1.00  0.00     0.077 A 
ATOM     19  C   UNL     1      -1.458  -3.798  -1.997  1.00  0.00     0.029 A 
ATOM     20  C   UNL     1      -0.228  -2.199  -3.307  1.00  0.00     0.146 A 
ATOM     21  C   UNL     1      -2.502  -2.879  -1.862  1.00  0.00     0.002 A 
ATOM     22  C   UNL     1      -1.274  -1.286  -3.191  1.00  0.00     0.041 A 
ATOM     23  F   UNL     1       0.845  -1.863  -4.039  1.00  0.00    -0.205 F 
ATOM     24  C   UNL     1      -2.399  -1.615  -2.438  1.00  0.00     0.003 A 
ENDBRANCH  16  18
ENDBRANCH  13  14
ENDBRANCH  12  13
ENDBRANCH   6  12
ENDBRANCH   5   6
ENDBRANCH   3   5
ENDBRANCH   2   3
ENDBRANCH   1   2
BRANCH   1  25
ATOM     25  C   UNL     1       1.922  -5.348   3.577  1.00  0.00     0.275 C 
BRANCH  25  26
ATOM     26  O   UNL     1       0.528  -5.301   3.196  1.00  0.00    -0.458 OA
BRANCH  26  27
ATOM     27  C   UNL     1      -0.190  -4.255   3.671  1.00  0.00     0.338 C 
ATOM     28  O   UNL     1       0.222  -3.373   4.414  1.00  0.00    -0.246 OA
BRANCH  27  29
ATOM     29  C   UNL     1      -1.590  -4.287   3.184  1.00  0.00     0.060 A 
ATOM     30  C   UNL     1      -1.920  -4.686   1.888  1.00  0.00     0.016 A 
ATOM     31  C   UNL     1      -2.596  -3.811   4.029  1.00  0.00     0.016 A 
ATOM     32  C   UNL     1      -3.240  -4.555   1.430  1.00  0.00     0.010 A 
ATOM     33  C   UNL     1      -3.925  -3.755   3.588  1.00  0.00     0.010 A 
ATOM     34  C   UNL     1      -4.271  -4.101   2.271  1.00  0.00    -0.014 A 
BRANCH  34  35
ATOM     35  C   UNL     1      -5.694  -3.960   1.815  1.00  0.00     0.031 A 
ATOM     36  C   UNL     1      -6.444  -2.668   2.057  1.00  0.00     0.074 A 
ATOM     37  C   UNL     1      -6.357  -4.972   1.214  1.00  0.00     0.049 A 
ATOM     38  N   UNL     1      -7.735  -2.449   2.092  1.00  0.00    -0.248 NA
ATOM     39  C   UNL     1      -5.630  -1.466   2.302  1.00  0.00     0.031 C 
ATOM     40  C   UNL     1      -5.781  -6.257   0.818  1.00  0.00     0.029 A 
ATOM     41  N   UNL     1      -7.679  -5.079   0.839  1.00  0.00    -0.354 N 
ATOM     42  C   UNL     1      -7.890  -1.109   2.438  1.00  0.00     0.074 A 
ATOM     43  C   UNL     1      -6.558  -0.558   2.578  1.00  0.00     0.031 C 
ATOM     44  C   UNL     1      -6.724  -7.001   0.223  1.00  0.00     0.029 A 
ATOM     45  C   UNL     1      -8.005  -6.311   0.319  1.00  0.00     0.049 A 
ATOM     46  H   UNL     1      -8.327  -4.344   0.933  1.00  0.00     0.167 HD
ATOM     47  C   UNL     1      -9.037  -0.413   2.638  1.00  0.00     0.034 A 
ATOM     48  C   UNL     1      -9.198  -6.874   0.031  1.00  0.00     0.034 A 
ATOM     49  C   UNL     1     -10.360  -0.955   2.434  1.00  0.00     0.049 A 
ATOM     50  C   UNL     1     -10.464  -6.121   0.331  1.00  0.00     0.074 A 
ATOM     51  C   UNL     1     -11.584  -0.332   2.617  1.00  0.00     0.029 A 
ATOM     52  N   UNL     1     -10.635  -2.236   1.979  1.00  0.00    -0.354 N 
ATOM     53  N   UNL     1     -10.605  -4.917   0.830  1.00  0.00    -0.248 NA
ATOM     54  C   UNL     1     -11.730  -6.820   0.071  1.00  0.00     0.031 C 
ATOM     55  C   UNL     1     -12.597  -1.250   2.319  1.00  0.00     0.029 A 
ATOM     56  C   UNL     1     -12.005  -2.426   1.890  1.00  0.00     0.049 A 
ATOM     57  H   UNL     1      -9.956  -2.912   1.753  1.00  0.00     0.167 HD
ATOM     58  C   UNL     1     -11.977  -4.716   0.948  1.00  0.00     0.074 A 
ATOM     59  C   UNL     1     -12.621  -5.915   0.455  1.00  0.00     0.031 C 
ATOM     60  C   UNL     1     -12.640  -3.633   1.425  1.00  0.00     0.034 A 
BRANCH  47  61
ATOM     61  C   UNL     1      -8.935   0.995   3.168  1.00  0.00     0.023 A 
ATOM     62  C   UNL     1      -8.485   2.066   2.380  1.00  0.00     0.031 A 
ATOM     63  C   UNL     1      -9.361   1.273   4.481  1.00  0.00     0.131 A 
ATOM     64  C   UNL     1      -8.450   3.362   2.921  1.00  0.00     0.055 A 
ATOM     65  C   UNL     1      -9.378   2.571   4.994  1.00  0.00     0.041 A 
ATOM     66  F   UNL     1      -9.787   0.283   5.283  1.00  0.00    -0.206 F 
ATOM     67  C   UNL     1      -8.917   3.625   4.212  1.00  0.00     0.022 A 
BRANCH  64  68
ATOM     68  S   UNL     1      -7.734   4.704   1.932  1.00  0.00     0.124 S 
ATOM     69  O   UNL     1      -6.340   4.282   1.832  1.00  0.00    -0.237 OA
ATOM     70  O   UNL     1      -8.510   4.640   0.699  1.00  0.00    -0.237 OA
ATOM     71  O   UNL     1      -7.963   5.893   2.751  1.00  0.00    -0.744 OA
ENDBRANCH  64  68
ENDBRANCH  47  61
BRANCH  48  72
ATOM     72  C   UNL     1      -9.245  -8.280  -0.462  1.00  0.00     0.023 A 
ATOM     73  C   UNL     1      -9.629  -8.577  -1.778  1.00  0.00     0.031 A 
ATOM     74  C   UNL     1      -8.864  -9.344   0.376  1.00  0.00     0.131 A 
ATOM     75  C   UNL     1      -9.616  -9.910  -2.220  1.00  0.00     0.055 A 
ATOM     76  C   UNL     1      -8.810 -10.660  -0.082  1.00  0.00     0.041 A 
ATOM     77  F   UNL     1      -8.489  -9.108   1.644  1.00  0.00    -0.206 F 
ATOM     78  C   UNL     1      -9.189 -10.949  -1.389  1.00  0.00     0.022 A 
BRANCH  75  79
ATOM     79  S   UNL     1     -10.172 -10.276  -3.908  1.00  0.00     0.124 S 
ATOM     80  O   UNL     1     -11.586  -9.928  -3.836  1.00  0.00    -0.237 OA
ATOM     81  O   UNL     1      -9.332  -9.390  -4.706  1.00  0.00    -0.237 OA
ATOM     82  O   UNL     1      -9.886 -11.701  -4.058  1.00  0.00    -0.744 OA
ENDBRANCH  75  79
ENDBRANCH  48  72
BRANCH  60  83
ATOM     83  C   UNL     1     -14.144  -3.687   1.412  1.00  0.00     0.023 A 
ATOM     84  C   UNL     1     -14.857  -4.475   2.330  1.00  0.00     0.031 A 
ATOM     85  C   UNL     1     -14.870  -2.930   0.476  1.00  0.00     0.131 A 
ATOM     86  C   UNL     1     -16.258  -4.516   2.270  1.00  0.00     0.055 A 
ATOM     87  C   UNL     1     -16.264  -2.942   0.448  1.00  0.00     0.041 A 
ATOM     88  F   UNL     1     -14.232  -2.161  -0.420  1.00  0.00    -0.206 F 
ATOM     89  C   UNL     1     -16.966  -3.744   1.345  1.00  0.00     0.022 A 
BRANCH  86  90
ATOM     90  S   UNL     1     -17.150  -5.625   3.395  1.00  0.00     0.124 S 
ATOM     91  O   UNL     1     -16.713  -6.939   2.930  1.00  0.00    -0.237 OA
ATOM     92  O   UNL     1     -16.654  -5.215   4.704  1.00  0.00    -0.237 OA
ATOM     93  O   UNL     1     -18.555  -5.314   3.142  1.00  0.00    -0.744 OA
ENDBRANCH  86  90
ENDBRANCH  60  83
ENDBRANCH  34  35
ENDBRANCH  27  29
ENDBRANCH  26  27
ENDBRANCH  25  26
ENDBRANCH   1  25
TORSDOF 20
