REMARK SMILES O=C(OCCOC(=O)[C@H]1SC=C[C@@H]1S(=O)(=O)NCCC1=c2ccccc2=NC1)c1ccc(-c2c3nc(c(-c4cc(S(=O)(=O)[O-])ccc4F)c4ccc([nH]4)c(-c4cc(S(=O)(=O)[O-])ccc4F)c4nc(c(-c5cc(S(=O)(=O)[O-])ccc5F)c5ccc2[nH]5)C=C4)C=C3)cc1
REMARK SMILES IDX 5 1 4 2 3 3 2 4 1 5 29 6 30 7 91 8 31 9 90 10 32 11 33 12
REMARK SMILES IDX 34 13 84 14 35 15 89 16 83 17 85 18 36 19 88 20 82 21 81 22
REMARK SMILES IDX 37 24 69 25 49 26 68 27 50 28 53 29 67 30 86 31 51 32 52 33
REMARK SMILES IDX 66 35 87 36 54 37 38 38 39 39 47 40 40 41 46 42 48 43 45 44
REMARK SMILES IDX 41 45 42 46 43 47 44 48 70 49 71 50 79 51 72 52 78 53 80 54
REMARK SMILES IDX 77 55 73 56 74 57 75 58 76 59 55 60 56 61 64 62 57 63 63 64
REMARK SMILES IDX 65 65 62 66 58 67 59 68 60 69 61 70 6 71 7 72 8 73 9 74
REMARK SMILES IDX 10 75 13 76 11 77 12 78 14 79 15 80 16 81 17 82 18 84 19 85
REMARK SMILES IDX 20 86 21 87 28 88 22 89 26 90 27 91 23 92 25 93 24 94
REMARK H PARENT 85 23 53 34 17 83
REMARK Flexibility Score: inf
ROOT
ATOM      1  C   UNL     1       5.072   0.697   1.652  1.00  0.00     0.274 C 
ENDROOT
BRANCH   1   2
ATOM      2  C   UNL     1       4.787   1.252   0.250  1.00  0.00     0.275 C 
BRANCH   2   3
ATOM      3  O   UNL     1       3.459   0.899  -0.183  1.00  0.00    -0.458 OA
BRANCH   3   4
ATOM      4  C   UNL     1       3.243   0.113  -1.278  1.00  0.00     0.338 C 
ATOM      5  O   UNL     1       2.414   0.451  -2.115  1.00  0.00    -0.246 OA
BRANCH   4   6
ATOM      6  C   UNL     1       3.750  -1.300  -1.222  1.00  0.00     0.060 A 
ATOM      7  C   UNL     1       2.869  -2.310  -1.632  1.00  0.00     0.016 A 
ATOM      8  C   UNL     1       5.003  -1.685  -0.740  1.00  0.00     0.016 A 
ATOM      9  C   UNL     1       3.163  -3.660  -1.404  1.00  0.00     0.010 A 
ATOM     10  C   UNL     1       5.313  -3.029  -0.528  1.00  0.00     0.010 A 
ATOM     11  C   UNL     1       4.384  -4.027  -0.827  1.00  0.00    -0.014 A 
BRANCH  11  12
ATOM     12  C   UNL     1       4.813  -5.440  -0.743  1.00  0.00     0.031 A 
ATOM     13  C   UNL     1       4.927  -6.175   0.559  1.00  0.00     0.074 A 
ATOM     14  C   UNL     1       5.239  -6.002  -1.887  1.00  0.00     0.049 A 
ATOM     15  N   UNL     1       5.198  -7.435   0.772  1.00  0.00    -0.248 NA
ATOM     16  C   UNL     1       4.706  -5.400   1.785  1.00  0.00     0.031 C 
ATOM     17  C   UNL     1       5.247  -5.328  -3.186  1.00  0.00     0.029 A 
ATOM     18  N   UNL     1       5.788  -7.228  -2.136  1.00  0.00    -0.354 N 
ATOM     19  C   UNL     1       5.103  -7.621   2.148  1.00  0.00     0.074 A 
ATOM     20  C   UNL     1       4.803  -6.332   2.727  1.00  0.00     0.031 C 
ATOM     21  C   UNL     1       5.799  -6.140  -4.093  1.00  0.00     0.029 A 
ATOM     22  C   UNL     1       6.209  -7.376  -3.434  1.00  0.00     0.049 A 
ATOM     23  H   UNL     1       5.873  -7.934  -1.455  1.00  0.00     0.167 HD
ATOM     24  C   UNL     1       5.268  -8.768   2.851  1.00  0.00     0.034 A 
ATOM     25  C   UNL     1       6.869  -8.389  -4.026  1.00  0.00     0.034 A 
ATOM     26  C   UNL     1       5.738  -9.990   2.248  1.00  0.00     0.049 A 
ATOM     27  C   UNL     1       7.132  -9.627  -3.217  1.00  0.00     0.074 A 
ATOM     28  C   UNL     1       5.949 -11.218   2.848  1.00  0.00     0.029 A 
ATOM     29  N   UNL     1       6.135 -10.120   0.922  1.00  0.00    -0.354 N 
ATOM     30  N   UNL     1       6.854  -9.857  -1.954  1.00  0.00    -0.248 NA
ATOM     31  C   UNL     1       7.765 -10.754  -3.908  1.00  0.00     0.031 C 
ATOM     32  C   UNL     1       6.588 -12.045   1.923  1.00  0.00     0.029 A 
ATOM     33  C   UNL     1       6.663 -11.381   0.706  1.00  0.00     0.049 A 
ATOM     34  H   UNL     1       6.052  -9.417   0.237  1.00  0.00     0.167 HD
ATOM     35  C   UNL     1       7.251 -11.165  -1.704  1.00  0.00     0.074 A 
ATOM     36  C   UNL     1       7.771 -11.679  -2.956  1.00  0.00     0.031 C 
ATOM     37  C   UNL     1       7.187 -11.874  -0.548  1.00  0.00     0.034 A 
BRANCH  24  38
ATOM     38  C   UNL     1       4.965  -8.782   4.333  1.00  0.00     0.023 A 
ATOM     39  C   UNL     1       5.966  -9.115   5.267  1.00  0.00     0.031 A 
ATOM     40  C   UNL     1       3.647  -8.639   4.804  1.00  0.00     0.131 A 
ATOM     41  C   UNL     1       5.626  -9.343   6.608  1.00  0.00     0.055 A 
ATOM     42  C   UNL     1       3.319  -8.832   6.149  1.00  0.00     0.041 A 
ATOM     43  F   UNL     1       2.650  -8.332   3.958  1.00  0.00    -0.206 F 
ATOM     44  C   UNL     1       4.309  -9.200   7.055  1.00  0.00     0.022 A 
BRANCH  41  45
ATOM     45  S   UNL     1       6.864  -9.904   7.812  1.00  0.00     0.124 S 
ATOM     46  O   UNL     1       6.774  -8.868   8.840  1.00  0.00    -0.237 OA
ATOM     47  O   UNL     1       6.343 -11.212   8.200  1.00  0.00    -0.237 OA
ATOM     48  O   UNL     1       8.110  -9.916   7.054  1.00  0.00    -0.744 OA
ENDBRANCH  41  45
ENDBRANCH  24  38
BRANCH  25  49
ATOM     49  C   UNL     1       7.211  -8.252  -5.469  1.00  0.00     0.023 A 
ATOM     50  C   UNL     1       8.055  -7.211  -5.907  1.00  0.00     0.031 A 
ATOM     51  C   UNL     1       6.540  -9.013  -6.437  1.00  0.00     0.131 A 
ATOM     52  C   UNL     1       8.124  -6.899  -7.270  1.00  0.00     0.055 A 
ATOM     53  C   UNL     1       6.675  -8.749  -7.800  1.00  0.00     0.041 A 
ATOM     54  F   UNL     1       5.707  -9.997  -6.065  1.00  0.00    -0.206 F 
ATOM     55  C   UNL     1       7.450  -7.672  -8.221  1.00  0.00     0.022 A 
BRANCH  52  56
ATOM     56  S   UNL     1       8.931  -5.373  -7.833  1.00  0.00     0.124 S 
ATOM     57  O   UNL     1       9.986  -5.889  -8.700  1.00  0.00    -0.237 OA
ATOM     58  O   UNL     1       7.835  -4.686  -8.512  1.00  0.00    -0.237 OA
ATOM     59  O   UNL     1       9.382  -4.743  -6.596  1.00  0.00    -0.744 OA
ENDBRANCH  52  56
ENDBRANCH  25  49
BRANCH  37  60
ATOM     60  C   UNL     1       7.699 -13.294  -0.550  1.00  0.00     0.023 A 
ATOM     61  C   UNL     1       6.827 -14.348  -0.215  1.00  0.00     0.031 A 
ATOM     62  C   UNL     1       9.064 -13.584  -0.712  1.00  0.00     0.131 A 
ATOM     63  C   UNL     1       7.339 -15.630   0.006  1.00  0.00     0.055 A 
ATOM     64  C   UNL     1       9.559 -14.879  -0.555  1.00  0.00     0.041 A 
ATOM     65  F   UNL     1       9.938 -12.611  -1.017  1.00  0.00    -0.206 F 
ATOM     66  C   UNL     1       8.698 -15.905  -0.176  1.00  0.00     0.022 A 
BRANCH  63  67
ATOM     67  S   UNL     1       6.283 -16.957   0.650  1.00  0.00     0.124 S 
ATOM     68  O   UNL     1       6.375 -17.957  -0.411  1.00  0.00    -0.237 OA
ATOM     69  O   UNL     1       6.958 -17.306   1.897  1.00  0.00    -0.237 OA
ATOM     70  O   UNL     1       4.975 -16.327   0.798  1.00  0.00    -0.744 OA
ENDBRANCH  63  67
ENDBRANCH  37  60
ENDBRANCH  11  12
ENDBRANCH   4   6
ENDBRANCH   3   4
ENDBRANCH   2   3
ENDBRANCH   1   2
BRANCH   1  71
ATOM     71  O   UNL     1       4.426  -0.577   1.831  1.00  0.00    -0.461 OA
BRANCH  71  72
ATOM     72  C   UNL     1       3.282  -0.548   2.566  1.00  0.00     0.321 C 
ATOM     73  O   UNL     1       2.960   0.389   3.291  1.00  0.00    -0.251 OA
BRANCH  72  74
ATOM     74  C   UNL     1       2.410  -1.766   2.313  1.00  0.00     0.184 C 
ATOM     75  S   UNL     1       2.706  -2.991   3.641  1.00  0.00    -0.117 SA
ATOM     76  C   UNL     1       0.963  -1.306   2.468  1.00  0.00     0.172 C 
ATOM     77  C   UNL     1       1.237  -2.620   4.462  1.00  0.00     0.039 C 
ATOM     78  C   UNL     1       0.454  -1.755   3.814  1.00  0.00     0.003 C 
BRANCH  76  79
ATOM     79  S   UNL     1      -0.126  -1.952   1.201  1.00  0.00     0.219 S 
ATOM     80  O   UNL     1       0.520  -1.893  -0.086  1.00  0.00    -0.212 OA
ATOM     81  O   UNL     1      -0.785  -3.150   1.667  1.00  0.00    -0.212 OA
BRANCH  79  82
ATOM     82  N   UNL     1      -1.310  -0.759   1.203  1.00  0.00    -0.214 NA
ATOM     83  H   UNL     1      -1.414  -0.456   2.171  1.00  0.00     0.141 HD
BRANCH  82  84
ATOM     84  C   UNL     1      -1.160   0.453   0.404  1.00  0.00     0.103 C 
BRANCH  84  85
ATOM     85  C   UNL     1      -1.500   0.262  -1.079  1.00  0.00     0.050 C 
BRANCH  85  86
ATOM     86  C   UNL     1      -2.823  -0.305  -1.534  1.00  0.00    -0.038 C 
ATOM     87  C   UNL     1      -3.691  -1.202  -1.054  1.00  0.00     0.001 A 
ATOM     88  C   UNL     1      -3.285   0.174  -2.888  1.00  0.00     0.174 C 
ATOM     89  C   UNL     1      -3.817  -2.058   0.086  1.00  0.00     0.010 A 
ATOM     90  C   UNL     1      -4.712  -1.269  -2.123  1.00  0.00     0.065 A 
ATOM     91  N   UNL     1      -4.564  -0.508  -3.164  1.00  0.00    -0.280 NA
ATOM     92  C   UNL     1      -4.862  -2.891   0.201  1.00  0.00     0.001 A 
ATOM     93  C   UNL     1      -5.840  -2.208  -1.928  1.00  0.00     0.028 A 
ATOM     94  C   UNL     1      -5.886  -2.959  -0.817  1.00  0.00     0.002 A 
ENDBRANCH  85  86
ENDBRANCH  84  85
ENDBRANCH  82  84
ENDBRANCH  79  82
ENDBRANCH  76  79
ENDBRANCH  72  74
ENDBRANCH  71  72
ENDBRANCH   1  71
TORSDOF 19
