REMARK SMILES N#Cc1cccnc1N1CC[NH+]([C@@H](C(=O)OCCOC(=O)c2ccc(-c3c4nc(c(-c5cc(S(=O)(=O)[O-])ccc5F)c5ccc([nH]5)c(-c5cc(S(=O)(=O)[O-])ccc5F)c5nc(c(-c6cc(S(=O)(=O)[O-])ccc6F)c6ccc3[nH]6)C=C5)C=C4)cc2)c2c[nH]c3cc(CO)ccc23)CC1
REMARK SMILES IDX 17 1 16 2 14 3 15 4 13 5 12 6 9 7 10 8 97 9 11 10 96 11 8 13
REMARK SMILES IDX 3 14 4 15 5 16 7 17 6 18 2 19 1 20 85 21 86 22 95 23 87 24
REMARK SMILES IDX 88 25 94 26 89 28 93 29 90 30 91 31 92 32 18 34 19 35 20 36
REMARK SMILES IDX 21 37 22 38 23 39 84 40 24 41 83 42 25 43 26 44 27 45 77 46
REMARK SMILES IDX 28 47 82 48 76 49 78 50 29 51 81 52 75 53 74 54 30 56 62 57
REMARK SMILES IDX 42 58 61 59 43 60 46 61 60 62 79 63 44 64 45 65 59 67 80 68
REMARK SMILES IDX 47 69 31 70 32 71 40 72 33 73 39 74 41 75 38 76 34 77 35 78
REMARK SMILES IDX 36 79 37 80 63 81 64 82 72 83 65 84 71 85 73 86 70 87 66 88
REMARK SMILES IDX 67 89 68 90 69 91 48 92 49 93 57 94 50 95 56 96 58 97 55 98
REMARK SMILES IDX 51 99 52 100 53 101 54 102
REMARK H PARENT 12 12 87 27 92 33 78 55 46 66
REMARK Flexibility Score: inf
ROOT
ATOM      1  C   UNL     1      -0.987  -4.190   2.624  1.00  0.00     0.274 C 
ENDROOT
BRANCH   1   2
ATOM      2  O   UNL     1      -0.303  -4.259   1.349  1.00  0.00    -0.457 OA
BRANCH   2   3
ATOM      3  C   UNL     1       0.085  -5.467   0.872  1.00  0.00     0.370 C 
ATOM      4  O   UNL     1      -0.066  -6.504   1.516  1.00  0.00    -0.245 OA
BRANCH   3   5
ATOM      5  C   UNL     1       0.862  -5.408  -0.462  1.00  0.00     0.328 C 
BRANCH   5   6
ATOM      6  N   UNL     1       1.976  -4.383  -0.575  1.00  0.00    -0.316 N 
ATOM      7  N   UNL     1       0.962  -1.679  -0.035  1.00  0.00    -0.344 N 
ATOM      8  C   UNL     1       0.627  -2.420  -1.241  1.00  0.00     0.179 C 
ATOM      9  C   UNL     1       1.729  -2.314   1.044  1.00  0.00     0.179 C 
ATOM     10  C   UNL     1       1.813  -3.314  -1.560  1.00  0.00     0.285 C 
ATOM     11  C   UNL     1       2.374  -3.711   0.684  1.00  0.00     0.285 C 
ATOM     12  H   UNL     1       2.704  -5.024  -0.890  1.00  0.00     0.349 HD
BRANCH   7  13
ATOM     13  C   UNL     1       0.177  -0.562   0.161  1.00  0.00     0.146 A 
ATOM     14  C   UNL     1       0.745   0.712   0.206  1.00  0.00     0.095 A 
ATOM     15  C   UNL     1      -0.094   1.831   0.168  1.00  0.00     0.025 A 
ATOM     16  C   UNL     1      -1.470   1.659   0.076  1.00  0.00     0.022 A 
ATOM     17  N   UNL     1      -1.168  -0.723   0.100  1.00  0.00    -0.238 NA
ATOM     18  C   UNL     1      -1.958   0.369   0.047  1.00  0.00     0.113 A 
BRANCH  14  19
ATOM     19  C   UNL     1       2.161   0.885   0.179  1.00  0.00     0.103 C 
ATOM     20  N   UNL     1       3.316   1.047   0.172  1.00  0.00    -0.192 NA
ENDBRANCH  14  19
ENDBRANCH   7  13
ENDBRANCH   5   6
BRANCH   5  21
ATOM     21  C   UNL     1       0.160  -5.852  -1.807  1.00  0.00     0.046 A 
ATOM     22  C   UNL     1       0.862  -6.619  -2.748  1.00  0.00     0.094 A 
ATOM     23  C   UNL     1      -0.707  -5.146  -2.731  1.00  0.00     0.009 A 
ATOM     24  N   UNL     1       1.208  -5.631  -3.679  1.00  0.00    -0.361 N 
ATOM     25  C   UNL     1       0.118  -4.789  -3.798  1.00  0.00     0.046 A 
ATOM     26  C   UNL     1      -2.056  -4.808  -2.903  1.00  0.00     0.011 A 
ATOM     27  H   UNL     1       2.064  -5.551  -4.157  1.00  0.00     0.166 HD
ATOM     28  C   UNL     1      -0.203  -3.746  -4.685  1.00  0.00     0.032 A 
ATOM     29  C   UNL     1      -2.474  -3.929  -3.901  1.00  0.00     0.007 A 
ATOM     30  C   UNL     1      -1.528  -3.275  -4.679  1.00  0.00    -0.021 A 
BRANCH  30  31
ATOM     31  C   UNL     1      -1.960  -2.061  -5.455  1.00  0.00     0.191 C 
BRANCH  31  32
ATOM     32  O   UNL     1      -2.296  -1.001  -4.550  1.00  0.00    -0.392 OA
ATOM     33  H   UNL     1      -3.022  -1.286  -3.974  1.00  0.00     0.211 HD
ENDBRANCH  31  32
ENDBRANCH  30  31
ENDBRANCH   5  21
ENDBRANCH   3   5
ENDBRANCH   2   3
ENDBRANCH   1   2
BRANCH   1  34
ATOM     34  C   UNL     1      -2.410  -3.705   2.378  1.00  0.00     0.275 C 
BRANCH  34  35
ATOM     35  O   UNL     1      -3.168  -4.808   1.839  1.00  0.00    -0.458 OA
BRANCH  35  36
ATOM     36  C   UNL     1      -3.101  -4.852   0.494  1.00  0.00     0.338 C 
ATOM     37  O   UNL     1      -2.646  -3.977  -0.227  1.00  0.00    -0.246 OA
BRANCH  36  38
ATOM     38  C   UNL     1      -3.569  -6.119  -0.087  1.00  0.00     0.060 A 
ATOM     39  C   UNL     1      -2.642  -7.156  -0.244  1.00  0.00     0.016 A 
ATOM     40  C   UNL     1      -4.685  -6.043  -0.924  1.00  0.00     0.016 A 
ATOM     41  C   UNL     1      -2.731  -8.012  -1.339  1.00  0.00     0.010 A 
ATOM     42  C   UNL     1      -4.821  -6.960  -1.971  1.00  0.00     0.010 A 
ATOM     43  C   UNL     1      -3.820  -7.918  -2.215  1.00  0.00    -0.014 A 
BRANCH  43  44
ATOM     44  C   UNL     1      -4.050  -8.961  -3.236  1.00  0.00     0.031 A 
ATOM     45  C   UNL     1      -4.001  -8.690  -4.710  1.00  0.00     0.074 A 
ATOM     46  C   UNL     1      -4.457 -10.147  -2.753  1.00  0.00     0.049 A 
ATOM     47  N   UNL     1      -4.628  -9.307  -5.677  1.00  0.00    -0.248 NA
ATOM     48  C   UNL     1      -3.134  -7.596  -5.165  1.00  0.00     0.031 C 
ATOM     49  C   UNL     1      -4.441 -10.527  -1.336  1.00  0.00     0.029 A 
ATOM     50  N   UNL     1      -5.027 -11.217  -3.383  1.00  0.00    -0.354 N 
ATOM     51  C   UNL     1      -4.286  -8.640  -6.852  1.00  0.00     0.074 A 
ATOM     52  C   UNL     1      -3.374  -7.580  -6.474  1.00  0.00     0.031 C 
ATOM     53  C   UNL     1      -5.028 -11.718  -1.195  1.00  0.00     0.029 A 
ATOM     54  C   UNL     1      -5.560 -12.113  -2.488  1.00  0.00     0.049 A 
ATOM     55  H   UNL     1      -5.053 -11.333  -4.361  1.00  0.00     0.167 HD
ATOM     56  C   UNL     1      -4.715  -8.911  -8.112  1.00  0.00     0.034 A 
ATOM     57  C   UNL     1      -6.475 -13.078  -2.663  1.00  0.00     0.034 A 
ATOM     58  C   UNL     1      -5.550 -10.054  -8.424  1.00  0.00     0.049 A 
ATOM     59  C   UNL     1      -6.997 -13.315  -4.046  1.00  0.00     0.074 A 
ATOM     60  C   UNL     1      -5.993 -10.486  -9.663  1.00  0.00     0.029 A 
ATOM     61  N   UNL     1      -6.056 -10.952  -7.490  1.00  0.00    -0.354 N 
ATOM     62  N   UNL     1      -6.747 -12.640  -5.144  1.00  0.00    -0.248 NA
ATOM     63  C   UNL     1      -7.904 -14.451  -4.221  1.00  0.00     0.031 C 
ATOM     64  C   UNL     1      -6.828 -11.589  -9.471  1.00  0.00     0.029 A 
ATOM     65  C   UNL     1      -6.824 -11.915  -8.125  1.00  0.00     0.049 A 
ATOM     66  H   UNL     1      -5.892 -10.910  -6.521  1.00  0.00     0.167 HD
ATOM     67  C   UNL     1      -7.423 -13.310  -6.155  1.00  0.00     0.074 A 
ATOM     68  C   UNL     1      -8.092 -14.435  -5.532  1.00  0.00     0.031 C 
ATOM     69  C   UNL     1      -7.471 -13.033  -7.481  1.00  0.00     0.034 A 
BRANCH  56  70
ATOM     70  C   UNL     1      -4.365  -7.973  -9.250  1.00  0.00     0.023 A 
ATOM     71  C   UNL     1      -3.055  -7.782  -9.719  1.00  0.00     0.031 A 
ATOM     72  C   UNL     1      -5.407  -7.329  -9.953  1.00  0.00     0.131 A 
ATOM     73  C   UNL     1      -2.821  -6.958 -10.837  1.00  0.00     0.055 A 
ATOM     74  C   UNL     1      -5.176  -6.573 -11.104  1.00  0.00     0.041 A 
ATOM     75  F   UNL     1      -6.681  -7.451  -9.546  1.00  0.00    -0.206 F 
ATOM     76  C   UNL     1      -3.875  -6.380 -11.550  1.00  0.00     0.022 A 
BRANCH  73  77
ATOM     77  S   UNL     1      -1.110  -6.571 -11.304  1.00  0.00     0.124 S 
ATOM     78  O   UNL     1      -0.601  -5.953 -10.082  1.00  0.00    -0.237 OA
ATOM     79  O   UNL     1      -0.566  -7.884 -11.630  1.00  0.00    -0.237 OA
ATOM     80  O   UNL     1      -1.259  -5.660 -12.437  1.00  0.00    -0.744 OA
ENDBRANCH  73  77
ENDBRANCH  56  70
BRANCH  57  81
ATOM     81  C   UNL     1      -6.969 -13.839  -1.491  1.00  0.00     0.023 A 
ATOM     82  C   UNL     1      -6.731 -15.212  -1.403  1.00  0.00     0.031 A 
ATOM     83  C   UNL     1      -7.683 -13.217  -0.449  1.00  0.00     0.131 A 
ATOM     84  C   UNL     1      -7.269 -15.941  -0.338  1.00  0.00     0.055 A 
ATOM     85  C   UNL     1      -8.139 -13.932   0.657  1.00  0.00     0.041 A 
ATOM     86  F   UNL     1      -7.922 -11.895  -0.478  1.00  0.00    -0.206 F 
ATOM     87  C   UNL     1      -7.952 -15.310   0.706  1.00  0.00     0.022 A 
BRANCH  84  88
ATOM     88  S   UNL     1      -7.188 -17.745  -0.429  1.00  0.00     0.124 S 
ATOM     89  O   UNL     1      -7.780 -17.997  -1.739  1.00  0.00    -0.237 OA
ATOM     90  O   UNL     1      -5.755 -17.989  -0.316  1.00  0.00    -0.237 OA
ATOM     91  O   UNL     1      -7.990 -18.177   0.713  1.00  0.00    -0.744 OA
ENDBRANCH  84  88
ENDBRANCH  57  81
BRANCH  69  92
ATOM     92  C   UNL     1      -8.197 -14.022  -8.353  1.00  0.00     0.023 A 
ATOM     93  C   UNL     1      -9.586 -14.205  -8.273  1.00  0.00     0.031 A 
ATOM     94  C   UNL     1      -7.473 -14.796  -9.278  1.00  0.00     0.131 A 
ATOM     95  C   UNL     1     -10.203 -15.179  -9.069  1.00  0.00     0.055 A 
ATOM     96  C   UNL     1      -8.103 -15.710 -10.119  1.00  0.00     0.041 A 
ATOM     97  F   UNL     1      -6.140 -14.668  -9.383  1.00  0.00    -0.206 F 
ATOM     98  C   UNL     1      -9.476 -15.914 -10.010  1.00  0.00     0.022 A 
BRANCH  95  99
ATOM     99  S   UNL     1     -11.958 -15.539  -8.793  1.00  0.00     0.124 S 
ATOM    100  O   UNL     1     -11.962 -15.965  -7.397  1.00  0.00    -0.237 OA
ATOM    101  O   UNL     1     -12.589 -14.253  -9.068  1.00  0.00    -0.237 OA
ATOM    102  O   UNL     1     -12.248 -16.592  -9.765  1.00  0.00    -0.744 OA
ENDBRANCH  95  99
ENDBRANCH  69  92
ENDBRANCH  43  44
ENDBRANCH  36  38
ENDBRANCH  35  36
ENDBRANCH  34  35
ENDBRANCH   1  34
TORSDOF 20
