REMARK SMILES Cn1cccc1C(=O)N[C@](C)(C(=O)OCCOC(=O)c1ccc(-c2c3nc(c(-c4cc(S(=O)(=O)[O-])ccc4F)c4ccc([nH]4)c(-c4cc(S(=O)(=O)[O-])ccc4F)c4nc(c(-c5cc(S(=O)(=O)[O-])ccc5F)c5ccc2[nH]5)C=C4)C=C3)cc1)C(F)(F)F
REMARK SMILES IDX 16 1 15 2 14 3 12 4 13 5 10 6 11 7 9 8 7 9 8 10 6 12 1 13
REMARK SMILES IDX 2 14 3 15 4 16 5 17 83 18 84 19 85 20 86 21 17 22 18 23
REMARK SMILES IDX 19 24 20 25 21 26 82 27 22 28 81 29 23 30 24 31 25 32 75 33
REMARK SMILES IDX 26 34 80 35 74 36 76 37 27 38 79 39 73 40 72 41 28 43 60 44
REMARK SMILES IDX 40 45 59 46 41 47 44 48 58 49 77 50 42 51 43 52 57 54 78 55
REMARK SMILES IDX 45 56 29 57 30 58 38 59 31 60 37 61 39 62 36 63 32 64 33 65
REMARK SMILES IDX 34 66 35 67 61 68 62 69 70 70 63 71 69 72 71 73 68 74 64 75
REMARK SMILES IDX 65 76 66 77 67 78 46 79 47 80 55 81 48 82 54 83 56 84 53 85
REMARK SMILES IDX 49 86 50 87 51 88 52 89
REMARK H PARENT 9 11 76 42 44 53
REMARK Flexibility Score: inf
ROOT
ATOM      1  C   UNL     1       4.715  -2.255  -3.516  1.00  0.00     0.275 C 
ENDROOT
BRANCH   1   2
ATOM      2  C   UNL     1       5.315  -2.231  -2.110  1.00  0.00     0.274 C 
BRANCH   2   3
ATOM      3  O   UNL     1       4.298  -2.380  -1.096  1.00  0.00    -0.460 OA
BRANCH   3   4
ATOM      4  C   UNL     1       3.963  -1.281  -0.361  1.00  0.00     0.341 C 
ATOM      5  O   UNL     1       4.439  -0.175  -0.576  1.00  0.00    -0.249 OA
BRANCH   4   6
ATOM      6  C   UNL     1       3.009  -1.632   0.802  1.00  0.00     0.231 C 
ATOM      7  C   UNL     1       1.616  -2.139   0.420  1.00  0.00     0.058 C 
BRANCH   6   8
ATOM      8  N   UNL     1       3.805  -2.550   1.661  1.00  0.00    -0.328 N 
ATOM      9  C   UNL     1       4.235  -3.833   1.743  1.00  0.00     0.269 C 
ATOM     10  O   UNL     1       5.220  -3.903   2.494  1.00  0.00    -0.268 OA
ATOM     11  H   UNL     1       4.133  -2.051   2.444  1.00  0.00     0.165 HD
BRANCH   9  12
ATOM     12  C   UNL     1       3.659  -5.064   1.214  1.00  0.00     0.106 A 
ATOM     13  C   UNL     1       2.655  -4.815  -1.162  1.00  0.00     0.150 C 
ATOM     14  N   UNL     1       3.002  -5.486   0.067  1.00  0.00    -0.347 N 
ATOM     15  C   UNL     1       2.775  -6.853   0.127  1.00  0.00     0.086 A 
ATOM     16  C   UNL     1       3.311  -7.348   1.280  1.00  0.00     0.020 A 
ATOM     17  C   UNL     1       3.854  -6.245   1.951  1.00  0.00     0.033 A 
ENDBRANCH   9  12
ENDBRANCH   6   8
BRANCH   6  18
ATOM     18  C   UNL     1       2.791  -0.280   1.538  1.00  0.00     0.422 C 
ATOM     19  F   UNL     1       2.170   0.638   0.769  1.00  0.00    -0.168 F 
ATOM     20  F   UNL     1       2.011  -0.464   2.636  1.00  0.00    -0.168 F 
ATOM     21  F   UNL     1       3.952   0.245   1.992  1.00  0.00    -0.168 F 
ENDBRANCH   6  18
ENDBRANCH   4   6
ENDBRANCH   3   4
ENDBRANCH   2   3
ENDBRANCH   1   2
BRANCH   1  22
ATOM     22  O   UNL     1       3.920  -1.079  -3.736  1.00  0.00    -0.458 OA
BRANCH  22  23
ATOM     23  C   UNL     1       2.581  -1.256  -3.716  1.00  0.00     0.338 C 
ATOM     24  O   UNL     1       1.975  -2.315  -3.604  1.00  0.00    -0.246 OA
BRANCH  23  25
ATOM     25  C   UNL     1       1.939   0.062  -3.663  1.00  0.00     0.060 A 
ATOM     26  C   UNL     1       1.817   0.661  -2.412  1.00  0.00     0.016 A 
ATOM     27  C   UNL     1       1.399   0.675  -4.792  1.00  0.00     0.016 A 
ATOM     28  C   UNL     1       1.145   1.864  -2.262  1.00  0.00     0.010 A 
ATOM     29  C   UNL     1       0.753   1.911  -4.649  1.00  0.00     0.010 A 
ATOM     30  C   UNL     1       0.612   2.508  -3.381  1.00  0.00    -0.014 A 
BRANCH  30  31
ATOM     31  C   UNL     1      -0.155   3.764  -3.190  1.00  0.00     0.031 A 
ATOM     32  C   UNL     1      -1.632   3.772  -3.459  1.00  0.00     0.074 A 
ATOM     33  C   UNL     1       0.456   4.869  -2.719  1.00  0.00     0.049 A 
ATOM     34  N   UNL     1      -2.461   4.781  -3.511  1.00  0.00    -0.248 NA
ATOM     35  C   UNL     1      -2.256   2.465  -3.712  1.00  0.00     0.031 C 
ATOM     36  C   UNL     1       1.867   4.957  -2.335  1.00  0.00     0.029 A 
ATOM     37  N   UNL     1      -0.032   6.128  -2.472  1.00  0.00    -0.354 N 
ATOM     38  C   UNL     1      -3.694   4.240  -3.856  1.00  0.00     0.074 A 
ATOM     39  C   UNL     1      -3.501   2.812  -4.000  1.00  0.00     0.031 C 
ATOM     40  C   UNL     1       2.124   6.195  -1.884  1.00  0.00     0.029 A 
ATOM     41  C   UNL     1       0.923   7.011  -2.025  1.00  0.00     0.049 A 
ATOM     42  H   UNL     1      -0.976   6.375  -2.602  1.00  0.00     0.167 HD
ATOM     43  C   UNL     1      -4.873   4.884  -4.043  1.00  0.00     0.034 A 
ATOM     44  C   UNL     1       0.852   8.338  -1.801  1.00  0.00     0.034 A 
ATOM     45  C   UNL     1      -5.043   6.305  -3.859  1.00  0.00     0.049 A 
ATOM     46  C   UNL     1      -0.456   9.040  -2.060  1.00  0.00     0.074 A 
ATOM     47  C   UNL     1      -6.182   7.071  -4.036  1.00  0.00     0.029 A 
ATOM     48  N   UNL     1      -4.042   7.176  -3.445  1.00  0.00    -0.354 N 
ATOM     49  N   UNL     1      -1.595   8.536  -2.477  1.00  0.00    -0.248 NA
ATOM     50  C   UNL     1      -0.485  10.490  -1.833  1.00  0.00     0.031 C 
ATOM     51  C   UNL     1      -5.857   8.408  -3.778  1.00  0.00     0.029 A 
ATOM     52  C   UNL     1      -4.532   8.471  -3.378  1.00  0.00     0.049 A 
ATOM     53  H   UNL     1      -3.118   6.911  -3.229  1.00  0.00     0.167 HD
ATOM     54  C   UNL     1      -2.478   9.607  -2.556  1.00  0.00     0.074 A 
ATOM     55  C   UNL     1      -1.746  10.780  -2.119  1.00  0.00     0.031 C 
ATOM     56  C   UNL     1      -3.775   9.626  -2.957  1.00  0.00     0.034 A 
BRANCH  43  57
ATOM     57  C   UNL     1      -6.034   4.064  -4.548  1.00  0.00     0.023 A 
ATOM     58  C   UNL     1      -6.624   3.044  -3.780  1.00  0.00     0.031 A 
ATOM     59  C   UNL     1      -6.525   4.276  -5.849  1.00  0.00     0.131 A 
ATOM     60  C   UNL     1      -7.619   2.231  -4.346  1.00  0.00     0.055 A 
ATOM     61  C   UNL     1      -7.568   3.514  -6.378  1.00  0.00     0.041 A 
ATOM     62  F   UNL     1      -5.983   5.218  -6.638  1.00  0.00    -0.206 F 
ATOM     63  C   UNL     1      -8.112   2.474  -5.630  1.00  0.00     0.022 A 
BRANCH  60  64
ATOM     64  S   UNL     1      -8.163   0.761  -3.433  1.00  0.00     0.124 S 
ATOM     65  O   UNL     1      -6.911   0.020  -3.294  1.00  0.00    -0.237 OA
ATOM     66  O   UNL     1      -8.706   1.333  -2.207  1.00  0.00    -0.237 OA
ATOM     67  O   UNL     1      -9.145   0.147  -4.324  1.00  0.00    -0.744 OA
ENDBRANCH  60  64
ENDBRANCH  43  57
BRANCH  44  68
ATOM     68  C   UNL     1       2.067   9.102  -1.395  1.00  0.00     0.023 A 
ATOM     69  C   UNL     1       2.139   9.759  -0.157  1.00  0.00     0.031 A 
ATOM     70  C   UNL     1       3.169   9.211  -2.264  1.00  0.00     0.131 A 
ATOM     71  C   UNL     1       3.275  10.520   0.165  1.00  0.00     0.055 A 
ATOM     72  C   UNL     1       4.316   9.924  -1.918  1.00  0.00     0.041 A 
ATOM     73  F   UNL     1       3.151   8.606  -3.463  1.00  0.00    -0.206 F 
ATOM     74  C   UNL     1       4.370  10.593  -0.700  1.00  0.00     0.022 A 
BRANCH  71  75
ATOM     75  S   UNL     1       3.275  11.479   1.705  1.00  0.00     0.124 S 
ATOM     76  O   UNL     1       2.102  12.327   1.528  1.00  0.00    -0.237 OA
ATOM     77  O   UNL     1       3.164  10.431   2.715  1.00  0.00    -0.237 OA
ATOM     78  O   UNL     1       4.559  12.175   1.673  1.00  0.00    -0.744 OA
ENDBRANCH  71  75
ENDBRANCH  44  68
BRANCH  56  79
ATOM     79  C   UNL     1      -4.477  10.957  -2.905  1.00  0.00     0.023 A 
ATOM     80  C   UNL     1      -4.151  11.995  -3.795  1.00  0.00     0.031 A 
ATOM     81  C   UNL     1      -5.469  11.195  -1.938  1.00  0.00     0.131 A 
ATOM     82  C   UNL     1      -4.776  13.244  -3.666  1.00  0.00     0.055 A 
ATOM     83  C   UNL     1      -6.122  12.424  -1.847  1.00  0.00     0.041 A 
ATOM     84  F   UNL     1      -5.815  10.236  -1.064  1.00  0.00    -0.206 F 
ATOM     85  C   UNL     1      -5.768  13.461  -2.706  1.00  0.00     0.022 A 
BRANCH  82  86
ATOM     86  S   UNL     1      -4.217  14.611  -4.719  1.00  0.00     0.124 S 
ATOM     87  O   UNL     1      -2.807  14.717  -4.356  1.00  0.00    -0.237 OA
ATOM     88  O   UNL     1      -4.493  14.105  -6.060  1.00  0.00    -0.237 OA
ATOM     89  O   UNL     1      -5.052  15.733  -4.297  1.00  0.00    -0.744 OA
ENDBRANCH  82  86
ENDBRANCH  56  79
ENDBRANCH  30  31
ENDBRANCH  23  25
ENDBRANCH  22  23
ENDBRANCH   1  22
TORSDOF 17
