REMARK SMILES O=C(OCCOC(=O)c1nc(/N=C/c2cccc([N+](=O)[O-])c2)n[nH]1)c1ccc(-c2c3nc(c(-c4cc(S(=O)(=O)[O-])ccc4F)c4ccc([nH]4)c(-c4cc(S(=O)(=O)[O-])ccc4F)c4nc(c(-c5cc(S(=O)(=O)[O-])ccc5F)c5ccc2[nH]5)C=C4)C=C3)cc1
REMARK SMILES IDX 4 1 3 2 2 3 1 4 25 5 26 6 87 7 27 8 86 9 28 10 29 11 30 12
REMARK SMILES IDX 80 13 31 14 85 15 79 16 81 17 32 18 84 19 78 20 77 21 33 23
REMARK SMILES IDX 65 24 45 25 64 26 46 27 49 28 63 29 82 30 47 31 48 32 62 34
REMARK SMILES IDX 83 35 50 36 34 37 35 38 43 39 36 40 42 41 44 42 41 43 37 44
REMARK SMILES IDX 38 45 39 46 40 47 66 48 67 49 75 50 68 51 74 52 76 53 73 54
REMARK SMILES IDX 69 55 70 56 71 57 72 58 51 59 52 60 60 61 53 62 59 63 61 64
REMARK SMILES IDX 58 65 54 66 55 67 56 68 57 69 5 70 6 71 7 72 8 73 9 74 10 75
REMARK SMILES IDX 24 76 11 77 23 78 12 80 13 81 14 82 15 83 22 84 16 85 18 86
REMARK SMILES IDX 17 87 19 88 20 89 21 90
REMARK H PARENT 81 22 49 33 24 79
REMARK Flexibility Score: inf
ROOT
ATOM      1  C   UNL     1       4.221  -1.091   0.760  1.00  0.00     0.275 C 
ENDROOT
BRANCH   1   2
ATOM      2  O   UNL     1       2.989  -0.382   0.953  1.00  0.00    -0.458 OA
BRANCH   2   3
ATOM      3  C   UNL     1       2.533   0.714   0.304  1.00  0.00     0.338 C 
ATOM      4  O   UNL     1       1.341   1.001   0.435  1.00  0.00    -0.246 OA
BRANCH   3   5
ATOM      5  C   UNL     1       3.327   1.510  -0.692  1.00  0.00     0.060 A 
ATOM      6  C   UNL     1       4.566   1.152  -1.227  1.00  0.00     0.016 A 
ATOM      7  C   UNL     1       2.666   2.607  -1.270  1.00  0.00     0.016 A 
ATOM      8  C   UNL     1       5.074   1.753  -2.366  1.00  0.00     0.010 A 
ATOM      9  C   UNL     1       3.160   3.204  -2.433  1.00  0.00     0.010 A 
ATOM     10  C   UNL     1       4.357   2.747  -3.007  1.00  0.00    -0.014 A 
BRANCH  10  11
ATOM     11  C   UNL     1       5.005   3.453  -4.126  1.00  0.00     0.031 A 
ATOM     12  C   UNL     1       5.467   4.836  -3.845  1.00  0.00     0.074 A 
ATOM     13  C   UNL     1       5.388   2.849  -5.268  1.00  0.00     0.049 A 
ATOM     14  N   UNL     1       5.910   5.740  -4.666  1.00  0.00    -0.248 NA
ATOM     15  C   UNL     1       5.504   5.217  -2.423  1.00  0.00     0.031 C 
ATOM     16  C   UNL     1       5.354   1.409  -5.523  1.00  0.00     0.029 A 
ATOM     17  N   UNL     1       5.847   3.380  -6.458  1.00  0.00    -0.354 N 
ATOM     18  C   UNL     1       6.338   6.776  -3.854  1.00  0.00     0.074 A 
ATOM     19  C   UNL     1       6.000   6.437  -2.492  1.00  0.00     0.031 C 
ATOM     20  C   UNL     1       5.646   1.188  -6.814  1.00  0.00     0.029 A 
ATOM     21  C   UNL     1       5.705   2.467  -7.489  1.00  0.00     0.049 A 
ATOM     22  H   UNL     1       6.223   4.284  -6.559  1.00  0.00     0.167 HD
ATOM     23  C   UNL     1       7.013   7.883  -4.230  1.00  0.00     0.034 A 
ATOM     24  C   UNL     1       5.371   2.716  -8.774  1.00  0.00     0.034 A 
ATOM     25  C   UNL     1       7.273   8.188  -5.608  1.00  0.00     0.049 A 
ATOM     26  C   UNL     1       5.833   4.109  -9.270  1.00  0.00     0.074 A 
ATOM     27  C   UNL     1       7.881   9.303  -6.145  1.00  0.00     0.029 A 
ATOM     28  N   UNL     1       6.891   7.380  -6.674  1.00  0.00    -0.354 N 
ATOM     29  N   UNL     1       6.072   5.191  -8.552  1.00  0.00    -0.248 NA
ATOM     30  C   UNL     1       6.090   4.306 -10.704  1.00  0.00     0.031 C 
ATOM     31  C   UNL     1       7.751   9.226  -7.535  1.00  0.00     0.029 A 
ATOM     32  C   UNL     1       7.200   7.995  -7.870  1.00  0.00     0.049 A 
ATOM     33  H   UNL     1       6.462   6.497  -6.587  1.00  0.00     0.167 HD
ATOM     34  C   UNL     1       6.527   6.171  -9.438  1.00  0.00     0.074 A 
ATOM     35  C   UNL     1       6.471   5.578 -10.756  1.00  0.00     0.031 C 
ATOM     36  C   UNL     1       7.018   7.416  -9.186  1.00  0.00     0.034 A 
BRANCH  23  37
ATOM     37  C   UNL     1       7.371   8.844  -3.134  1.00  0.00     0.023 A 
ATOM     38  C   UNL     1       8.182   8.460  -2.049  1.00  0.00     0.031 A 
ATOM     39  C   UNL     1       6.749  10.101  -3.087  1.00  0.00     0.131 A 
ATOM     40  C   UNL     1       8.231   9.267  -0.905  1.00  0.00     0.055 A 
ATOM     41  C   UNL     1       6.904  10.952  -1.995  1.00  0.00     0.041 A 
ATOM     42  F   UNL     1       5.930  10.496  -4.074  1.00  0.00    -0.206 F 
ATOM     43  C   UNL     1       7.624  10.525  -0.883  1.00  0.00     0.022 A 
BRANCH  40  44
ATOM     44  S   UNL     1       8.865   8.539   0.634  1.00  0.00     0.124 S 
ATOM     45  O   UNL     1       7.989   7.380   0.796  1.00  0.00    -0.237 OA
ATOM     46  O   UNL     1      10.253   8.245   0.299  1.00  0.00    -0.237 OA
ATOM     47  O   UNL     1       8.669   9.599   1.620  1.00  0.00    -0.744 OA
ENDBRANCH  40  44
ENDBRANCH  23  37
BRANCH  24  48
ATOM     48  C   UNL     1       4.512   1.673  -9.719  1.00  0.00     0.023 A 
ATOM     49  C   UNL     1       5.739   1.193 -10.975  1.00  0.00     0.031 A 
ATOM     50  C   UNL     1       2.586   1.151 -10.126  1.00  0.00     0.131 A 
ATOM     51  C   UNL     1       5.180   0.379 -12.441  1.00  0.00     0.055 A 
ATOM     52  C   UNL     1       2.197   0.308 -11.661  1.00  0.00     0.041 A 
ATOM     53  F   UNL     1       1.395   1.400  -9.495  1.00  0.00    -0.206 F 
ATOM     54  C   UNL     1       3.493  -0.042 -12.765  1.00  0.00     0.022 A 
BRANCH  51  55
ATOM     55  S   UNL     1       6.401  -0.239 -13.611  1.00  0.00     0.124 S 
ATOM     56  O   UNL     1       6.850   0.993 -14.243  1.00  0.00    -0.237 OA
ATOM     57  O   UNL     1       7.350  -0.905 -12.727  1.00  0.00    -0.237 OA
ATOM     58  O   UNL     1       5.608  -1.134 -14.452  1.00  0.00    -0.744 OA
ENDBRANCH  51  55
ENDBRANCH  24  48
BRANCH  36  59
ATOM     59  C   UNL     1       7.554   8.230 -10.345  1.00  0.00     0.023 A 
ATOM     60  C   UNL     1       6.727   8.832 -11.307  1.00  0.00     0.031 A 
ATOM     61  C   UNL     1       8.939   8.493 -10.403  1.00  0.00     0.131 A 
ATOM     62  C   UNL     1       7.297   9.665 -12.288  1.00  0.00     0.055 A 
ATOM     63  C   UNL     1       9.487   9.371 -11.336  1.00  0.00     0.041 A 
ATOM     64  F   UNL     1       9.776   7.934  -9.515  1.00  0.00    -0.206 F 
ATOM     65  C   UNL     1       8.665   9.961 -12.287  1.00  0.00     0.022 A 
BRANCH  62  66
ATOM     66  S   UNL     1       6.252  10.317 -13.623  1.00  0.00     0.124 S 
ATOM     67  O   UNL     1       5.742   9.093 -14.231  1.00  0.00    -0.237 OA
ATOM     68  O   UNL     1       5.280  11.127 -12.897  1.00  0.00    -0.237 OA
ATOM     69  O   UNL     1       7.188  11.074 -14.453  1.00  0.00    -0.744 OA
ENDBRANCH  62  66
ENDBRANCH  36  59
ENDBRANCH  10  11
ENDBRANCH   3   5
ENDBRANCH   2   3
ENDBRANCH   1   2
BRANCH   1  70
ATOM     70  C   UNL     1       4.204  -2.043  -0.461  1.00  0.00     0.275 C 
BRANCH  70  71
ATOM     71  O   UNL     1       3.687  -1.469  -1.686  1.00  0.00    -0.456 OA
BRANCH  71  72
ATOM     72  C   UNL     1       2.331  -1.502  -1.873  1.00  0.00     0.376 C 
ATOM     73  O   UNL     1       1.562  -2.123  -1.147  1.00  0.00    -0.242 OA
BRANCH  72  74
ATOM     74  C   UNL     1       1.917  -0.559  -2.893  1.00  0.00     0.237 A 
ATOM     75  N   UNL     1       2.505  -0.253  -4.039  1.00  0.00    -0.184 NA
ATOM     76  N   UNL     1       0.838   0.266  -2.735  1.00  0.00    -0.251 N 
ATOM     77  C   UNL     1       1.719   0.769  -4.551  1.00  0.00     0.268 A 
ATOM     78  N   UNL     1       0.682   1.097  -3.777  1.00  0.00    -0.132 NA
ATOM     79  H   UNL     1       0.245   0.252  -1.949  1.00  0.00     0.192 HD
BRANCH  77  80
ATOM     80  N   UNL     1       1.936   1.504  -5.734  1.00  0.00    -0.218 NA
ATOM     81  C   UNL     1       2.571   0.794  -6.606  1.00  0.00     0.123 C 
BRANCH  81  82
ATOM     82  C   UNL     1       3.024   1.220  -7.958  1.00  0.00    -0.000 A 
ATOM     83  C   UNL     1       3.648  -0.159  -8.841  1.00  0.00     0.010 A 
ATOM     84  C   UNL     1       2.785   2.832  -8.681  1.00  0.00     0.095 A 
ATOM     85  C   UNL     1       4.022   0.029 -10.566  1.00  0.00     0.008 A 
ATOM     86  C   UNL     1       3.101   3.161 -10.400  1.00  0.00     0.270 A 
ATOM     87  C   UNL     1       3.731   1.824 -11.447  1.00  0.00     0.085 A 
BRANCH  86  88
ATOM     88  N   UNL     1       2.839   4.464 -10.960  1.00  0.00     0.062 N 
ATOM     89  O   UNL     1       2.983   4.587 -12.181  1.00  0.00    -0.258 OA
ATOM     90  O   UNL     1       2.473   5.348 -10.179  1.00  0.00    -0.258 OA
ENDBRANCH  86  88
ENDBRANCH  81  82
ENDBRANCH  77  80
ENDBRANCH  72  74
ENDBRANCH  71  72
ENDBRANCH  70  71
ENDBRANCH   1  70
TORSDOF 17
