REMARK SMILES O=C(OCCOC(=O)c1ccc(-c2c3nc(c(-c4cc(S(=O)(=O)[O-])ccc4F)c4ccc([nH]4)c(-c4cc(S(=O)(=O)[O-])ccc4F)c4nc(c(-c5cc(S(=O)(=O)[O-])ccc5F)c5ccc2[nH]5)C=C4)C=C3)cc1)C1=Cc2c(cc(Cl)c(Cl)c2Cl)O[C@H]1C(F)(F)F
REMARK SMILES IDX 5 1 4 2 3 3 2 4 1 5 72 6 73 7 84 8 74 9 83 10 75 11 81 12
REMARK SMILES IDX 76 13 79 14 82 15 77 16 80 17 78 18 85 19 86 20 87 21 88 22
REMARK SMILES IDX 6 23 7 24 8 25 9 26 10 27 71 28 11 29 70 30 12 31 13 32
REMARK SMILES IDX 14 33 64 34 15 35 69 36 63 37 65 38 16 39 68 40 62 41 61 42
REMARK SMILES IDX 17 44 49 45 29 46 48 47 30 48 33 49 47 50 66 51 31 52 32 53
REMARK SMILES IDX 46 55 67 56 34 57 18 58 19 59 27 60 20 61 26 62 28 63 25 64
REMARK SMILES IDX 21 65 22 66 23 67 24 68 50 69 51 70 59 71 52 72 58 73 60 74
REMARK SMILES IDX 57 75 53 76 54 77 55 78 56 79 35 80 36 81 44 82 37 83 43 84
REMARK SMILES IDX 45 85 42 86 38 87 39 88 40 89 41 90
REMARK H PARENT 65 43 33 54
REMARK Flexibility Score: inf
ROOT
ATOM      1  C   UNL     1       2.916   1.171  -2.639  1.00  0.00     0.275 C 
ENDROOT
BRANCH   1   2
ATOM      2  C   UNL     1       2.714  -0.202  -1.982  1.00  0.00     0.275 C 
BRANCH   2   3
ATOM      3  O   UNL     1       2.049  -0.169  -0.701  1.00  0.00    -0.459 OA
BRANCH   3   4
ATOM      4  C   UNL     1       2.565   0.040   0.527  1.00  0.00     0.338 C 
ATOM      5  O   UNL     1       1.856  -0.163   1.511  1.00  0.00    -0.246 OA
BRANCH   4   6
ATOM      6  C   UNL     1       3.961   0.495   0.754  1.00  0.00     0.087 C 
ATOM      7  C   UNL     1       4.883   0.710  -0.203  1.00  0.00     0.029 C 
ATOM      8  C   UNL     1       4.436   0.223   2.178  1.00  0.00     0.316 C 
ATOM      9  C   UNL     1       5.918  -0.355  -0.184  1.00  0.00     0.038 A 
ATOM     10  O   UNL     1       5.769  -0.378   2.234  1.00  0.00    -0.475 OA
ATOM     11  C   UNL     1       6.238  -0.909   1.060  1.00  0.00     0.131 A 
ATOM     12  C   UNL     1       6.518  -0.868  -1.350  1.00  0.00     0.072 A 
ATOM     13  C   UNL     1       7.085  -2.006   1.145  1.00  0.00     0.069 A 
ATOM     14  C   UNL     1       7.314  -2.022  -1.278  1.00  0.00     0.079 A 
ATOM     15  Cl  UNL     1       6.299  -0.053  -2.868  1.00  0.00    -0.082 Cl
ATOM     16  C   UNL     1       7.585  -2.589  -0.024  1.00  0.00     0.064 A 
ATOM     17  Cl  UNL     1       7.923  -2.763  -2.728  1.00  0.00    -0.081 Cl
ATOM     18  Cl  UNL     1       8.538  -4.022   0.153  1.00  0.00    -0.083 Cl
BRANCH   8  19
ATOM     19  C   UNL     1       4.385   1.509   3.018  1.00  0.00     0.430 C 
ATOM     20  F   UNL     1       3.164   2.085   2.996  1.00  0.00    -0.167 F 
ATOM     21  F   UNL     1       4.697   1.265   4.311  1.00  0.00    -0.167 F 
ATOM     22  F   UNL     1       5.271   2.427   2.554  1.00  0.00    -0.167 F 
ENDBRANCH   8  19
ENDBRANCH   4   6
ENDBRANCH   3   4
ENDBRANCH   2   3
ENDBRANCH   1   2
BRANCH   1  23
ATOM     23  O   UNL     1       2.756   2.244  -1.711  1.00  0.00    -0.458 OA
BRANCH  23  24
ATOM     24  C   UNL     1       1.453   2.539  -1.486  1.00  0.00     0.338 C 
ATOM     25  O   UNL     1       0.501   2.121  -2.126  1.00  0.00    -0.246 OA
BRANCH  24  26
ATOM     26  C   UNL     1       1.340   3.284  -0.220  1.00  0.00     0.060 A 
ATOM     27  C   UNL     1       0.191   3.055   0.538  1.00  0.00     0.016 A 
ATOM     28  C   UNL     1       2.315   4.192   0.213  1.00  0.00     0.016 A 
ATOM     29  C   UNL     1      -0.043   3.817   1.671  1.00  0.00     0.010 A 
ATOM     30  C   UNL     1       2.092   4.936   1.373  1.00  0.00     0.010 A 
ATOM     31  C   UNL     1       0.878   4.799   2.063  1.00  0.00    -0.014 A 
BRANCH  31  32
ATOM     32  C   UNL     1       0.431   5.788   3.070  1.00  0.00     0.031 A 
ATOM     33  C   UNL     1      -0.011   7.147   2.595  1.00  0.00     0.074 A 
ATOM     34  C   UNL     1       0.265   5.411   4.350  1.00  0.00     0.049 A 
ATOM     35  N   UNL     1      -0.647   8.086   3.244  1.00  0.00    -0.248 NA
ATOM     36  C   UNL     1       0.298   7.490   1.197  1.00  0.00     0.031 C 
ATOM     37  C   UNL     1       0.650   4.110   4.899  1.00  0.00     0.029 A 
ATOM     38  N   UNL     1      -0.307   6.067   5.407  1.00  0.00    -0.354 N 
ATOM     39  C   UNL     1      -0.848   9.110   2.325  1.00  0.00     0.074 A 
ATOM     40  C   UNL     1      -0.189   8.717   1.101  1.00  0.00     0.031 C 
ATOM     41  C   UNL     1       0.277   4.054   6.189  1.00  0.00     0.029 A 
ATOM     42  C   UNL     1      -0.357   5.317   6.559  1.00  0.00     0.049 A 
ATOM     43  H   UNL     1      -0.650   6.988   5.349  1.00  0.00     0.167 HD
ATOM     44  C   UNL     1      -1.553  10.258   2.475  1.00  0.00     0.034 A 
ATOM     45  C   UNL     1      -0.866   5.619   7.769  1.00  0.00     0.034 A 
ATOM     46  C   UNL     1      -2.177  10.643   3.716  1.00  0.00     0.049 A 
ATOM     47  C   UNL     1      -1.577   6.941   7.936  1.00  0.00     0.074 A 
ATOM     48  C   UNL     1      -2.894  11.790   4.003  1.00  0.00     0.029 A 
ATOM     49  N   UNL     1      -2.146   9.889   4.883  1.00  0.00    -0.354 N 
ATOM     50  N   UNL     1      -1.795   7.884   7.045  1.00  0.00    -0.248 NA
ATOM     51  C   UNL     1      -2.136   7.226   9.261  1.00  0.00     0.031 C 
ATOM     52  C   UNL     1      -3.234  11.763   5.361  1.00  0.00     0.029 A 
ATOM     53  C   UNL     1      -2.805  10.560   5.901  1.00  0.00     0.049 A 
ATOM     54  H   UNL     1      -1.719   9.007   4.974  1.00  0.00     0.167 HD
ATOM     55  C   UNL     1      -2.542   8.860   7.700  1.00  0.00     0.074 A 
ATOM     56  C   UNL     1      -2.766   8.370   9.045  1.00  0.00     0.031 C 
ATOM     57  C   UNL     1      -2.999  10.056   7.241  1.00  0.00     0.034 A 
BRANCH  44  58
ATOM     58  C   UNL     1      -1.647  11.173   1.278  1.00  0.00     0.023 A 
ATOM     59  C   UNL     1      -2.283  10.766   0.089  1.00  0.00     0.031 A 
ATOM     60  C   UNL     1      -1.057  12.448   1.302  1.00  0.00     0.131 A 
ATOM     61  C   UNL     1      -2.250  11.593  -1.044  1.00  0.00     0.055 A 
ATOM     62  C   UNL     1      -1.099  13.300   0.197  1.00  0.00     0.041 A 
ATOM     63  F   UNL     1      -0.410  12.881   2.396  1.00  0.00    -0.206 F 
ATOM     64  C   UNL     1      -1.685  12.869  -0.990  1.00  0.00     0.022 A 
BRANCH  61  65
ATOM     65  S   UNL     1      -2.822  10.920  -2.628  1.00  0.00     0.124 S 
ATOM     66  O   UNL     1      -1.917   9.787  -2.811  1.00  0.00    -0.237 OA
ATOM     67  O   UNL     1      -4.214  10.588  -2.348  1.00  0.00    -0.237 OA
ATOM     68  O   UNL     1      -2.620  12.025  -3.563  1.00  0.00    -0.744 OA
ENDBRANCH  61  65
ENDBRANCH  44  58
BRANCH  45  69
ATOM     69  C   UNL     1      -0.707   4.679   8.919  1.00  0.00     0.023 A 
ATOM     70  C   UNL     1      -1.814   4.144   9.598  1.00  0.00     0.031 A 
ATOM     71  C   UNL     1       0.575   4.364   9.406  1.00  0.00     0.131 A 
ATOM     72  C   UNL     1      -1.620   3.381  10.762  1.00  0.00     0.055 A 
ATOM     73  C   UNL     1       0.764   3.552  10.525  1.00  0.00     0.041 A 
ATOM     74  F   UNL     1       1.671   4.849   8.800  1.00  0.00    -0.206 F 
ATOM     75  C   UNL     1      -0.339   3.070  11.221  1.00  0.00     0.022 A 
BRANCH  72  76
ATOM     76  S   UNL     1      -3.071   2.902  11.742  1.00  0.00     0.124 S 
ATOM     77  O   UNL     1      -3.701   4.193  11.992  1.00  0.00    -0.237 OA
ATOM     78  O   UNL     1      -3.774   2.011  10.825  1.00  0.00    -0.237 OA
ATOM     79  O   UNL     1      -2.489   2.253  12.915  1.00  0.00    -0.744 OA
ENDBRANCH  72  76
ENDBRANCH  45  69
BRANCH  57  80
ATOM     80  C   UNL     1      -3.807  10.889   8.208  1.00  0.00     0.023 A 
ATOM     81  C   UNL     1      -3.246  11.383   9.399  1.00  0.00     0.031 A 
ATOM     82  C   UNL     1      -5.163  11.161   7.955  1.00  0.00     0.131 A 
ATOM     83  C   UNL     1      -4.059  12.040  10.334  1.00  0.00     0.055 A 
ATOM     84  C   UNL     1      -5.946  11.889   8.851  1.00  0.00     0.041 A 
ATOM     85  F   UNL     1      -5.754  10.716   6.835  1.00  0.00    -0.206 F 
ATOM     86  C   UNL     1      -5.400  12.314  10.059  1.00  0.00     0.022 A 
BRANCH  83  87
ATOM     87  S   UNL     1      -3.372  12.399  11.974  1.00  0.00     0.124 S 
ATOM     88  O   UNL     1      -2.942  11.076  12.417  1.00  0.00    -0.237 OA
ATOM     89  O   UNL     1      -2.306  13.345  11.665  1.00  0.00    -0.237 OA
ATOM     90  O   UNL     1      -4.507  12.960  12.704  1.00  0.00    -0.744 OA
ENDBRANCH  83  87
ENDBRANCH  57  80
ENDBRANCH  31  32
ENDBRANCH  24  26
ENDBRANCH  23  24
ENDBRANCH   1  23
TORSDOF 15
