REMARK SMILES C[C@H](C(=O)OCCOC(=O)c1ccc(-c2c3nc(c(-c4cc(S(=O)(=O)[O-])ccc4F)c4ccc([nH]4)c(-c4cc(S(=O)(=O)[O-])ccc4F)c4nc(c(-c5cc(S(=O)(=O)[O-])ccc5F)c5ccc2[nH]5)C=C4)C=C3)cc1)[C@@H](C)Nc1ccccc1Oc1ccccc1
REMARK SMILES IDX 6 1 5 2 3 3 4 4 2 5 1 6 74 7 75 8 76 9 77 11 78 12 82 13
REMARK SMILES IDX 79 14 81 15 80 16 83 17 84 18 85 19 89 20 86 21 88 22 87 23
REMARK SMILES IDX 7 24 8 25 9 26 10 27 11 28 12 29 73 30 13 31 72 32 14 33
REMARK SMILES IDX 15 34 16 35 66 36 17 37 71 38 65 39 67 40 18 41 70 42 64 43
REMARK SMILES IDX 63 44 19 46 51 47 31 48 50 49 32 50 35 51 49 52 68 53 33 54
REMARK SMILES IDX 34 55 48 57 69 58 36 59 20 60 21 61 29 62 22 63 28 64 30 65
REMARK SMILES IDX 27 66 23 67 24 68 25 69 26 70 52 71 53 72 61 73 54 74 60 75
REMARK SMILES IDX 62 76 59 77 55 78 56 79 57 80 58 81 37 82 38 83 46 84 39 85
REMARK SMILES IDX 45 86 47 87 44 88 40 89 41 90 42 91 43 92
REMARK H PARENT 76 10 67 45 35 56
REMARK Flexibility Score: inf
ROOT
ATOM      1  C   UNL     1       1.361   0.150  -1.788  1.00  0.00     0.274 C 
ENDROOT
BRANCH   1   2
ATOM      2  O   UNL     1       0.805  -0.023  -0.467  1.00  0.00    -0.462 OA
BRANCH   2   3
ATOM      3  C   UNL     1       1.456  -0.865   0.382  1.00  0.00     0.310 C 
ATOM      4  O   UNL     1       2.527  -1.407   0.138  1.00  0.00    -0.252 OA
BRANCH   3   5
ATOM      5  C   UNL     1       0.694  -1.080   1.682  1.00  0.00     0.118 C 
ATOM      6  C   UNL     1       0.891   0.099   2.628  1.00  0.00     0.022 C 
BRANCH   5   7
ATOM      7  C   UNL     1      -0.783  -1.371   1.369  1.00  0.00     0.090 C 
ATOM      8  C   UNL     1      -0.887  -2.650   0.524  1.00  0.00     0.031 C 
BRANCH   7   9
ATOM      9  N   UNL     1      -1.540  -1.603   2.588  1.00  0.00    -0.379 N 
ATOM     10  H   UNL     1      -1.357  -2.458   3.039  1.00  0.00     0.160 HD
BRANCH   9  11
ATOM     11  C   UNL     1      -2.482  -0.799   3.211  1.00  0.00     0.078 A 
ATOM     12  C   UNL     1      -2.515  -0.953   4.623  1.00  0.00     0.029 A 
ATOM     13  C   UNL     1      -3.340   0.182   2.675  1.00  0.00     0.150 A 
ATOM     14  C   UNL     1      -3.344  -0.204   5.462  1.00  0.00     0.002 A 
ATOM     15  C   UNL     1      -4.206   0.906   3.531  1.00  0.00     0.049 A 
ATOM     16  C   UNL     1      -4.212   0.717   4.910  1.00  0.00     0.004 A 
BRANCH  13  17
ATOM     17  O   UNL     1      -3.350   0.743   1.419  1.00  0.00    -0.455 OA
BRANCH  17  18
ATOM     18  C   UNL     1      -3.407   0.041   0.249  1.00  0.00     0.127 A 
ATOM     19  C   UNL     1      -2.823   0.722  -0.831  1.00  0.00     0.047 A 
ATOM     20  C   UNL     1      -3.947  -1.224   0.058  1.00  0.00     0.047 A 
ATOM     21  C   UNL     1      -2.685   0.106  -2.072  1.00  0.00     0.004 A 
ATOM     22  C   UNL     1      -3.818  -1.839  -1.196  1.00  0.00     0.004 A 
ATOM     23  C   UNL     1      -3.169  -1.185  -2.249  1.00  0.00     0.000 A 
ENDBRANCH  17  18
ENDBRANCH  13  17
ENDBRANCH   9  11
ENDBRANCH   7   9
ENDBRANCH   5   7
ENDBRANCH   3   5
ENDBRANCH   2   3
ENDBRANCH   1   2
BRANCH   1  24
ATOM     24  C   UNL     1       1.385   1.636  -2.134  1.00  0.00     0.275 C 
BRANCH  24  25
ATOM     25  O   UNL     1       2.346   2.249  -1.263  1.00  0.00    -0.458 OA
BRANCH  25  26
ATOM     26  C   UNL     1       1.888   3.226  -0.451  1.00  0.00     0.338 C 
ATOM     27  O   UNL     1       0.844   3.852  -0.555  1.00  0.00    -0.246 OA
BRANCH  26  28
ATOM     28  C   UNL     1       2.845   3.367   0.658  1.00  0.00     0.060 A 
ATOM     29  C   UNL     1       3.227   2.224   1.362  1.00  0.00     0.016 A 
ATOM     30  C   UNL     1       3.300   4.619   1.060  1.00  0.00     0.016 A 
ATOM     31  C   UNL     1       3.987   2.332   2.520  1.00  0.00     0.010 A 
ATOM     32  C   UNL     1       4.162   4.711   2.160  1.00  0.00     0.010 A 
ATOM     33  C   UNL     1       4.492   3.572   2.922  1.00  0.00    -0.014 A 
BRANCH  33  34
ATOM     34  C   UNL     1       5.314   3.687   4.159  1.00  0.00     0.031 A 
ATOM     35  C   UNL     1       4.879   4.626   5.253  1.00  0.00     0.074 A 
ATOM     36  C   UNL     1       6.432   2.949   4.320  1.00  0.00     0.049 A 
ATOM     37  N   UNL     1       5.558   5.088   6.270  1.00  0.00    -0.248 NA
ATOM     38  C   UNL     1       3.500   5.130   5.171  1.00  0.00     0.031 C 
ATOM     39  C   UNL     1       6.929   1.941   3.380  1.00  0.00     0.029 A 
ATOM     40  N   UNL     1       7.353   2.927   5.339  1.00  0.00    -0.354 N 
ATOM     41  C   UNL     1       4.716   5.995   6.907  1.00  0.00     0.074 A 
ATOM     42  C   UNL     1       3.476   6.012   6.159  1.00  0.00     0.031 C 
ATOM     43  C   UNL     1       8.037   1.375   3.882  1.00  0.00     0.029 A 
ATOM     44  C   UNL     1       8.397   2.057   5.119  1.00  0.00     0.049 A 
ATOM     45  H   UNL     1       7.275   3.482   6.148  1.00  0.00     0.167 HD
ATOM     46  C   UNL     1       4.968   6.751   8.005  1.00  0.00     0.034 A 
ATOM     47  C   UNL     1       9.547   1.871   5.796  1.00  0.00     0.034 A 
ATOM     48  C   UNL     1       6.197   6.674   8.760  1.00  0.00     0.049 A 
ATOM     49  C   UNL     1       9.820   2.736   6.997  1.00  0.00     0.074 A 
ATOM     50  C   UNL     1       6.579   7.403   9.872  1.00  0.00     0.029 A 
ATOM     51  N   UNL     1       7.238   5.793   8.488  1.00  0.00    -0.354 N 
ATOM     52  N   UNL     1       9.074   3.684   7.516  1.00  0.00    -0.248 NA
ATOM     53  C   UNL     1      11.097   2.522   7.689  1.00  0.00     0.031 C 
ATOM     54  C   UNL     1       7.866   6.995  10.245  1.00  0.00     0.029 A 
ATOM     55  C   UNL     1       8.263   5.968   9.404  1.00  0.00     0.049 A 
ATOM     56  H   UNL     1       7.246   5.141   7.751  1.00  0.00     0.167 HD
ATOM     57  C   UNL     1       9.795   4.183   8.595  1.00  0.00     0.074 A 
ATOM     58  C   UNL     1      11.019   3.409   8.670  1.00  0.00     0.031 C 
ATOM     59  C   UNL     1       9.482   5.195   9.444  1.00  0.00     0.034 A 
BRANCH  46  60
ATOM     60  C   UNL     1       3.928   7.774   8.394  1.00  0.00     0.023 A 
ATOM     61  C   UNL     1       2.643   7.412   8.834  1.00  0.00     0.031 A 
ATOM     62  C   UNL     1       4.217   9.146   8.270  1.00  0.00     0.131 A 
ATOM     63  C   UNL     1       1.675   8.404   9.060  1.00  0.00     0.055 A 
ATOM     64  C   UNL     1       3.273  10.131   8.572  1.00  0.00     0.041 A 
ATOM     65  F   UNL     1       5.419   9.555   7.833  1.00  0.00    -0.206 F 
ATOM     66  C   UNL     1       1.988   9.761   8.954  1.00  0.00     0.022 A 
BRANCH  63  67
ATOM     67  S   UNL     1      -0.041   7.894   9.355  1.00  0.00     0.124 S 
ATOM     68  O   UNL     1      -0.345   7.159   8.130  1.00  0.00    -0.237 OA
ATOM     69  O   UNL     1       0.072   7.093  10.569  1.00  0.00    -0.237 OA
ATOM     70  O   UNL     1      -0.755   9.160   9.508  1.00  0.00    -0.744 OA
ENDBRANCH  63  67
ENDBRANCH  46  60
BRANCH  47  71
ATOM     71  C   UNL     1      10.565   0.900   5.300  1.00  0.00     0.023 A 
ATOM     72  C   UNL     1      10.918  -0.234   6.048  1.00  0.00     0.031 A 
ATOM     73  C   UNL     1      11.214   1.105   4.067  1.00  0.00     0.131 A 
ATOM     74  C   UNL     1      11.909  -1.106   5.568  1.00  0.00     0.055 A 
ATOM     75  C   UNL     1      12.159   0.207   3.571  1.00  0.00     0.041 A 
ATOM     76  F   UNL     1      10.916   2.175   3.312  1.00  0.00    -0.206 F 
ATOM     77  C   UNL     1      12.519  -0.902   4.327  1.00  0.00     0.022 A 
BRANCH  74  78
ATOM     78  S   UNL     1      12.442  -2.484   6.621  1.00  0.00     0.124 S 
ATOM     79  O   UNL     1      12.898  -1.786   7.818  1.00  0.00    -0.237 OA
ATOM     80  O   UNL     1      11.211  -3.255   6.758  1.00  0.00    -0.237 OA
ATOM     81  O   UNL     1      13.493  -3.127   5.835  1.00  0.00    -0.744 OA
ENDBRANCH  74  78
ENDBRANCH  47  71
BRANCH  59  82
ATOM     82  C   UNL     1      10.477   5.487  10.536  1.00  0.00     0.023 A 
ATOM     83  C   UNL     1      11.726   6.066  10.254  1.00  0.00     0.031 A 
ATOM     84  C   UNL     1      10.183   5.151  11.868  1.00  0.00     0.131 A 
ATOM     85  C   UNL     1      12.659   6.244  11.285  1.00  0.00     0.055 A 
ATOM     86  C   UNL     1      11.096   5.376  12.898  1.00  0.00     0.041 A 
ATOM     87  F   UNL     1       9.004   4.593  12.187  1.00  0.00    -0.206 F 
ATOM     88  C   UNL     1      12.348   5.914  12.607  1.00  0.00     0.022 A 
BRANCH  85  89
ATOM     89  S   UNL     1      14.321   6.836  10.864  1.00  0.00     0.124 S 
ATOM     90  O   UNL     1      14.786   5.805   9.942  1.00  0.00    -0.237 OA
ATOM     91  O   UNL     1      14.048   8.143  10.274  1.00  0.00    -0.237 OA
ATOM     92  O   UNL     1      15.010   6.871  12.153  1.00  0.00    -0.744 OA
ENDBRANCH  85  89
ENDBRANCH  59  82
ENDBRANCH  33  34
ENDBRANCH  26  28
ENDBRANCH  25  26
ENDBRANCH  24  25
ENDBRANCH   1  24
TORSDOF 19
