REMARK SMILES C[C@@H]1CN([C@@H](CCS(C)(=O)=O)C(=O)OCCOC(=O)c2ccc(-c3c4nc(c(-c5cc(S(=O)(=O)[O-])ccc5F)c5ccc([nH]5)c(-c5cc(S(=O)(=O)[O-])ccc5F)c5nc(c(-c6cc(S(=O)(=O)[O-])ccc6F)c6ccc3[nH]6)C=C5)C=C4)cc2)S(=O)(=O)C1
REMARK SMILES IDX 15 1 14 2 12 3 13 4 5 5 4 6 1 7 2 8 3 9 86 10 83 11 84 12
REMARK SMILES IDX 85 13 6 14 7 15 8 16 9 17 10 18 11 19 16 20 17 21 18 22
REMARK SMILES IDX 19 23 20 24 21 25 82 26 22 27 81 28 23 29 24 30 25 31 75 32
REMARK SMILES IDX 26 33 80 34 74 35 76 36 27 37 79 38 73 39 72 40 28 42 60 43
REMARK SMILES IDX 40 44 59 45 41 46 44 47 58 48 77 49 42 50 43 51 57 53 78 54
REMARK SMILES IDX 45 55 29 56 30 57 38 58 31 59 37 60 39 61 36 62 32 63 33 64
REMARK SMILES IDX 34 65 35 66 61 67 62 68 70 69 63 70 69 71 71 72 68 73 64 74
REMARK SMILES IDX 65 75 66 76 67 77 46 78 47 79 55 80 48 81 54 82 56 83 53 84
REMARK SMILES IDX 49 85 50 86 51 87 52 88
REMARK H PARENT 76 41 44 52
REMARK Flexibility Score: inf
ROOT
ATOM      1  C   UNL     1      -3.252  -3.829  -5.431  1.00  0.00     0.274 C 
ENDROOT
BRANCH   1   2
ATOM      2  O   UNL     1      -2.410  -2.980  -4.631  1.00  0.00    -0.461 OA
BRANCH   2   3
ATOM      3  C   UNL     1      -2.408  -1.672  -4.940  1.00  0.00     0.324 C 
ATOM      4  O   UNL     1      -3.076  -1.172  -5.845  1.00  0.00    -0.250 OA
BRANCH   3   5
ATOM      5  C   UNL     1      -1.463  -0.828  -4.122  1.00  0.00     0.183 C 
BRANCH   5   6
ATOM      6  N   UNL     1      -0.941  -1.195  -2.808  1.00  0.00    -0.187 NA
ATOM      7  C   UNL     1       0.801   0.207   0.199  1.00  0.00     0.010 C 
ATOM      8  C   UNL     1       0.502  -0.591  -1.056  1.00  0.00     0.017 C 
ATOM      9  C   UNL     1      -0.787  -0.166  -1.766  1.00  0.00     0.107 C 
ATOM     10  C   UNL     1       0.324  -2.089  -0.795  1.00  0.00     0.159 C 
ATOM     11  S   UNL     1      -0.440  -2.714  -2.291  1.00  0.00     0.215 S 
ATOM     12  O   UNL     1      -1.570  -3.530  -1.909  1.00  0.00    -0.212 OA
ATOM     13  O   UNL     1       0.608  -3.177  -3.160  1.00  0.00    -0.212 OA
ENDBRANCH   5   6
BRANCH   5  14
ATOM     14  C   UNL     1      -0.371  -0.199  -5.016  1.00  0.00     0.048 C 
BRANCH  14  15
ATOM     15  C   UNL     1       0.834  -1.027  -5.448  1.00  0.00     0.139 C 
BRANCH  15  16
ATOM     16  S   UNL     1       0.610  -2.349  -6.633  1.00  0.00     0.147 S 
ATOM     17  C   UNL     1      -0.442  -1.718  -7.917  1.00  0.00     0.158 C 
ATOM     18  O   UNL     1       1.904  -2.592  -7.249  1.00  0.00    -0.229 OA
ATOM     19  O   UNL     1      -0.105  -3.445  -6.018  1.00  0.00    -0.229 OA
ENDBRANCH  15  16
ENDBRANCH  14  15
ENDBRANCH   5  14
ENDBRANCH   3   5
ENDBRANCH   2   3
ENDBRANCH   1   2
BRANCH   1  20
ATOM     20  C   UNL     1      -4.507  -4.225  -4.656  1.00  0.00     0.275 C 
BRANCH  20  21
ATOM     21  O   UNL     1      -5.416  -3.116  -4.528  1.00  0.00    -0.458 OA
BRANCH  21  22
ATOM     22  C   UNL     1      -5.179  -2.303  -3.473  1.00  0.00     0.338 C 
ATOM     23  O   UNL     1      -4.334  -2.429  -2.603  1.00  0.00    -0.246 OA
BRANCH  22  24
ATOM     24  C   UNL     1      -5.997  -1.094  -3.582  1.00  0.00     0.060 A 
ATOM     25  C   UNL     1      -5.337   0.138  -3.528  1.00  0.00     0.016 A 
ATOM     26  C   UNL     1      -7.387  -1.165  -3.643  1.00  0.00     0.016 A 
ATOM     27  C   UNL     1      -6.067   1.316  -3.521  1.00  0.00     0.010 A 
ATOM     28  C   UNL     1      -8.121   0.019  -3.638  1.00  0.00     0.010 A 
ATOM     29  C   UNL     1      -7.464   1.260  -3.561  1.00  0.00    -0.014 A 
BRANCH  29  30
ATOM     30  C   UNL     1      -8.243   2.507  -3.434  1.00  0.00     0.031 A 
ATOM     31  C   UNL     1      -8.948   2.797  -2.144  1.00  0.00     0.074 A 
ATOM     32  C   UNL     1      -8.299   3.361  -4.470  1.00  0.00     0.049 A 
ATOM     33  N   UNL     1      -9.775   3.764  -1.851  1.00  0.00    -0.248 NA
ATOM     34  C   UNL     1      -8.692   1.860  -1.040  1.00  0.00     0.031 C 
ATOM     35  C   UNL     1      -7.596   3.185  -5.742  1.00  0.00     0.029 A 
ATOM     36  N   UNL     1      -8.983   4.536  -4.622  1.00  0.00    -0.354 N 
ATOM     37  C   UNL     1     -10.160   3.542  -0.533  1.00  0.00     0.074 A 
ATOM     38  C   UNL     1      -9.497   2.329  -0.100  1.00  0.00     0.031 C 
ATOM     39  C   UNL     1      -7.895   4.215  -6.550  1.00  0.00     0.029 A 
ATOM     40  C   UNL     1      -8.854   5.084  -5.875  1.00  0.00     0.049 A 
ATOM     41  H   UNL     1      -9.515   4.949  -3.904  1.00  0.00     0.167 HD
ATOM     42  C   UNL     1     -10.990   4.289   0.236  1.00  0.00     0.034 A 
ATOM     43  C   UNL     1      -9.477   6.142  -6.427  1.00  0.00     0.034 A 
ATOM     44  C   UNL     1     -11.644   5.484  -0.242  1.00  0.00     0.049 A 
ATOM     45  C   UNL     1     -10.463   6.909  -5.585  1.00  0.00     0.074 A 
ATOM     46  C   UNL     1     -12.502   6.331   0.435  1.00  0.00     0.029 A 
ATOM     47  N   UNL     1     -11.522   5.994  -1.532  1.00  0.00    -0.354 N 
ATOM     48  N   UNL     1     -10.834   6.691  -4.343  1.00  0.00    -0.248 NA
ATOM     49  C   UNL     1     -11.111   8.064  -6.215  1.00  0.00     0.031 C 
ATOM     50  C   UNL     1     -12.959   7.301  -0.464  1.00  0.00     0.029 A 
ATOM     51  C   UNL     1     -12.317   7.120  -1.679  1.00  0.00     0.049 A 
ATOM     52  H   UNL     1     -10.953   5.610  -2.238  1.00  0.00     0.167 HD
ATOM     53  C   UNL     1     -11.741   7.700  -4.033  1.00  0.00     0.074 A 
ATOM     54  C   UNL     1     -11.847   8.532  -5.217  1.00  0.00     0.031 C 
ATOM     55  C   UNL     1     -12.420   7.924  -2.878  1.00  0.00     0.034 A 
BRANCH  42  56
ATOM     56  C   UNL     1     -11.280   3.784   1.630  1.00  0.00     0.023 A 
ATOM     57  C   UNL     1     -10.264   3.624   2.590  1.00  0.00     0.031 A 
ATOM     58  C   UNL     1     -12.583   3.391   1.985  1.00  0.00     0.131 A 
ATOM     59  C   UNL     1     -10.548   3.000   3.815  1.00  0.00     0.055 A 
ATOM     60  C   UNL     1     -12.876   2.855   3.241  1.00  0.00     0.041 A 
ATOM     61  F   UNL     1     -13.592   3.493   1.106  1.00  0.00    -0.206 F 
ATOM     62  C   UNL     1     -11.852   2.638   4.158  1.00  0.00     0.022 A 
BRANCH  59  63
ATOM     63  S   UNL     1      -9.161   2.505   4.875  1.00  0.00     0.124 S 
ATOM     64  O   UNL     1      -8.387   1.655   3.972  1.00  0.00    -0.237 OA
ATOM     65  O   UNL     1      -8.555   3.786   5.220  1.00  0.00    -0.237 OA
ATOM     66  O   UNL     1      -9.807   1.801   5.980  1.00  0.00    -0.744 OA
ENDBRANCH  59  63
ENDBRANCH  42  56
BRANCH  43  67
ATOM     67  C   UNL     1      -9.221   6.501  -7.850  1.00  0.00     0.023 A 
ATOM     68  C   UNL     1      -8.615   7.718  -8.194  1.00  0.00     0.031 A 
ATOM     69  C   UNL     1      -9.586   5.627  -8.891  1.00  0.00     0.131 A 
ATOM     70  C   UNL     1      -8.417   8.042  -9.546  1.00  0.00     0.055 A 
ATOM     71  C   UNL     1      -9.340   5.931 -10.231  1.00  0.00     0.041 A 
ATOM     72  F   UNL     1     -10.166   4.448  -8.617  1.00  0.00    -0.206 F 
ATOM     73  C   UNL     1      -8.761   7.150 -10.565  1.00  0.00     0.022 A 
BRANCH  70  74
ATOM     74  S   UNL     1      -7.756   9.679  -9.958  1.00  0.00     0.124 S 
ATOM     75  O   UNL     1      -8.756  10.561  -9.366  1.00  0.00    -0.237 OA
ATOM     76  O   UNL     1      -6.453   9.653  -9.302  1.00  0.00    -0.237 OA
ATOM     77  O   UNL     1      -7.715   9.672 -11.419  1.00  0.00    -0.744 OA
ENDBRANCH  70  74
ENDBRANCH  43  67
BRANCH  55  78
ATOM     78  C   UNL     1     -13.302   9.149  -2.833  1.00  0.00     0.023 A 
ATOM     79  C   UNL     1     -14.448   9.267  -3.638  1.00  0.00     0.031 A 
ATOM     80  C   UNL     1     -12.981  10.217  -1.977  1.00  0.00     0.131 A 
ATOM     81  C   UNL     1     -15.197  10.453  -3.614  1.00  0.00     0.055 A 
ATOM     82  C   UNL     1     -13.770  11.365  -1.906  1.00  0.00     0.041 A 
ATOM     83  F   UNL     1     -11.894  10.160  -1.190  1.00  0.00    -0.206 F 
ATOM     84  C   UNL     1     -14.878  11.494  -2.738  1.00  0.00     0.022 A 
BRANCH  81  85
ATOM     85  S   UNL     1     -16.535  10.661  -4.821  1.00  0.00     0.124 S 
ATOM     86  O   UNL     1     -15.824  10.511  -6.087  1.00  0.00    -0.237 OA
ATOM     87  O   UNL     1     -17.446   9.578  -4.468  1.00  0.00    -0.237 OA
ATOM     88  O   UNL     1     -17.036  12.007  -4.548  1.00  0.00    -0.744 OA
ENDBRANCH  81  85
ENDBRANCH  55  78
ENDBRANCH  29  30
ENDBRANCH  22  24
ENDBRANCH  21  22
ENDBRANCH  20  21
ENDBRANCH   1  20
TORSDOF 18
