REMARK SMILES O=C(OCCOC(=O)c1cc(Br)ccc1N1CC2(CCCCC2)C1)c1ccc(-c2c3nc(c(-c4cc(S(=O)(=O)[O-])ccc4F)c4ccc([nH]4)c(-c4cc(S(=O)(=O)[O-])ccc4F)c4nc(c(-c5cc(S(=O)(=O)[O-])ccc5F)c5ccc2[nH]5)C=C4)C=C3)cc1
REMARK SMILES IDX 4 1 3 2 2 3 1 4 25 5 26 6 87 7 27 8 86 9 28 10 29 11 30 12
REMARK SMILES IDX 80 13 31 14 85 15 79 16 81 17 32 18 84 19 78 20 77 21 33 23
REMARK SMILES IDX 65 24 45 25 64 26 46 27 49 28 63 29 82 30 47 31 48 32 62 34
REMARK SMILES IDX 83 35 50 36 34 37 35 38 43 39 36 40 42 41 44 42 41 43 37 44
REMARK SMILES IDX 38 45 39 46 40 47 66 48 67 49 75 50 68 51 74 52 76 53 73 54
REMARK SMILES IDX 69 55 70 56 71 57 72 58 51 59 52 60 60 61 53 62 59 63 61 64
REMARK SMILES IDX 58 65 54 66 55 67 56 68 57 69 5 70 6 71 7 72 8 73 9 74 10 75
REMARK SMILES IDX 15 76 11 77 14 78 12 79 13 80 16 81 17 82 24 83 18 84 19 85
REMARK SMILES IDX 23 86 20 87 22 88 21 89
REMARK H PARENT 81 22 49 33
REMARK Flexibility Score: inf
ROOT
ATOM      1  C   UNL     1       4.738   1.666   1.165  1.00  0.00     0.275 C 
ENDROOT
BRANCH   1   2
ATOM      2  O   UNL     1       5.449   0.785   0.295  1.00  0.00    -0.458 OA
BRANCH   2   3
ATOM      3  C   UNL     1       4.687   0.227  -0.677  1.00  0.00     0.338 C 
ATOM      4  O   UNL     1       3.801   0.788  -1.309  1.00  0.00    -0.246 OA
BRANCH   3   5
ATOM      5  C   UNL     1       4.939  -1.232  -0.655  1.00  0.00     0.060 A 
ATOM      6  C   UNL     1       6.085  -1.721  -0.021  1.00  0.00     0.016 A 
ATOM      7  C   UNL     1       3.964  -2.119  -1.131  1.00  0.00     0.016 A 
ATOM      8  C   UNL     1       6.258  -3.082   0.133  1.00  0.00     0.010 A 
ATOM      9  C   UNL     1       4.108  -3.488  -0.926  1.00  0.00     0.010 A 
ATOM     10  C   UNL     1       5.276  -3.966  -0.323  1.00  0.00    -0.014 A 
BRANCH  10  11
ATOM     11  C   UNL     1       5.624  -5.395  -0.317  1.00  0.00     0.031 A 
ATOM     12  C   UNL     1       6.114  -5.986  -1.601  1.00  0.00     0.074 A 
ATOM     13  C   UNL     1       5.682  -6.048   0.856  1.00  0.00     0.049 A 
ATOM     14  N   UNL     1       6.735  -7.113  -1.803  1.00  0.00    -0.248 NA
ATOM     15  C   UNL     1       5.908  -5.182  -2.819  1.00  0.00     0.031 C 
ATOM     16  C   UNL     1       5.272  -5.491   2.147  1.00  0.00     0.029 A 
ATOM     17  N   UNL     1       6.141  -7.297   1.163  1.00  0.00    -0.354 N 
ATOM     18  C   UNL     1       7.052  -7.122  -3.156  1.00  0.00     0.074 A 
ATOM     19  C   UNL     1       6.465  -5.942  -3.745  1.00  0.00     0.031 C 
ATOM     20  C   UNL     1       5.489  -6.404   3.108  1.00  0.00     0.029 A 
ATOM     21  C   UNL     1       6.051  -7.602   2.500  1.00  0.00     0.049 A 
ATOM     22  H   UNL     1       6.500  -7.920   0.490  1.00  0.00     0.167 HD
ATOM     23  C   UNL     1       7.813  -8.017  -3.828  1.00  0.00     0.034 A 
ATOM     24  C   UNL     1       6.400  -8.727   3.151  1.00  0.00     0.034 A 
ATOM     25  C   UNL     1       8.336  -9.202  -3.202  1.00  0.00     0.049 A 
ATOM     26  C   UNL     1       7.120  -9.781   2.354  1.00  0.00     0.074 A 
ATOM     27  C   UNL     1       9.077 -10.226  -3.758  1.00  0.00     0.029 A 
ATOM     28  N   UNL     1       8.146  -9.526  -1.860  1.00  0.00    -0.354 N 
ATOM     29  N   UNL     1       7.449  -9.765   1.080  1.00  0.00    -0.248 NA
ATOM     30  C   UNL     1       7.558 -10.974   3.080  1.00  0.00     0.031 C 
ATOM     31  C   UNL     1       9.282 -11.195  -2.768  1.00  0.00     0.029 A 
ATOM     32  C   UNL     1       8.729 -10.746  -1.576  1.00  0.00     0.049 A 
ATOM     33  H   UNL     1       7.665  -8.966  -1.208  1.00  0.00     0.167 HD
ATOM     34  C   UNL     1       8.173 -10.930   0.860  1.00  0.00     0.074 A 
ATOM     35  C   UNL     1       8.231 -11.619   2.138  1.00  0.00     0.031 C 
ATOM     36  C   UNL     1       8.749 -11.389  -0.281  1.00  0.00     0.034 A 
BRANCH  23  37
ATOM     37  C   UNL     1       8.048  -7.738  -5.291  1.00  0.00     0.023 A 
ATOM     38  C   UNL     1       8.742  -6.587  -5.716  1.00  0.00     0.031 A 
ATOM     39  C   UNL     1       7.477  -8.561  -6.275  1.00  0.00     0.131 A 
ATOM     40  C   UNL     1       8.767  -6.245  -7.077  1.00  0.00     0.055 A 
ATOM     41  C   UNL     1       7.575  -8.256  -7.635  1.00  0.00     0.041 A 
ATOM     42  F   UNL     1       6.776  -9.652  -5.930  1.00  0.00    -0.206 F 
ATOM     43  C   UNL     1       8.207  -7.084  -8.042  1.00  0.00     0.022 A 
BRANCH  40  44
ATOM     44  S   UNL     1       9.396  -4.609  -7.553  1.00  0.00     0.124 S 
ATOM     45  O   UNL     1       8.460  -3.723  -6.866  1.00  0.00    -0.237 OA
ATOM     46  O   UNL     1      10.758  -4.629  -7.031  1.00  0.00    -0.237 OA
ATOM     47  O   UNL     1       9.287  -4.611  -9.010  1.00  0.00    -0.744 OA
ENDBRANCH  40  44
ENDBRANCH  23  37
BRANCH  24  48
ATOM     48  C   UNL     1       6.069  -8.902   4.594  1.00  0.00     0.023 A 
ATOM     49  C   UNL     1       7.060  -9.018   5.581  1.00  0.00     0.031 A 
ATOM     50  C   UNL     1       4.723  -8.977   5.002  1.00  0.00     0.131 A 
ATOM     51  C   UNL     1       6.692  -9.238   6.920  1.00  0.00     0.055 A 
ATOM     52  C   UNL     1       4.362  -9.155   6.339  1.00  0.00     0.041 A 
ATOM     53  F   UNL     1       3.734  -8.871   4.100  1.00  0.00    -0.206 F 
ATOM     54  C   UNL     1       5.350  -9.299   7.306  1.00  0.00     0.022 A 
BRANCH  51  55
ATOM     55  S   UNL     1       7.996  -9.519   8.151  1.00  0.00     0.124 S 
ATOM     56  O   UNL     1       8.751 -10.611   7.547  1.00  0.00    -0.237 OA
ATOM     57  O   UNL     1       8.661  -8.221   8.185  1.00  0.00    -0.237 OA
ATOM     58  O   UNL     1       7.253  -9.869   9.360  1.00  0.00    -0.744 OA
ENDBRANCH  51  55
ENDBRANCH  24  48
BRANCH  36  59
ATOM     59  C   UNL     1       9.521 -12.674  -0.161  1.00  0.00     0.023 A 
ATOM     60  C   UNL     1       8.874 -13.895   0.080  1.00  0.00     0.031 A 
ATOM     61  C   UNL     1      10.922 -12.666  -0.277  1.00  0.00     0.131 A 
ATOM     62  C   UNL     1       9.634 -15.056   0.261  1.00  0.00     0.055 A 
ATOM     63  C   UNL     1      11.668 -13.837  -0.160  1.00  0.00     0.041 A 
ATOM     64  F   UNL     1      11.583 -11.521  -0.508  1.00  0.00    -0.206 F 
ATOM     65  C   UNL     1      11.025 -15.039   0.124  1.00  0.00     0.022 A 
BRANCH  62  66
ATOM     66  S   UNL     1       8.784 -16.572   0.772  1.00  0.00     0.124 S 
ATOM     67  O   UNL     1       8.195 -16.172   2.046  1.00  0.00    -0.237 OA
ATOM     68  O   UNL     1       7.845 -16.788  -0.324  1.00  0.00    -0.237 OA
ATOM     69  O   UNL     1       9.862 -17.554   0.866  1.00  0.00    -0.744 OA
ENDBRANCH  62  66
ENDBRANCH  36  59
ENDBRANCH  10  11
ENDBRANCH   3   5
ENDBRANCH   2   3
ENDBRANCH   1   2
BRANCH   1  70
ATOM     70  C   UNL     1       4.007   0.876   2.265  1.00  0.00     0.275 C 
BRANCH  70  71
ATOM     71  O   UNL     1       3.348  -0.309   1.763  1.00  0.00    -0.458 OA
BRANCH  71  72
ATOM     72  C   UNL     1       2.079  -0.544   2.175  1.00  0.00     0.340 C 
ATOM     73  O   UNL     1       1.389   0.191   2.861  1.00  0.00    -0.246 OA
BRANCH  72  74
ATOM     74  C   UNL     1       1.691  -1.925   1.804  1.00  0.00     0.084 A 
ATOM     75  C   UNL     1       2.094  -2.955   2.664  1.00  0.00     0.033 A 
ATOM     76  C   UNL     1       0.812  -2.186   0.731  1.00  0.00     0.051 A 
ATOM     77  C   UNL     1       1.632  -4.250   2.441  1.00  0.00     0.018 A 
ATOM     78  C   UNL     1       0.431  -3.511   0.483  1.00  0.00     0.028 A 
ATOM     79  Br  UNL     1       1.972  -5.606   3.714  1.00  0.00    -0.051 Br
ATOM     80  C   UNL     1       0.841  -4.542   1.331  1.00  0.00     0.018 A 
BRANCH  76  81
ATOM     81  N   UNL     1       0.272  -1.141  -0.021  1.00  0.00    -0.370 N 
ATOM     82  C   UNL     1       0.714  -0.603  -1.264  1.00  0.00     0.125 C 
ATOM     83  C   UNL     1      -1.091  -0.783  -0.289  1.00  0.00     0.125 C 
ATOM     84  C   UNL     1      -0.484   0.370  -1.144  1.00  0.00     0.005 C 
ATOM     85  C   UNL     1      -1.093   0.745  -2.491  1.00  0.00     0.011 C 
ATOM     86  C   UNL     1      -0.251   1.624  -0.273  1.00  0.00     0.011 C 
ATOM     87  C   UNL     1      -0.157   1.724  -3.210  1.00  0.00     0.001 C 
ATOM     88  C   UNL     1       0.641   2.630  -0.988  1.00  0.00     0.001 C 
ATOM     89  C   UNL     1       0.102   2.976  -2.372  1.00  0.00     0.000 C 
ENDBRANCH  76  81
ENDBRANCH  72  74
ENDBRANCH  71  72
ENDBRANCH  70  71
ENDBRANCH   1  70
TORSDOF 15
