REMARK SMILES C[C@H](NC(=O)c1ccc(C(C)(C)C)cc1)C(=O)N[C@@H](C(=O)OCCOC(=O)c1ccc(-c2c3nc(c(-c4cc(S(=O)(=O)[O-])ccc4F)c4ccc([nH]4)c(-c4cc(S(=O)(=O)[O-])ccc4F)c4nc(c(-c5cc(S(=O)(=O)[O-])ccc5F)c5ccc2[nH]5)C=C4)C=C3)cc1)[C@H](C)O
REMARK SMILES IDX 23 1 22 2 20 3 21 4 19 5 18 6 16 7 17 8 2 10 1 11 3 12 4 13
REMARK SMILES IDX 5 15 6 16 7 17 15 18 8 19 14 20 9 21 10 22 11 23 12 24 13 25
REMARK SMILES IDX 91 26 92 27 93 28 24 30 25 31 26 32 27 33 28 34 29 35 90 36
REMARK SMILES IDX 30 37 89 38 31 39 32 40 33 41 83 42 34 43 88 44 82 45 84 46
REMARK SMILES IDX 35 47 87 48 81 49 80 50 36 52 68 53 48 54 67 55 49 56 52 57
REMARK SMILES IDX 66 58 85 59 50 60 51 61 65 63 86 64 53 65 37 66 38 67 46 68
REMARK SMILES IDX 39 69 45 70 47 71 44 72 40 73 41 74 42 75 43 76 69 77 70 78
REMARK SMILES IDX 78 79 71 80 77 81 79 82 76 83 72 84 73 85 74 86 75 87 54 88
REMARK SMILES IDX 55 89 63 90 56 91 62 92 64 93 61 94 57 95 58 96 59 97 60 98
REMARK H PARENT 18 9 3 14 93 29 84 51 52 62
REMARK Flexibility Score: inf
ROOT
ATOM      1  C   UNL     1       1.284   3.741   4.430  1.00  0.00     0.274 C 
ENDROOT
BRANCH   1   2
ATOM      2  O   UNL     1       0.138   3.179   3.740  1.00  0.00    -0.460 OA
BRANCH   2   3
ATOM      3  C   UNL     1      -0.965   3.961   3.639  1.00  0.00     0.331 C 
ATOM      4  O   UNL     1      -0.994   5.149   3.957  1.00  0.00    -0.250 OA
BRANCH   3   5
ATOM      5  C   UNL     1      -2.212   3.251   3.044  1.00  0.00     0.221 C 
BRANCH   5   6
ATOM      6  N   UNL     1      -2.292   1.778   3.015  1.00  0.00    -0.339 N 
ATOM      7  C   UNL     1      -2.737   0.862   3.916  1.00  0.00     0.243 C 
ATOM      8  O   UNL     1      -3.061  -0.244   3.471  1.00  0.00    -0.273 OA
ATOM      9  H   UNL     1      -1.957   1.380   2.179  1.00  0.00     0.164 HD
BRANCH   7  10
ATOM     10  C   UNL     1      -2.904   1.159   5.412  1.00  0.00     0.168 C 
ATOM     11  C   UNL     1      -4.213   1.915   5.640  1.00  0.00     0.041 C 
BRANCH  10  12
ATOM     12  N   UNL     1      -1.780   1.818   6.093  1.00  0.00    -0.341 N 
ATOM     13  C   UNL     1      -0.615   1.215   6.544  1.00  0.00     0.251 C 
ATOM     14  H   UNL     1      -1.863   2.788   6.245  1.00  0.00     0.164 HD
ATOM     15  O   UNL     1      -0.122   1.613   7.599  1.00  0.00    -0.269 OA
BRANCH  13  16
ATOM     16  C   UNL     1       0.104   0.172   5.760  1.00  0.00     0.039 A 
ATOM     17  C   UNL     1       0.908  -0.789   6.371  1.00  0.00     0.014 A 
ATOM     18  C   UNL     1       0.168   0.259   4.380  1.00  0.00     0.014 A 
ATOM     19  C   UNL     1       1.693  -1.664   5.587  1.00  0.00     0.005 A 
ATOM     20  C   UNL     1       0.922  -0.601   3.596  1.00  0.00     0.005 A 
ATOM     21  C   UNL     1       1.696  -1.598   4.177  1.00  0.00    -0.043 A 
BRANCH  21  22
ATOM     22  C   UNL     1       2.552  -2.512   3.288  1.00  0.00    -0.013 C 
ATOM     23  C   UNL     1       4.009  -2.017   3.334  1.00  0.00     0.016 C 
ATOM     24  C   UNL     1       2.476  -3.972   3.772  1.00  0.00     0.016 C 
ATOM     25  C   UNL     1       2.105  -2.515   1.801  1.00  0.00     0.016 C 
ENDBRANCH  21  22
ENDBRANCH  13  16
ENDBRANCH  10  12
ENDBRANCH   7  10
ENDBRANCH   5   6
BRANCH   5  26
ATOM     26  C   UNL     1      -2.595   3.864   1.648  1.00  0.00     0.145 C 
ATOM     27  C   UNL     1      -2.538   2.893   0.462  1.00  0.00     0.041 C 
BRANCH  26  28
ATOM     28  O   UNL     1      -1.785   4.981   1.285  1.00  0.00    -0.391 OA
ATOM     29  H   UNL     1      -0.873   4.685   1.140  1.00  0.00     0.211 HD
ENDBRANCH  26  28
ENDBRANCH   5  26
ENDBRANCH   3   5
ENDBRANCH   2   3
ENDBRANCH   1   2
BRANCH   1  30
ATOM     30  C   UNL     1       2.579   3.142   3.878  1.00  0.00     0.275 C 
BRANCH  30  31
ATOM     31  O   UNL     1       2.706   3.623   2.533  1.00  0.00    -0.458 OA
BRANCH  31  32
ATOM     32  C   UNL     1       3.017   2.711   1.585  1.00  0.00     0.338 C 
ATOM     33  O   UNL     1       3.523   1.617   1.735  1.00  0.00    -0.246 OA
BRANCH  32  34
ATOM     34  C   UNL     1       2.501   3.242   0.312  1.00  0.00     0.060 A 
ATOM     35  C   UNL     1       1.151   3.590   0.257  1.00  0.00     0.016 A 
ATOM     36  C   UNL     1       3.298   3.333  -0.826  1.00  0.00     0.016 A 
ATOM     37  C   UNL     1       0.582   3.982  -0.946  1.00  0.00     0.010 A 
ATOM     38  C   UNL     1       2.731   3.787  -2.026  1.00  0.00     0.010 A 
ATOM     39  C   UNL     1       1.356   4.081  -2.105  1.00  0.00    -0.014 A 
BRANCH  39  40
ATOM     40  C   UNL     1       0.671   4.364  -3.398  1.00  0.00     0.031 A 
ATOM     41  C   UNL     1       0.671   3.314  -4.478  1.00  0.00     0.074 A 
ATOM     42  C   UNL     1      -0.049   5.492  -3.564  1.00  0.00     0.049 A 
ATOM     43  N   UNL     1       0.223   3.384  -5.705  1.00  0.00    -0.248 NA
ATOM     44  C   UNL     1       1.262   2.013  -4.129  1.00  0.00     0.031 C 
ATOM     45  C   UNL     1      -0.216   6.546  -2.560  1.00  0.00     0.029 A 
ATOM     46  N   UNL     1      -0.807   5.926  -4.624  1.00  0.00    -0.354 N 
ATOM     47  C   UNL     1       0.528   2.159  -6.292  1.00  0.00     0.074 A 
ATOM     48  C   UNL     1       1.205   1.370  -5.285  1.00  0.00     0.031 C 
ATOM     49  C   UNL     1      -1.065   7.473  -3.031  1.00  0.00     0.029 A 
ATOM     50  C   UNL     1      -1.435   7.131  -4.400  1.00  0.00     0.049 A 
ATOM     51  H   UNL     1      -0.894   5.423  -5.466  1.00  0.00     0.167 HD
ATOM     52  C   UNL     1       0.269   1.735  -7.554  1.00  0.00     0.034 A 
ATOM     53  C   UNL     1      -2.196   7.890  -5.214  1.00  0.00     0.034 A 
ATOM     54  C   UNL     1      -0.446   2.520  -8.532  1.00  0.00     0.049 A 
ATOM     55  C   UNL     1      -2.444   7.413  -6.622  1.00  0.00     0.074 A 
ATOM     56  C   UNL     1      -0.723   2.215  -9.853  1.00  0.00     0.029 A 
ATOM     57  N   UNL     1      -1.017   3.763  -8.287  1.00  0.00    -0.354 N 
ATOM     58  N   UNL     1      -2.043   6.305  -7.202  1.00  0.00    -0.248 NA
ATOM     59  C   UNL     1      -3.235   8.297  -7.488  1.00  0.00     0.031 C 
ATOM     60  C   UNL     1      -1.420   3.290 -10.418  1.00  0.00     0.029 A 
ATOM     61  C   UNL     1      -1.636   4.240  -9.432  1.00  0.00     0.049 A 
ATOM     62  H   UNL     1      -0.987   4.236  -7.424  1.00  0.00     0.167 HD
ATOM     63  C   UNL     1      -2.535   6.361  -8.503  1.00  0.00     0.074 A 
ATOM     64  C   UNL     1      -3.293   7.591  -8.607  1.00  0.00     0.031 C 
ATOM     65  C   UNL     1      -2.367   5.481  -9.524  1.00  0.00     0.034 A 
BRANCH  52  66
ATOM     66  C   UNL     1       0.841   0.399  -7.960  1.00  0.00     0.023 A 
ATOM     67  C   UNL     1       0.410  -0.809  -7.385  1.00  0.00     0.031 A 
ATOM     68  C   UNL     1       1.885   0.343  -8.902  1.00  0.00     0.131 A 
ATOM     69  C   UNL     1       1.068  -2.009  -7.702  1.00  0.00     0.055 A 
ATOM     70  C   UNL     1       2.483  -0.862  -9.272  1.00  0.00     0.041 A 
ATOM     71  F   UNL     1       2.356   1.467  -9.466  1.00  0.00    -0.206 F 
ATOM     72  C   UNL     1       2.086  -2.046  -8.659  1.00  0.00     0.022 A 
BRANCH  69  73
ATOM     73  S   UNL     1       0.678  -3.497  -6.739  1.00  0.00     0.124 S 
ATOM     74  O   UNL     1       0.994  -3.061  -5.381  1.00  0.00    -0.237 OA
ATOM     75  O   UNL     1      -0.735  -3.701  -7.033  1.00  0.00    -0.237 OA
ATOM     76  O   UNL     1       1.582  -4.506  -7.287  1.00  0.00    -0.744 OA
ENDBRANCH  69  73
ENDBRANCH  52  66
BRANCH  53  77
ATOM     77  C   UNL     1      -2.719   9.210  -4.752  1.00  0.00     0.023 A 
ATOM     78  C   UNL     1      -4.098   9.461  -4.662  1.00  0.00     0.031 A 
ATOM     79  C   UNL     1      -1.837  10.260  -4.436  1.00  0.00     0.131 A 
ATOM     80  C   UNL     1      -4.554  10.739  -4.299  1.00  0.00     0.055 A 
ATOM     81  C   UNL     1      -2.295  11.512  -4.024  1.00  0.00     0.041 A 
ATOM     82  F   UNL     1      -0.509  10.078  -4.512  1.00  0.00    -0.206 F 
ATOM     83  C   UNL     1      -3.661  11.761  -3.965  1.00  0.00     0.022 A 
BRANCH  80  84
ATOM     84  S   UNL     1      -6.336  11.076  -4.343  1.00  0.00     0.124 S 
ATOM     85  O   UNL     1      -6.660  10.787  -5.736  1.00  0.00    -0.237 OA
ATOM     86  O   UNL     1      -6.848  10.132  -3.355  1.00  0.00    -0.237 OA
ATOM     87  O   UNL     1      -6.426  12.484  -3.961  1.00  0.00    -0.744 OA
ENDBRANCH  80  84
ENDBRANCH  53  77
BRANCH  65  88
ATOM     88  C   UNL     1      -3.043   5.826 -10.827  1.00  0.00     0.023 A 
ATOM     89  C   UNL     1      -2.632   6.928 -11.598  1.00  0.00     0.031 A 
ATOM     90  C   UNL     1      -4.139   5.072 -11.279  1.00  0.00     0.131 A 
ATOM     91  C   UNL     1      -3.355   7.286 -12.745  1.00  0.00     0.055 A 
ATOM     92  C   UNL     1      -4.820   5.400 -12.452  1.00  0.00     0.041 A 
ATOM     93  F   UNL     1      -4.574   4.011 -10.580  1.00  0.00    -0.206 F 
ATOM     94  C   UNL     1      -4.439   6.522 -13.183  1.00  0.00     0.022 A 
BRANCH  91  95
ATOM     95  S   UNL     1      -2.929   8.832 -13.594  1.00  0.00     0.124 S 
ATOM     96  O   UNL     1      -3.026   9.810 -12.515  1.00  0.00    -0.237 OA
ATOM     97  O   UNL     1      -1.584   8.556 -14.086  1.00  0.00    -0.237 OA
ATOM     98  O   UNL     1      -3.956   8.948 -14.628  1.00  0.00    -0.744 OA
ENDBRANCH  91  95
ENDBRANCH  65  88
ENDBRANCH  39  40
ENDBRANCH  32  34
ENDBRANCH  31  32
ENDBRANCH  30  31
ENDBRANCH   1  30
TORSDOF 21
