REMARK SMILES CN(C)c1nccnc1N1CCC(Oc2ccc3ccccc3c2)(C(=O)OCCOC(=O)c2ccc(-c3c4nc(c(-c5cc(S(=O)(=O)[O-])ccc5F)c5ccc([nH]5)c(-c5cc(S(=O)(=O)[O-])ccc5F)c5nc(c(-c6cc(S(=O)(=O)[O-])ccc6F)c6ccc3[nH]6)C=C5)C=C4)cc2)CC1
REMARK SMILES IDX 29 1 28 2 27 3 25 4 26 5 13 6 10 7 11 8 97 9 12 10 96 11
REMARK SMILES IDX 9 12 4 13 5 14 6 15 8 16 7 17 2 18 1 19 3 20 14 21 15 22
REMARK SMILES IDX 16 23 24 24 17 25 23 26 18 27 22 28 19 29 21 30 20 31 30 32
REMARK SMILES IDX 31 33 32 34 33 35 34 36 95 37 35 38 94 39 36 40 37 41 38 42
REMARK SMILES IDX 88 43 39 44 93 45 87 46 89 47 40 48 92 49 86 50 85 51 41 53
REMARK SMILES IDX 73 54 53 55 72 56 54 57 57 58 71 59 90 60 55 61 56 62 70 64
REMARK SMILES IDX 91 65 58 66 42 67 43 68 51 69 44 70 50 71 52 72 49 73 45 74
REMARK SMILES IDX 46 75 47 76 48 77 74 78 75 79 83 80 76 81 82 82 84 83 81 84
REMARK SMILES IDX 77 85 78 86 79 87 80 88 59 89 60 90 68 91 61 92 67 93 69 94
REMARK SMILES IDX 66 95 62 96 63 97 64 98 65 99
REMARK H PARENT 89 52 57 63
REMARK Flexibility Score: inf
ROOT
ATOM      1  C   UNL     1      -5.403  -0.082   3.696  1.00  0.00     0.275 C 
ENDROOT
BRANCH   1   2
ATOM      2  C   UNL     1      -6.147  -1.383   3.417  1.00  0.00     0.274 C 
BRANCH   2   3
ATOM      3  O   UNL     1      -5.252  -2.465   3.088  1.00  0.00    -0.459 OA
BRANCH   3   4
ATOM      4  C   UNL     1      -5.118  -2.741   1.758  1.00  0.00     0.350 C 
ATOM      5  O   UNL     1      -5.587  -2.026   0.876  1.00  0.00    -0.247 OA
BRANCH   4   6
ATOM      6  C   UNL     1      -4.442  -4.101   1.479  1.00  0.00     0.209 C 
ATOM      7  N   UNL     1      -1.617  -4.048   1.526  1.00  0.00    -0.353 N 
ATOM      8  C   UNL     1      -2.257  -3.968   2.817  1.00  0.00     0.123 C 
ATOM      9  C   UNL     1      -2.242  -3.306   0.453  1.00  0.00     0.123 C 
ATOM     10  C   UNL     1      -3.622  -4.633   2.679  1.00  0.00     0.082 C 
ATOM     11  C   UNL     1      -3.593  -3.956   0.185  1.00  0.00     0.082 C 
BRANCH   7  12
ATOM     12  C   UNL     1      -0.242  -4.192   1.450  1.00  0.00     0.171 A 
ATOM     13  C   UNL     1       0.669  -3.096   1.444  1.00  0.00     0.171 A 
ATOM     14  N   UNL     1       1.983  -3.284   1.179  1.00  0.00    -0.234 NA
ATOM     15  C   UNL     1       2.379  -4.535   0.886  1.00  0.00     0.134 A 
ATOM     16  N   UNL     1       0.191  -5.460   1.222  1.00  0.00    -0.234 NA
ATOM     17  C   UNL     1       1.503  -5.598   0.919  1.00  0.00     0.134 A 
BRANCH  13  18
ATOM     18  N   UNL     1       0.245  -1.774   1.681  1.00  0.00    -0.360 N 
ATOM     19  C   UNL     1       0.918  -0.831   0.803  1.00  0.00     0.145 C 
ATOM     20  C   UNL     1       0.285  -1.430   3.094  1.00  0.00     0.145 C 
ENDBRANCH  13  18
ENDBRANCH   7  12
BRANCH   6  21
ATOM     21  O   UNL     1      -5.660  -4.907   1.318  1.00  0.00    -0.475 OA
BRANCH  21  22
ATOM     22  C   UNL     1      -5.545  -6.018   0.532  1.00  0.00     0.121 A 
ATOM     23  C   UNL     1      -5.021  -7.199   1.043  1.00  0.00     0.047 A 
ATOM     24  C   UNL     1      -6.023  -5.970  -0.778  1.00  0.00     0.055 A 
ATOM     25  C   UNL     1      -4.870  -8.309   0.214  1.00  0.00     0.012 A 
ATOM     26  C   UNL     1      -5.899  -7.089  -1.621  1.00  0.00    -0.015 A 
ATOM     27  C   UNL     1      -5.295  -8.267  -1.120  1.00  0.00    -0.018 A 
ATOM     28  C   UNL     1      -6.348  -7.068  -2.951  1.00  0.00     0.009 A 
ATOM     29  C   UNL     1      -5.137  -9.377  -1.964  1.00  0.00     0.009 A 
ATOM     30  C   UNL     1      -6.194  -8.185  -3.775  1.00  0.00     0.001 A 
ATOM     31  C   UNL     1      -5.584  -9.336  -3.284  1.00  0.00     0.001 A 
ENDBRANCH  21  22
ENDBRANCH   6  21
ENDBRANCH   4   6
ENDBRANCH   3   4
ENDBRANCH   2   3
ENDBRANCH   1   2
BRANCH   1  32
ATOM     32  O   UNL     1      -4.761   0.396   2.503  1.00  0.00    -0.458 OA
BRANCH  32  33
ATOM     33  C   UNL     1      -3.409   0.423   2.546  1.00  0.00     0.338 C 
ATOM     34  O   UNL     1      -2.699   0.122   3.490  1.00  0.00    -0.246 OA
BRANCH  33  35
ATOM     35  C   UNL     1      -2.875   0.918   1.266  1.00  0.00     0.060 A 
ATOM     36  C   UNL     1      -3.033   0.166   0.105  1.00  0.00     0.016 A 
ATOM     37  C   UNL     1      -2.091   2.071   1.254  1.00  0.00     0.016 A 
ATOM     38  C   UNL     1      -2.293   0.486  -1.032  1.00  0.00     0.010 A 
ATOM     39  C   UNL     1      -1.447   2.458   0.074  1.00  0.00     0.010 A 
ATOM     40  C   UNL     1      -1.492   1.639  -1.066  1.00  0.00    -0.014 A 
BRANCH  40  41
ATOM     41  C   UNL     1      -0.726   1.978  -2.298  1.00  0.00     0.031 A 
ATOM     42  C   UNL     1       0.782   1.991  -2.311  1.00  0.00     0.074 A 
ATOM     43  C   UNL     1      -1.396   2.223  -3.442  1.00  0.00     0.049 A 
ATOM     44  N   UNL     1       1.597   2.053  -3.334  1.00  0.00    -0.248 NA
ATOM     45  C   UNL     1       1.473   1.866  -1.022  1.00  0.00     0.031 C 
ATOM     46  C   UNL     1      -2.853   2.200  -3.594  1.00  0.00     0.029 A 
ATOM     47  N   UNL     1      -0.937   2.554  -4.691  1.00  0.00    -0.354 N 
ATOM     48  C   UNL     1       2.873   1.845  -2.820  1.00  0.00     0.074 A 
ATOM     49  C   UNL     1       2.736   1.708  -1.389  1.00  0.00     0.031 C 
ATOM     50  C   UNL     1      -3.166   2.521  -4.858  1.00  0.00     0.029 A 
ATOM     51  C   UNL     1      -1.942   2.842  -5.582  1.00  0.00     0.049 A 
ATOM     52  H   UNL     1       0.018   2.583  -4.925  1.00  0.00     0.167 HD
ATOM     53  C   UNL     1       4.059   1.801  -3.471  1.00  0.00     0.034 A 
ATOM     54  C   UNL     1      -1.887   3.372  -6.819  1.00  0.00     0.034 A 
ATOM     55  C   UNL     1       4.221   2.203  -4.844  1.00  0.00     0.049 A 
ATOM     56  C   UNL     1      -0.539   3.671  -7.414  1.00  0.00     0.074 A 
ATOM     57  C   UNL     1       5.383   2.303  -5.588  1.00  0.00     0.029 A 
ATOM     58  N   UNL     1       3.193   2.678  -5.646  1.00  0.00    -0.354 N 
ATOM     59  N   UNL     1       0.652   3.383  -6.942  1.00  0.00    -0.248 NA
ATOM     60  C   UNL     1      -0.525   4.386  -8.695  1.00  0.00     0.031 C 
ATOM     61  C   UNL     1       5.071   2.945  -6.794  1.00  0.00     0.029 A 
ATOM     62  C   UNL     1       3.703   3.172  -6.834  1.00  0.00     0.049 A 
ATOM     63  H   UNL     1       2.238   2.666  -5.404  1.00  0.00     0.167 HD
ATOM     64  C   UNL     1       1.559   3.867  -7.878  1.00  0.00     0.074 A 
ATOM     65  C   UNL     1       0.776   4.464  -8.942  1.00  0.00     0.031 C 
ATOM     66  C   UNL     1       2.916   3.809  -7.864  1.00  0.00     0.034 A 
BRANCH  53  67
ATOM     67  C   UNL     1       5.272   1.427  -2.662  1.00  0.00     0.023 A 
ATOM     68  C   UNL     1       5.517   0.094  -2.278  1.00  0.00     0.031 A 
ATOM     69  C   UNL     1       6.180   2.416  -2.248  1.00  0.00     0.131 A 
ATOM     70  C   UNL     1       6.641  -0.211  -1.490  1.00  0.00     0.055 A 
ATOM     71  C   UNL     1       7.306   2.104  -1.486  1.00  0.00     0.041 A 
ATOM     72  F   UNL     1       5.972   3.704  -2.562  1.00  0.00    -0.206 F 
ATOM     73  C   UNL     1       7.540   0.787  -1.100  1.00  0.00     0.022 A 
BRANCH  70  74
ATOM     74  S   UNL     1       6.903  -1.922  -0.936  1.00  0.00     0.124 S 
ATOM     75  O   UNL     1       5.678  -2.198  -0.192  1.00  0.00    -0.237 OA
ATOM     76  O   UNL     1       7.060  -2.641  -2.195  1.00  0.00    -0.237 OA
ATOM     77  O   UNL     1       8.111  -1.835  -0.117  1.00  0.00    -0.744 OA
ENDBRANCH  70  74
ENDBRANCH  53  67
BRANCH  54  78
ATOM     78  C   UNL     1      -3.148   3.766  -7.507  1.00  0.00     0.023 A 
ATOM     79  C   UNL     1      -3.555   3.166  -8.705  1.00  0.00     0.031 A 
ATOM     80  C   UNL     1      -3.966   4.774  -6.957  1.00  0.00     0.131 A 
ATOM     81  C   UNL     1      -4.748   3.583  -9.319  1.00  0.00     0.055 A 
ATOM     82  C   UNL     1      -5.171   5.152  -7.547  1.00  0.00     0.041 A 
ATOM     83  F   UNL     1      -3.614   5.388  -5.816  1.00  0.00    -0.206 F 
ATOM     84  C   UNL     1      -5.565   4.559  -8.740  1.00  0.00     0.022 A 
BRANCH  81  85
ATOM     85  S   UNL     1      -5.202   2.867 -10.923  1.00  0.00     0.124 S 
ATOM     86  O   UNL     1      -4.045   3.212 -11.742  1.00  0.00    -0.237 OA
ATOM     87  O   UNL     1      -5.356   1.454 -10.591  1.00  0.00    -0.237 OA
ATOM     88  O   UNL     1      -6.440   3.562 -11.268  1.00  0.00    -0.744 OA
ENDBRANCH  81  85
ENDBRANCH  54  78
BRANCH  66  89
ATOM     89  C   UNL     1       3.632   4.409  -9.043  1.00  0.00     0.023 A 
ATOM     90  C   UNL     1       3.660   5.798  -9.254  1.00  0.00     0.031 A 
ATOM     91  C   UNL     1       4.283   3.580  -9.973  1.00  0.00     0.131 A 
ATOM     92  C   UNL     1       4.291   6.316 -10.395  1.00  0.00     0.055 A 
ATOM     93  C   UNL     1       4.952   4.105 -11.079  1.00  0.00     0.041 A 
ATOM     94  F   UNL     1       4.282   2.247  -9.818  1.00  0.00    -0.206 F 
ATOM     95  C   UNL     1       4.950   5.480 -11.300  1.00  0.00     0.022 A 
BRANCH  92  96
ATOM     96  S   UNL     1       4.180   8.097 -10.719  1.00  0.00     0.124 S 
ATOM     97  O   UNL     1       2.741   8.290 -10.865  1.00  0.00    -0.237 OA
ATOM     98  O   UNL     1       4.782   8.673  -9.521  1.00  0.00    -0.237 OA
ATOM     99  O   UNL     1       4.956   8.271 -11.946  1.00  0.00    -0.744 OA
ENDBRANCH  92  96
ENDBRANCH  66  89
ENDBRANCH  40  41
ENDBRANCH  33  35
ENDBRANCH  32  33
ENDBRANCH   1  32
TORSDOF 18
