REMARK SMILES [NH3+][C@]1(C(=O)OCCOC(=O)c2ccc(-c3c4nc(c(-c5cc(S(=O)(=O)[O-])ccc5F)c5ccc([nH]5)c(-c5cc(S(=O)(=O)[O-])ccc5F)c5nc(c(-c6cc(S(=O)(=O)[O-])ccc6F)c6ccc3[nH]6)C=C5)C=C4)cc2)CCC[C@@H]1CCn1cc(I)cn1
REMARK SMILES IDX 6 1 5 2 3 3 4 4 2 5 74 6 77 7 75 8 76 9 1 10 78 14 79 15
REMARK SMILES IDX 80 16 81 17 85 18 82 19 84 20 83 21 7 22 8 23 9 24 10 25
REMARK SMILES IDX 11 26 12 27 73 28 13 29 72 30 14 31 15 32 16 33 66 34 17 35
REMARK SMILES IDX 71 36 65 37 67 38 18 39 70 40 64 41 63 42 19 44 51 45 31 46
REMARK SMILES IDX 50 47 32 48 35 49 49 50 68 51 33 52 34 53 48 55 69 56 36 57
REMARK SMILES IDX 20 58 21 59 29 60 22 61 28 62 30 63 27 64 23 65 24 66 25 67
REMARK SMILES IDX 26 68 52 69 53 70 61 71 54 72 60 73 62 74 59 75 55 76 56 77
REMARK SMILES IDX 57 78 58 79 37 80 38 81 46 82 39 83 45 84 47 85 44 86 40 87
REMARK SMILES IDX 41 88 42 89 43 90
REMARK H PARENT 1 11 1 12 1 13 67 43 35 54
REMARK Flexibility Score: inf
ROOT
ATOM      1  C   UNL     1       1.884   1.852   0.059  1.00  0.00     0.274 C 
ENDROOT
BRANCH   1   2
ATOM      2  O   UNL     1       1.643   0.573   0.681  1.00  0.00    -0.457 OA
BRANCH   2   3
ATOM      3  C   UNL     1       0.364   0.109   0.642  1.00  0.00     0.368 C 
ATOM      4  O   UNL     1      -0.570   0.694   0.098  1.00  0.00    -0.245 OA
BRANCH   3   5
ATOM      5  C   UNL     1       0.198  -1.281   1.315  1.00  0.00     0.195 C 
ATOM      6  C   UNL     1       0.352  -2.390   0.266  1.00  0.00     0.081 C 
ATOM      7  C   UNL     1       1.301  -1.665   2.329  1.00  0.00     0.064 C 
ATOM      8  C   UNL     1       0.621  -3.661   1.052  1.00  0.00     0.008 C 
ATOM      9  C   UNL     1       1.298  -3.208   2.342  1.00  0.00     0.011 C 
BRANCH   5  10
ATOM     10  N   UNL     1      -1.147  -1.351   1.946  1.00  0.00    -0.343 N 
ATOM     11  H   UNL     1      -1.266  -2.260   2.392  1.00  0.00     0.345 HD
ATOM     12  H   UNL     1      -1.864  -1.225   1.232  1.00  0.00     0.345 HD
ATOM     13  H   UNL     1      -1.232  -0.615   2.648  1.00  0.00     0.345 HD
ENDBRANCH   5  10
BRANCH   7  14
ATOM     14  C   UNL     1       1.209  -0.906   3.675  1.00  0.00     0.034 C 
BRANCH  14  15
ATOM     15  C   UNL     1       0.828  -1.710   4.921  1.00  0.00     0.145 C 
BRANCH  15  16
ATOM     16  N   UNL     1       1.809  -2.679   5.379  1.00  0.00    -0.272 N 
ATOM     17  C   UNL     1       3.149  -2.725   5.106  1.00  0.00     0.123 A 
ATOM     18  N   UNL     1       1.390  -3.720   6.136  1.00  0.00    -0.180 NA
ATOM     19  C   UNL     1       3.587  -3.916   5.620  1.00  0.00     0.051 A 
ATOM     20  C   UNL     1       2.477  -4.491   6.245  1.00  0.00     0.149 A 
ATOM     21  I   UNL     1       5.445  -4.661   5.456  1.00  0.00    -0.041 I 
ENDBRANCH  15  16
ENDBRANCH  14  15
ENDBRANCH   7  14
ENDBRANCH   3   5
ENDBRANCH   2   3
ENDBRANCH   1   2
BRANCH   1  22
ATOM     22  C   UNL     1       2.643   1.679  -1.252  1.00  0.00     0.275 C 
BRANCH  22  23
ATOM     23  O   UNL     1       1.837   0.925  -2.170  1.00  0.00    -0.458 OA
BRANCH  23  24
ATOM     24  C   UNL     1       2.362  -0.255  -2.573  1.00  0.00     0.338 C 
ATOM     25  O   UNL     1       3.461  -0.706  -2.303  1.00  0.00    -0.246 OA
BRANCH  24  26
ATOM     26  C   UNL     1       1.379  -0.972  -3.400  1.00  0.00     0.060 A 
ATOM     27  C   UNL     1       0.116  -1.264  -2.885  1.00  0.00     0.016 A 
ATOM     28  C   UNL     1       1.764  -1.474  -4.641  1.00  0.00     0.016 A 
ATOM     29  C   UNL     1      -0.718  -2.159  -3.550  1.00  0.00     0.010 A 
ATOM     30  C   UNL     1       0.873  -2.271  -5.362  1.00  0.00     0.010 A 
ATOM     31  C   UNL     1      -0.362  -2.659  -4.809  1.00  0.00    -0.014 A 
BRANCH  31  32
ATOM     32  C   UNL     1      -1.237  -3.612  -5.549  1.00  0.00     0.031 A 
ATOM     33  C   UNL     1      -0.670  -4.928  -6.011  1.00  0.00     0.074 A 
ATOM     34  C   UNL     1      -2.514  -3.298  -5.846  1.00  0.00     0.049 A 
ATOM     35  N   UNL     1      -1.101  -5.740  -6.941  1.00  0.00    -0.248 NA
ATOM     36  C   UNL     1       0.568  -5.370  -5.351  1.00  0.00     0.031 C 
ATOM     37  C   UNL     1      -3.226  -2.101  -5.396  1.00  0.00     0.029 A 
ATOM     38  N   UNL     1      -3.438  -3.959  -6.620  1.00  0.00    -0.354 N 
ATOM     39  C   UNL     1      -0.146  -6.749  -7.035  1.00  0.00     0.074 A 
ATOM     40  C   UNL     1       0.880  -6.446  -6.059  1.00  0.00     0.031 C 
ATOM     41  C   UNL     1      -4.473  -2.117  -5.890  1.00  0.00     0.029 A 
ATOM     42  C   UNL     1      -4.612  -3.260  -6.783  1.00  0.00     0.049 A 
ATOM     43  H   UNL     1      -3.275  -4.844  -7.018  1.00  0.00     0.167 HD
ATOM     44  C   UNL     1      -0.128  -7.816  -7.873  1.00  0.00     0.034 A 
ATOM     45  C   UNL     1      -5.652  -3.465  -7.615  1.00  0.00     0.034 A 
ATOM     46  C   UNL     1      -1.193  -8.118  -8.800  1.00  0.00     0.049 A 
ATOM     47  C   UNL     1      -5.599  -4.626  -8.570  1.00  0.00     0.074 A 
ATOM     48  C   UNL     1      -1.288  -9.166  -9.700  1.00  0.00     0.029 A 
ATOM     49  N   UNL     1      -2.360  -7.375  -8.935  1.00  0.00    -0.354 N 
ATOM     50  N   UNL     1      -4.644  -5.511  -8.738  1.00  0.00    -0.248 NA
ATOM     51  C   UNL     1      -6.752  -4.805  -9.460  1.00  0.00     0.031 C 
ATOM     52  C   UNL     1      -2.487  -9.030 -10.409  1.00  0.00     0.029 A 
ATOM     53  C   UNL     1      -3.172  -7.934  -9.909  1.00  0.00     0.049 A 
ATOM     54  H   UNL     1      -2.578  -6.569  -8.414  1.00  0.00     0.167 HD
ATOM     55  C   UNL     1      -5.091  -6.363  -9.742  1.00  0.00     0.074 A 
ATOM     56  C   UNL     1      -6.402  -5.890 -10.136  1.00  0.00     0.031 C 
ATOM     57  C   UNL     1      -4.475  -7.443 -10.287  1.00  0.00     0.034 A 
BRANCH  44  58
ATOM     58  C   UNL     1       1.112  -8.679  -7.875  1.00  0.00     0.023 A 
ATOM     59  C   UNL     1       1.506  -9.433  -6.757  1.00  0.00     0.031 A 
ATOM     60  C   UNL     1       1.941  -8.707  -9.012  1.00  0.00     0.131 A 
ATOM     61  C   UNL     1       2.731 -10.119  -6.772  1.00  0.00     0.055 A 
ATOM     62  C   UNL     1       3.119  -9.457  -9.049  1.00  0.00     0.041 A 
ATOM     63  F   UNL     1       1.630  -7.990 -10.103  1.00  0.00    -0.206 F 
ATOM     64  C   UNL     1       3.529 -10.155  -7.918  1.00  0.00     0.022 A 
BRANCH  61  65
ATOM     65  S   UNL     1       3.342 -10.838  -5.222  1.00  0.00     0.124 S 
ATOM     66  O   UNL     1       3.381  -9.667  -4.349  1.00  0.00    -0.237 OA
ATOM     67  O   UNL     1       2.322 -11.833  -4.913  1.00  0.00    -0.237 OA
ATOM     68  O   UNL     1       4.651 -11.377  -5.586  1.00  0.00    -0.744 OA
ENDBRANCH  61  65
ENDBRANCH  44  58
BRANCH  45  69
ATOM     69  C   UNL     1      -6.781  -2.494  -7.647  1.00  0.00     0.023 A 
ATOM     70  C   UNL     1      -8.069  -2.864  -7.233  1.00  0.00     0.031 A 
ATOM     71  C   UNL     1      -6.584  -1.174  -8.097  1.00  0.00     0.131 A 
ATOM     72  C   UNL     1      -9.116  -1.931  -7.296  1.00  0.00     0.055 A 
ATOM     73  C   UNL     1      -7.617  -0.237  -8.111  1.00  0.00     0.041 A 
ATOM     74  F   UNL     1      -5.369  -0.769  -8.502  1.00  0.00    -0.206 F 
ATOM     75  C   UNL     1      -8.895  -0.616  -7.717  1.00  0.00     0.022 A 
BRANCH  72  76
ATOM     76  S   UNL     1     -10.792  -2.475  -6.868  1.00  0.00     0.124 S 
ATOM     77  O   UNL     1     -11.019  -3.533  -7.846  1.00  0.00    -0.237 OA
ATOM     78  O   UNL     1     -10.627  -2.905  -5.483  1.00  0.00    -0.237 OA
ATOM     79  O   UNL     1     -11.598  -1.270  -7.052  1.00  0.00    -0.744 OA
ENDBRANCH  72  76
ENDBRANCH  45  69
BRANCH  57  80
ATOM     80  C   UNL     1      -5.249  -8.216 -11.320  1.00  0.00     0.023 A 
ATOM     81  C   UNL     1      -5.465  -7.713 -12.614  1.00  0.00     0.031 A 
ATOM     82  C   UNL     1      -5.779  -9.477 -10.997  1.00  0.00     0.131 A 
ATOM     83  C   UNL     1      -6.228  -8.454 -13.529  1.00  0.00     0.055 A 
ATOM     84  C   UNL     1      -6.500 -10.229 -11.924  1.00  0.00     0.041 A 
ATOM     85  F   UNL     1      -5.600  -9.998  -9.772  1.00  0.00    -0.206 F 
ATOM     86  C   UNL     1      -6.735  -9.714 -13.196  1.00  0.00     0.022 A 
BRANCH  83  87
ATOM     87  S   UNL     1      -6.600  -7.727 -15.148  1.00  0.00     0.124 S 
ATOM     88  O   UNL     1      -7.370  -6.543 -14.779  1.00  0.00    -0.237 OA
ATOM     89  O   UNL     1      -5.269  -7.477 -15.694  1.00  0.00    -0.237 OA
ATOM     90  O   UNL     1      -7.359  -8.774 -15.829  1.00  0.00    -0.744 OA
ENDBRANCH  83  87
ENDBRANCH  57  80
ENDBRANCH  31  32
ENDBRANCH  24  26
ENDBRANCH  23  24
ENDBRANCH  22  23
ENDBRANCH   1  22
TORSDOF 18
