REMARK SMILES O=C(OCCOC(=O)c1ccc(-c2c3nc(c(-c4cc(S(=O)(=O)[O-])ccc4F)c4ccc([nH]4)c(-c4cc(S(=O)(=O)[O-])ccc4F)c4nc(c(-c5cc(S(=O)(=O)[O-])ccc5F)c5ccc2[nH]5)C=C4)C=C3)cc1)C1=Cc2cc(OC(F)(F)F)ccc2O[C@@H]1C(F)(F)F
REMARK SMILES IDX 5 1 4 2 3 3 2 4 1 5 72 6 73 7 86 8 74 9 85 10 75 11 84 12
REMARK SMILES IDX 76 13 83 14 82 15 87 16 88 17 89 18 90 19 77 20 78 21 79 22
REMARK SMILES IDX 80 23 81 24 6 25 7 26 8 27 9 28 10 29 71 30 11 31 70 32
REMARK SMILES IDX 12 33 13 34 14 35 64 36 15 37 69 38 63 39 65 40 16 41 68 42
REMARK SMILES IDX 62 43 61 44 17 46 49 47 29 48 48 49 30 50 33 51 47 52 66 53
REMARK SMILES IDX 31 54 32 55 46 57 67 58 34 59 18 60 19 61 27 62 20 63 26 64
REMARK SMILES IDX 28 65 25 66 21 67 22 68 23 69 24 70 50 71 51 72 59 73 52 74
REMARK SMILES IDX 58 75 60 76 57 77 53 78 54 79 55 80 56 81 35 82 36 83 44 84
REMARK SMILES IDX 37 85 43 86 45 87 42 88 38 89 39 90 40 91 41 92
REMARK H PARENT 65 45 33 56
REMARK Flexibility Score: inf
ROOT
ATOM      1  C   UNL     1       4.579  -0.449   0.790  1.00  0.00     0.275 C 
ENDROOT
BRANCH   1   2
ATOM      2  C   UNL     1       3.769  -0.390  -1.235  1.00  0.00     0.275 C 
BRANCH   2   3
ATOM      3  O   UNL     1       2.897  -1.481  -1.905  1.00  0.00    -0.459 OA
BRANCH   3   4
ATOM      4  C   UNL     1       3.095  -2.701  -1.395  1.00  0.00     0.338 C 
ATOM      5  O   UNL     1       2.558  -3.747  -1.645  1.00  0.00    -0.246 OA
BRANCH   4   6
ATOM      6  C   UNL     1       3.914  -2.256  -0.295  1.00  0.00     0.087 C 
ATOM      7  C   UNL     1       5.288  -1.997  -0.725  1.00  0.00     0.027 C 
ATOM      8  C   UNL     1       2.680  -0.933   0.379  1.00  0.00     0.316 C 
ATOM      9  C   UNL     1       5.967  -0.344  -0.883  1.00  0.00     0.021 A 
ATOM     10  O   UNL     1       3.383   0.859   0.172  1.00  0.00    -0.475 OA
ATOM     11  C   UNL     1       7.152  -0.234  -1.540  1.00  0.00     0.058 A 
ATOM     12  C   UNL     1       5.050   1.086  -0.548  1.00  0.00     0.128 A 
ATOM     13  C   UNL     1       7.518   1.061  -1.937  1.00  0.00     0.130 A 
ATOM     14  C   UNL     1       5.475   2.321  -0.952  1.00  0.00     0.051 A 
ATOM     15  C   UNL     1       6.727   2.265  -1.663  1.00  0.00     0.050 A 
BRANCH   8  16
ATOM     16  C   UNL     1       2.194  -1.808   1.606  1.00  0.00     0.430 C 
ATOM     17  F   UNL     1       0.947  -1.499   1.978  1.00  0.00    -0.167 F 
ATOM     18  F   UNL     1       2.091  -3.110   1.187  1.00  0.00    -0.167 F 
ATOM     19  F   UNL     1       3.020  -1.913   2.658  1.00  0.00    -0.167 F 
ENDBRANCH   8  16
BRANCH  13  20
ATOM     20  O   UNL     1       8.703   0.978  -2.626  1.00  0.00    -0.406 OA
BRANCH  20  21
ATOM     21  C   UNL     1       9.243   2.088  -3.297  1.00  0.00     0.573 C 
ATOM     22  F   UNL     1       8.395   2.548  -4.237  1.00  0.00    -0.132 F 
ATOM     23  F   UNL     1       9.553   3.071  -2.431  1.00  0.00    -0.132 F 
ATOM     24  F   UNL     1      10.380   1.689  -3.912  1.00  0.00    -0.132 F 
ENDBRANCH  20  21
ENDBRANCH  13  20
ENDBRANCH   4   6
ENDBRANCH   3   4
ENDBRANCH   2   3
ENDBRANCH   1   2
BRANCH   1  25
ATOM     25  O   UNL     1       3.785   0.136   2.188  1.00  0.00    -0.458 OA
BRANCH  25  26
ATOM     26  C   UNL     1       2.969   1.125   2.672  1.00  0.00     0.338 C 
ATOM     27  O   UNL     1       2.614   2.166   2.152  1.00  0.00    -0.246 OA
BRANCH  26  28
ATOM     28  C   UNL     1       2.265   0.488   3.829  1.00  0.00     0.060 A 
ATOM     29  C   UNL     1       0.882   0.257   3.731  1.00  0.00     0.016 A 
ATOM     30  C   UNL     1       3.023  -0.213   4.771  1.00  0.00     0.016 A 
ATOM     31  C   UNL     1       0.305  -0.817   4.434  1.00  0.00     0.010 A 
ATOM     32  C   UNL     1       2.449  -1.285   5.460  1.00  0.00     0.010 A 
ATOM     33  C   UNL     1       1.098  -1.628   5.262  1.00  0.00    -0.014 A 
BRANCH  33  34
ATOM     34  C   UNL     1       0.456  -2.591   6.196  1.00  0.00     0.031 A 
ATOM     35  C   UNL     1       0.063  -1.993   7.516  1.00  0.00     0.074 A 
ATOM     36  C   UNL     1       0.260  -3.902   5.939  1.00  0.00     0.049 A 
ATOM     37  N   UNL     1      -0.507  -2.539   8.553  1.00  0.00    -0.248 NA
ATOM     38  C   UNL     1       0.403  -0.568   7.691  1.00  0.00     0.031 C 
ATOM     39  C   UNL     1       0.620  -4.605   4.706  1.00  0.00     0.029 A 
ATOM     40  N   UNL     1      -0.297  -4.889   6.722  1.00  0.00    -0.354 N 
ATOM     41  C   UNL     1      -0.609  -1.516   9.488  1.00  0.00     0.074 A 
ATOM     42  C   UNL     1       0.056  -0.359   8.944  1.00  0.00     0.031 C 
ATOM     43  C   UNL     1       0.265  -5.903   4.815  1.00  0.00     0.029 A 
ATOM     44  C   UNL     1      -0.341  -6.135   6.126  1.00  0.00     0.049 A 
ATOM     45  H   UNL     1      -0.637  -4.721   7.631  1.00  0.00     0.167 HD
ATOM     46  C   UNL     1      -1.241  -1.521  10.682  1.00  0.00     0.034 A 
ATOM     47  C   UNL     1      -0.828  -7.308   6.595  1.00  0.00     0.034 A 
ATOM     48  C   UNL     1      -1.852  -2.696  11.232  1.00  0.00     0.049 A 
ATOM     49  C   UNL     1      -1.455  -7.317   7.980  1.00  0.00     0.074 A 
ATOM     50  C   UNL     1      -2.496  -2.850  12.442  1.00  0.00     0.029 A 
ATOM     51  N   UNL     1      -1.869  -3.934  10.601  1.00  0.00    -0.354 N 
ATOM     52  N   UNL     1      -1.609  -6.325   8.831  1.00  0.00    -0.248 NA
ATOM     53  C   UNL     1      -1.995  -8.598   8.458  1.00  0.00     0.031 C 
ATOM     54  C   UNL     1      -2.841  -4.199  12.575  1.00  0.00     0.029 A 
ATOM     55  C   UNL     1      -2.494  -4.866  11.407  1.00  0.00     0.049 A 
ATOM     56  H   UNL     1      -1.491  -4.121   9.711  1.00  0.00     0.167 HD
ATOM     57  C   UNL     1      -2.315  -6.852   9.913  1.00  0.00     0.074 A 
ATOM     58  C   UNL     1      -2.559  -8.246   9.604  1.00  0.00     0.031 C 
ATOM     59  C   UNL     1      -2.736  -6.246  11.055  1.00  0.00     0.034 A 
BRANCH  46  60
ATOM     60  C   UNL     1      -1.224  -0.221  11.446  1.00  0.00     0.023 A 
ATOM     61  C   UNL     1      -1.797   0.948  10.905  1.00  0.00     0.031 A 
ATOM     62  C   UNL     1      -0.496  -0.110  12.640  1.00  0.00     0.131 A 
ATOM     63  C   UNL     1      -1.528   2.191  11.493  1.00  0.00     0.055 A 
ATOM     64  C   UNL     1      -0.322   1.120  13.277  1.00  0.00     0.041 A 
ATOM     65  F   UNL     1       0.104  -1.182  13.178  1.00  0.00    -0.206 F 
ATOM     66  C   UNL     1      -0.818   2.283  12.691  1.00  0.00     0.022 A 
BRANCH  63  67
ATOM     67  S   UNL     1      -1.932   3.695  10.559  1.00  0.00     0.124 S 
ATOM     68  O   UNL     1      -1.096   3.537   9.371  1.00  0.00    -0.237 OA
ATOM     69  O   UNL     1      -3.369   3.563  10.350  1.00  0.00    -0.237 OA
ATOM     70  O   UNL     1      -1.528   4.774  11.457  1.00  0.00    -0.744 OA
ENDBRANCH  63  67
ENDBRANCH  46  60
BRANCH  47  71
ATOM     71  C   UNL     1      -0.774  -8.578   5.794  1.00  0.00     0.023 A 
ATOM     72  C   UNL     1      -1.948  -9.267   5.431  1.00  0.00     0.031 A 
ATOM     73  C   UNL     1       0.454  -9.190   5.481  1.00  0.00     0.131 A 
ATOM     74  C   UNL     1      -1.873 -10.544   4.842  1.00  0.00     0.055 A 
ATOM     75  C   UNL     1       0.524 -10.435   4.844  1.00  0.00     0.041 A 
ATOM     76  F   UNL     1       1.611  -8.595   5.809  1.00  0.00    -0.206 F 
ATOM     77  C   UNL     1      -0.643 -11.127   4.536  1.00  0.00     0.022 A 
BRANCH  74  78
ATOM     78  S   UNL     1      -3.406 -11.487   4.583  1.00  0.00     0.124 S 
ATOM     79  O   UNL     1      -3.937 -11.568   5.938  1.00  0.00    -0.237 OA
ATOM     80  O   UNL     1      -4.137 -10.630   3.655  1.00  0.00    -0.237 OA
ATOM     81  O   UNL     1      -2.938 -12.752   4.020  1.00  0.00    -0.744 OA
ENDBRANCH  74  78
ENDBRANCH  47  71
BRANCH  59  82
ATOM     82  C   UNL     1      -3.575  -7.062  12.008  1.00  0.00     0.023 A 
ATOM     83  C   UNL     1      -3.064  -8.179  12.687  1.00  0.00     0.031 A 
ATOM     84  C   UNL     1      -4.912  -6.693  12.251  1.00  0.00     0.131 A 
ATOM     85  C   UNL     1      -3.902  -8.926  13.527  1.00  0.00     0.055 A 
ATOM     86  C   UNL     1      -5.717  -7.394  13.146  1.00  0.00     0.041 A 
ATOM     87  F   UNL     1      -5.452  -5.632  11.629  1.00  0.00    -0.206 F 
ATOM     88  C   UNL     1      -5.218  -8.528  13.779  1.00  0.00     0.022 A 
BRANCH  85  89
ATOM     89  S   UNL     1      -3.283 -10.491  14.202  1.00  0.00     0.124 S 
ATOM     90  O   UNL     1      -2.896 -11.211  12.993  1.00  0.00    -0.237 OA
ATOM     91  O   UNL     1      -2.187 -10.050  15.058  1.00  0.00    -0.237 OA
ATOM     92  O   UNL     1      -4.439 -11.040  14.908  1.00  0.00    -0.744 OA
ENDBRANCH  85  89
ENDBRANCH  59  82
ENDBRANCH  33  34
ENDBRANCH  26  28
ENDBRANCH  25  26
ENDBRANCH   1  25
TORSDOF 17
