REMARK SMILES O=C(OCCOC(=O)c1cc(Cl)c2c(c1)[C@H]1C=CC[C@H]1[C@H](c1ccc(S(=O)(=O)N3CCOCC3)cc1)N2)c1ccc(-c2c3nc(c(-c4cc(S(=O)(=O)[O-])ccc4F)c4ccc([nH]4)c(-c4cc(S(=O)(=O)[O-])ccc4F)c4nc(c(-c5cc(S(=O)(=O)[O-])ccc5F)c5ccc2[nH]5)C=C4)C=C3)cc1
REMARK SMILES IDX 4 1 3 2 2 3 1 4 38 5 39 6 100 7 40 8 99 9 41 10 42 11 43 12
REMARK SMILES IDX 93 13 44 14 98 15 92 16 94 17 45 18 97 19 91 20 90 21 46 23
REMARK SMILES IDX 78 24 58 25 77 26 59 27 62 28 76 29 95 30 60 31 61 32 75 34
REMARK SMILES IDX 96 35 63 36 47 37 48 38 56 39 49 40 55 41 57 42 54 43 50 44
REMARK SMILES IDX 51 45 52 46 53 47 79 48 80 49 88 50 81 51 87 52 89 53 86 54
REMARK SMILES IDX 82 55 83 56 84 57 85 58 64 59 65 60 73 61 66 62 72 63 74 64
REMARK SMILES IDX 71 65 67 66 68 67 69 68 70 69 5 70 6 71 7 72 8 73 9 74 10 75
REMARK SMILES IDX 15 76 11 77 14 78 12 79 13 80 16 81 37 82 17 83 20 84 21 85
REMARK SMILES IDX 18 87 19 88 22 89 23 90 36 91 24 92 35 93 25 94 26 95 27 96
REMARK SMILES IDX 28 97 29 98 30 99 34 100 31 101 33 102 32 103
REMARK H PARENT 94 22 62 33 37 86
REMARK Flexibility Score: inf
ROOT
ATOM      1  C   UNL     1       4.122   1.417  -0.866  1.00  0.00     0.275 C 
ENDROOT
BRANCH   1   2
ATOM      2  O   UNL     1       3.302   0.257  -1.059  1.00  0.00    -0.458 OA
BRANCH   2   3
ATOM      3  C   UNL     1       3.479  -0.962  -0.496  1.00  0.00     0.338 C 
ATOM      4  O   UNL     1       3.032  -1.958  -1.063  1.00  0.00    -0.246 OA
BRANCH   3   5
ATOM      5  C   UNL     1       3.991  -1.115   0.900  1.00  0.00     0.060 A 
ATOM      6  C   UNL     1       5.083  -0.455   1.466  1.00  0.00     0.016 A 
ATOM      7  C   UNL     1       3.311  -2.054   1.688  1.00  0.00     0.016 A 
ATOM      8  C   UNL     1       5.441  -0.675   2.803  1.00  0.00     0.010 A 
ATOM      9  C   UNL     1       3.643  -2.261   3.029  1.00  0.00     0.010 A 
ATOM     10  C   UNL     1       4.727  -1.582   3.590  1.00  0.00    -0.014 A 
BRANCH  10  11
ATOM     11  C   UNL     1       5.229  -1.972   4.926  1.00  0.00     0.031 A 
ATOM     12  C   UNL     1       5.985  -3.261   5.046  1.00  0.00     0.074 A 
ATOM     13  C   UNL     1       5.059  -1.187   6.005  1.00  0.00     0.049 A 
ATOM     14  N   UNL     1       6.607  -3.747   6.085  1.00  0.00    -0.248 NA
ATOM     15  C   UNL     1       6.093  -4.092   3.833  1.00  0.00     0.031 C 
ATOM     16  C   UNL     1       4.420   0.124   5.999  1.00  0.00     0.029 A 
ATOM     17  N   UNL     1       5.398  -1.384   7.320  1.00  0.00    -0.354 N 
ATOM     18  C   UNL     1       7.261  -4.878   5.625  1.00  0.00     0.074 A 
ATOM     19  C   UNL     1       6.857  -5.087   4.255  1.00  0.00     0.031 C 
ATOM     20  C   UNL     1       4.345   0.581   7.261  1.00  0.00     0.029 A 
ATOM     21  C   UNL     1       4.937  -0.398   8.161  1.00  0.00     0.049 A 
ATOM     22  H   UNL     1       5.920  -2.158   7.632  1.00  0.00     0.167 HD
ATOM     23  C   UNL     1       8.182  -5.628   6.267  1.00  0.00     0.034 A 
ATOM     24  C   UNL     1       4.992  -0.289   9.503  1.00  0.00     0.034 A 
ATOM     25  C   UNL     1       8.544  -5.439   7.642  1.00  0.00     0.049 A 
ATOM     26  C   UNL     1       5.837  -1.277  10.261  1.00  0.00     0.074 A 
ATOM     27  C   UNL     1       9.467  -6.145   8.389  1.00  0.00     0.029 A 
ATOM     28  N   UNL     1       7.988  -4.484   8.480  1.00  0.00    -0.354 N 
ATOM     29  N   UNL     1       6.532  -2.285   9.791  1.00  0.00    -0.248 NA
ATOM     30  C   UNL     1       5.967  -1.081  11.710  1.00  0.00     0.031 C 
ATOM     31  C   UNL     1       9.433  -5.649   9.694  1.00  0.00     0.029 A 
ATOM     32  C   UNL     1       8.526  -4.601   9.748  1.00  0.00     0.049 A 
ATOM     33  H   UNL     1       7.311  -3.821   8.212  1.00  0.00     0.167 HD
ATOM     34  C   UNL     1       7.255  -2.784  10.867  1.00  0.00     0.074 A 
ATOM     35  C   UNL     1       6.880  -1.993  12.022  1.00  0.00     0.031 C 
ATOM     36  C   UNL     1       8.171  -3.784  10.883  1.00  0.00     0.034 A 
BRANCH  23  37
ATOM     37  C   UNL     1       8.898  -6.676   5.468  1.00  0.00     0.023 A 
ATOM     38  C   UNL     1       8.691  -8.038   5.725  1.00  0.00     0.031 A 
ATOM     39  C   UNL     1       9.840  -6.307   4.489  1.00  0.00     0.131 A 
ATOM     40  C   UNL     1       9.433  -8.991   5.018  1.00  0.00     0.055 A 
ATOM     41  C   UNL     1      10.557  -7.260   3.769  1.00  0.00     0.041 A 
ATOM     42  F   UNL     1      10.055  -5.012   4.203  1.00  0.00    -0.206 F 
ATOM     43  C   UNL     1      10.358  -8.611   4.037  1.00  0.00     0.022 A 
BRANCH  40  44
ATOM     44  S   UNL     1       9.216 -10.760   5.342  1.00  0.00     0.124 S 
ATOM     45  O   UNL     1       9.089 -11.306   3.992  1.00  0.00    -0.237 OA
ATOM     46  O   UNL     1      10.454 -11.093   6.039  1.00  0.00    -0.237 OA
ATOM     47  O   UNL     1       7.998 -10.817   6.144  1.00  0.00    -0.744 OA
ENDBRANCH  40  44
ENDBRANCH  23  37
BRANCH  24  48
ATOM     48  C   UNL     1       4.308   0.842  10.189  1.00  0.00     0.023 A 
ATOM     49  C   UNL     1       2.904   0.893  10.272  1.00  0.00     0.031 A 
ATOM     50  C   UNL     1       5.044   1.901  10.744  1.00  0.00     0.131 A 
ATOM     51  C   UNL     1       2.282   1.987  10.892  1.00  0.00     0.055 A 
ATOM     52  C   UNL     1       4.422   2.973  11.387  1.00  0.00     0.041 A 
ATOM     53  F   UNL     1       6.384   1.897  10.678  1.00  0.00    -0.206 F 
ATOM     54  C   UNL     1       3.033   3.020  11.461  1.00  0.00     0.022 A 
BRANCH  51  55
ATOM     55  S   UNL     1       0.474   2.118  10.969  1.00  0.00     0.124 S 
ATOM     56  O   UNL     1       0.241   2.286  12.400  1.00  0.00    -0.237 OA
ATOM     57  O   UNL     1       0.226   3.300  10.149  1.00  0.00    -0.237 OA
ATOM     58  O   UNL     1       0.015   0.853  10.402  1.00  0.00    -0.744 OA
ENDBRANCH  51  55
ENDBRANCH  24  48
BRANCH  36  59
ATOM     59  C   UNL     1       8.903  -4.068  12.166  1.00  0.00     0.023 A 
ATOM     60  C   UNL     1      10.293  -3.857  12.224  1.00  0.00     0.031 A 
ATOM     61  C   UNL     1       8.272  -4.696  13.250  1.00  0.00     0.131 A 
ATOM     62  C   UNL     1      11.019  -4.320  13.325  1.00  0.00     0.055 A 
ATOM     63  C   UNL     1       8.994  -5.111  14.369  1.00  0.00     0.041 A 
ATOM     64  F   UNL     1       6.949  -4.924  13.230  1.00  0.00    -0.206 F 
ATOM     65  C   UNL     1      10.376  -4.938  14.402  1.00  0.00     0.022 A 
BRANCH  62  66
ATOM     66  S   UNL     1      12.829  -4.216  13.357  1.00  0.00     0.124 S 
ATOM     67  O   UNL     1      13.069  -3.471  14.591  1.00  0.00    -0.237 OA
ATOM     68  O   UNL     1      13.214  -5.625  13.393  1.00  0.00    -0.237 OA
ATOM     69  O   UNL     1      13.164  -3.504  12.128  1.00  0.00    -0.744 OA
ENDBRANCH  62  66
ENDBRANCH  36  59
ENDBRANCH  10  11
ENDBRANCH   3   5
ENDBRANCH   2   3
ENDBRANCH   1   2
BRANCH   1  70
ATOM     70  C   UNL     1       3.556   2.430   0.132  1.00  0.00     0.275 C 
BRANCH  70  71
ATOM     71  O   UNL     1       3.033   1.841   1.332  1.00  0.00    -0.458 OA
BRANCH  71  72
ATOM     72  C   UNL     1       1.699   1.581   1.312  1.00  0.00     0.338 C 
ATOM     73  O   UNL     1       0.927   1.784   0.391  1.00  0.00    -0.246 OA
BRANCH  72  74
ATOM     74  C   UNL     1       1.314   0.904   2.563  1.00  0.00     0.062 A 
ATOM     75  C   UNL     1       1.546   1.492   3.800  1.00  0.00     0.038 A 
ATOM     76  C   UNL     1       0.630  -0.312   2.489  1.00  0.00     0.022 A 
ATOM     77  C   UNL     1       1.168   0.804   4.955  1.00  0.00     0.065 A 
ATOM     78  C   UNL     1       0.297  -1.022   3.659  1.00  0.00    -0.015 A 
ATOM     79  Cl  UNL     1       1.267   1.651   6.460  1.00  0.00    -0.082 Cl
ATOM     80  C   UNL     1       0.658  -0.511   4.907  1.00  0.00     0.057 A 
ATOM     81  C   UNL     1      -0.543  -2.263   3.570  1.00  0.00     0.049 C 
ATOM     82  N   UNL     1       0.425  -1.238   6.062  1.00  0.00    -0.376 N 
ATOM     83  C   UNL     1       0.099  -3.438   2.888  1.00  0.00    -0.023 C 
ATOM     84  C   UNL     1      -1.023  -2.864   4.917  1.00  0.00     0.031 C 
ATOM     85  C   UNL     1       0.010  -2.641   6.064  1.00  0.00     0.114 C 
ATOM     86  H   UNL     1       0.545  -0.787   6.928  1.00  0.00     0.161 HD
ATOM     87  C   UNL     1      -0.311  -4.590   3.421  1.00  0.00    -0.030 C 
ATOM     88  C   UNL     1      -1.289  -4.333   4.516  1.00  0.00     0.034 C 
BRANCH  85  89
ATOM     89  C   UNL     1      -0.553  -3.011   7.454  1.00  0.00    -0.025 A 
ATOM     90  C   UNL     1      -0.723  -2.077   8.497  1.00  0.00     0.007 A 
ATOM     91  C   UNL     1      -0.903  -4.339   7.745  1.00  0.00     0.007 A 
ATOM     92  C   UNL     1      -1.213  -2.458   9.756  1.00  0.00     0.022 A 
ATOM     93  C   UNL     1      -1.513  -4.703   8.945  1.00  0.00     0.022 A 
ATOM     94  C   UNL     1      -1.619  -3.772   9.971  1.00  0.00     0.082 A 
BRANCH  94  95
ATOM     95  S   UNL     1      -2.097  -4.311  11.595  1.00  0.00     0.243 S 
ATOM     96  O   UNL     1      -1.574  -3.354  12.553  1.00  0.00    -0.207 OA
ATOM     97  O   UNL     1      -3.503  -4.636  11.550  1.00  0.00    -0.207 OA
BRANCH  95  98
ATOM     98  N   UNL     1      -1.225  -5.743  11.855  1.00  0.00    -0.193 NA
ATOM     99  C   UNL     1      -1.920  -7.041  11.708  1.00  0.00     0.131 C 
ATOM    100  C   UNL     1       0.205  -5.790  11.432  1.00  0.00     0.131 C 
ATOM    101  C   UNL     1      -1.100  -8.123  12.421  1.00  0.00     0.177 C 
ATOM    102  C   UNL     1       0.926  -6.963  12.099  1.00  0.00     0.177 C 
ATOM    103  O   UNL     1       0.226  -8.202  11.882  1.00  0.00    -0.379 OA
ENDBRANCH  95  98
ENDBRANCH  94  95
ENDBRANCH  85  89
ENDBRANCH  72  74
ENDBRANCH  71  72
ENDBRANCH  70  71
ENDBRANCH   1  70
TORSDOF 17
