REMARK SMILES CC(C)c1ccc2c(c1)c(SC(C)(C)C)c(CC(C)(C)C(=O)OCCOC(=O)c1ccc(-c3c4nc(c(-c5cc(S(=O)(=O)[O-])ccc5F)c5ccc([nH]5)c(-c5cc(S(=O)(=O)[O-])ccc5F)c5nc(c(-c6cc(S(=O)(=O)[O-])ccc6F)c6ccc3[nH]6)C=C5)C=C4)cc1)n2Cc1ccc(Cl)cc1
REMARK SMILES IDX 24 1 23 2 21 3 22 4 18 5 19 6 20 7 17 8 16 9 4 10 5 11 9 12
REMARK SMILES IDX 6 13 8 14 7 15 10 16 92 17 2 18 1 19 3 20 11 21 12 22 13 23
REMARK SMILES IDX 14 24 15 25 93 26 94 27 95 28 100 29 96 30 99 31 97 32 98 33
REMARK SMILES IDX 25 34 26 35 27 36 28 37 29 38 30 39 91 40 31 41 90 42 32 43
REMARK SMILES IDX 33 44 34 45 84 46 35 47 89 48 83 49 85 50 36 51 88 52 82 53
REMARK SMILES IDX 81 54 37 56 69 57 49 58 68 59 50 60 53 61 67 62 86 63 51 64
REMARK SMILES IDX 52 65 66 67 87 68 54 69 38 70 39 71 47 72 40 73 46 74 48 75
REMARK SMILES IDX 45 76 41 77 42 78 43 79 44 80 70 81 71 82 79 83 72 84 78 85
REMARK SMILES IDX 80 86 77 87 73 88 74 89 75 90 76 91 55 92 56 93 64 94 57 95
REMARK SMILES IDX 63 96 65 97 62 98 58 99 59 100 60 101 61 102
REMARK H PARENT 85 55 53 66
REMARK Flexibility Score: inf
ROOT
ATOM      1  C   UNL     1      -7.085   1.111   7.164  1.00  0.00     0.274 C 
ENDROOT
BRANCH   1   2
ATOM      2  O   UNL     1      -7.228   2.127   6.159  1.00  0.00    -0.462 OA
BRANCH   2   3
ATOM      3  C   UNL     1      -6.064   2.559   5.618  1.00  0.00     0.312 C 
ATOM      4  O   UNL     1      -4.963   2.192   6.014  1.00  0.00    -0.252 OA
BRANCH   3   5
ATOM      5  C   UNL     1      -6.244   3.587   4.508  1.00  0.00     0.068 C 
ATOM      6  C   UNL     1      -5.270   4.678   4.987  1.00  0.00     0.024 C 
ATOM      7  C   UNL     1      -7.672   4.202   4.406  1.00  0.00     0.024 C 
BRANCH   5   8
ATOM      8  C   UNL     1      -5.867   3.009   3.125  1.00  0.00     0.073 C 
BRANCH   8   9
ATOM      9  C   UNL     1      -4.618   2.251   2.993  1.00  0.00     0.034 A 
ATOM     10  C   UNL     1      -0.777  -0.429   2.248  1.00  0.00    -0.045 A 
ATOM     11  C   UNL     1      -1.786  -1.317   1.923  1.00  0.00     0.006 A 
ATOM     12  C   UNL     1      -1.104   1.007   2.384  1.00  0.00     0.015 A 
ATOM     13  C   UNL     1      -3.077  -0.917   2.142  1.00  0.00     0.027 A 
ATOM     14  C   UNL     1      -2.473   1.484   2.524  1.00  0.00     0.014 A 
ATOM     15  C   UNL     1      -3.375   0.417   2.516  1.00  0.00     0.050 A 
ATOM     16  C   UNL     1      -3.373   2.736   2.662  1.00  0.00     0.037 A 
ATOM     17  N   UNL     1      -4.515   0.891   3.126  1.00  0.00    -0.339 N 
BRANCH  10  18
ATOM     18  C   UNL     1       0.452  -1.192   2.820  1.00  0.00     0.013 C 
ATOM     19  C   UNL     1       1.382  -2.056   1.968  1.00  0.00     0.012 C 
ATOM     20  C   UNL     1       1.170  -0.454   3.926  1.00  0.00     0.012 C 
ENDBRANCH  10  18
BRANCH  16  21
ATOM     21  S   UNL     1      -3.157   4.599   2.403  1.00  0.00    -0.118 SA
BRANCH  21  22
ATOM     22  C   UNL     1      -4.697   5.525   1.293  1.00  0.00     0.012 C 
ATOM     23  C   UNL     1      -5.459   4.751   0.173  1.00  0.00     0.023 C 
ATOM     24  C   UNL     1      -5.804   6.258   2.117  1.00  0.00     0.023 C 
ATOM     25  C   UNL     1      -4.014   6.748   0.620  1.00  0.00     0.023 C 
ENDBRANCH  21  22
ENDBRANCH  16  21
BRANCH  17  26
ATOM     26  C   UNL     1      -5.186   0.018   4.060  1.00  0.00     0.158 C 
BRANCH  26  27
ATOM     27  C   UNL     1      -6.618  -0.224   3.807  1.00  0.00    -0.028 A 
ATOM     28  C   UNL     1      -8.021   0.938   3.559  1.00  0.00     0.007 A 
ATOM     29  C   UNL     1      -6.982  -2.030   3.785  1.00  0.00     0.007 A 
ATOM     30  C   UNL     1      -9.645   0.312   3.006  1.00  0.00     0.021 A 
ATOM     31  C   UNL     1      -8.605  -2.605   3.268  1.00  0.00     0.021 A 
ATOM     32  C   UNL     1      -9.891  -1.454   2.809  1.00  0.00     0.041 A 
ATOM     33  Cl  UNL     1     -11.520  -2.043   2.730  1.00  0.00    -0.084 Cl
ENDBRANCH  26  27
ENDBRANCH  17  26
ENDBRANCH   8   9
ENDBRANCH   5   8
ENDBRANCH   3   5
ENDBRANCH   2   3
ENDBRANCH   1   2
BRANCH   1  34
ATOM     34  C   UNL     1      -7.986  -0.091   6.831  1.00  0.00     0.275 C 
BRANCH  34  35
ATOM     35  O   UNL     1      -7.584  -0.715   5.569  1.00  0.00    -0.458 OA
BRANCH  35  36
ATOM     36  C   UNL     1      -8.523  -0.819   4.321  1.00  0.00     0.338 C 
ATOM     37  O   UNL     1      -9.633  -0.853   4.909  1.00  0.00    -0.246 OA
BRANCH  36  38
ATOM     38  C   UNL     1      -7.864  -0.733   2.249  1.00  0.00     0.060 A 
ATOM     39  C   UNL     1      -6.823  -1.494   1.484  1.00  0.00     0.016 A 
ATOM     40  C   UNL     1      -7.871   0.464   1.237  1.00  0.00     0.016 A 
ATOM     41  C   UNL     1      -5.761  -0.961   0.530  1.00  0.00     0.010 A 
ATOM     42  C   UNL     1      -6.806   1.000   0.290  1.00  0.00     0.010 A 
ATOM     43  C   UNL     1      -5.593   0.379   0.073  1.00  0.00    -0.014 A 
BRANCH  43  44
ATOM     44  C   UNL     1      -4.327   0.853  -0.834  1.00  0.00     0.031 A 
ATOM     45  C   UNL     1      -4.123  -0.178  -1.836  1.00  0.00     0.074 A 
ATOM     46  C   UNL     1      -3.341   1.839  -1.056  1.00  0.00     0.049 A 
ATOM     47  N   UNL     1      -3.219  -1.094  -1.776  1.00  0.00    -0.248 NA
ATOM     48  C   UNL     1      -5.117  -0.318  -2.901  1.00  0.00     0.031 C 
ATOM     49  C   UNL     1      -3.178   3.045  -0.313  1.00  0.00     0.029 A 
ATOM     50  N   UNL     1      -2.166   2.023  -1.895  1.00  0.00    -0.354 N 
ATOM     51  C   UNL     1      -3.312  -1.678  -3.012  1.00  0.00     0.074 A 
ATOM     52  C   UNL     1      -4.644  -1.410  -3.501  1.00  0.00     0.031 C 
ATOM     53  C   UNL     1      -2.393   3.998  -0.847  1.00  0.00     0.029 A 
ATOM     54  C   UNL     1      -1.605   3.366  -1.869  1.00  0.00     0.049 A 
ATOM     55  H   UNL     1      -1.781   1.298  -2.438  1.00  0.00     0.167 HD
ATOM     56  C   UNL     1      -2.176  -1.950  -3.695  1.00  0.00     0.034 A 
ATOM     57  C   UNL     1      -0.462   4.025  -2.281  1.00  0.00     0.034 A 
ATOM     58  C   UNL     1      -1.005  -1.941  -2.867  1.00  0.00     0.049 A 
ATOM     59  C   UNL     1       0.606   3.103  -2.639  1.00  0.00     0.074 A 
ATOM     60  C   UNL     1      -0.574  -2.803  -1.901  1.00  0.00     0.029 A 
ATOM     61  N   UNL     1      -0.318  -0.761  -2.691  1.00  0.00    -0.354 N 
ATOM     62  N   UNL     1       1.463   2.620  -1.795  1.00  0.00    -0.248 NA
ATOM     63  C   UNL     1       0.567   2.481  -3.947  1.00  0.00     0.031 C 
ATOM     64  C   UNL     1       0.308  -2.053  -1.093  1.00  0.00     0.029 A 
ATOM     65  C   UNL     1       0.639  -0.837  -1.671  1.00  0.00     0.049 A 
ATOM     66  H   UNL     1      -0.481   0.049  -3.226  1.00  0.00     0.167 HD
ATOM     67  C   UNL     1       1.610   1.330  -2.245  1.00  0.00     0.074 A 
ATOM     68  C   UNL     1       1.208   1.354  -3.644  1.00  0.00     0.031 C 
ATOM     69  C   UNL     1       1.504   0.318  -1.341  1.00  0.00     0.034 A 
BRANCH  56  70
ATOM     70  C   UNL     1      -2.129  -1.966  -5.173  1.00  0.00     0.023 A 
ATOM     71  C   UNL     1      -2.957  -1.129  -5.939  1.00  0.00     0.031 A 
ATOM     72  C   UNL     1      -1.164  -2.721  -5.846  1.00  0.00     0.131 A 
ATOM     73  C   UNL     1      -2.884  -1.130  -7.327  1.00  0.00     0.055 A 
ATOM     74  C   UNL     1      -1.025  -2.650  -7.232  1.00  0.00     0.041 A 
ATOM     75  F   UNL     1      -0.334  -3.533  -5.173  1.00  0.00    -0.206 F 
ATOM     76  C   UNL     1      -1.898  -1.863  -7.981  1.00  0.00     0.022 A 
BRANCH  73  77
ATOM     77  S   UNL     1      -4.118  -0.223  -8.291  1.00  0.00     0.124 S 
ATOM     78  O   UNL     1      -3.289   0.728  -9.023  1.00  0.00    -0.237 OA
ATOM     79  O   UNL     1      -4.713  -1.294  -9.088  1.00  0.00    -0.237 OA
ATOM     80  O   UNL     1      -5.001   0.346  -7.276  1.00  0.00    -0.744 OA
ENDBRANCH  73  77
ENDBRANCH  56  70
BRANCH  57  81
ATOM     81  C   UNL     1      -0.199   5.504  -2.498  1.00  0.00     0.023 A 
ATOM     82  C   UNL     1      -1.302   6.350  -2.613  1.00  0.00     0.031 A 
ATOM     83  C   UNL     1       1.029   6.014  -2.998  1.00  0.00     0.131 A 
ATOM     84  C   UNL     1      -1.251   7.490  -3.422  1.00  0.00     0.055 A 
ATOM     85  C   UNL     1       1.097   7.201  -3.751  1.00  0.00     0.041 A 
ATOM     86  F   UNL     1       2.177   5.331  -2.865  1.00  0.00    -0.206 F 
ATOM     87  C   UNL     1      -0.066   7.914  -4.020  1.00  0.00     0.022 A 
BRANCH  84  88
ATOM     88  S   UNL     1      -2.823   8.258  -3.886  1.00  0.00     0.124 S 
ATOM     89  O   UNL     1      -2.479   9.674  -3.975  1.00  0.00    -0.237 OA
ATOM     90  O   UNL     1      -3.098   7.592  -5.154  1.00  0.00    -0.237 OA
ATOM     91  O   UNL     1      -3.709   7.909  -2.778  1.00  0.00    -0.744 OA
ENDBRANCH  84  88
ENDBRANCH  57  81
BRANCH  69  92
ATOM     92  C   UNL     1       2.318   0.562  -0.050  1.00  0.00     0.023 A 
ATOM     93  C   UNL     1       3.409  -0.290   0.259  1.00  0.00     0.031 A 
ATOM     94  C   UNL     1       2.096   1.615   0.875  1.00  0.00     0.131 A 
ATOM     95  C   UNL     1       4.100  -0.187   1.496  1.00  0.00     0.055 A 
ATOM     96  C   UNL     1       2.866   1.784   2.046  1.00  0.00     0.041 A 
ATOM     97  F   UNL     1       1.088   2.488   0.720  1.00  0.00    -0.206 F 
ATOM     98  C   UNL     1       3.843   0.856   2.385  1.00  0.00     0.022 A 
BRANCH  95  99
ATOM     99  S   UNL     1       5.188  -1.531   2.094  1.00  0.00     0.124 S 
ATOM    100  O   UNL     1       6.456  -0.844   2.317  1.00  0.00    -0.237 OA
ATOM    101  O   UNL     1       4.517  -1.977   3.314  1.00  0.00    -0.237 OA
ATOM    102  O   UNL     1       5.178  -2.494   0.998  1.00  0.00    -0.744 OA
ENDBRANCH  95  99
ENDBRANCH  69  92
ENDBRANCH  43  44
ENDBRANCH  36  38
ENDBRANCH  35  36
ENDBRANCH  34  35
ENDBRANCH   1  34
TORSDOF 21
