REMARK SMILES O=C(OCCOC(=O)c1cc(/C=C/c2cc(O)cc(O)c2)ccc1O)c1ccc(-c2c3nc(c(-c4cc(S(=O)(=O)[O-])ccc4F)c4ccc([nH]4)c(-c4cc(S(=O)(=O)[O-])ccc4F)c4nc(c(-c5cc(S(=O)(=O)[O-])ccc5F)c5ccc2[nH]5)C=C4)C=C3)cc1
REMARK SMILES IDX 4 1 3 2 2 3 1 4 26 5 27 6 88 7 28 8 87 9 29 10 30 11 31 12
REMARK SMILES IDX 81 13 32 14 86 15 80 16 82 17 33 18 85 19 79 20 78 21 34 23
REMARK SMILES IDX 66 24 46 25 65 26 47 27 50 28 64 29 83 30 48 31 49 32 63 34
REMARK SMILES IDX 84 35 51 36 35 37 36 38 44 39 37 40 43 41 45 42 42 43 38 44
REMARK SMILES IDX 39 45 40 46 41 47 67 48 68 49 76 50 69 51 75 52 77 53 74 54
REMARK SMILES IDX 70 55 71 56 72 57 73 58 52 59 53 60 61 61 54 62 60 63 62 64
REMARK SMILES IDX 59 65 55 66 56 67 57 68 58 69 5 70 6 71 7 72 8 73 9 74 10 75
REMARK SMILES IDX 24 76 11 77 23 78 22 79 25 80 12 82 13 83 14 84 15 85 21 86
REMARK SMILES IDX 16 87 19 88 18 89 17 90 20 92
REMARK H PARENT 82 22 50 33 25 81 17 91 20 93
REMARK Flexibility Score: inf
ROOT
ATOM      1  C   UNL     1       4.037  -1.516  -0.588  1.00  0.00     0.275 C 
ENDROOT
BRANCH   1   2
ATOM      2  O   UNL     1       3.012  -1.216   0.375  1.00  0.00    -0.458 OA
BRANCH   2   3
ATOM      3  C   UNL     1       2.859  -0.143   1.187  1.00  0.00     0.338 C 
ATOM      4  O   UNL     1       1.966  -0.180   2.036  1.00  0.00    -0.246 OA
BRANCH   3   5
ATOM      5  C   UNL     1       3.617   1.142   1.040  1.00  0.00     0.060 A 
ATOM      6  C   UNL     1       4.905   1.293   0.524  1.00  0.00     0.016 A 
ATOM      7  C   UNL     1       2.955   2.301   1.486  1.00  0.00     0.016 A 
ATOM      8  C   UNL     1       5.484   2.559   0.382  1.00  0.00     0.010 A 
ATOM      9  C   UNL     1       3.519   3.570   1.335  1.00  0.00     0.010 A 
ATOM     10  C   UNL     1       4.794   3.704   0.781  1.00  0.00    -0.014 A 
BRANCH  10  11
ATOM     11  C   UNL     1       5.471   5.019   0.753  1.00  0.00     0.031 A 
ATOM     12  C   UNL     1       6.011   5.569   2.037  1.00  0.00     0.074 A 
ATOM     13  C   UNL     1       5.632   5.685  -0.404  1.00  0.00     0.049 A 
ATOM     14  N   UNL     1       6.680   6.671   2.248  1.00  0.00    -0.248 NA
ATOM     15  C   UNL     1       5.787   4.754   3.241  1.00  0.00     0.031 C 
ATOM     16  C   UNL     1       5.215   5.199  -1.717  1.00  0.00     0.029 A 
ATOM     17  N   UNL     1       6.179   6.914  -0.666  1.00  0.00    -0.354 N 
ATOM     18  C   UNL     1       7.004   6.655   3.598  1.00  0.00     0.074 A 
ATOM     19  C   UNL     1       6.377   5.484   4.172  1.00  0.00     0.031 C 
ATOM     20  C   UNL     1       5.463   6.144  -2.640  1.00  0.00     0.029 A 
ATOM     21  C   UNL     1       6.067   7.298  -1.982  1.00  0.00     0.049 A 
ATOM     22  H   UNL     1       6.612   7.469   0.022  1.00  0.00     0.167 HD
ATOM     23  C   UNL     1       7.793   7.516   4.286  1.00  0.00     0.034 A 
ATOM     24  C   UNL     1       6.410   8.454  -2.582  1.00  0.00     0.034 A 
ATOM     25  C   UNL     1       8.353   8.709   3.704  1.00  0.00     0.049 A 
ATOM     26  C   UNL     1       7.130   9.493  -1.761  1.00  0.00     0.074 A 
ATOM     27  C   UNL     1       9.138   9.679   4.298  1.00  0.00     0.029 A 
ATOM     28  N   UNL     1       8.158   9.107   2.385  1.00  0.00    -0.354 N 
ATOM     29  N   UNL     1       7.472   9.447  -0.493  1.00  0.00    -0.248 NA
ATOM     30  C   UNL     1       7.545  10.717  -2.455  1.00  0.00     0.031 C 
ATOM     31  C   UNL     1       9.360  10.695   3.359  1.00  0.00     0.029 A 
ATOM     32  C   UNL     1       8.774  10.327   2.157  1.00  0.00     0.049 A 
ATOM     33  H   UNL     1       7.655   8.596   1.711  1.00  0.00     0.167 HD
ATOM     34  C   UNL     1       8.188  10.614  -0.249  1.00  0.00     0.074 A 
ATOM     35  C   UNL     1       8.221  11.344  -1.503  1.00  0.00     0.031 C 
ATOM     36  C   UNL     1       8.781  11.037   0.897  1.00  0.00     0.034 A 
BRANCH  23  37
ATOM     37  C   UNL     1       8.028   7.191   5.740  1.00  0.00     0.023 A 
ATOM     38  C   UNL     1       8.684   6.004   6.121  1.00  0.00     0.031 A 
ATOM     39  C   UNL     1       7.494   8.003   6.753  1.00  0.00     0.131 A 
ATOM     40  C   UNL     1       8.696   5.612   7.467  1.00  0.00     0.055 A 
ATOM     41  C   UNL     1       7.585   7.648   8.101  1.00  0.00     0.041 A 
ATOM     42  F   UNL     1       6.835   9.132   6.448  1.00  0.00    -0.206 F 
ATOM     43  C   UNL     1       8.169   6.436   8.463  1.00  0.00     0.022 A 
BRANCH  40  44
ATOM     44  S   UNL     1       9.240   3.928   7.872  1.00  0.00     0.124 S 
ATOM     45  O   UNL     1       8.306   3.120   7.091  1.00  0.00    -0.237 OA
ATOM     46  O   UNL     1      10.625   3.925   7.415  1.00  0.00    -0.237 OA
ATOM     47  O   UNL     1       9.060   3.849   9.320  1.00  0.00    -0.744 OA
ENDBRANCH  40  44
ENDBRANCH  23  37
BRANCH  24  48
ATOM     48  C   UNL     1       6.073   8.692  -4.014  1.00  0.00     0.023 A 
ATOM     49  C   UNL     1       7.069   8.825  -4.993  1.00  0.00     0.031 A 
ATOM     50  C   UNL     1       4.731   8.822  -4.419  1.00  0.00     0.131 A 
ATOM     51  C   UNL     1       6.712   9.116  -6.321  1.00  0.00     0.055 A 
ATOM     52  C   UNL     1       4.379   9.079  -5.746  1.00  0.00     0.041 A 
ATOM     53  F   UNL     1       3.737   8.686  -3.527  1.00  0.00    -0.206 F 
ATOM     54  C   UNL     1       5.374   9.239  -6.704  1.00  0.00     0.022 A 
BRANCH  51  55
ATOM     55  S   UNL     1       8.030   9.390  -7.537  1.00  0.00     0.124 S 
ATOM     56  O   UNL     1       8.784  10.476  -6.921  1.00  0.00    -0.237 OA
ATOM     57  O   UNL     1       8.685   8.086  -7.565  1.00  0.00    -0.237 OA
ATOM     58  O   UNL     1       7.301   9.745  -8.753  1.00  0.00    -0.744 OA
ENDBRANCH  51  55
ENDBRANCH  24  48
BRANCH  36  59
ATOM     59  C   UNL     1       9.554  12.328   0.821  1.00  0.00     0.023 A 
ATOM     60  C   UNL     1       8.912  13.562   0.621  1.00  0.00     0.031 A 
ATOM     61  C   UNL     1      10.955  12.318   0.939  1.00  0.00     0.131 A 
ATOM     62  C   UNL     1       9.677  14.729   0.487  1.00  0.00     0.055 A 
ATOM     63  C   UNL     1      11.705  13.492   0.867  1.00  0.00     0.041 A 
ATOM     64  F   UNL     1      11.617  11.165   1.128  1.00  0.00    -0.206 F 
ATOM     65  C   UNL     1      11.067  14.706   0.626  1.00  0.00     0.022 A 
BRANCH  62  66
ATOM     66  S   UNL     1       8.834  16.270   0.036  1.00  0.00     0.124 S 
ATOM     67  O   UNL     1       8.239  15.922  -1.251  1.00  0.00    -0.237 OA
ATOM     68  O   UNL     1       7.899  16.450   1.142  1.00  0.00    -0.237 OA
ATOM     69  O   UNL     1       9.917  17.248  -0.025  1.00  0.00    -0.744 OA
ENDBRANCH  62  66
ENDBRANCH  36  59
ENDBRANCH  10  11
ENDBRANCH   3   5
ENDBRANCH   2   3
ENDBRANCH   1   2
BRANCH   1  70
ATOM     70  C   UNL     1       3.786  -0.949  -1.986  1.00  0.00     0.275 C 
BRANCH  70  71
ATOM     71  O   UNL     1       3.345   0.413  -1.966  1.00  0.00    -0.458 OA
BRANCH  71  72
ATOM     72  C   UNL     1       2.014   0.601  -2.154  1.00  0.00     0.342 C 
ATOM     73  O   UNL     1       1.167  -0.265  -2.314  1.00  0.00    -0.246 OA
BRANCH  72  74
ATOM     74  C   UNL     1       1.683   2.023  -1.954  1.00  0.00     0.102 A 
ATOM     75  C   UNL     1       0.748   2.330  -0.952  1.00  0.00     0.027 A 
ATOM     76  C   UNL     1       2.272   3.042  -2.700  1.00  0.00     0.130 A 
ATOM     77  C   UNL     1       0.458   3.663  -0.631  1.00  0.00    -0.025 A 
ATOM     78  C   UNL     1       1.953   4.370  -2.426  1.00  0.00     0.048 A 
ATOM     79  C   UNL     1       1.068   4.676  -1.387  1.00  0.00     0.012 A 
BRANCH  76  80
ATOM     80  O   UNL     1       3.151   2.749  -3.703  1.00  0.00    -0.507 OA
ATOM     81  H   UNL     1       3.368   1.856  -3.890  1.00  0.00     0.293 HD
ENDBRANCH  76  80
BRANCH  77  82
ATOM     82  C   UNL     1      -0.465   4.056   0.448  1.00  0.00     0.009 C 
ATOM     83  C   UNL     1      -0.889   3.269   1.452  1.00  0.00     0.009 C 
BRANCH  83  84
ATOM     84  C   UNL     1      -1.839   3.716   2.484  1.00  0.00    -0.018 A 
ATOM     85  C   UNL     1      -2.935   4.533   2.166  1.00  0.00     0.054 A 
ATOM     86  C   UNL     1      -1.697   3.250   3.800  1.00  0.00     0.054 A 
ATOM     87  C   UNL     1      -3.854   4.886   3.152  1.00  0.00     0.119 A 
ATOM     88  C   UNL     1      -2.630   3.616   4.771  1.00  0.00     0.119 A 
ATOM     89  C   UNL     1      -3.711   4.431   4.455  1.00  0.00     0.092 A 
BRANCH  87  90
ATOM     90  O   UNL     1      -4.926   5.681   2.863  1.00  0.00    -0.508 OA
ATOM     91  H   UNL     1      -5.049   6.004   1.992  1.00  0.00     0.293 HD
ENDBRANCH  87  90
BRANCH  88  92
ATOM     92  O   UNL     1      -2.519   3.182   6.061  1.00  0.00    -0.508 OA
ATOM     93  H   UNL     1      -3.155   3.439   6.698  1.00  0.00     0.293 HD
ENDBRANCH  88  92
ENDBRANCH  83  84
ENDBRANCH  77  82
ENDBRANCH  72  74
ENDBRANCH  71  72
ENDBRANCH  70  71
ENDBRANCH   1  70
TORSDOF 19
