REMARK SMILES CCC(CC)[C@@H](C)[NH2+][C@@H](C)[C@@H](C)C(=O)OCCOC(=O)c1ccc(-c2c3nc(c(-c4cc(S(=O)(=O)[O-])ccc4F)c4ccc([nH]4)c(-c4cc(S(=O)(=O)[O-])ccc4F)c4nc(c(-c5cc(S(=O)(=O)[O-])ccc5F)c5ccc2[nH]5)C=C4)C=C3)cc1
REMARK SMILES IDX 16 1 15 2 13 3 14 4 11 5 12 6 9 7 10 8 8 9 6 12 7 13 3 14
REMARK SMILES IDX 2 15 1 16 4 17 5 18 17 19 18 20 19 21 20 22 21 23 22 24
REMARK SMILES IDX 83 25 23 26 82 27 24 28 25 29 26 30 76 31 27 32 81 33 75 34
REMARK SMILES IDX 77 35 28 36 80 37 74 38 73 39 29 41 61 42 41 43 60 44 42 45
REMARK SMILES IDX 45 46 59 47 78 48 43 49 44 50 58 52 79 53 46 54 30 55 31 56
REMARK SMILES IDX 39 57 32 58 38 59 40 60 37 61 33 62 34 63 35 64 36 65 62 66
REMARK SMILES IDX 63 67 71 68 64 69 70 70 72 71 69 72 65 73 66 74 67 75 68 76
REMARK SMILES IDX 47 77 48 78 56 79 49 80 55 81 57 82 54 83 50 84 51 85 52 86
REMARK SMILES IDX 53 87
REMARK H PARENT 8 10 8 11 77 40 45 51
REMARK Flexibility Score: inf
ROOT
ATOM      1  C   UNL     1      -1.272  -5.112   8.487  1.00  0.00     0.274 C 
ENDROOT
BRANCH   1   2
ATOM      2  O   UNL     1      -0.885  -4.214   7.425  1.00  0.00    -0.462 OA
BRANCH   2   3
ATOM      3  C   UNL     1       0.182  -3.422   7.713  1.00  0.00     0.314 C 
ATOM      4  O   UNL     1       0.708  -3.352   8.821  1.00  0.00    -0.252 OA
BRANCH   3   5
ATOM      5  C   UNL     1       0.662  -2.569   6.548  1.00  0.00     0.154 C 
ATOM      6  C   UNL     1       0.154  -1.150   6.824  1.00  0.00     0.026 C 
BRANCH   5   7
ATOM      7  C   UNL     1       0.315  -3.072   5.115  1.00  0.00     0.193 C 
ATOM      8  C   UNL     1       0.815  -4.506   4.896  1.00  0.00     0.076 C 
BRANCH   7   9
ATOM      9  N   UNL     1       0.943  -2.139   4.158  1.00  0.00    -0.341 N 
ATOM     10  H   UNL     1       0.767  -1.196   4.505  1.00  0.00     0.346 HD
ATOM     11  H   UNL     1       1.915  -2.448   4.127  1.00  0.00     0.346 HD
BRANCH   9  12
ATOM     12  C   UNL     1       0.530  -2.159   2.744  1.00  0.00     0.182 C 
ATOM     13  C   UNL     1       1.214  -3.316   1.996  1.00  0.00     0.075 C 
BRANCH  12  14
ATOM     14  C   UNL     1       0.924  -0.772   2.103  1.00  0.00     0.046 C 
BRANCH  14  15
ATOM     15  C   UNL     1       0.492  -0.665   0.615  1.00  0.00     0.006 C 
ATOM     16  C   UNL     1       0.952   0.611  -0.081  1.00  0.00     0.004 C 
ENDBRANCH  14  15
BRANCH  14  17
ATOM     17  C   UNL     1       0.418   0.445   2.926  1.00  0.00     0.006 C 
ATOM     18  C   UNL     1      -1.095   0.563   3.042  1.00  0.00     0.004 C 
ENDBRANCH  14  17
ENDBRANCH  12  14
ENDBRANCH   9  12
ENDBRANCH   7   9
ENDBRANCH   5   7
ENDBRANCH   3   5
ENDBRANCH   2   3
ENDBRANCH   1   2
BRANCH   1  19
ATOM     19  C   UNL     1      -0.570  -6.464   8.346  1.00  0.00     0.275 C 
BRANCH  19  20
ATOM     20  O   UNL     1       0.855  -6.277   8.296  1.00  0.00    -0.458 OA
BRANCH  20  21
ATOM     21  C   UNL     1       1.529  -7.129   7.491  1.00  0.00     0.338 C 
ATOM     22  O   UNL     1       1.052  -8.081   6.885  1.00  0.00    -0.246 OA
BRANCH  21  23
ATOM     23  C   UNL     1       2.962  -6.768   7.437  1.00  0.00     0.060 A 
ATOM     24  C   UNL     1       3.392  -5.436   7.456  1.00  0.00     0.016 A 
ATOM     25  C   UNL     1       3.899  -7.795   7.308  1.00  0.00     0.016 A 
ATOM     26  C   UNL     1       4.749  -5.131   7.318  1.00  0.00     0.010 A 
ATOM     27  C   UNL     1       5.260  -7.491   7.236  1.00  0.00     0.010 A 
ATOM     28  C   UNL     1       5.700  -6.157   7.228  1.00  0.00    -0.014 A 
BRANCH  28  29
ATOM     29  C   UNL     1       7.157  -5.869   7.140  1.00  0.00     0.031 A 
ATOM     30  C   UNL     1       7.935  -6.296   5.926  1.00  0.00     0.074 A 
ATOM     31  C   UNL     1       7.793  -5.294   8.179  1.00  0.00     0.049 A 
ATOM     32  N   UNL     1       9.230  -6.356   5.747  1.00  0.00    -0.248 NA
ATOM     33  C   UNL     1       7.145  -6.728   4.763  1.00  0.00     0.031 C 
ATOM     34  C   UNL     1       7.149  -4.806   9.401  1.00  0.00     0.029 A 
ATOM     35  N   UNL     1       9.128  -5.048   8.387  1.00  0.00    -0.354 N 
ATOM     36  C   UNL     1       9.415  -6.863   4.465  1.00  0.00     0.074 A 
ATOM     37  C   UNL     1       8.094  -7.112   3.921  1.00  0.00     0.031 C 
ATOM     38  C   UNL     1       8.089  -4.331  10.232  1.00  0.00     0.029 A 
ATOM     39  C   UNL     1       9.404  -4.547   9.638  1.00  0.00     0.049 A 
ATOM     40  H   UNL     1       9.820  -5.215   7.707  1.00  0.00     0.167 HD
ATOM     41  C   UNL     1      10.578  -7.098   3.806  1.00  0.00     0.034 A 
ATOM     42  C   UNL     1      10.580  -4.336  10.262  1.00  0.00     0.034 A 
ATOM     43  C   UNL     1      11.884  -6.839   4.364  1.00  0.00     0.049 A 
ATOM     44  C   UNL     1      11.859  -4.666   9.539  1.00  0.00     0.074 A 
ATOM     45  C   UNL     1      13.127  -7.028   3.781  1.00  0.00     0.029 A 
ATOM     46  N   UNL     1      12.121  -6.339   5.639  1.00  0.00    -0.354 N 
ATOM     47  N   UNL     1      12.022  -5.174   8.339  1.00  0.00    -0.248 NA
ATOM     48  C   UNL     1      13.112  -4.396  10.255  1.00  0.00     0.031 C 
ATOM     49  C   UNL     1      14.110  -6.699   4.722  1.00  0.00     0.029 A 
ATOM     50  C   UNL     1      13.485  -6.237   5.868  1.00  0.00     0.049 A 
ATOM     51  H   UNL     1      11.421  -6.093   6.286  1.00  0.00     0.167 HD
ATOM     52  C   UNL     1      13.398  -5.265   8.151  1.00  0.00     0.074 A 
ATOM     53  C   UNL     1      14.017  -4.744   9.353  1.00  0.00     0.031 C 
ATOM     54  C   UNL     1      14.088  -5.732   7.079  1.00  0.00     0.034 A 
BRANCH  41  55
ATOM     55  C   UNL     1      10.485  -7.714   2.430  1.00  0.00     0.023 A 
ATOM     56  C   UNL     1       9.892  -7.036   1.351  1.00  0.00     0.031 A 
ATOM     57  C   UNL     1      10.979  -9.011   2.199  1.00  0.00     0.131 A 
ATOM     58  C   UNL     1       9.748  -7.680   0.112  1.00  0.00     0.055 A 
ATOM     59  C   UNL     1      10.900  -9.618   0.944  1.00  0.00     0.041 A 
ATOM     60  F   UNL     1      11.537  -9.716   3.196  1.00  0.00    -0.206 F 
ATOM     61  C   UNL     1      10.269  -8.958  -0.105  1.00  0.00     0.022 A 
BRANCH  58  62
ATOM     62  S   UNL     1       8.751  -6.878  -1.174  1.00  0.00     0.124 S 
ATOM     63  O   UNL     1       7.462  -6.730  -0.501  1.00  0.00    -0.237 OA
ATOM     64  O   UNL     1       9.488  -5.644  -1.421  1.00  0.00    -0.237 OA
ATOM     65  O   UNL     1       8.764  -7.843  -2.271  1.00  0.00    -0.744 OA
ENDBRANCH  58  62
ENDBRANCH  41  55
BRANCH  42  66
ATOM     66  C   UNL     1      10.604  -3.847  11.669  1.00  0.00     0.023 A 
ATOM     67  C   UNL     1      11.135  -2.589  11.989  1.00  0.00     0.031 A 
ATOM     68  C   UNL     1      10.118  -4.647  12.720  1.00  0.00     0.131 A 
ATOM     69  C   UNL     1      11.202  -2.181  13.331  1.00  0.00     0.055 A 
ATOM     70  C   UNL     1      10.139  -4.215  14.046  1.00  0.00     0.041 A 
ATOM     71  F   UNL     1       9.598  -5.859  12.466  1.00  0.00    -0.206 F 
ATOM     72  C   UNL     1      10.694  -2.979  14.359  1.00  0.00     0.022 A 
BRANCH  69  73
ATOM     73  S   UNL     1      12.032  -0.617  13.721  1.00  0.00     0.124 S 
ATOM     74  O   UNL     1      13.365  -0.843  13.172  1.00  0.00    -0.237 OA
ATOM     75  O   UNL     1      11.203   0.352  13.012  1.00  0.00    -0.237 OA
ATOM     76  O   UNL     1      11.960  -0.548  15.179  1.00  0.00    -0.744 OA
ENDBRANCH  69  73
ENDBRANCH  42  66
BRANCH  54  77
ATOM     77  C   UNL     1      15.593  -5.652   7.154  1.00  0.00     0.023 A 
ATOM     78  C   UNL     1      16.333  -6.448   8.046  1.00  0.00     0.031 A 
ATOM     79  C   UNL     1      16.292  -4.745   6.338  1.00  0.00     0.131 A 
ATOM     80  C   UNL     1      17.723  -6.281   8.141  1.00  0.00     0.055 A 
ATOM     81  C   UNL     1      17.680  -4.623   6.397  1.00  0.00     0.041 A 
ATOM     82  F   UNL     1      15.633  -3.960   5.470  1.00  0.00    -0.206 F 
ATOM     83  C   UNL     1      18.402  -5.384   7.312  1.00  0.00     0.022 A 
BRANCH  80  84
ATOM     84  S   UNL     1      18.625  -7.189   9.427  1.00  0.00     0.124 S 
ATOM     85  O   UNL     1      17.973  -6.719  10.645  1.00  0.00    -0.237 OA
ATOM     86  O   UNL     1      18.371  -8.579   9.064  1.00  0.00    -0.237 OA
ATOM     87  O   UNL     1      20.007  -6.747   9.254  1.00  0.00    -0.744 OA
ENDBRANCH  80  84
ENDBRANCH  54  77
ENDBRANCH  28  29
ENDBRANCH  21  23
ENDBRANCH  20  21
ENDBRANCH  19  20
ENDBRANCH   1  19
TORSDOF 20
