REMARK SMILES O=C(OCCOC(=O)[C@H]1CC[C@@H]([NH+]2CCCC2)CC1)c1ccc(-c2c3nc(c(-c4cc(S(=O)(=O)[O-])ccc4F)c4ccc([nH]4)c(-c4cc(S(=O)(=O)[O-])ccc4F)c4nc(c(-c5cc(S(=O)(=O)[O-])ccc5F)c5ccc2[nH]5)C=C4)C=C3)cc1
REMARK SMILES IDX 4 1 3 2 2 3 1 4 20 5 21 6 82 7 22 8 81 9 23 10 24 11 25 12
REMARK SMILES IDX 75 13 26 14 80 15 74 16 76 17 27 18 79 19 73 20 72 21 28 23
REMARK SMILES IDX 60 24 40 25 59 26 41 27 44 28 58 29 77 30 42 31 43 32 57 34
REMARK SMILES IDX 78 35 45 36 29 37 30 38 38 39 31 40 37 41 39 42 36 43 32 44
REMARK SMILES IDX 33 45 34 46 35 47 61 48 62 49 70 50 63 51 69 52 71 53 68 54
REMARK SMILES IDX 64 55 65 56 66 57 67 58 46 59 47 60 55 61 48 62 54 63 56 64
REMARK SMILES IDX 53 65 49 66 50 67 51 68 52 69 5 70 6 71 7 72 8 73 9 74 10 75
REMARK SMILES IDX 19 76 11 77 18 78 12 79 13 80 14 81 17 82 15 84 16 85
REMARK H PARENT 76 22 44 33 13 83
REMARK Flexibility Score: inf
ROOT
ATOM      1  C   UNL     1       4.184   1.468   0.432  1.00  0.00     0.275 C 
ENDROOT
BRANCH   1   2
ATOM      2  O   UNL     1       3.178   1.190  -0.554  1.00  0.00    -0.458 OA
BRANCH   2   3
ATOM      3  C   UNL     1       3.038   0.127  -1.383  1.00  0.00     0.338 C 
ATOM      4  O   UNL     1       2.074   0.130  -2.150  1.00  0.00    -0.246 OA
BRANCH   3   5
ATOM      5  C   UNL     1       3.899  -1.107  -1.348  1.00  0.00     0.060 A 
ATOM      6  C   UNL     1       5.140  -1.252  -0.718  1.00  0.00     0.016 A 
ATOM      7  C   UNL     1       3.342  -2.255  -1.942  1.00  0.00     0.016 A 
ATOM      8  C   UNL     1       5.736  -2.511  -0.548  1.00  0.00     0.010 A 
ATOM      9  C   UNL     1       3.916  -3.518  -1.747  1.00  0.00     0.010 A 
ATOM     10  C   UNL     1       5.109  -3.661  -1.020  1.00  0.00    -0.014 A 
BRANCH  10  11
ATOM     11  C   UNL     1       5.755  -4.993  -0.907  1.00  0.00     0.031 A 
ATOM     12  C   UNL     1       6.231  -5.627  -2.179  1.00  0.00     0.074 A 
ATOM     13  C   UNL     1       5.911  -5.634   0.271  1.00  0.00     0.049 A 
ATOM     14  N   UNL     1       6.770  -6.799  -2.369  1.00  0.00    -0.248 NA
ATOM     15  C   UNL     1       6.082  -4.820  -3.403  1.00  0.00     0.031 C 
ATOM     16  C   UNL     1       5.568  -5.097   1.586  1.00  0.00     0.029 A 
ATOM     17  N   UNL     1       6.362  -6.903   0.555  1.00  0.00    -0.354 N 
ATOM     18  C   UNL     1       7.074  -6.842  -3.721  1.00  0.00     0.074 A 
ATOM     19  C   UNL     1       6.522  -5.653  -4.327  1.00  0.00     0.031 C 
ATOM     20  C   UNL     1       5.720  -6.057   2.517  1.00  0.00     0.029 A 
ATOM     21  C   UNL     1       6.200  -7.269   1.876  1.00  0.00     0.049 A 
ATOM     22  H   UNL     1       6.763  -7.495  -0.121  1.00  0.00     0.167 HD
ATOM     23  C   UNL     1       7.826  -7.750  -4.384  1.00  0.00     0.034 A 
ATOM     24  C   UNL     1       6.409  -8.447   2.499  1.00  0.00     0.034 A 
ATOM     25  C   UNL     1       8.340  -8.941  -3.769  1.00  0.00     0.049 A 
ATOM     26  C   UNL     1       7.054  -9.549   1.700  1.00  0.00     0.074 A 
ATOM     27  C   UNL     1       9.099  -9.947  -4.333  1.00  0.00     0.029 A 
ATOM     28  N   UNL     1       8.121  -9.296  -2.442  1.00  0.00    -0.354 N 
ATOM     29  N   UNL     1       7.402  -9.547   0.433  1.00  0.00    -0.248 NA
ATOM     30  C   UNL     1       7.399 -10.780   2.420  1.00  0.00     0.031 C 
ATOM     31  C   UNL     1       9.280 -10.943  -3.367  1.00  0.00     0.029 A 
ATOM     32  C   UNL     1       8.701 -10.524  -2.178  1.00  0.00     0.049 A 
ATOM     33  H   UNL     1       7.626  -8.752  -1.787  1.00  0.00     0.167 HD
ATOM     34  C   UNL     1       8.083 -10.740   0.226  1.00  0.00     0.074 A 
ATOM     35  C   UNL     1       8.075 -11.445   1.494  1.00  0.00     0.031 C 
ATOM     36  C   UNL     1       8.687 -11.197  -0.900  1.00  0.00     0.034 A 
BRANCH  23  37
ATOM     37  C   UNL     1       8.092  -7.451  -5.835  1.00  0.00     0.023 A 
ATOM     38  C   UNL     1       8.799  -6.292  -6.213  1.00  0.00     0.031 A 
ATOM     39  C   UNL     1       7.522  -8.239  -6.845  1.00  0.00     0.131 A 
ATOM     40  C   UNL     1       8.817  -5.894  -7.556  1.00  0.00     0.055 A 
ATOM     41  C   UNL     1       7.626  -7.885  -8.191  1.00  0.00     0.041 A 
ATOM     42  F   UNL     1       6.811  -9.335  -6.537  1.00  0.00    -0.206 F 
ATOM     43  C   UNL     1       8.257  -6.696  -8.552  1.00  0.00     0.022 A 
BRANCH  40  44
ATOM     44  S   UNL     1       9.412  -4.226  -7.955  1.00  0.00     0.124 S 
ATOM     45  O   UNL     1       8.445  -3.391  -7.244  1.00  0.00    -0.237 OA
ATOM     46  O   UNL     1      10.766  -4.233  -7.416  1.00  0.00    -0.237 OA
ATOM     47  O   UNL     1       9.320  -4.170  -9.413  1.00  0.00    -0.744 OA
ENDBRANCH  40  44
ENDBRANCH  23  37
BRANCH  24  48
ATOM     48  C   UNL     1       6.037  -8.658   3.933  1.00  0.00     0.023 A 
ATOM     49  C   UNL     1       7.009  -8.901   4.920  1.00  0.00     0.031 A 
ATOM     50  C   UNL     1       4.686  -8.710   4.323  1.00  0.00     0.131 A 
ATOM     51  C   UNL     1       6.618  -9.242   6.227  1.00  0.00     0.055 A 
ATOM     52  C   UNL     1       4.303  -9.006   5.636  1.00  0.00     0.041 A 
ATOM     53  F   UNL     1       3.711  -8.497   3.426  1.00  0.00    -0.206 F 
ATOM     54  C   UNL     1       5.271  -9.290   6.594  1.00  0.00     0.022 A 
BRANCH  51  55
ATOM     55  S   UNL     1       7.896  -9.730   7.423  1.00  0.00     0.124 S 
ATOM     56  O   UNL     1       8.571 -10.811   6.715  1.00  0.00    -0.237 OA
ATOM     57  O   UNL     1       8.652  -8.491   7.577  1.00  0.00    -0.237 OA
ATOM     58  O   UNL     1       7.127 -10.137   8.597  1.00  0.00    -0.744 OA
ENDBRANCH  51  55
ENDBRANCH  24  48
BRANCH  36  59
ATOM     59  C   UNL     1       9.457 -12.484  -0.783  1.00  0.00     0.023 A 
ATOM     60  C   UNL     1       8.820 -13.709  -0.533  1.00  0.00     0.031 A 
ATOM     61  C   UNL     1      10.856 -12.477  -0.929  1.00  0.00     0.131 A 
ATOM     62  C   UNL     1       9.587 -14.871  -0.381  1.00  0.00     0.055 A 
ATOM     63  C   UNL     1      11.607 -13.648  -0.849  1.00  0.00     0.041 A 
ATOM     64  F   UNL     1      11.514 -11.329  -1.162  1.00  0.00    -0.206 F 
ATOM     65  C   UNL     1      10.973 -14.853  -0.561  1.00  0.00     0.022 A 
BRANCH  62  66
ATOM     66  S   UNL     1       8.756 -16.391   0.149  1.00  0.00     0.124 S 
ATOM     67  O   UNL     1       8.204 -15.998   1.442  1.00  0.00    -0.237 OA
ATOM     68  O   UNL     1       7.785 -16.606  -0.918  1.00  0.00    -0.237 OA
ATOM     69  O   UNL     1       9.839 -17.371   0.208  1.00  0.00    -0.744 OA
ENDBRANCH  62  66
ENDBRANCH  36  59
ENDBRANCH  10  11
ENDBRANCH   3   5
ENDBRANCH   2   3
ENDBRANCH   1   2
BRANCH   1  70
ATOM     70  C   UNL     1       3.996   0.731   1.761  1.00  0.00     0.274 C 
BRANCH  70  71
ATOM     71  O   UNL     1       3.344  -0.540   1.605  1.00  0.00    -0.462 OA
BRANCH  71  72
ATOM     72  C   UNL     1       2.054  -0.632   2.035  1.00  0.00     0.309 C 
ATOM     73  O   UNL     1       1.451   0.280   2.580  1.00  0.00    -0.252 OA
BRANCH  72  74
ATOM     74  C   UNL     1       1.412  -2.000   1.744  1.00  0.00     0.099 C 
ATOM     75  C   UNL     1       2.381  -3.049   1.188  1.00  0.00     0.021 C 
ATOM     76  C   UNL     1       0.629  -2.450   2.983  1.00  0.00     0.021 C 
ATOM     77  C   UNL     1       2.068  -4.519   1.415  1.00  0.00     0.066 C 
ATOM     78  C   UNL     1       0.311  -3.938   3.023  1.00  0.00     0.066 C 
ATOM     79  C   UNL     1       1.534  -4.840   2.808  1.00  0.00     0.184 C 
BRANCH  79  80
ATOM     80  N   UNL     1       2.557  -4.904   3.860  1.00  0.00    -0.333 N 
ATOM     81  C   UNL     1       2.081  -5.465   5.125  1.00  0.00     0.262 C 
ATOM     82  C   UNL     1       3.388  -3.757   4.207  1.00  0.00     0.262 C 
ATOM     83  H   UNL     1       3.177  -5.516   3.329  1.00  0.00     0.348 HD
ATOM     84  C   UNL     1       1.886  -4.259   6.023  1.00  0.00     0.067 C 
ATOM     85  C   UNL     1       3.003  -3.320   5.614  1.00  0.00     0.067 C 
ENDBRANCH  79  80
ENDBRANCH  72  74
ENDBRANCH  71  72
ENDBRANCH  70  71
ENDBRANCH   1  70
TORSDOF 15
