REMARK SMILES O=C(OCCOC(=O)[C@@H](c1c[nH]c2cc(OCc3ccccc3)ccc12)[NH+]1CCSCC1)c1ccc(-c2c3nc(c(-c4cc(S(=O)(=O)[O-])ccc4F)c4ccc([nH]4)c(-c4cc(S(=O)(=O)[O-])ccc4F)c4nc(c(-c5cc(S(=O)(=O)[O-])ccc5F)c5ccc2[nH]5)C=C4)C=C3)cc1
REMARK SMILES IDX 5 1 4 2 3 3 2 4 1 5 33 6 34 7 95 8 35 9 94 10 36 11 37 12
REMARK SMILES IDX 38 13 88 14 39 15 93 16 87 17 89 18 40 19 92 20 86 21 85 22
REMARK SMILES IDX 41 24 73 25 53 26 72 27 54 28 57 29 71 30 90 31 55 32 56 33
REMARK SMILES IDX 70 35 91 36 58 37 42 38 43 39 51 40 44 41 50 42 52 43 49 44
REMARK SMILES IDX 45 45 46 46 47 47 48 48 74 49 75 50 83 51 76 52 82 53 84 54
REMARK SMILES IDX 81 55 77 56 78 57 79 58 80 59 59 60 60 61 68 62 61 63 67 64
REMARK SMILES IDX 69 65 66 66 62 67 63 68 64 69 65 70 6 71 7 72 8 73 9 74
REMARK SMILES IDX 10 75 11 76 26 77 12 78 13 79 25 80 14 82 24 83 15 84 16 85
REMARK SMILES IDX 17 86 18 87 19 88 23 89 20 90 22 91 21 92 27 93 28 94 32 95
REMARK SMILES IDX 29 97 31 98 30 99
REMARK H PARENT 89 23 57 34 12 81 27 96
REMARK Flexibility Score: inf
ROOT
ATOM      1  C   UNL     1       3.594   2.255   0.275  1.00  0.00     0.274 C 
ENDROOT
BRANCH   1   2
ATOM      2  C   UNL     1       4.069   1.588  -1.012  1.00  0.00     0.275 C 
BRANCH   2   3
ATOM      3  O   UNL     1       3.384   0.380  -1.354  1.00  0.00    -0.458 OA
BRANCH   3   4
ATOM      4  C   UNL     1       3.675  -0.886  -0.975  1.00  0.00     0.338 C 
ATOM      5  O   UNL     1       3.084  -1.809  -1.533  1.00  0.00    -0.246 OA
BRANCH   4   6
ATOM      6  C   UNL     1       4.564  -1.205   0.188  1.00  0.00     0.060 A 
ATOM      7  C   UNL     1       5.693  -0.501   0.621  1.00  0.00     0.016 A 
ATOM      8  C   UNL     1       4.208  -2.345   0.908  1.00  0.00     0.016 A 
ATOM      9  C   UNL     1       6.359  -0.842   1.812  1.00  0.00     0.010 A 
ATOM     10  C   UNL     1       4.858  -2.672   2.097  1.00  0.00     0.010 A 
ATOM     11  C   UNL     1       5.921  -1.909   2.595  1.00  0.00    -0.014 A 
BRANCH  11  12
ATOM     12  C   UNL     1       6.578  -2.288   3.884  1.00  0.00     0.031 A 
ATOM     13  C   UNL     1       7.047  -3.709   4.078  1.00  0.00     0.074 A 
ATOM     14  C   UNL     1       6.656  -1.423   4.920  1.00  0.00     0.049 A 
ATOM     15  N   UNL     1       7.465  -4.311   5.164  1.00  0.00    -0.248 NA
ATOM     16  C   UNL     1       6.949  -4.592   2.906  1.00  0.00     0.031 C 
ATOM     17  C   UNL     1       6.150  -0.048   4.934  1.00  0.00     0.029 A 
ATOM     18  N   UNL     1       7.157  -1.594   6.190  1.00  0.00    -0.354 N 
ATOM     19  C   UNL     1       7.663  -5.638   4.793  1.00  0.00     0.074 A 
ATOM     20  C   UNL     1       7.131  -5.779   3.456  1.00  0.00     0.031 C 
ATOM     21  C   UNL     1       6.341   0.486   6.154  1.00  0.00     0.029 A 
ATOM     22  C   UNL     1       6.988  -0.500   7.011  1.00  0.00     0.049 A 
ATOM     23  H   UNL     1       7.597  -2.424   6.486  1.00  0.00     0.167 HD
ATOM     24  C   UNL     1       8.329  -6.626   5.444  1.00  0.00     0.034 A 
ATOM     25  C   UNL     1       7.321  -0.316   8.306  1.00  0.00     0.034 A 
ATOM     26  C   UNL     1       8.931  -6.458   6.739  1.00  0.00     0.049 A 
ATOM     27  C   UNL     1       8.074  -1.409   9.026  1.00  0.00     0.074 A 
ATOM     28  C   UNL     1       9.703  -7.349   7.462  1.00  0.00     0.029 A 
ATOM     29  N   UNL     1       8.845  -5.298   7.496  1.00  0.00    -0.354 N 
ATOM     30  N   UNL     1       8.354  -2.626   8.618  1.00  0.00    -0.248 NA
ATOM     31  C   UNL     1       8.605  -1.085  10.357  1.00  0.00     0.031 C 
ATOM     32  C   UNL     1      10.076  -6.729   8.662  1.00  0.00     0.029 A 
ATOM     33  C   UNL     1       9.566  -5.441   8.669  1.00  0.00     0.049 A 
ATOM     34  H   UNL     1       8.345  -4.490   7.236  1.00  0.00     0.167 HD
ATOM     35  C   UNL     1       9.153  -3.183   9.614  1.00  0.00     0.074 A 
ATOM     36  C   UNL     1       9.299  -2.176  10.643  1.00  0.00     0.031 C 
ATOM     37  C   UNL     1       9.730  -4.411   9.665  1.00  0.00     0.034 A 
BRANCH  24  38
ATOM     38  C   UNL     1       8.492  -7.928   4.696  1.00  0.00     0.023 A 
ATOM     39  C   UNL     1       9.137  -7.949   3.445  1.00  0.00     0.031 A 
ATOM     40  C   UNL     1       7.913  -9.121   5.154  1.00  0.00     0.131 A 
ATOM     41  C   UNL     1       9.044  -9.080   2.626  1.00  0.00     0.055 A 
ATOM     42  C   UNL     1       7.930 -10.286   4.380  1.00  0.00     0.041 A 
ATOM     43  F   UNL     1       7.283  -9.167   6.339  1.00  0.00    -0.206 F 
ATOM     44  C   UNL     1       8.469 -10.261   3.094  1.00  0.00     0.022 A 
BRANCH  41  45
ATOM     45  S   UNL     1       9.490  -8.900   0.877  1.00  0.00     0.124 S 
ATOM     46  O   UNL     1       8.494  -7.931   0.422  1.00  0.00    -0.237 OA
ATOM     47  O   UNL     1      10.861  -8.420   0.943  1.00  0.00    -0.237 OA
ATOM     48  O   UNL     1       9.324 -10.253   0.342  1.00  0.00    -0.744 OA
ENDBRANCH  41  45
ENDBRANCH  24  38
BRANCH  25  49
ATOM     49  C   UNL     1       6.990   0.957   9.011  1.00  0.00     0.023 A 
ATOM     50  C   UNL     1       8.000   1.843   9.417  1.00  0.00     0.031 A 
ATOM     51  C   UNL     1       5.664   1.262   9.364  1.00  0.00     0.131 A 
ATOM     52  C   UNL     1       7.681   2.952  10.218  1.00  0.00     0.055 A 
ATOM     53  C   UNL     1       5.345   2.393  10.121  1.00  0.00     0.041 A 
ATOM     54  F   UNL     1       4.658   0.457   8.985  1.00  0.00    -0.206 F 
ATOM     55  C   UNL     1       6.360   3.234  10.570  1.00  0.00     0.022 A 
BRANCH  52  56
ATOM     56  S   UNL     1       9.037   3.957  10.884  1.00  0.00     0.124 S 
ATOM     57  O   UNL     1       9.861   2.950  11.543  1.00  0.00    -0.237 OA
ATOM     58  O   UNL     1       9.595   4.548   9.672  1.00  0.00    -0.237 OA
ATOM     59  O   UNL     1       8.361   4.894  11.779  1.00  0.00    -0.744 OA
ENDBRANCH  52  56
ENDBRANCH  25  49
BRANCH  37  60
ATOM     60  C   UNL     1      10.656  -4.686  10.820  1.00  0.00     0.023 A 
ATOM     61  C   UNL     1      10.185  -4.817  12.136  1.00  0.00     0.031 A 
ATOM     62  C   UNL     1      12.039  -4.805  10.593  1.00  0.00     0.131 A 
ATOM     63  C   UNL     1      11.097  -5.006  13.185  1.00  0.00     0.055 A 
ATOM     64  C   UNL     1      12.935  -5.048  11.633  1.00  0.00     0.041 A 
ATOM     65  F   UNL     1      12.540  -4.686   9.352  1.00  0.00    -0.206 F 
ATOM     66  C   UNL     1      12.467  -5.138  12.941  1.00  0.00     0.022 A 
BRANCH  63  67
ATOM     67  S   UNL     1      10.475  -4.998  14.888  1.00  0.00     0.124 S 
ATOM     68  O   UNL     1       9.872  -3.672  14.984  1.00  0.00    -0.237 OA
ATOM     69  O   UNL     1       9.544  -6.122  14.886  1.00  0.00    -0.237 OA
ATOM     70  O   UNL     1      11.678  -5.193  15.694  1.00  0.00    -0.744 OA
ENDBRANCH  63  67
ENDBRANCH  37  60
ENDBRANCH  11  12
ENDBRANCH   4   6
ENDBRANCH   3   4
ENDBRANCH   2   3
ENDBRANCH   1   2
BRANCH   1  71
ATOM     71  O   UNL     1       3.390   1.387   1.407  1.00  0.00    -0.457 OA
BRANCH  71  72
ATOM     72  C   UNL     1       2.079   1.107   1.680  1.00  0.00     0.370 C 
ATOM     73  O   UNL     1       1.179   1.269   0.853  1.00  0.00    -0.245 OA
BRANCH  72  74
ATOM     74  C   UNL     1       1.773   0.715   3.144  1.00  0.00     0.328 C 
BRANCH  74  75
ATOM     75  C   UNL     1       2.086  -0.741   3.472  1.00  0.00     0.046 A 
ATOM     76  C   UNL     1       2.886  -1.201   4.510  1.00  0.00     0.094 A 
ATOM     77  C   UNL     1       1.545  -1.928   2.856  1.00  0.00     0.009 A 
ATOM     78  N   UNL     1       2.777  -2.555   4.614  1.00  0.00    -0.361 N 
ATOM     79  C   UNL     1       1.969  -3.028   3.612  1.00  0.00     0.050 A 
ATOM     80  C   UNL     1       0.752  -2.185   1.717  1.00  0.00     0.015 A 
ATOM     81  H   UNL     1       3.211  -3.108   5.302  1.00  0.00     0.166 HD
ATOM     82  C   UNL     1       1.624  -4.349   3.311  1.00  0.00     0.073 A 
ATOM     83  C   UNL     1       0.428  -3.511   1.380  1.00  0.00     0.047 A 
ATOM     84  C   UNL     1       0.817  -4.571   2.198  1.00  0.00     0.121 A 
BRANCH  84  85
ATOM     85  O   UNL     1       0.472  -5.878   1.974  1.00  0.00    -0.489 OA
BRANCH  85  86
ATOM     86  C   UNL     1      -0.918  -6.108   1.710  1.00  0.00     0.265 C 
BRANCH  86  87
ATOM     87  C   UNL     1      -1.818  -5.778   2.884  1.00  0.00    -0.011 A 
ATOM     88  C   UNL     1      -2.361  -4.491   3.022  1.00  0.00     0.007 A 
ATOM     89  C   UNL     1      -2.073  -6.726   3.884  1.00  0.00     0.007 A 
ATOM     90  C   UNL     1      -3.114  -4.148   4.143  1.00  0.00     0.000 A 
ATOM     91  C   UNL     1      -2.851  -6.389   4.995  1.00  0.00     0.000 A 
ATOM     92  C   UNL     1      -3.362  -5.098   5.128  1.00  0.00     0.000 A 
ENDBRANCH  86  87
ENDBRANCH  85  86
ENDBRANCH  84  85
ENDBRANCH  74  75
BRANCH  74  93
ATOM     93  N   UNL     1       2.369   1.614   4.198  1.00  0.00    -0.318 N 
ATOM     94  C   UNL     1       1.569   1.499   5.454  1.00  0.00     0.274 C 
ATOM     95  C   UNL     1       2.482   3.039   3.840  1.00  0.00     0.274 C 
ATOM     96  H   UNL     1       3.328   1.283   4.312  1.00  0.00     0.349 HD
ATOM     97  C   UNL     1       2.284   2.078   6.678  1.00  0.00     0.131 C 
ATOM     98  C   UNL     1       3.261   3.865   4.883  1.00  0.00     0.131 C 
ATOM     99  S   UNL     1       2.464   3.877   6.515  1.00  0.00    -0.150 SA
ENDBRANCH  74  93
ENDBRANCH  72  74
ENDBRANCH  71  72
ENDBRANCH   1  71
TORSDOF 19
