REMARK SMILES CCc1noc(C)c1C(=O)Nc1cc(Cl)ccc1C(=O)OCCOC(=O)c1ccc(-c2c3nc(c(-c4cc(S(=O)(=O)[O-])ccc4F)c4ccc([nH]4)c(-c4cc(S(=O)(=O)[O-])ccc4F)c4nc(c(-c5cc(S(=O)(=O)[O-])ccc5F)c5ccc2[nH]5)C=C4)C=C3)cc1
REMARK SMILES IDX 22 1 21 2 19 3 20 4 18 5 12 6 13 7 14 8 17 9 15 10 16 11
REMARK SMILES IDX 11 12 9 13 10 14 8 16 3 17 4 18 5 19 6 20 7 21 2 22 1 23
REMARK SMILES IDX 23 24 24 25 25 26 26 27 27 28 28 29 89 30 29 31 88 32 30 33
REMARK SMILES IDX 31 34 32 35 82 36 33 37 87 38 81 39 83 40 34 41 86 42 80 43
REMARK SMILES IDX 79 44 35 46 67 47 47 48 66 49 48 50 51 51 65 52 84 53 49 54
REMARK SMILES IDX 50 55 64 57 85 58 52 59 36 60 37 61 45 62 38 63 44 64 46 65
REMARK SMILES IDX 43 66 39 67 40 68 41 69 42 70 68 71 69 72 77 73 70 74 76 75
REMARK SMILES IDX 78 76 75 77 71 78 72 79 73 80 74 81 53 82 54 83 62 84 55 85
REMARK SMILES IDX 61 86 63 87 60 88 56 89 57 90 58 91 59 92
REMARK H PARENT 11 15 83 45 51 56
REMARK Flexibility Score: inf
ROOT
ATOM      1  C   UNL     1       2.385  -8.680   0.535  1.00  0.00     0.275 C 
ENDROOT
BRANCH   1   2
ATOM      2  O   UNL     1       1.824  -7.731   1.468  1.00  0.00    -0.458 OA
BRANCH   2   3
ATOM      3  C   UNL     1       1.468  -8.211   2.685  1.00  0.00     0.340 C 
ATOM      4  O   UNL     1       1.593  -9.373   3.044  1.00  0.00    -0.246 OA
BRANCH   3   5
ATOM      5  C   UNL     1       0.901  -7.151   3.583  1.00  0.00     0.083 A 
ATOM      6  C   UNL     1       0.531  -5.845   3.181  1.00  0.00     0.057 A 
ATOM      7  C   UNL     1      -0.059  -4.987   4.121  1.00  0.00     0.047 A 
ATOM      8  C   UNL     1      -0.174  -5.369   5.461  1.00  0.00     0.043 A 
ATOM      9  C   UNL     1       0.770  -7.515   4.939  1.00  0.00     0.019 A 
ATOM     10  Cl  UNL     1      -0.850  -4.276   6.604  1.00  0.00    -0.084 Cl
ATOM     11  C   UNL     1       0.262  -6.620   5.879  1.00  0.00     0.021 A 
BRANCH   6  12
ATOM     12  N   UNL     1       0.720  -5.443   1.847  1.00  0.00    -0.321 N 
ATOM     13  C   UNL     1       0.826  -4.230   1.210  1.00  0.00     0.261 C 
ATOM     14  O   UNL     1       0.642  -4.239  -0.010  1.00  0.00    -0.269 OA
ATOM     15  H   UNL     1       0.793  -6.204   1.227  1.00  0.00     0.170 HD
BRANCH  13  16
ATOM     16  C   UNL     1       1.198  -3.006   1.898  1.00  0.00     0.105 A 
ATOM     17  C   UNL     1       0.934  -1.666   1.460  1.00  0.00     0.096 A 
ATOM     18  N   UNL     1       1.372  -0.769   2.352  1.00  0.00    -0.084 NA
ATOM     19  O   UNL     1       2.064  -1.487   3.297  1.00  0.00    -0.361 OA
ATOM     20  C   UNL     1       2.021  -2.812   2.995  1.00  0.00     0.146 A 
ATOM     21  C   UNL     1       2.876  -3.652   3.860  1.00  0.00     0.092 C 
BRANCH  17  22
ATOM     22  C   UNL     1       0.278  -1.203   0.197  1.00  0.00     0.057 C 
ATOM     23  C   UNL     1       0.768   0.155  -0.297  1.00  0.00     0.011 C 
ENDBRANCH  17  22
ENDBRANCH  13  16
ENDBRANCH   6  12
ENDBRANCH   3   5
ENDBRANCH   2   3
ENDBRANCH   1   2
BRANCH   1  24
ATOM     24  C   UNL     1       3.898  -8.508   0.383  1.00  0.00     0.275 C 
BRANCH  24  25
ATOM     25  O   UNL     1       4.595  -8.895   1.581  1.00  0.00    -0.458 OA
BRANCH  25  26
ATOM     26  C   UNL     1       4.930  -7.873   2.401  1.00  0.00     0.338 C 
ATOM     27  O   UNL     1       4.740  -6.681   2.208  1.00  0.00    -0.246 OA
BRANCH  26  28
ATOM     28  C   UNL     1       5.410  -8.406   3.684  1.00  0.00     0.060 A 
ATOM     29  C   UNL     1       4.557  -8.274   4.780  1.00  0.00     0.016 A 
ATOM     30  C   UNL     1       6.695  -8.926   3.845  1.00  0.00     0.016 A 
ATOM     31  C   UNL     1       4.989  -8.636   6.050  1.00  0.00     0.010 A 
ATOM     32  C   UNL     1       7.123  -9.308   5.126  1.00  0.00     0.010 A 
ATOM     33  C   UNL     1       6.280  -9.146   6.242  1.00  0.00    -0.014 A 
BRANCH  33  34
ATOM     34  C   UNL     1       6.749  -9.415   7.630  1.00  0.00     0.031 A 
ATOM     35  C   UNL     1       7.808  -8.540   8.246  1.00  0.00     0.074 A 
ATOM     36  C   UNL     1       6.170 -10.383   8.366  1.00  0.00     0.049 A 
ATOM     37  N   UNL     1       8.387  -8.636   9.416  1.00  0.00    -0.248 NA
ATOM     38  C   UNL     1       8.281  -7.411   7.432  1.00  0.00     0.031 C 
ATOM     39  C   UNL     1       5.096 -11.265   7.904  1.00  0.00     0.029 A 
ATOM     40  N   UNL     1       6.385 -10.775   9.664  1.00  0.00    -0.354 N 
ATOM     41  C   UNL     1       9.320  -7.604   9.465  1.00  0.00     0.074 A 
ATOM     42  C   UNL     1       9.237  -6.907   8.198  1.00  0.00     0.031 C 
ATOM     43  C   UNL     1       4.724 -12.069   8.914  1.00  0.00     0.029 A 
ATOM     44  C   UNL     1       5.572 -11.807  10.073  1.00  0.00     0.049 A 
ATOM     45  H   UNL     1       7.059 -10.357  10.248  1.00  0.00     0.167 HD
ATOM     46  C   UNL     1      10.166  -7.271  10.473  1.00  0.00     0.034 A 
ATOM     47  C   UNL     1       5.530 -12.483  11.239  1.00  0.00     0.034 A 
ATOM     48  C   UNL     1      10.217  -7.954  11.743  1.00  0.00     0.049 A 
ATOM     49  C   UNL     1       6.498 -12.112  12.333  1.00  0.00     0.074 A 
ATOM     50  C   UNL     1      11.036  -7.698  12.831  1.00  0.00     0.029 A 
ATOM     51  N   UNL     1       9.409  -9.025  12.103  1.00  0.00    -0.354 N 
ATOM     52  N   UNL     1       7.417 -11.174  12.341  1.00  0.00    -0.248 NA
ATOM     53  C   UNL     1       6.428 -12.898  13.572  1.00  0.00     0.031 C 
ATOM     54  C   UNL     1      10.759  -8.644  13.825  1.00  0.00     0.029 A 
ATOM     55  C   UNL     1       9.723  -9.452  13.386  1.00  0.00     0.049 A 
ATOM     56  H   UNL     1       8.714  -9.424  11.531  1.00  0.00     0.167 HD
ATOM     57  C   UNL     1       8.030 -11.255  13.588  1.00  0.00     0.074 A 
ATOM     58  C   UNL     1       7.357 -12.313  14.314  1.00  0.00     0.031 C 
ATOM     59  C   UNL     1       9.059 -10.524  14.087  1.00  0.00     0.034 A 
BRANCH  46  60
ATOM     60  C   UNL     1      11.148  -6.155  10.208  1.00  0.00     0.023 A 
ATOM     61  C   UNL     1      10.734  -4.828  10.002  1.00  0.00     0.031 A 
ATOM     62  C   UNL     1      12.524  -6.437  10.120  1.00  0.00     0.131 A 
ATOM     63  C   UNL     1      11.675  -3.849   9.645  1.00  0.00     0.055 A 
ATOM     64  C   UNL     1      13.464  -5.443   9.841  1.00  0.00     0.041 A 
ATOM     65  F   UNL     1      12.976  -7.689  10.286  1.00  0.00    -0.206 F 
ATOM     66  C   UNL     1      13.040  -4.142   9.587  1.00  0.00     0.022 A 
BRANCH  63  67
ATOM     67  S   UNL     1      11.075  -2.221   9.116  1.00  0.00     0.124 S 
ATOM     68  O   UNL     1      10.222  -2.576   7.984  1.00  0.00    -0.237 OA
ATOM     69  O   UNL     1      10.389  -1.736  10.307  1.00  0.00    -0.237 OA
ATOM     70  O   UNL     1      12.299  -1.504   8.763  1.00  0.00    -0.744 OA
ENDBRANCH  63  67
ENDBRANCH  46  60
BRANCH  47  71
ATOM     71  C   UNL     1       4.581 -13.619  11.418  1.00  0.00     0.023 A 
ATOM     72  C   UNL     1       3.551 -13.567  12.370  1.00  0.00     0.031 A 
ATOM     73  C   UNL     1       4.721 -14.795  10.659  1.00  0.00     0.131 A 
ATOM     74  C   UNL     1       2.722 -14.684  12.562  1.00  0.00     0.055 A 
ATOM     75  C   UNL     1       3.864 -15.884  10.819  1.00  0.00     0.041 A 
ATOM     76  F   UNL     1       5.692 -14.896   9.737  1.00  0.00    -0.206 F 
ATOM     77  C   UNL     1       2.863 -15.836  11.784  1.00  0.00     0.022 A 
BRANCH  74  78
ATOM     78  S   UNL     1       1.494 -14.638  13.897  1.00  0.00     0.124 S 
ATOM     79  O   UNL     1       2.336 -14.421  15.069  1.00  0.00    -0.237 OA
ATOM     80  O   UNL     1       0.652 -13.517  13.495  1.00  0.00    -0.237 OA
ATOM     81  O   UNL     1       0.858 -15.952  13.820  1.00  0.00    -0.744 OA
ENDBRANCH  74  78
ENDBRANCH  47  71
BRANCH  59  82
ATOM     82  C   UNL     1       9.493 -10.841  15.496  1.00  0.00     0.023 A 
ATOM     83  C   UNL     1      10.126 -12.055  15.816  1.00  0.00     0.031 A 
ATOM     84  C   UNL     1       9.242  -9.929  16.536  1.00  0.00     0.131 A 
ATOM     85  C   UNL     1      10.436 -12.350  17.152  1.00  0.00     0.055 A 
ATOM     86  C   UNL     1       9.599 -10.206  17.857  1.00  0.00     0.041 A 
ATOM     87  F   UNL     1       8.638  -8.756  16.286  1.00  0.00    -0.206 F 
ATOM     88  C   UNL     1      10.188 -11.428  18.173  1.00  0.00     0.022 A 
BRANCH  85  89
ATOM     89  S   UNL     1      11.085 -13.995  17.553  1.00  0.00     0.124 S 
ATOM     90  O   UNL     1      10.031 -14.870  17.048  1.00  0.00    -0.237 OA
ATOM     91  O   UNL     1      12.344 -14.023  16.816  1.00  0.00    -0.237 OA
ATOM     92  O   UNL     1      11.221 -13.966  19.009  1.00  0.00    -0.744 OA
ENDBRANCH  85  89
ENDBRANCH  59  82
ENDBRANCH  33  34
ENDBRANCH  26  28
ENDBRANCH  25  26
ENDBRANCH  24  25
ENDBRANCH   1  24
TORSDOF 17
