REMARK SMILES O=C(OCCOC(=O)c1cccc(CSc2nc(-c3ccccc3)n[nH]2)c1)c1ccc(-c2c3nc(c(-c4cc(S(=O)(=O)[O-])ccc4F)c4ccc([nH]4)c(-c4cc(S(=O)(=O)[O-])ccc4F)c4nc(c(-c5cc(S(=O)(=O)[O-])ccc5F)c5ccc2[nH]5)C=C4)C=C3)cc1
REMARK SMILES IDX 5 1 4 2 3 3 2 4 1 5 28 6 29 7 90 8 30 9 89 10 31 11 32 12
REMARK SMILES IDX 33 13 83 14 34 15 88 16 82 17 84 18 35 19 87 20 81 21 80 22
REMARK SMILES IDX 36 24 68 25 48 26 67 27 49 28 52 29 66 30 85 31 50 32 51 33
REMARK SMILES IDX 65 35 86 36 53 37 37 38 38 39 46 40 39 41 45 42 47 43 44 44
REMARK SMILES IDX 40 45 41 46 42 47 43 48 69 49 70 50 78 51 71 52 77 53 79 54
REMARK SMILES IDX 76 55 72 56 73 57 74 58 75 59 54 60 55 61 63 62 56 63 62 64
REMARK SMILES IDX 64 65 61 66 57 67 58 68 59 69 60 70 6 71 7 72 8 73 9 74
REMARK SMILES IDX 10 75 27 76 11 77 13 78 12 79 14 80 15 81 16 82 17 83 26 84
REMARK SMILES IDX 18 85 25 86 19 88 20 89 24 90 21 91 23 92 22 93
REMARK H PARENT 84 23 52 34 26 87
REMARK Flexibility Score: inf
ROOT
ATOM      1  C   UNL     1       4.094   1.189  -1.704  1.00  0.00     0.275 C 
ENDROOT
BRANCH   1   2
ATOM      2  C   UNL     1       4.127  -0.331  -1.490  1.00  0.00     0.275 C 
BRANCH   2   3
ATOM      3  O   UNL     1       2.978  -0.876  -0.817  1.00  0.00    -0.458 OA
BRANCH   3   4
ATOM      4  C   UNL     1       2.697  -0.988   0.503  1.00  0.00     0.338 C 
ATOM      5  O   UNL     1       1.675  -1.593   0.829  1.00  0.00    -0.246 OA
BRANCH   4   6
ATOM      6  C   UNL     1       3.479  -0.312   1.591  1.00  0.00     0.060 A 
ATOM      7  C   UNL     1       4.793   0.147   1.494  1.00  0.00     0.016 A 
ATOM      8  C   UNL     1       2.803  -0.100   2.810  1.00  0.00     0.016 A 
ATOM      9  C   UNL     1       5.392   0.854   2.534  1.00  0.00     0.010 A 
ATOM     10  C   UNL     1       3.392   0.622   3.853  1.00  0.00     0.010 A 
ATOM     11  C   UNL     1       4.699   1.097   3.717  1.00  0.00    -0.014 A 
BRANCH  11  12
ATOM     12  C   UNL     1       5.443   1.672   4.856  1.00  0.00     0.031 A 
ATOM     13  C   UNL     1       5.920   0.733   5.920  1.00  0.00     0.074 A 
ATOM     14  C   UNL     1       5.804   2.968   4.864  1.00  0.00     0.049 A 
ATOM     15  N   UNL     1       6.681   0.975   6.951  1.00  0.00    -0.248 NA
ATOM     16  C   UNL     1       5.524  -0.676   5.772  1.00  0.00     0.031 C 
ATOM     17  C   UNL     1       5.534   3.918   3.787  1.00  0.00     0.029 A 
ATOM     18  N   UNL     1       6.489   3.710   5.789  1.00  0.00    -0.354 N 
ATOM     19  C   UNL     1       6.893  -0.259   7.550  1.00  0.00     0.074 A 
ATOM     20  C   UNL     1       6.114  -1.231   6.816  1.00  0.00     0.031 C 
ATOM     21  C   UNL     1       6.001   5.129   4.134  1.00  0.00     0.029 A 
ATOM     22  C   UNL     1       6.598   5.041   5.458  1.00  0.00     0.049 A 
ATOM     23  H   UNL     1       6.867   3.327   6.613  1.00  0.00     0.167 HD
ATOM     24  C   UNL     1       7.698  -0.554   8.598  1.00  0.00     0.034 A 
ATOM     25  C   UNL     1       7.121   6.071   6.150  1.00  0.00     0.034 A 
ATOM     26  C   UNL     1       8.427   0.448   9.332  1.00  0.00     0.049 A 
ATOM     27  C   UNL     1       7.835   5.753   7.436  1.00  0.00     0.074 A 
ATOM     28  C   UNL     1       9.242   0.288  10.435  1.00  0.00     0.029 A 
ATOM     29  N   UNL     1       8.402   1.810   9.047  1.00  0.00    -0.354 N 
ATOM     30  N   UNL     1       8.034   4.580   7.994  1.00  0.00    -0.248 NA
ATOM     31  C   UNL     1       8.435   6.878   8.156  1.00  0.00     0.031 C 
ATOM     32  C   UNL     1       9.637   1.558  10.870  1.00  0.00     0.029 A 
ATOM     33  C   UNL     1       9.148   2.507   9.983  1.00  0.00     0.049 A 
ATOM     34  H   UNL     1       7.925   2.219   8.289  1.00  0.00     0.167 HD
ATOM     35  C   UNL     1       8.844   4.819   9.098  1.00  0.00     0.074 A 
ATOM     36  C   UNL     1       9.085   6.250   9.125  1.00  0.00     0.031 C 
ATOM     37  C   UNL     1       9.362   3.937   9.993  1.00  0.00     0.034 A 
BRANCH  24  38
ATOM     38  C   UNL     1       7.740  -1.998   9.029  1.00  0.00     0.023 A 
ATOM     39  C   UNL     1       8.209  -3.014   8.174  1.00  0.00     0.031 A 
ATOM     40  C   UNL     1       7.198  -2.379  10.268  1.00  0.00     0.131 A 
ATOM     41  C   UNL     1       8.034  -4.360   8.527  1.00  0.00     0.055 A 
ATOM     42  C   UNL     1       7.112  -3.718  10.652  1.00  0.00     0.041 A 
ATOM     43  F   UNL     1       6.704  -1.457  11.109  1.00  0.00    -0.206 F 
ATOM     44  C   UNL     1       7.512  -4.719   9.772  1.00  0.00     0.022 A 
BRANCH  41  45
ATOM     45  S   UNL     1       8.316  -5.632   7.262  1.00  0.00     0.124 S 
ATOM     46  O   UNL     1       7.379  -5.223   6.219  1.00  0.00    -0.237 OA
ATOM     47  O   UNL     1       9.731  -5.461   6.952  1.00  0.00    -0.237 OA
ATOM     48  O   UNL     1       7.972  -6.877   7.945  1.00  0.00    -0.744 OA
ENDBRANCH  41  45
ENDBRANCH  24  38
BRANCH  25  49
ATOM     49  C   UNL     1       6.996   7.471   5.651  1.00  0.00     0.023 A 
ATOM     50  C   UNL     1       8.123   8.236   5.317  1.00  0.00     0.031 A 
ATOM     51  C   UNL     1       5.732   8.086   5.550  1.00  0.00     0.131 A 
ATOM     52  C   UNL     1       7.974   9.584   4.950  1.00  0.00     0.055 A 
ATOM     53  C   UNL     1       5.585   9.414   5.144  1.00  0.00     0.041 A 
ATOM     54  F   UNL     1       4.617   7.396   5.843  1.00  0.00    -0.206 F 
ATOM     55  C   UNL     1       6.713  10.176   4.856  1.00  0.00     0.022 A 
BRANCH  52  56
ATOM     56  S   UNL     1       9.467  10.577   4.675  1.00  0.00     0.124 S 
ATOM     57  O   UNL     1      10.172  10.410   5.941  1.00  0.00    -0.237 OA
ATOM     58  O   UNL     1      10.059   9.914   3.518  1.00  0.00    -0.237 OA
ATOM     59  O   UNL     1       8.943  11.918   4.423  1.00  0.00    -0.744 OA
ENDBRANCH  52  56
ENDBRANCH  25  49
BRANCH  37  60
ATOM     60  C   UNL     1      10.287   4.503  11.040  1.00  0.00     0.023 A 
ATOM     61  C   UNL     1       9.836   5.412  12.011  1.00  0.00     0.031 A 
ATOM     62  C   UNL     1      11.646   4.143  11.047  1.00  0.00     0.131 A 
ATOM     63  C   UNL     1      10.752   5.987  12.902  1.00  0.00     0.055 A 
ATOM     64  C   UNL     1      12.536   4.656  11.989  1.00  0.00     0.041 A 
ATOM     65  F   UNL     1      12.131   3.282  10.137  1.00  0.00    -0.206 F 
ATOM     66  C   UNL     1      12.094   5.598  12.912  1.00  0.00     0.022 A 
BRANCH  63  67
ATOM     67  S   UNL     1      10.188   7.346  13.960  1.00  0.00     0.124 S 
ATOM     68  O   UNL     1       9.711   8.314  12.977  1.00  0.00    -0.237 OA
ATOM     69  O   UNL     1       9.160   6.703  14.771  1.00  0.00    -0.237 OA
ATOM     70  O   UNL     1      11.395   7.739  14.684  1.00  0.00    -0.744 OA
ENDBRANCH  63  67
ENDBRANCH  37  60
ENDBRANCH  11  12
ENDBRANCH   4   6
ENDBRANCH   3   4
ENDBRANCH   2   3
ENDBRANCH   1   2
BRANCH   1  71
ATOM     71  O   UNL     1       3.651   1.934  -0.558  1.00  0.00    -0.458 OA
BRANCH  71  72
ATOM     72  C   UNL     1       2.315   2.165  -0.509  1.00  0.00     0.338 C 
ATOM     73  O   UNL     1       1.492   1.857  -1.357  1.00  0.00    -0.246 OA
BRANCH  72  74
ATOM     74  C   UNL     1       1.940   2.716   0.811  1.00  0.00     0.060 A 
ATOM     75  C   UNL     1       0.845   2.144   1.469  1.00  0.00     0.016 A 
ATOM     76  C   UNL     1       2.613   3.799   1.386  1.00  0.00     0.020 A 
ATOM     77  C   UNL     1       0.465   2.604   2.730  1.00  0.00     0.001 A 
ATOM     78  C   UNL     1       2.177   4.324   2.620  1.00  0.00    -0.037 A 
ATOM     79  C   UNL     1       1.131   3.684   3.306  1.00  0.00     0.004 A 
BRANCH  78  80
ATOM     80  C   UNL     1       2.740   5.628   3.146  1.00  0.00     0.113 C 
BRANCH  80  81
ATOM     81  S   UNL     1       1.573   7.020   3.012  1.00  0.00    -0.082 SA
BRANCH  81  82
ATOM     82  C   UNL     1       1.195   7.026   1.333  1.00  0.00     0.184 A 
ATOM     83  N   UNL     1       1.395   7.983   0.462  1.00  0.00    -0.201 NA
ATOM     84  N   UNL     1       0.476   6.027   0.759  1.00  0.00    -0.254 N 
ATOM     85  C   UNL     1       0.742   7.519  -0.660  1.00  0.00     0.182 A 
ATOM     86  N   UNL     1       0.199   6.298  -0.521  1.00  0.00    -0.153 NA
ATOM     87  H   UNL     1       0.195   5.207   1.226  1.00  0.00     0.192 HD
BRANCH  85  88
ATOM     88  C   UNL     1       0.541   8.331  -1.849  1.00  0.00     0.021 A 
ATOM     89  C   UNL     1      -0.660   8.211  -2.564  1.00  0.00     0.012 A 
ATOM     90  C   UNL     1       1.502   9.253  -2.273  1.00  0.00     0.012 A 
ATOM     91  C   UNL     1      -0.905   9.008  -3.680  1.00  0.00     0.001 A 
ATOM     92  C   UNL     1       1.262  10.040  -3.403  1.00  0.00     0.001 A 
ATOM     93  C   UNL     1       0.058   9.921  -4.100  1.00  0.00     0.000 A 
ENDBRANCH  85  88
ENDBRANCH  81  82
ENDBRANCH  80  81
ENDBRANCH  78  80
ENDBRANCH  72  74
ENDBRANCH  71  72
ENDBRANCH   1  71
TORSDOF 18
