REMARK SMILES C=CCN(CC(=O)OCCOC(=O)c1ccc(-c2c3nc(c(-c4cc(S(=O)(=O)[O-])ccc4F)c4ccc([nH]4)c(-c4cc(S(=O)(=O)[O-])ccc4F)c4nc(c(-c5cc(S(=O)(=O)[O-])ccc5F)c5ccc2[nH]5)C=C4)C=C3)cc1)C(=O)N1CC[C@@H]([NH+]2CCCCC2)C1
REMARK SMILES IDX 9 1 8 2 6 3 7 4 5 5 4 6 3 7 2 8 1 9 77 10 78 11 79 12 80 13
REMARK SMILES IDX 89 14 81 15 82 16 83 17 84 18 88 19 85 21 87 22 86 23 10 24
REMARK SMILES IDX 11 25 12 26 13 27 14 28 15 29 76 30 16 31 75 32 17 33 18 34
REMARK SMILES IDX 19 35 69 36 20 37 74 38 68 39 70 40 21 41 73 42 67 43 66 44
REMARK SMILES IDX 22 46 54 47 34 48 53 49 35 50 38 51 52 52 71 53 36 54 37 55
REMARK SMILES IDX 51 57 72 58 39 59 23 60 24 61 32 62 25 63 31 64 33 65 30 66
REMARK SMILES IDX 26 67 27 68 28 69 29 70 55 71 56 72 64 73 57 74 63 75 65 76
REMARK SMILES IDX 62 77 58 78 59 79 60 80 61 81 40 82 41 83 49 84 42 85 48 86
REMARK SMILES IDX 50 87 47 88 43 89 44 90 45 91 46 92
REMARK H PARENT 83 20 70 45 38 56
REMARK Flexibility Score: inf
ROOT
ATOM      1  C   UNL     1      -5.525   1.200  -2.123  1.00  0.00     0.274 C 
ENDROOT
BRANCH   1   2
ATOM      2  O   UNL     1      -4.107   1.306  -1.888  1.00  0.00    -0.461 OA
BRANCH   2   3
ATOM      3  C   UNL     1      -3.341   0.298  -2.392  1.00  0.00     0.325 C 
ATOM      4  O   UNL     1      -3.790  -0.729  -2.890  1.00  0.00    -0.250 OA
BRANCH   3   5
ATOM      5  C   UNL     1      -1.846   0.633  -2.430  1.00  0.00     0.244 C 
BRANCH   5   6
ATOM      6  N   UNL     1      -1.275   1.276  -1.237  1.00  0.00    -0.310 N 
BRANCH   6   7
ATOM      7  C   UNL     1      -0.865   0.325  -0.206  1.00  0.00     0.149 C 
BRANCH   7   8
ATOM      8  C   UNL     1       0.503  -0.215  -0.531  1.00  0.00    -0.013 C 
ATOM      9  C   UNL     1       1.544  -0.182   0.312  1.00  0.00     0.006 C 
ENDBRANCH   7   8
ENDBRANCH   6   7
BRANCH   6  10
ATOM     10  C   UNL     1      -0.915   2.599  -1.028  1.00  0.00     0.321 C 
ATOM     11  O   UNL     1      -0.186   2.897  -0.075  1.00  0.00    -0.248 OA
BRANCH  10  12
ATOM     12  N   UNL     1      -1.356   3.602  -1.848  1.00  0.00    -0.318 N 
ATOM     13  C   UNL     1      -2.503   3.644  -2.701  1.00  0.00     0.128 C 
ATOM     14  C   UNL     1      -0.852   4.978  -1.682  1.00  0.00     0.186 C 
ATOM     15  C   UNL     1      -2.270   4.831  -3.596  1.00  0.00     0.088 C 
ATOM     16  C   UNL     1      -1.591   5.871  -2.728  1.00  0.00     0.205 C 
BRANCH  16  17
ATOM     17  N   UNL     1      -2.471   6.966  -2.283  1.00  0.00    -0.331 N 
ATOM     18  C   UNL     1      -3.447   6.716  -1.234  1.00  0.00     0.262 C 
ATOM     19  C   UNL     1      -2.988   7.833  -3.356  1.00  0.00     0.262 C 
ATOM     20  H   UNL     1      -1.772   7.505  -1.772  1.00  0.00     0.348 HD
ATOM     21  C   UNL     1      -4.819   6.266  -1.730  1.00  0.00     0.062 C 
ATOM     22  C   UNL     1      -4.411   7.545  -3.861  1.00  0.00     0.062 C 
ATOM     23  C   UNL     1      -5.404   7.227  -2.752  1.00  0.00     0.012 C 
ENDBRANCH  16  17
ENDBRANCH  10  12
ENDBRANCH   6  10
ENDBRANCH   5   6
ENDBRANCH   3   5
ENDBRANCH   2   3
ENDBRANCH   1   2
BRANCH   1  24
ATOM     24  C   UNL     1      -6.074   2.502  -2.722  1.00  0.00     0.275 C 
BRANCH  24  25
ATOM     25  O   UNL     1      -5.316   3.046  -3.821  1.00  0.00    -0.458 OA
BRANCH  25  26
ATOM     26  C   UNL     1      -5.083   2.267  -4.904  1.00  0.00     0.338 C 
ATOM     27  O   UNL     1      -5.479   1.133  -5.090  1.00  0.00    -0.246 OA
BRANCH  26  28
ATOM     28  C   UNL     1      -4.116   2.985  -5.763  1.00  0.00     0.060 A 
ATOM     29  C   UNL     1      -2.895   2.374  -6.080  1.00  0.00     0.016 A 
ATOM     30  C   UNL     1      -4.380   4.291  -6.184  1.00  0.00     0.016 A 
ATOM     31  C   UNL     1      -1.922   3.083  -6.798  1.00  0.00     0.010 A 
ATOM     32  C   UNL     1      -3.414   4.995  -6.908  1.00  0.00     0.010 A 
ATOM     33  C   UNL     1      -2.183   4.394  -7.235  1.00  0.00    -0.014 A 
BRANCH  33  34
ATOM     34  C   UNL     1      -1.379   5.008  -8.322  1.00  0.00     0.031 A 
ATOM     35  C   UNL     1      -0.343   6.072  -8.112  1.00  0.00     0.074 A 
ATOM     36  C   UNL     1      -1.771   4.663  -9.563  1.00  0.00     0.049 A 
ATOM     37  N   UNL     1       0.274   6.798  -9.011  1.00  0.00    -0.248 NA
ATOM     38  C   UNL     1       0.059   6.363  -6.731  1.00  0.00     0.031 C 
ATOM     39  C   UNL     1      -2.787   3.646  -9.860  1.00  0.00     0.029 A 
ATOM     40  N   UNL     1      -1.438   5.172 -10.788  1.00  0.00    -0.354 N 
ATOM     41  C   UNL     1       1.146   7.630  -8.314  1.00  0.00     0.074 A 
ATOM     42  C   UNL     1       0.955   7.331  -6.907  1.00  0.00     0.031 C 
ATOM     43  C   UNL     1      -3.066   3.675 -11.166  1.00  0.00     0.029 A 
ATOM     44  C   UNL     1      -2.263   4.717 -11.788  1.00  0.00     0.049 A 
ATOM     45  H   UNL     1      -0.691   5.795 -10.937  1.00  0.00     0.167 HD
ATOM     46  C   UNL     1       2.018   8.543  -8.816  1.00  0.00     0.034 A 
ATOM     47  C   UNL     1      -2.405   5.123 -13.061  1.00  0.00     0.034 A 
ATOM     48  C   UNL     1       2.167   8.812 -10.234  1.00  0.00     0.049 A 
ATOM     49  C   UNL     1      -1.477   6.166 -13.588  1.00  0.00     0.074 A 
ATOM     50  C   UNL     1       3.099   9.619 -10.867  1.00  0.00     0.029 A 
ATOM     51  N   UNL     1       1.342   8.311 -11.235  1.00  0.00    -0.354 N 
ATOM     52  N   UNL     1      -0.591   6.878 -12.932  1.00  0.00    -0.248 NA
ATOM     53  C   UNL     1      -1.530   6.425 -15.028  1.00  0.00     0.031 C 
ATOM     54  C   UNL     1       2.787   9.671 -12.232  1.00  0.00     0.029 A 
ATOM     55  C   UNL     1       1.712   8.831 -12.469  1.00  0.00     0.049 A 
ATOM     56  H   UNL     1       0.602   7.679 -11.090  1.00  0.00     0.167 HD
ATOM     57  C   UNL     1       0.055   7.645 -13.892  1.00  0.00     0.074 A 
ATOM     58  C   UNL     1      -0.555   7.313 -15.167  1.00  0.00     0.031 C 
ATOM     59  C   UNL     1       1.077   8.523 -13.731  1.00  0.00     0.034 A 
BRANCH  46  60
ATOM     60  C   UNL     1       2.866   9.350  -7.853  1.00  0.00     0.023 A 
ATOM     61  C   UNL     1       3.831   8.755  -7.021  1.00  0.00     0.031 A 
ATOM     62  C   UNL     1       2.751  10.754  -7.814  1.00  0.00     0.131 A 
ATOM     63  C   UNL     1       4.611   9.551  -6.163  1.00  0.00     0.055 A 
ATOM     64  C   UNL     1       3.572  11.545  -7.007  1.00  0.00     0.041 A 
ATOM     65  F   UNL     1       1.841  11.384  -8.573  1.00  0.00    -0.206 F 
ATOM     66  C   UNL     1       4.504  10.944  -6.168  1.00  0.00     0.022 A 
BRANCH  63  67
ATOM     67  S   UNL     1       5.702   8.736  -4.963  1.00  0.00     0.124 S 
ATOM     68  O   UNL     1       4.768   7.858  -4.262  1.00  0.00    -0.237 OA
ATOM     69  O   UNL     1       6.677   8.076  -5.823  1.00  0.00    -0.237 OA
ATOM     70  O   UNL     1       6.223   9.844  -4.165  1.00  0.00    -0.744 OA
ENDBRANCH  63  67
ENDBRANCH  46  60
BRANCH  47  71
ATOM     71  C   UNL     1      -3.474   4.508 -13.884  1.00  0.00     0.023 A 
ATOM     72  C   UNL     1      -3.166   3.548 -14.853  1.00  0.00     0.031 A 
ATOM     73  C   UNL     1      -4.828   4.792 -13.623  1.00  0.00     0.131 A 
ATOM     74  C   UNL     1      -4.203   2.901 -15.539  1.00  0.00     0.055 A 
ATOM     75  C   UNL     1      -5.856   4.124 -14.287  1.00  0.00     0.041 A 
ATOM     76  F   UNL     1      -5.165   5.680 -12.674  1.00  0.00    -0.206 F 
ATOM     77  C   UNL     1      -5.545   3.173 -15.255  1.00  0.00     0.022 A 
BRANCH  74  78
ATOM     78  S   UNL     1      -3.765   1.697 -16.818  1.00  0.00     0.124 S 
ATOM     79  O   UNL     1      -2.943   2.500 -17.717  1.00  0.00    -0.237 OA
ATOM     80  O   UNL     1      -3.063   0.678 -16.045  1.00  0.00    -0.237 OA
ATOM     81  O   UNL     1      -5.061   1.287 -17.355  1.00  0.00    -0.744 OA
ENDBRANCH  74  78
ENDBRANCH  47  71
BRANCH  59  82
ATOM     82  C   UNL     1       1.621   9.152 -14.986  1.00  0.00     0.023 A 
ATOM     83  C   UNL     1       0.870  10.077 -15.732  1.00  0.00     0.031 A 
ATOM     84  C   UNL     1       2.893   8.790 -15.461  1.00  0.00     0.131 A 
ATOM     85  C   UNL     1       1.375  10.566 -16.945  1.00  0.00     0.055 A 
ATOM     86  C   UNL     1       3.414   9.325 -16.640  1.00  0.00     0.041 A 
ATOM     87  F   UNL     1       3.647   7.905 -14.790  1.00  0.00    -0.206 F 
ATOM     88  C   UNL     1       2.649  10.209 -17.395  1.00  0.00     0.022 A 
BRANCH  85  89
ATOM     89  S   UNL     1       0.308  11.612 -17.973  1.00  0.00     0.124 S 
ATOM     90  O   UNL     1      -0.796  10.708 -18.278  1.00  0.00    -0.237 OA
ATOM     91  O   UNL     1      -0.004  12.720 -17.075  1.00  0.00    -0.237 OA
ATOM     92  O   UNL     1       1.160  11.958 -19.109  1.00  0.00    -0.744 OA
ENDBRANCH  85  89
ENDBRANCH  59  82
ENDBRANCH  33  34
ENDBRANCH  26  28
ENDBRANCH  25  26
ENDBRANCH  24  25
ENDBRANCH   1  24
TORSDOF 20
