REMARK SMILES O=C(C[C@@H](C(=O)OCCOC(=O)c1ccc(-c2c3nc(c(-c4cc(S(=O)(=O)[O-])ccc4F)c4ccc([nH]4)c(-c4cc(S(=O)(=O)[O-])ccc4F)c4nc(c(-c5cc(S(=O)(=O)[O-])ccc5F)c5ccc2[nH]5)C=C4)C=C3)cc1)c1ccccc1)Nc1cc(C(F)(F)F)ccc1-n1cncn1
REMARK SMILES IDX 8 1 7 2 5 3 6 4 4 5 3 6 2 7 1 8 82 9 83 11 84 12 92 13 85 14
REMARK SMILES IDX 91 15 90 16 93 17 94 18 97 19 95 20 96 21 86 22 87 23 88 24
REMARK SMILES IDX 89 25 76 26 77 27 81 28 78 29 80 30 79 31 9 32 10 33 11 34
REMARK SMILES IDX 12 35 13 36 14 37 75 38 15 39 74 40 16 41 17 42 18 43 68 44
REMARK SMILES IDX 19 45 73 46 67 47 69 48 20 49 72 50 66 51 65 52 21 54 53 55
REMARK SMILES IDX 33 56 52 57 34 58 37 59 51 60 70 61 35 62 36 63 50 65 71 66
REMARK SMILES IDX 38 67 22 68 23 69 31 70 24 71 30 72 32 73 29 74 25 75 26 76
REMARK SMILES IDX 27 77 28 78 54 79 55 80 63 81 56 82 62 83 64 84 61 85 57 86
REMARK SMILES IDX 58 87 59 88 60 89 39 90 40 91 48 92 41 93 47 94 49 95 46 96
REMARK SMILES IDX 42 97 43 98 44 99 45 100
REMARK H PARENT 82 10 69 53 37 64
REMARK Flexibility Score: inf
ROOT
ATOM      1  C   UNL     1       6.110  -1.922   1.318  1.00  0.00     0.274 C 
ENDROOT
BRANCH   1   2
ATOM      2  O   UNL     1       4.986  -1.005   1.351  1.00  0.00    -0.462 OA
BRANCH   2   3
ATOM      3  C   UNL     1       5.242   0.244   1.846  1.00  0.00     0.314 C 
ATOM      4  O   UNL     1       6.360   0.551   2.237  1.00  0.00    -0.252 OA
BRANCH   3   5
ATOM      5  C   UNL     1       3.968   1.147   1.911  1.00  0.00     0.138 C 
BRANCH   5   6
ATOM      6  C   UNL     1       3.137   1.025   0.613  1.00  0.00     0.120 C 
BRANCH   6   7
ATOM      7  C   UNL     1       2.273  -0.215   0.502  1.00  0.00     0.225 C 
ATOM      8  O   UNL     1       1.135  -0.250   0.959  1.00  0.00    -0.275 OA
ATOM      9  N   UNL     1       2.873  -1.268  -0.168  1.00  0.00    -0.324 N 
ATOM     10  H   UNL     1       3.813  -1.175  -0.444  1.00  0.00     0.170 HD
BRANCH   9  11
ATOM     11  C   UNL     1       2.197  -2.466  -0.471  1.00  0.00     0.067 A 
ATOM     12  C   UNL     1       2.760  -3.641   0.042  1.00  0.00     0.041 A 
ATOM     13  C   UNL     1       0.972  -2.530  -1.154  1.00  0.00     0.090 A 
ATOM     14  C   UNL     1       2.088  -4.870  -0.047  1.00  0.00     0.058 A 
ATOM     15  C   UNL     1       0.288  -3.755  -1.237  1.00  0.00     0.031 A 
ATOM     16  C   UNL     1       0.844  -4.915  -0.689  1.00  0.00     0.015 A 
BRANCH  13  17
ATOM     17  N   UNL     1       0.440  -1.417  -1.852  1.00  0.00    -0.219 N 
ATOM     18  C   UNL     1       1.111  -0.364  -2.431  1.00  0.00     0.226 A 
ATOM     19  N   UNL     1      -0.884  -1.306  -2.142  1.00  0.00    -0.155 NA
ATOM     20  N   UNL     1       0.264   0.503  -2.932  1.00  0.00    -0.223 NA
ATOM     21  C   UNL     1      -0.937  -0.090  -2.691  1.00  0.00     0.246 A 
ENDBRANCH  13  17
BRANCH  14  22
ATOM     22  C   UNL     1       2.684  -6.092   0.607  1.00  0.00     0.416 C 
ATOM     23  F   UNL     1       4.004  -6.250   0.307  1.00  0.00    -0.166 F 
ATOM     24  F   UNL     1       2.619  -6.036   1.966  1.00  0.00    -0.166 F 
ATOM     25  F   UNL     1       2.078  -7.258   0.249  1.00  0.00    -0.166 F 
ENDBRANCH  14  22
ENDBRANCH   9  11
ENDBRANCH   6   7
ENDBRANCH   5   6
BRANCH   5  26
ATOM     26  C   UNL     1       4.342   2.620   2.250  1.00  0.00    -0.033 A 
ATOM     27  C   UNL     1       5.265   2.895   3.281  1.00  0.00     0.004 A 
ATOM     28  C   UNL     1       3.824   3.737   1.564  1.00  0.00     0.004 A 
ATOM     29  C   UNL     1       5.743   4.188   3.520  1.00  0.00     0.000 A 
ATOM     30  C   UNL     1       4.274   5.038   1.829  1.00  0.00     0.000 A 
ATOM     31  C   UNL     1       5.255   5.260   2.787  1.00  0.00     0.000 A 
ENDBRANCH   5  26
ENDBRANCH   3   5
ENDBRANCH   2   3
ENDBRANCH   1   2
BRANCH   1  32
ATOM     32  C   UNL     1       6.777  -1.977  -0.064  1.00  0.00     0.275 C 
BRANCH  32  33
ATOM     33  O   UNL     1       7.532  -0.782  -0.329  1.00  0.00    -0.458 OA
BRANCH  33  34
ATOM     34  C   UNL     1       6.838   0.218  -0.925  1.00  0.00     0.338 C 
ATOM     35  O   UNL     1       5.698   0.124  -1.359  1.00  0.00    -0.246 OA
BRANCH  34  36
ATOM     36  C   UNL     1       7.561   1.498  -0.747  1.00  0.00     0.060 A 
ATOM     37  C   UNL     1       6.809   2.605  -0.349  1.00  0.00     0.016 A 
ATOM     38  C   UNL     1       8.945   1.618  -0.905  1.00  0.00     0.016 A 
ATOM     39  C   UNL     1       7.434   3.810  -0.039  1.00  0.00     0.010 A 
ATOM     40  C   UNL     1       9.569   2.845  -0.632  1.00  0.00     0.010 A 
ATOM     41  C   UNL     1       8.817   3.941  -0.178  1.00  0.00    -0.014 A 
BRANCH  41  42
ATOM     42  C   UNL     1       9.436   5.266   0.068  1.00  0.00     0.031 A 
ATOM     43  C   UNL     1       9.525   6.247  -1.064  1.00  0.00     0.074 A 
ATOM     44  C   UNL     1       9.832   5.623   1.305  1.00  0.00     0.049 A 
ATOM     45  N   UNL     1      10.058   7.440  -1.088  1.00  0.00    -0.248 NA
ATOM     46  C   UNL     1       8.912   5.830  -2.334  1.00  0.00     0.031 C 
ATOM     47  C   UNL     1       9.684   4.802   2.507  1.00  0.00     0.029 A 
ATOM     48  N   UNL     1      10.432   6.773   1.756  1.00  0.00    -0.354 N 
ATOM     49  C   UNL     1       9.842   7.923  -2.373  1.00  0.00     0.074 A 
ATOM     50  C   UNL     1       9.143   6.885  -3.101  1.00  0.00     0.031 C 
ATOM     51  C   UNL     1      10.194   5.472   3.556  1.00  0.00     0.029 A 
ATOM     52  C   UNL     1      10.748   6.745   3.096  1.00  0.00     0.049 A 
ATOM     53  H   UNL     1      10.619   7.546   1.176  1.00  0.00     0.167 HD
ATOM     54  C   UNL     1      10.200   9.120  -2.897  1.00  0.00     0.034 A 
ATOM     55  C   UNL     1      11.437   7.628   3.849  1.00  0.00     0.034 A 
ATOM     56  C   UNL     1      10.932  10.129  -2.172  1.00  0.00     0.049 A 
ATOM     57  C   UNL     1      11.963   8.890   3.197  1.00  0.00     0.074 A 
ATOM     58  C   UNL     1      11.396  11.351  -2.628  1.00  0.00     0.029 A 
ATOM     59  N   UNL     1      11.322  10.029  -0.843  1.00  0.00    -0.354 N 
ATOM     60  N   UNL     1      11.797   9.318   1.966  1.00  0.00    -0.248 NA
ATOM     61  C   UNL     1      12.773   9.786   4.035  1.00  0.00     0.031 C 
ATOM     62  C   UNL     1      12.127  11.955  -1.599  1.00  0.00     0.029 A 
ATOM     63  C   UNL     1      12.049  11.151  -0.474  1.00  0.00     0.049 A 
ATOM     64  H   UNL     1      11.112   9.272  -0.249  1.00  0.00     0.167 HD
ATOM     65  C   UNL     1      12.454  10.546   1.897  1.00  0.00     0.074 A 
ATOM     66  C   UNL     1      13.002  10.798   3.212  1.00  0.00     0.031 C 
ATOM     67  C   UNL     1      12.592  11.391   0.843  1.00  0.00     0.034 A 
BRANCH  54  68
ATOM     68  C   UNL     1       9.874   9.357  -4.348  1.00  0.00     0.023 A 
ATOM     69  C   UNL     1       8.549   9.474  -4.802  1.00  0.00     0.031 A 
ATOM     70  C   UNL     1      10.908   9.430  -5.298  1.00  0.00     0.131 A 
ATOM     71  C   UNL     1       8.291   9.598  -6.175  1.00  0.00     0.055 A 
ATOM     72  C   UNL     1      10.648   9.627  -6.655  1.00  0.00     0.041 A 
ATOM     73  F   UNL     1      12.190   9.294  -4.924  1.00  0.00    -0.206 F 
ATOM     74  C   UNL     1       9.332   9.700  -7.102  1.00  0.00     0.022 A 
BRANCH  71  75
ATOM     75  S   UNL     1       6.575   9.487  -6.750  1.00  0.00     0.124 S 
ATOM     76  O   UNL     1       6.190   8.160  -6.276  1.00  0.00    -0.237 OA
ATOM     77  O   UNL     1       5.942  10.615  -6.077  1.00  0.00    -0.237 OA
ATOM     78  O   UNL     1       6.691   9.613  -8.202  1.00  0.00    -0.744 OA
ENDBRANCH  71  75
ENDBRANCH  54  68
BRANCH  55  79
ATOM     79  C   UNL     1      11.758   7.338   5.280  1.00  0.00     0.023 A 
ATOM     80  C   UNL     1      11.363   8.209   6.310  1.00  0.00     0.031 A 
ATOM     81  C   UNL     1      12.568   6.241   5.627  1.00  0.00     0.131 A 
ATOM     82  C   UNL     1      11.833   8.007   7.619  1.00  0.00     0.055 A 
ATOM     83  C   UNL     1      12.976   6.007   6.942  1.00  0.00     0.041 A 
ATOM     84  F   UNL     1      12.992   5.383   4.686  1.00  0.00    -0.206 F 
ATOM     85  C   UNL     1      12.624   6.904   7.944  1.00  0.00     0.022 A 
BRANCH  82  86
ATOM     86  S   UNL     1      11.506   9.283   8.867  1.00  0.00     0.124 S 
ATOM     87  O   UNL     1      12.092  10.464   8.243  1.00  0.00    -0.237 OA
ATOM     88  O   UNL     1      10.050   9.258   8.952  1.00  0.00    -0.237 OA
ATOM     89  O   UNL     1      12.207   8.789  10.051  1.00  0.00    -0.744 OA
ENDBRANCH  82  86
ENDBRANCH  55  79
BRANCH  67  90
ATOM     90  C   UNL     1      13.320  12.693   1.086  1.00  0.00     0.023 A 
ATOM     91  C   UNL     1      14.692  12.734   1.392  1.00  0.00     0.031 A 
ATOM     92  C   UNL     1      12.626  13.914   1.005  1.00  0.00     0.131 A 
ATOM     93  C   UNL     1      15.314  13.965   1.655  1.00  0.00     0.055 A 
ATOM     94  C   UNL     1      13.263  15.139   1.207  1.00  0.00     0.041 A 
ATOM     95  F   UNL     1      11.315  13.936   0.717  1.00  0.00    -0.206 F 
ATOM     96  C   UNL     1      14.612  15.168   1.546  1.00  0.00     0.022 A 
BRANCH  93  97
ATOM     97  S   UNL     1      17.037  13.970   2.224  1.00  0.00     0.124 S 
ATOM     98  O   UNL     1      16.961  13.159   3.434  1.00  0.00    -0.237 OA
ATOM     99  O   UNL     1      17.740  13.367   1.096  1.00  0.00    -0.237 OA
ATOM    100  O   UNL     1      17.322  15.387   2.443  1.00  0.00    -0.744 OA
ENDBRANCH  93  97
ENDBRANCH  67  90
ENDBRANCH  41  42
ENDBRANCH  34  36
ENDBRANCH  33  34
ENDBRANCH  32  33
ENDBRANCH   1  32
TORSDOF 20
