REMARK SMILES CCCCCCNC(=O)Oc1cccc(-c2ccc([C@H](C)C(=O)OCCOC(=O)c3ccc(-c4c5nc(c(-c6cc(S(=O)(=O)[O-])ccc6F)c6ccc([nH]6)c(-c6cc(S(=O)(=O)[O-])ccc6F)c6nc(c(-c7cc(S(=O)(=O)[O-])ccc7F)c7ccc4[nH]7)C=C6)C=C5)cc3)cc2F)c1
REMARK SMILES IDX 20 1 21 2 19 3 16 4 17 5 94 6 18 7 93 8 95 9 15 10 11 11
REMARK SMILES IDX 12 12 96 13 13 14 14 15 10 16 8 17 7 18 9 20 6 21 5 22 4 23
REMARK SMILES IDX 3 24 2 25 1 26 22 27 23 28 24 29 25 30 26 31 27 32 28 33
REMARK SMILES IDX 29 34 30 35 31 36 92 37 32 38 91 39 33 40 34 41 35 42 85 43
REMARK SMILES IDX 36 44 90 45 84 46 86 47 37 48 89 49 83 50 82 51 38 53 70 54
REMARK SMILES IDX 50 55 69 56 51 57 54 58 68 59 87 60 52 61 53 62 67 64 88 65
REMARK SMILES IDX 55 66 39 67 40 68 48 69 41 70 47 71 49 72 46 73 42 74 43 75
REMARK SMILES IDX 44 76 45 77 71 78 72 79 80 80 73 81 79 82 81 83 78 84 74 85
REMARK SMILES IDX 75 86 76 87 77 88 56 89 57 90 65 91 58 92 64 93 66 94 63 95
REMARK SMILES IDX 59 96 60 97 61 98 62 99
REMARK H PARENT 7 19 86 52 54 63
REMARK Flexibility Score: inf
ROOT
ATOM      1  C   UNL     1      -5.121   3.749  13.224  1.00  0.00     0.126 C 
ATOM      2  C   UNL     1      -5.064   2.667  12.140  1.00  0.00     0.025 C 
ENDROOT
BRANCH   1   3
ATOM      3  C   UNL     1      -6.442   3.820  13.978  1.00  0.00    -0.031 A 
ATOM      4  C   UNL     1      -8.916   4.111  15.346  1.00  0.00     0.018 A 
ATOM      5  C   UNL     1      -7.704   4.127  16.044  1.00  0.00     0.012 A 
ATOM      6  C   UNL     1      -8.867   3.961  13.956  1.00  0.00     0.131 A 
ATOM      7  C   UNL     1      -6.490   3.985  15.372  1.00  0.00     0.005 A 
ATOM      8  C   UNL     1      -7.657   3.830  13.277  1.00  0.00     0.044 A 
ATOM      9  F   UNL     1     -10.000   3.946  13.236  1.00  0.00    -0.206 F 
BRANCH   4  10
ATOM     10  C   UNL     1     -10.180   4.209  16.077  1.00  0.00    -0.012 A 
ATOM     11  C   UNL     1     -12.302   3.243  16.718  1.00  0.00     0.133 A 
ATOM     12  C   UNL     1     -12.566   4.315  17.565  1.00  0.00     0.047 A 
ATOM     13  C   UNL     1     -11.136   3.194  15.960  1.00  0.00     0.056 A 
ATOM     14  C   UNL     1     -11.631   5.340  17.678  1.00  0.00     0.004 A 
ATOM     15  C   UNL     1     -10.445   5.285  16.942  1.00  0.00     0.009 A 
BRANCH  11  16
ATOM     16  O   UNL     1     -13.304   2.276  16.564  1.00  0.00    -0.410 OA
BRANCH  16  17
ATOM     17  C   UNL     1     -12.933   0.941  16.616  1.00  0.00     0.412 C 
ATOM     18  N   UNL     1     -13.929   0.100  16.204  1.00  0.00    -0.321 N 
ATOM     19  H   UNL     1     -13.740  -0.866  16.241  1.00  0.00     0.167 HD
ATOM     20  O   UNL     1     -11.853   0.499  16.986  1.00  0.00    -0.224 OA
BRANCH  18  21
ATOM     21  C   UNL     1     -15.235   0.494  15.720  1.00  0.00     0.119 C 
BRANCH  21  22
ATOM     22  C   UNL     1     -15.519  -0.064  14.326  1.00  0.00     0.021 C 
BRANCH  22  23
ATOM     23  C   UNL     1     -15.589  -1.593  14.248  1.00  0.00     0.002 C 
BRANCH  23  24
ATOM     24  C   UNL     1     -16.599  -2.255  15.191  1.00  0.00    -0.000 C 
BRANCH  24  25
ATOM     25  C   UNL     1     -18.044  -1.774  15.047  1.00  0.00    -0.003 C 
ATOM     26  C   UNL     1     -18.639  -2.063  13.678  1.00  0.00     0.004 C 
ENDBRANCH  24  25
ENDBRANCH  23  24
ENDBRANCH  22  23
ENDBRANCH  21  22
ENDBRANCH  18  21
ENDBRANCH  16  17
ENDBRANCH  11  16
ENDBRANCH   4  10
ENDBRANCH   1   3
BRANCH   1  27
ATOM     27  C   UNL     1      -3.909   3.688  14.152  1.00  0.00     0.313 C 
ATOM     28  O   UNL     1      -3.451   4.680  14.711  1.00  0.00    -0.252 OA
BRANCH  27  29
ATOM     29  O   UNL     1      -3.463   2.420  14.368  1.00  0.00    -0.462 OA
BRANCH  29  30
ATOM     30  C   UNL     1      -2.346   2.296  15.268  1.00  0.00     0.274 C 
BRANCH  30  31
ATOM     31  C   UNL     1      -1.006   2.317  14.527  1.00  0.00     0.275 C 
BRANCH  31  32
ATOM     32  O   UNL     1      -0.707   3.615  13.981  1.00  0.00    -0.458 OA
BRANCH  32  33
ATOM     33  C   UNL     1      -1.145   3.818  12.715  1.00  0.00     0.338 C 
ATOM     34  O   UNL     1      -1.703   3.009  11.995  1.00  0.00    -0.246 OA
BRANCH  33  35
ATOM     35  C   UNL     1      -0.968   5.231  12.346  1.00  0.00     0.060 A 
ATOM     36  C   UNL     1      -2.103   6.006  12.088  1.00  0.00     0.016 A 
ATOM     37  C   UNL     1       0.308   5.758  12.163  1.00  0.00     0.016 A 
ATOM     38  C   UNL     1      -1.974   7.318  11.644  1.00  0.00     0.010 A 
ATOM     39  C   UNL     1       0.438   7.071  11.707  1.00  0.00     0.010 A 
ATOM     40  C   UNL     1      -0.701   7.852  11.433  1.00  0.00    -0.014 A 
BRANCH  40  41
ATOM     41  C   UNL     1      -0.539   9.187  10.816  1.00  0.00     0.031 A 
ATOM     42  C   UNL     1      -0.112   9.265   9.380  1.00  0.00     0.074 A 
ATOM     43  C   UNL     1      -0.752  10.304  11.534  1.00  0.00     0.049 A 
ATOM     44  N   UNL     1       0.329  10.289   8.700  1.00  0.00    -0.248 NA
ATOM     45  C   UNL     1      -0.187   8.013   8.611  1.00  0.00     0.031 C 
ATOM     46  C   UNL     1      -1.263  10.344  12.904  1.00  0.00     0.029 A 
ATOM     47  N   UNL     1      -0.540  11.622  11.216  1.00  0.00    -0.354 N 
ATOM     48  C   UNL     1       0.609   9.803   7.428  1.00  0.00     0.074 A 
ATOM     49  C   UNL     1       0.301   8.388   7.438  1.00  0.00     0.031 C 
ATOM     50  C   UNL     1      -1.294  11.621  13.320  1.00  0.00     0.029 A 
ATOM     51  C   UNL     1      -0.742  12.478  12.274  1.00  0.00     0.049 A 
ATOM     52  H   UNL     1      -0.270  11.925  10.319  1.00  0.00     0.167 HD
ATOM     53  C   UNL     1       1.087  10.482   6.357  1.00  0.00     0.034 A 
ATOM     54  C   UNL     1      -0.454  13.790  12.399  1.00  0.00     0.034 A 
ATOM     55  C   UNL     1       1.390  11.891   6.382  1.00  0.00     0.049 A 
ATOM     56  C   UNL     1       0.175  14.506  11.225  1.00  0.00     0.074 A 
ATOM     57  C   UNL     1       1.921  12.680   5.377  1.00  0.00     0.029 A 
ATOM     58  N   UNL     1       1.182  12.725   7.474  1.00  0.00    -0.354 N 
ATOM     59  N   UNL     1       0.507  14.027  10.047  1.00  0.00    -0.248 NA
ATOM     60  C   UNL     1       0.470  15.935  11.395  1.00  0.00     0.031 C 
ATOM     61  C   UNL     1       2.083  13.976   5.877  1.00  0.00     0.029 A 
ATOM     62  C   UNL     1       1.583  14.014   7.169  1.00  0.00     0.049 A 
ATOM     63  H   UNL     1       0.805  12.440   8.338  1.00  0.00     0.167 HD
ATOM     64  C   UNL     1       1.004  15.108   9.324  1.00  0.00     0.074 A 
ATOM     65  C   UNL     1       0.930  16.261  10.197  1.00  0.00     0.031 C 
ATOM     66  C   UNL     1       1.474  15.150   8.052  1.00  0.00     0.034 A 
BRANCH  53  67
ATOM     67  C   UNL     1       1.363   9.696   5.101  1.00  0.00     0.023 A 
ATOM     68  C   UNL     1       0.330   9.099   4.358  1.00  0.00     0.031 A 
ATOM     69  C   UNL     1       2.684   9.526   4.650  1.00  0.00     0.131 A 
ATOM     70  C   UNL     1       0.640   8.318   3.235  1.00  0.00     0.055 A 
ATOM     71  C   UNL     1       2.980   8.807   3.491  1.00  0.00     0.041 A 
ATOM     72  F   UNL     1       3.713  10.051   5.335  1.00  0.00    -0.206 F 
ATOM     73  C   UNL     1       1.955   8.189   2.781  1.00  0.00     0.022 A 
BRANCH  70  74
ATOM     74  S   UNL     1      -0.690   7.378   2.436  1.00  0.00     0.124 S 
ATOM     75  O   UNL     1      -1.113   6.490   3.517  1.00  0.00    -0.237 OA
ATOM     76  O   UNL     1      -1.636   8.422   2.061  1.00  0.00    -0.237 OA
ATOM     77  O   UNL     1      -0.019   6.714   1.321  1.00  0.00    -0.744 OA
ENDBRANCH  70  74
ENDBRANCH  53  67
BRANCH  54  78
ATOM     78  C   UNL     1      -0.680  14.503  13.690  1.00  0.00     0.023 A 
ATOM     79  C   UNL     1      -1.544  15.607  13.767  1.00  0.00     0.031 A 
ATOM     80  C   UNL     1       0.026  14.141  14.852  1.00  0.00     0.131 A 
ATOM     81  C   UNL     1      -1.630  16.347  14.956  1.00  0.00     0.055 A 
ATOM     82  C   UNL     1      -0.114  14.840  16.052  1.00  0.00     0.041 A 
ATOM     83  F   UNL     1       0.871  13.097  14.838  1.00  0.00    -0.206 F 
ATOM     84  C   UNL     1      -0.933  15.963  16.103  1.00  0.00     0.022 A 
BRANCH  81  85
ATOM     85  S   UNL     1      -2.570  17.899  14.943  1.00  0.00     0.124 S 
ATOM     86  O   UNL     1      -1.943  18.616  13.838  1.00  0.00    -0.237 OA
ATOM     87  O   UNL     1      -3.930  17.426  14.712  1.00  0.00    -0.237 OA
ATOM     88  O   UNL     1      -2.321  18.458  16.270  1.00  0.00    -0.744 OA
ENDBRANCH  81  85
ENDBRANCH  54  78
BRANCH  66  89
ATOM     89  C   UNL     1       1.849  16.501   7.499  1.00  0.00     0.023 A 
ATOM     90  C   UNL     1       2.982  17.202   7.943  1.00  0.00     0.031 A 
ATOM     91  C   UNL     1       1.060  17.082   6.489  1.00  0.00     0.131 A 
ATOM     92  C   UNL     1       3.273  18.465   7.405  1.00  0.00     0.055 A 
ATOM     93  C   UNL     1       1.382  18.314   5.923  1.00  0.00     0.041 A 
ATOM     94  F   UNL     1      -0.033  16.450   6.030  1.00  0.00    -0.206 F 
ATOM     95  C   UNL     1       2.490  19.017   6.387  1.00  0.00     0.022 A 
BRANCH  92  96
ATOM     96  S   UNL     1       4.660  19.409   8.092  1.00  0.00     0.124 S 
ATOM     97  O   UNL     1       4.256  19.576   9.485  1.00  0.00    -0.237 OA
ATOM     98  O   UNL     1       5.792  18.517   7.860  1.00  0.00    -0.237 OA
ATOM     99  O   UNL     1       4.668  20.637   7.298  1.00  0.00    -0.744 OA
ENDBRANCH  92  96
ENDBRANCH  66  89
ENDBRANCH  40  41
ENDBRANCH  33  35
ENDBRANCH  32  33
ENDBRANCH  31  32
ENDBRANCH  30  31
ENDBRANCH  29  30
ENDBRANCH  27  29
ENDBRANCH   1  27
TORSDOF 23
