REMARK SMILES CC1=C(C)C[C@@H](C(=O)OCCOC(=O)c2ccc(-c3c4nc(c(-c5cc(S(=O)(=O)[O-])ccc5F)c5ccc([nH]5)c(-c5cc(S(=O)(=O)[O-])ccc5F)c5nc(c(-c6cc(S(=O)(=O)[O-])ccc6F)c6ccc3[nH]6)C=C5)C=C4)cc2)[C@@H](C(=O)NCC[NH+]2CCOCC2)C1
REMARK SMILES IDX 10 1 9 2 7 3 8 4 6 5 1 6 2 7 3 8 90 9 4 10 5 11 78 12 79 13
REMARK SMILES IDX 80 14 81 15 82 17 83 18 84 19 85 20 89 21 86 23 88 24 87 25
REMARK SMILES IDX 11 26 12 27 13 28 14 29 15 30 16 31 77 32 17 33 76 34 18 35
REMARK SMILES IDX 19 36 20 37 70 38 21 39 75 40 69 41 71 42 22 43 74 44 68 45
REMARK SMILES IDX 67 46 23 48 55 49 35 50 54 51 36 52 39 53 53 54 72 55 37 56
REMARK SMILES IDX 38 57 52 59 73 60 40 61 24 62 25 63 33 64 26 65 32 66 34 67
REMARK SMILES IDX 31 68 27 69 28 70 29 71 30 72 56 73 57 74 65 75 58 76 64 77
REMARK SMILES IDX 66 78 63 79 59 80 60 81 61 82 62 83 41 84 42 85 50 86 43 87
REMARK SMILES IDX 49 88 51 89 48 90 44 91 45 92 46 93 47 94
REMARK H PARENT 81 16 84 22 71 47 39 58
REMARK Flexibility Score: inf
ROOT
ATOM      1  C   UNL     1       3.285  -1.962   5.179  1.00  0.00     0.274 C 
ENDROOT
BRANCH   1   2
ATOM      2  O   UNL     1       2.240  -1.626   4.242  1.00  0.00    -0.462 OA
BRANCH   2   3
ATOM      3  C   UNL     1       1.356  -2.618   3.995  1.00  0.00     0.310 C 
ATOM      4  O   UNL     1       1.519  -3.780   4.361  1.00  0.00    -0.252 OA
BRANCH   3   5
ATOM      5  C   UNL     1       0.154  -2.227   3.151  1.00  0.00     0.116 C 
ATOM      6  C   UNL     1       0.880   0.241  -0.445  1.00  0.00     0.039 C 
ATOM      7  C   UNL     1       0.490  -0.683   0.675  1.00  0.00    -0.074 C 
ATOM      8  C   UNL     1       0.846  -1.983   0.710  1.00  0.00    -0.073 C 
ATOM      9  C   UNL     1      -0.413  -0.094   1.735  1.00  0.00     0.045 C 
ATOM     10  C   UNL     1       1.691  -2.680  -0.321  1.00  0.00     0.039 C 
ATOM     11  C   UNL     1       0.309  -2.890   1.783  1.00  0.00     0.046 C 
ATOM     12  C   UNL     1      -0.392  -0.787   3.110  1.00  0.00     0.097 C 
BRANCH  12  13
ATOM     13  C   UNL     1      -0.006   0.101   4.293  1.00  0.00     0.224 C 
ATOM     14  O   UNL     1      -0.659   0.019   5.338  1.00  0.00    -0.275 OA
ATOM     15  N   UNL     1       1.040   0.963   4.284  1.00  0.00    -0.350 N 
ATOM     16  H   UNL     1       1.097   1.541   5.079  1.00  0.00     0.163 HD
BRANCH  15  17
ATOM     17  C   UNL     1       2.090   1.184   3.306  1.00  0.00     0.177 C 
BRANCH  17  18
ATOM     18  C   UNL     1       2.105   2.639   2.801  1.00  0.00     0.283 C 
BRANCH  18  19
ATOM     19  N   UNL     1       2.720   3.574   3.766  1.00  0.00    -0.330 N 
ATOM     20  C   UNL     1       2.363   4.979   3.463  1.00  0.00     0.291 C 
ATOM     21  C   UNL     1       4.199   3.484   3.789  1.00  0.00     0.291 C 
ATOM     22  H   UNL     1       2.352   3.298   4.677  1.00  0.00     0.348 HD
ATOM     23  C   UNL     1       3.064   5.543   2.215  1.00  0.00     0.221 C 
ATOM     24  C   UNL     1       4.882   4.071   2.540  1.00  0.00     0.221 C 
ATOM     25  O   UNL     1       4.490   5.431   2.316  1.00  0.00    -0.370 OA
ENDBRANCH  18  19
ENDBRANCH  17  18
ENDBRANCH  15  17
ENDBRANCH  12  13
ENDBRANCH   3   5
ENDBRANCH   2   3
ENDBRANCH   1   2
BRANCH   1  26
ATOM     26  C   UNL     1       2.847  -1.668   6.615  1.00  0.00     0.275 C 
BRANCH  26  27
ATOM     27  O   UNL     1       1.630  -2.374   6.900  1.00  0.00    -0.458 OA
BRANCH  27  28
ATOM     28  C   UNL     1       0.764  -1.730   7.720  1.00  0.00     0.338 C 
ATOM     29  O   UNL     1       0.974  -0.685   8.312  1.00  0.00    -0.246 OA
BRANCH  28  30
ATOM     30  C   UNL     1      -0.455  -2.552   7.890  1.00  0.00     0.060 A 
ATOM     31  C   UNL     1      -1.082  -3.179   6.809  1.00  0.00     0.016 A 
ATOM     32  C   UNL     1      -1.005  -2.660   9.167  1.00  0.00     0.016 A 
ATOM     33  C   UNL     1      -2.279  -3.875   6.990  1.00  0.00     0.010 A 
ATOM     34  C   UNL     1      -2.171  -3.405   9.359  1.00  0.00     0.010 A 
ATOM     35  C   UNL     1      -2.834  -3.998   8.270  1.00  0.00    -0.014 A 
BRANCH  35  36
ATOM     36  C   UNL     1      -4.133  -4.688   8.490  1.00  0.00     0.031 A 
ATOM     37  C   UNL     1      -5.315  -3.895   8.980  1.00  0.00     0.074 A 
ATOM     38  C   UNL     1      -4.249  -6.013   8.285  1.00  0.00     0.049 A 
ATOM     39  N   UNL     1      -6.466  -4.314   9.440  1.00  0.00    -0.248 NA
ATOM     40  C   UNL     1      -5.168  -2.432   8.962  1.00  0.00     0.031 C 
ATOM     41  C   UNL     1      -3.197  -6.884   7.758  1.00  0.00     0.029 A 
ATOM     42  N   UNL     1      -5.303  -6.864   8.509  1.00  0.00    -0.354 N 
ATOM     43  C   UNL     1      -7.168  -3.169   9.803  1.00  0.00     0.074 A 
ATOM     44  C   UNL     1      -6.302  -2.041   9.525  1.00  0.00     0.031 C 
ATOM     45  C   UNL     1      -3.661  -8.142   7.692  1.00  0.00     0.029 A 
ATOM     46  C   UNL     1      -5.013  -8.181   8.241  1.00  0.00     0.049 A 
ATOM     47  H   UNL     1      -6.182  -6.560   8.831  1.00  0.00     0.167 HD
ATOM     48  C   UNL     1      -8.418  -3.071  10.324  1.00  0.00     0.034 A 
ATOM     49  C   UNL     1      -5.736  -9.299   8.455  1.00  0.00     0.034 A 
ATOM     50  C   UNL     1      -9.268  -4.209  10.584  1.00  0.00     0.049 A 
ATOM     51  C   UNL     1      -7.093  -9.175   9.096  1.00  0.00     0.074 A 
ATOM     52  C   UNL     1     -10.546  -4.232  11.117  1.00  0.00     0.029 A 
ATOM     53  N   UNL     1      -8.925  -5.531  10.326  1.00  0.00    -0.354 N 
ATOM     54  N   UNL     1      -7.722  -8.095   9.498  1.00  0.00    -0.248 NA
ATOM     55  C   UNL     1      -7.833 -10.424   9.320  1.00  0.00     0.031 C 
ATOM     56  C   UNL     1     -10.953  -5.568  11.229  1.00  0.00     0.029 A 
ATOM     57  C   UNL     1      -9.957  -6.377  10.706  1.00  0.00     0.049 A 
ATOM     58  H   UNL     1      -8.073  -5.825   9.931  1.00  0.00     0.167 HD
ATOM     59  C   UNL     1      -8.940  -8.534  10.008  1.00  0.00     0.074 A 
ATOM     60  C   UNL     1      -8.962  -9.974   9.848  1.00  0.00     0.031 C 
ATOM     61  C   UNL     1      -9.952  -7.813  10.556  1.00  0.00     0.034 A 
BRANCH  48  62
ATOM     62  C   UNL     1      -8.900  -1.691  10.704  1.00  0.00     0.023 A 
ATOM     63  C   UNL     1      -9.111  -0.684   9.745  1.00  0.00     0.031 A 
ATOM     64  C   UNL     1      -9.108  -1.364  12.056  1.00  0.00     0.131 A 
ATOM     65  C   UNL     1      -9.445   0.617  10.156  1.00  0.00     0.055 A 
ATOM     66  C   UNL     1      -9.513  -0.088  12.453  1.00  0.00     0.041 A 
ATOM     67  F   UNL     1      -8.903  -2.277  13.019  1.00  0.00    -0.206 F 
ATOM     68  C   UNL     1      -9.668   0.916  11.502  1.00  0.00     0.022 A 
BRANCH  65  69
ATOM     69  S   UNL     1      -9.449   1.947   8.921  1.00  0.00     0.124 S 
ATOM     70  O   UNL     1      -8.082   1.883   8.411  1.00  0.00    -0.237 OA
ATOM     71  O   UNL     1     -10.496   1.520   8.000  1.00  0.00    -0.237 OA
ATOM     72  O   UNL     1      -9.758   3.142   9.705  1.00  0.00    -0.744 OA
ENDBRANCH  65  69
ENDBRANCH  48  62
BRANCH  49  73
ATOM     73  C   UNL     1      -5.171 -10.635   8.116  1.00  0.00     0.023 A 
ATOM     74  C   UNL     1      -5.736 -11.423   7.102  1.00  0.00     0.031 A 
ATOM     75  C   UNL     1      -4.068 -11.152   8.819  1.00  0.00     0.131 A 
ATOM     76  C   UNL     1      -5.213 -12.698   6.835  1.00  0.00     0.055 A 
ATOM     77  C   UNL     1      -3.523 -12.402   8.519  1.00  0.00     0.041 A 
ATOM     78  F   UNL     1      -3.491 -10.438   9.798  1.00  0.00    -0.206 F 
ATOM     79  C   UNL     1      -4.103 -13.187   7.528  1.00  0.00     0.022 A 
BRANCH  76  80
ATOM     80  S   UNL     1      -6.044 -13.740   5.604  1.00  0.00     0.124 S 
ATOM     81  O   UNL     1      -7.385 -13.855   6.165  1.00  0.00    -0.237 OA
ATOM     82  O   UNL     1      -5.922 -12.934   4.393  1.00  0.00    -0.237 OA
ATOM     83  O   UNL     1      -5.256 -14.971   5.612  1.00  0.00    -0.744 OA
ENDBRANCH  76  80
ENDBRANCH  49  73
BRANCH  61  84
ATOM     84  C   UNL     1     -11.178  -8.583  10.975  1.00  0.00     0.023 A 
ATOM     85  C   UNL     1     -11.159  -9.458  12.075  1.00  0.00     0.031 A 
ATOM     86  C   UNL     1     -12.370  -8.463  10.240  1.00  0.00     0.131 A 
ATOM     87  C   UNL     1     -12.296 -10.223  12.376  1.00  0.00     0.055 A 
ATOM     88  C   UNL     1     -13.513  -9.189  10.575  1.00  0.00     0.041 A 
ATOM     89  F   UNL     1     -12.439  -7.642   9.180  1.00  0.00    -0.206 F 
ATOM     90  C   UNL     1     -13.477 -10.085  11.640  1.00  0.00     0.022 A 
BRANCH  87  91
ATOM     91  S   UNL     1     -12.187 -11.470  13.689  1.00  0.00     0.124 S 
ATOM     92  O   UNL     1     -11.108 -12.327  13.206  1.00  0.00    -0.237 OA
ATOM     93  O   UNL     1     -11.881 -10.661  14.864  1.00  0.00    -0.237 OA
ATOM     94  O   UNL     1     -13.513 -12.086  13.689  1.00  0.00    -0.744 OA
ENDBRANCH  87  91
ENDBRANCH  61  84
ENDBRANCH  35  36
ENDBRANCH  28  30
ENDBRANCH  27  28
ENDBRANCH  26  27
ENDBRANCH   1  26
TORSDOF 18
