REMARK SMILES O=C(OCCOC(=O)[C@@H]1[C@H](C(=O)Nc2ccc(Cn3cncn3)cc2)[C@@H]2C=C[C@H]1CC2)c1ccc(-c2c3nc(c(-c4cc(S(=O)(=O)[O-])ccc4F)c4ccc([nH]4)c(-c4cc(S(=O)(=O)[O-])ccc4F)c4nc(c(-c5cc(S(=O)(=O)[O-])ccc5F)c5ccc2[nH]5)C=C4)C=C3)cc1
REMARK SMILES IDX 5 1 4 2 3 3 2 4 1 5 32 6 33 7 94 8 34 9 93 10 35 11 36 12
REMARK SMILES IDX 37 13 87 14 38 15 92 16 86 17 88 18 39 19 91 20 85 21 84 22
REMARK SMILES IDX 40 24 72 25 52 26 71 27 53 28 56 29 70 30 89 31 54 32 55 33
REMARK SMILES IDX 69 35 90 36 57 37 41 38 42 39 50 40 43 41 49 42 51 43 48 44
REMARK SMILES IDX 44 45 45 46 46 47 47 48 73 49 74 50 82 51 75 52 81 53 83 54
REMARK SMILES IDX 80 55 76 56 77 57 78 58 79 59 58 60 59 61 67 62 60 63 66 64
REMARK SMILES IDX 68 65 65 66 61 67 62 68 63 69 64 70 6 71 7 72 8 73 9 74
REMARK SMILES IDX 10 75 29 76 26 77 28 78 30 79 27 80 31 81 11 82 12 83 13 84
REMARK SMILES IDX 14 86 15 87 25 88 16 89 24 90 17 91 18 92 19 93 20 94 23 95
REMARK SMILES IDX 21 96 22 97
REMARK H PARENT 88 23 56 34 13 85
REMARK Flexibility Score: inf
ROOT
ATOM      1  C   UNL     1       3.645  -0.242  -1.250  1.00  0.00     0.274 C 
ENDROOT
BRANCH   1   2
ATOM      2  C   UNL     1       4.023  -1.569  -0.594  1.00  0.00     0.275 C 
BRANCH   2   3
ATOM      3  O   UNL     1       2.940  -2.286   0.020  1.00  0.00    -0.458 OA
BRANCH   3   4
ATOM      4  C   UNL     1       1.828  -1.571   0.281  1.00  0.00     0.338 C 
ATOM      5  O   UNL     1       0.903  -1.430  -0.515  1.00  0.00    -0.246 OA
BRANCH   4   6
ATOM      6  C   UNL     1       1.825  -1.023   1.651  1.00  0.00     0.060 A 
ATOM      7  C   UNL     1       2.929  -1.158   2.507  1.00  0.00     0.016 A 
ATOM      8  C   UNL     1       0.653  -0.391   2.083  1.00  0.00     0.016 A 
ATOM      9  C   UNL     1       2.804  -0.804   3.835  1.00  0.00     0.010 A 
ATOM     10  C   UNL     1       0.521  -0.055   3.415  1.00  0.00     0.010 A 
ATOM     11  C   UNL     1       1.572  -0.337   4.287  1.00  0.00    -0.014 A 
BRANCH  11  12
ATOM     12  C   UNL     1       1.396  -0.155   5.715  1.00  0.00     0.031 A 
ATOM     13  C   UNL     1       2.022   1.074   6.254  1.00  0.00     0.074 A 
ATOM     14  C   UNL     1       0.632  -1.005   6.429  1.00  0.00     0.049 A 
ATOM     15  N   UNL     1       3.052   1.165   7.027  1.00  0.00    -0.248 NA
ATOM     16  C   UNL     1       1.565   2.368   5.723  1.00  0.00     0.031 C 
ATOM     17  C   UNL     1      -0.212  -2.092   5.925  1.00  0.00     0.029 A 
ATOM     18  N   UNL     1       0.361  -1.011   7.760  1.00  0.00    -0.354 N 
ATOM     19  C   UNL     1       3.193   2.521   7.308  1.00  0.00     0.074 A 
ATOM     20  C   UNL     1       2.426   3.204   6.304  1.00  0.00     0.031 C 
ATOM     21  C   UNL     1      -1.075  -2.475   6.894  1.00  0.00     0.029 A 
ATOM     22  C   UNL     1      -0.762  -1.754   8.117  1.00  0.00     0.049 A 
ATOM     23  H   UNL     1       0.913  -0.531   8.418  1.00  0.00     0.167 HD
ATOM     24  C   UNL     1       3.678   2.936   8.513  1.00  0.00     0.034 A 
ATOM     25  C   UNL     1      -1.428  -1.710   9.306  1.00  0.00     0.034 A 
ATOM     26  C   UNL     1       4.386   1.855   9.176  1.00  0.00     0.049 A 
ATOM     27  C   UNL     1      -0.473  -1.159  10.304  1.00  0.00     0.074 A 
ATOM     28  C   UNL     1       5.452   1.043   8.831  1.00  0.00     0.029 A 
ATOM     29  N   UNL     1       3.769   1.211  10.230  1.00  0.00    -0.354 N 
ATOM     30  N   UNL     1       0.615  -1.788  10.665  1.00  0.00    -0.248 NA
ATOM     31  C   UNL     1      -0.438   0.286  10.490  1.00  0.00     0.031 C 
ATOM     32  C   UNL     1       5.098  -0.251   9.318  1.00  0.00     0.029 A 
ATOM     33  C   UNL     1       3.895  -0.139  10.017  1.00  0.00     0.049 A 
ATOM     34  H   UNL     1       3.320   1.640  10.993  1.00  0.00     0.167 HD
ATOM     35  C   UNL     1       1.601  -0.812  10.700  1.00  0.00     0.074 A 
ATOM     36  C   UNL     1       0.876   0.459  10.669  1.00  0.00     0.031 C 
ATOM     37  C   UNL     1       2.911  -1.114  10.445  1.00  0.00     0.034 A 
BRANCH  24  38
ATOM     38  C   UNL     1       3.129   4.126   9.288  1.00  0.00     0.023 A 
ATOM     39  C   UNL     1       3.588   4.262  10.611  1.00  0.00     0.031 A 
ATOM     40  C   UNL     1       1.984   4.888   8.966  1.00  0.00     0.131 A 
ATOM     41  C   UNL     1       2.812   4.912  11.582  1.00  0.00     0.055 A 
ATOM     42  C   UNL     1       1.252   5.600   9.923  1.00  0.00     0.041 A 
ATOM     43  F   UNL     1       1.464   4.949   7.737  1.00  0.00    -0.206 F 
ATOM     44  C   UNL     1       1.634   5.570  11.252  1.00  0.00     0.022 A 
BRANCH  41  45
ATOM     45  S   UNL     1       3.259   4.657  13.316  1.00  0.00     0.124 S 
ATOM     46  O   UNL     1       3.280   3.200  13.385  1.00  0.00    -0.237 OA
ATOM     47  O   UNL     1       4.554   5.325  13.389  1.00  0.00    -0.237 OA
ATOM     48  O   UNL     1       2.175   5.309  14.043  1.00  0.00    -0.744 OA
ENDBRANCH  41  45
ENDBRANCH  24  38
BRANCH  25  49
ATOM     49  C   UNL     1      -2.912  -1.751   9.496  1.00  0.00     0.023 A 
ATOM     50  C   UNL     1      -3.538  -2.038  10.732  1.00  0.00     0.031 A 
ATOM     51  C   UNL     1      -3.756  -1.272   8.466  1.00  0.00     0.131 A 
ATOM     52  C   UNL     1      -4.938  -1.856  10.885  1.00  0.00     0.055 A 
ATOM     53  C   UNL     1      -5.133  -1.098   8.622  1.00  0.00     0.041 A 
ATOM     54  F   UNL     1      -3.257  -0.874   7.285  1.00  0.00    -0.206 F 
ATOM     55  C   UNL     1      -5.730  -1.382   9.837  1.00  0.00     0.022 A 
BRANCH  52  56
ATOM     56  S   UNL     1      -5.758  -2.160  12.489  1.00  0.00     0.124 S 
ATOM     57  O   UNL     1      -5.641  -3.607  12.629  1.00  0.00    -0.237 OA
ATOM     58  O   UNL     1      -4.966  -1.351  13.408  1.00  0.00    -0.237 OA
ATOM     59  O   UNL     1      -7.123  -1.676  12.273  1.00  0.00    -0.744 OA
ENDBRANCH  52  56
ENDBRANCH  25  49
BRANCH  37  60
ATOM     60  C   UNL     1       3.332  -2.567  10.404  1.00  0.00     0.023 A 
ATOM     61  C   UNL     1       2.805  -3.543   9.526  1.00  0.00     0.031 A 
ATOM     62  C   UNL     1       4.421  -2.938  11.213  1.00  0.00     0.131 A 
ATOM     63  C   UNL     1       3.368  -4.835   9.493  1.00  0.00     0.055 A 
ATOM     64  C   UNL     1       4.986  -4.210  11.164  1.00  0.00     0.041 A 
ATOM     65  F   UNL     1       4.986  -2.045  12.044  1.00  0.00    -0.206 F 
ATOM     66  C   UNL     1       4.457  -5.166  10.306  1.00  0.00     0.022 A 
BRANCH  63  67
ATOM     67  S   UNL     1       2.689  -6.123   8.396  1.00  0.00     0.124 S 
ATOM     68  O   UNL     1       1.250  -6.036   8.616  1.00  0.00    -0.237 OA
ATOM     69  O   UNL     1       3.163  -5.698   7.081  1.00  0.00    -0.237 OA
ATOM     70  O   UNL     1       3.308  -7.354   8.894  1.00  0.00    -0.744 OA
ENDBRANCH  63  67
ENDBRANCH  37  60
ENDBRANCH  11  12
ENDBRANCH   4   6
ENDBRANCH   3   4
ENDBRANCH   2   3
ENDBRANCH   1   2
BRANCH   1  71
ATOM     71  O   UNL     1       3.251   0.745  -0.257  1.00  0.00    -0.462 OA
BRANCH  71  72
ATOM     72  C   UNL     1       2.403   1.698  -0.723  1.00  0.00     0.310 C 
ATOM     73  O   UNL     1       1.769   1.583  -1.767  1.00  0.00    -0.252 OA
BRANCH  72  74
ATOM     74  C   UNL     1       2.354   3.004   0.072  1.00  0.00     0.119 C 
ATOM     75  C   UNL     1       2.553   4.220  -0.879  1.00  0.00     0.100 C 
ATOM     76  C   UNL     1       3.076   3.308   1.439  1.00  0.00     0.026 C 
ATOM     77  C   UNL     1       3.061   5.446  -0.074  1.00  0.00     0.025 C 
ATOM     78  C   UNL     1       4.409   4.040   1.304  1.00  0.00    -0.027 C 
ATOM     79  C   UNL     1       2.231   4.421   2.127  1.00  0.00     0.009 C 
ATOM     80  C   UNL     1       4.407   5.124   0.510  1.00  0.00    -0.027 C 
ATOM     81  C   UNL     1       2.138   5.652   1.168  1.00  0.00     0.009 C 
BRANCH  75  82
ATOM     82  C   UNL     1       3.213   4.075  -2.282  1.00  0.00     0.228 C 
ATOM     83  O   UNL     1       2.508   4.362  -3.268  1.00  0.00    -0.274 OA
ATOM     84  N   UNL     1       4.521   3.827  -2.596  1.00  0.00    -0.326 N 
ATOM     85  H   UNL     1       4.716   4.026  -3.540  1.00  0.00     0.169 HD
BRANCH  84  86
ATOM     86  C   UNL     1       5.658   3.363  -1.915  1.00  0.00     0.041 A 
ATOM     87  C   UNL     1       6.938   3.704  -2.336  1.00  0.00     0.026 A 
ATOM     88  C   UNL     1       5.581   2.531  -0.826  1.00  0.00     0.026 A 
ATOM     89  C   UNL     1       8.056   3.384  -1.532  1.00  0.00     0.008 A 
ATOM     90  C   UNL     1       6.660   2.139  -0.052  1.00  0.00     0.008 A 
ATOM     91  C   UNL     1       7.906   2.654  -0.342  1.00  0.00    -0.026 A 
BRANCH  91  92
ATOM     92  C   UNL     1       8.997   2.437   0.670  1.00  0.00     0.181 C 
BRANCH  92  93
ATOM     93  N   UNL     1       9.733   1.224   0.406  1.00  0.00    -0.249 N 
ATOM     94  C   UNL     1      10.648   1.018  -0.577  1.00  0.00     0.220 A 
ATOM     95  N   UNL     1       9.615   0.140   1.194  1.00  0.00    -0.160 NA
ATOM     96  N   UNL     1      11.146  -0.192  -0.467  1.00  0.00    -0.224 NA
ATOM     97  C   UNL     1      10.488  -0.694   0.623  1.00  0.00     0.246 A 
ENDBRANCH  92  93
ENDBRANCH  91  92
ENDBRANCH  84  86
ENDBRANCH  75  82
ENDBRANCH  72  74
ENDBRANCH  71  72
ENDBRANCH   1  71
TORSDOF 18
