REMARK SMILES Cc1c(CC(=O)OCCOC(=O)c2ccc(-c3c4nc(c(-c5cc(S(=O)(=O)[O-])ccc5F)c5ccc([nH]5)c(-c5cc(S(=O)(=O)[O-])ccc5F)c5nc(c(-c6cc(S(=O)(=O)[O-])ccc6F)c6ccc3[nH]6)C=C5)C=C4)cc2)cc(-c2ccc(S(C)(=O)=O)cc2)n1-c1ccccc1
REMARK SMILES IDX 8 1 7 2 5 3 6 4 4 5 3 6 1 7 2 8 88 9 76 10 77 11 89 12 90 13
REMARK SMILES IDX 94 14 91 15 93 16 92 17 78 18 79 19 87 20 80 21 86 22 81 23
REMARK SMILES IDX 82 24 83 25 84 26 85 27 9 28 10 29 11 30 12 31 13 32 14 33
REMARK SMILES IDX 75 34 15 35 74 36 16 37 17 38 18 39 68 40 19 41 73 42 67 43
REMARK SMILES IDX 69 44 20 45 72 46 66 47 65 48 21 50 53 51 33 52 52 53 34 54
REMARK SMILES IDX 37 55 51 56 70 57 35 58 36 59 50 61 71 62 38 63 22 64 23 65
REMARK SMILES IDX 31 66 24 67 30 68 32 69 29 70 25 71 26 72 27 73 28 74 54 75
REMARK SMILES IDX 55 76 63 77 56 78 62 79 64 80 61 81 57 82 58 83 59 84 60 85
REMARK SMILES IDX 39 86 40 87 48 88 41 89 47 90 49 91 46 92 42 93 43 94 44 95
REMARK SMILES IDX 45 96
REMARK H PARENT 69 49 37 60
REMARK Flexibility Score: inf
ROOT
ATOM      1  C   UNL     1       4.162  -0.602   1.278  1.00  0.00     0.274 C 
ENDROOT
BRANCH   1   2
ATOM      2  O   UNL     1       2.924  -1.100   0.694  1.00  0.00    -0.462 OA
BRANCH   2   3
ATOM      3  C   UNL     1       2.635  -2.424   0.844  1.00  0.00     0.310 C 
ATOM      4  O   UNL     1       3.365  -3.213   1.442  1.00  0.00    -0.252 OA
BRANCH   3   5
ATOM      5  C   UNL     1       1.275  -2.855   0.296  1.00  0.00     0.160 C 
BRANCH   5   6
ATOM      6  C   UNL     1       0.721  -2.148  -0.916  1.00  0.00    -0.015 A 
ATOM      7  C   UNL     1       0.424   0.247   0.039  1.00  0.00     0.065 C 
ATOM      8  C   UNL     1       0.365  -0.811  -1.018  1.00  0.00     0.024 A 
ATOM      9  N   UNL     1      -0.186  -0.584  -2.272  1.00  0.00    -0.314 N 
ATOM     10  C   UNL     1       0.287  -2.761  -2.133  1.00  0.00     0.033 A 
ATOM     11  C   UNL     1      -0.289  -1.798  -2.950  1.00  0.00     0.053 A 
BRANCH   9  12
ATOM     12  C   UNL     1      -0.627   0.675  -2.748  1.00  0.00     0.046 A 
ATOM     13  C   UNL     1      -1.958   0.841  -3.144  1.00  0.00     0.026 A 
ATOM     14  C   UNL     1       0.273   1.745  -2.793  1.00  0.00     0.026 A 
ATOM     15  C   UNL     1      -2.391   2.092  -3.576  1.00  0.00     0.002 A 
ATOM     16  C   UNL     1      -0.163   2.986  -3.250  1.00  0.00     0.002 A 
ATOM     17  C   UNL     1      -1.494   3.160  -3.635  1.00  0.00     0.000 A 
ENDBRANCH   9  12
BRANCH  11  18
ATOM     18  C   UNL     1      -0.861  -1.948  -4.298  1.00  0.00    -0.001 A 
ATOM     19  C   UNL     1      -0.322  -1.245  -5.388  1.00  0.00     0.011 A 
ATOM     20  C   UNL     1      -1.984  -2.762  -4.507  1.00  0.00     0.011 A 
ATOM     21  C   UNL     1      -0.907  -1.327  -6.656  1.00  0.00     0.021 A 
ATOM     22  C   UNL     1      -2.578  -2.847  -5.773  1.00  0.00     0.021 A 
ATOM     23  C   UNL     1      -2.043  -2.120  -6.837  1.00  0.00     0.067 A 
BRANCH  23  24
ATOM     24  S   UNL     1      -2.764  -2.221  -8.459  1.00  0.00     0.175 S 
ATOM     25  C   UNL     1      -3.383  -0.588  -8.774  1.00  0.00     0.163 C 
ATOM     26  O   UNL     1      -1.704  -2.496  -9.387  1.00  0.00    -0.224 OA
ATOM     27  O   UNL     1      -3.926  -3.110  -8.371  1.00  0.00    -0.224 OA
ENDBRANCH  23  24
ENDBRANCH  11  18
ENDBRANCH   5   6
ENDBRANCH   3   5
ENDBRANCH   2   3
ENDBRANCH   1   2
BRANCH   1  28
ATOM     28  C   UNL     1       4.210   0.960   1.264  1.00  0.00     0.275 C 
BRANCH  28  29
ATOM     29  O   UNL     1       4.218   1.751   2.519  1.00  0.00    -0.458 OA
BRANCH  29  30
ATOM     30  C   UNL     1       3.049   1.924   3.210  1.00  0.00     0.338 C 
ATOM     31  O   UNL     1       2.082   1.196   3.020  1.00  0.00    -0.246 OA
BRANCH  30  32
ATOM     32  C   UNL     1       3.050   3.025   4.317  1.00  0.00     0.060 A 
ATOM     33  C   UNL     1       2.370   2.741   5.490  1.00  0.00     0.016 A 
ATOM     34  C   UNL     1       3.541   4.353   4.274  1.00  0.00     0.016 A 
ATOM     35  C   UNL     1       2.247   3.704   6.561  1.00  0.00     0.010 A 
ATOM     36  C   UNL     1       3.328   5.375   5.365  1.00  0.00     0.010 A 
ATOM     37  C   UNL     1       2.661   5.097   6.575  1.00  0.00    -0.014 A 
BRANCH  37  38
ATOM     38  C   UNL     1       2.025   6.087   7.810  1.00  0.00     0.031 A 
ATOM     39  C   UNL     1       0.707   5.425   8.049  1.00  0.00     0.074 A 
ATOM     40  C   UNL     1       2.129   7.277   8.586  1.00  0.00     0.049 A 
ATOM     41  N   UNL     1      -0.123   5.293   7.051  1.00  0.00    -0.248 NA
ATOM     42  C   UNL     1       0.446   4.528   9.178  1.00  0.00     0.031 C 
ATOM     43  C   UNL     1       3.101   8.384   8.459  1.00  0.00     0.029 A 
ATOM     44  N   UNL     1       1.356   7.824   9.710  1.00  0.00    -0.354 N 
ATOM     45  C   UNL     1      -1.179   4.557   7.516  1.00  0.00     0.074 A 
ATOM     46  C   UNL     1      -0.665   3.928   8.730  1.00  0.00     0.031 C 
ATOM     47  C   UNL     1       2.994   9.312   9.466  1.00  0.00     0.029 A 
ATOM     48  C   UNL     1       1.897   9.011  10.396  1.00  0.00     0.049 A 
ATOM     49  H   UNL     1       0.508   7.413   9.994  1.00  0.00     0.167 HD
ATOM     50  C   UNL     1      -2.412   5.094   7.291  1.00  0.00     0.034 A 
ATOM     51  C   UNL     1       1.472   9.752  11.531  1.00  0.00     0.034 A 
ATOM     52  C   UNL     1      -2.919   5.755   8.464  1.00  0.00     0.049 A 
ATOM     53  C   UNL     1       0.019   9.625  11.579  1.00  0.00     0.074 A 
ATOM     54  C   UNL     1      -2.904   5.426   9.805  1.00  0.00     0.029 A 
ATOM     55  N   UNL     1      -3.063   7.126   8.392  1.00  0.00    -0.354 N 
ATOM     56  N   UNL     1      -0.748  10.302  10.784  1.00  0.00    -0.248 NA
ATOM     57  C   UNL     1      -0.661   8.827  12.593  1.00  0.00     0.031 C 
ATOM     58  C   UNL     1      -2.453   6.604  10.437  1.00  0.00     0.029 A 
ATOM     59  C   UNL     1      -2.636   7.681   9.576  1.00  0.00     0.049 A 
ATOM     60  H   UNL     1      -3.415   7.625   7.620  1.00  0.00     0.167 HD
ATOM     61  C   UNL     1      -1.895   9.576  10.814  1.00  0.00     0.074 A 
ATOM     62  C   UNL     1      -1.901   8.915  12.108  1.00  0.00     0.031 C 
ATOM     63  C   UNL     1      -2.312   9.089   9.620  1.00  0.00     0.034 A 
BRANCH  50  64
ATOM     64  C   UNL     1      -2.625   5.610   5.891  1.00  0.00     0.023 A 
ATOM     65  C   UNL     1      -3.553   4.965   5.066  1.00  0.00     0.031 A 
ATOM     66  C   UNL     1      -1.879   6.673   5.335  1.00  0.00     0.131 A 
ATOM     67  C   UNL     1      -3.659   5.338   3.716  1.00  0.00     0.055 A 
ATOM     68  C   UNL     1      -1.938   6.994   3.981  1.00  0.00     0.041 A 
ATOM     69  F   UNL     1      -1.090   7.440   6.106  1.00  0.00    -0.206 F 
ATOM     70  C   UNL     1      -2.829   6.317   3.159  1.00  0.00     0.022 A 
BRANCH  67  71
ATOM     71  S   UNL     1      -4.935   4.551   2.699  1.00  0.00     0.124 S 
ATOM     72  O   UNL     1      -4.493   3.161   2.664  1.00  0.00    -0.237 OA
ATOM     73  O   UNL     1      -6.148   4.808   3.470  1.00  0.00    -0.237 OA
ATOM     74  O   UNL     1      -4.853   5.261   1.424  1.00  0.00    -0.744 OA
ENDBRANCH  67  71
ENDBRANCH  50  64
BRANCH  51  75
ATOM     75  C   UNL     1       1.851  10.829  12.658  1.00  0.00     0.023 A 
ATOM     76  C   UNL     1       0.863  11.696  13.321  1.00  0.00     0.031 A 
ATOM     77  C   UNL     1       3.044  10.707  13.384  1.00  0.00     0.131 A 
ATOM     78  C   UNL     1       1.078  12.315  14.601  1.00  0.00     0.055 A 
ATOM     79  C   UNL     1       3.252  11.328  14.649  1.00  0.00     0.041 A 
ATOM     80  F   UNL     1       4.013   9.889  12.951  1.00  0.00    -0.206 F 
ATOM     81  C   UNL     1       2.276  12.111  15.267  1.00  0.00     0.022 A 
BRANCH  78  82
ATOM     82  S   UNL     1      -0.239  13.243  15.535  1.00  0.00     0.124 S 
ATOM     83  O   UNL     1      -0.296  14.524  14.842  1.00  0.00    -0.237 OA
ATOM     84  O   UNL     1      -1.407  12.378  15.408  1.00  0.00    -0.237 OA
ATOM     85  O   UNL     1       0.295  13.321  16.899  1.00  0.00    -0.744 OA
ENDBRANCH  78  82
ENDBRANCH  51  75
BRANCH  63  86
ATOM     86  C   UNL     1      -2.221  10.029   8.422  1.00  0.00     0.023 A 
ATOM     87  C   UNL     1      -1.086  10.791   8.029  1.00  0.00     0.031 A 
ATOM     88  C   UNL     1      -3.400  10.243   7.694  1.00  0.00     0.131 A 
ATOM     89  C   UNL     1      -1.175  11.743   6.991  1.00  0.00     0.055 A 
ATOM     90  C   UNL     1      -3.479  11.156   6.640  1.00  0.00     0.041 A 
ATOM     91  F   UNL     1      -4.516   9.566   8.008  1.00  0.00    -0.206 F 
ATOM     92  C   UNL     1      -2.371  11.921   6.295  1.00  0.00     0.022 A 
BRANCH  89  93
ATOM     93  S   UNL     1       0.250  12.810   6.579  1.00  0.00     0.124 S 
ATOM     94  O   UNL     1       0.573  13.447   7.851  1.00  0.00    -0.237 OA
ATOM     95  O   UNL     1       1.237  11.857   6.077  1.00  0.00    -0.237 OA
ATOM     96  O   UNL     1      -0.285  13.721   5.564  1.00  0.00    -0.744 OA
ENDBRANCH  89  93
ENDBRANCH  63  86
ENDBRANCH  37  38
ENDBRANCH  30  32
ENDBRANCH  29  30
ENDBRANCH  28  29
ENDBRANCH   1  28
TORSDOF 18
