REMARK SMILES CC(=O)Oc1ccc2oc(N)c([C@@H]3[NH2+][C@@H](C(=O)OCCOC(=O)c4ccc(-c5c6nc(c(-c7cc(S(=O)(=O)[O-])ccc7F)c7ccc([nH]7)c(-c7cc(S(=O)(=O)[O-])ccc7F)c7nc(c(-c8cc(S(=O)(=O)[O-])ccc8F)c8ccc5[nH]8)C=C7)C=C6)cc4)C(C)(C)S3)c(=O)c2c1
REMARK SMILES IDX 19 1 18 2 16 3 17 4 15 5 13 6 14 7 90 8 87 11 88 12 89 13
REMARK SMILES IDX 12 14 5 15 6 16 94 17 7 18 93 19 8 20 91 21 9 22 92 23 10 24
REMARK SMILES IDX 4 25 2 26 1 27 3 28 11 29 20 32 21 33 22 34 23 35 24 36
REMARK SMILES IDX 25 37 86 38 26 39 85 40 27 41 28 42 29 43 79 44 30 45 84 46
REMARK SMILES IDX 78 47 80 48 31 49 83 50 77 51 76 52 32 54 64 55 44 56 63 57
REMARK SMILES IDX 45 58 48 59 62 60 81 61 46 62 47 63 61 65 82 66 49 67 33 68
REMARK SMILES IDX 34 69 42 70 35 71 41 72 43 73 40 74 36 75 37 76 38 77 39 78
REMARK SMILES IDX 65 79 66 80 74 81 67 82 73 83 75 84 72 85 68 86 69 87 70 88
REMARK SMILES IDX 71 89 50 90 51 91 59 92 52 93 58 94 60 95 57 96 53 97 54 98
REMARK SMILES IDX 55 99 56 100
REMARK H PARENT 14 9 14 10 11 30 11 31 80 53 48 64
REMARK Flexibility Score: inf
ROOT
ATOM      1  C   UNL     1      -0.175   0.305 -13.535  1.00  0.00     0.274 C 
ENDROOT
BRANCH   1   2
ATOM      2  O   UNL     1       0.196   1.389 -12.656  1.00  0.00    -0.458 OA
BRANCH   2   3
ATOM      3  C   UNL     1       1.348   1.202 -11.967  1.00  0.00     0.366 C 
ATOM      4  O   UNL     1       2.028   0.181 -12.053  1.00  0.00    -0.245 OA
BRANCH   3   5
ATOM      5  C   UNL     1       1.736   2.357 -11.030  1.00  0.00     0.310 C 
ATOM      6  C   UNL     1       2.081   3.004  -8.765  1.00  0.00     0.284 C 
ATOM      7  N   UNL     1       1.572   1.918  -9.615  1.00  0.00    -0.318 N 
ATOM      8  S   UNL     1       1.660   4.567  -9.594  1.00  0.00    -0.081 SA
ATOM      9  H   UNL     1       0.587   1.748  -9.414  1.00  0.00     0.348 HD
ATOM     10  H   UNL     1       2.082   1.052  -9.442  1.00  0.00     0.348 HD
ATOM     11  C   UNL     1       1.135   3.772 -11.182  1.00  0.00     0.079 C 
ATOM     12  C   UNL     1      -0.393   3.854 -11.253  1.00  0.00     0.030 C 
ATOM     13  C   UNL     1       1.752   4.602 -12.311  1.00  0.00     0.030 C 
BRANCH   6  14
ATOM     14  C   UNL     1       3.545   2.866  -8.391  1.00  0.00     0.128 A 
ATOM     15  C   UNL     1       6.744   2.312  -4.687  1.00  0.00     0.131 A 
ATOM     16  C   UNL     1       7.791   2.496  -5.592  1.00  0.00     0.051 A 
ATOM     17  C   UNL     1       5.420   2.229  -5.117  1.00  0.00     0.063 A 
ATOM     18  C   UNL     1       7.500   2.667  -6.943  1.00  0.00     0.052 A 
ATOM     19  C   UNL     1       5.143   2.406  -6.476  1.00  0.00     0.069 A 
ATOM     20  C   UNL     1       6.173   2.645  -7.372  1.00  0.00     0.140 A 
ATOM     21  C   UNL     1       3.768   2.374  -6.994  1.00  0.00     0.205 A 
ATOM     22  O   UNL     1       5.943   2.884  -8.693  1.00  0.00    -0.440 OA
ATOM     23  O   UNL     1       2.849   2.021  -6.262  1.00  0.00    -0.288 OA
ATOM     24  C   UNL     1       4.653   3.158  -9.114  1.00  0.00     0.205 A 
BRANCH  15  25
ATOM     25  O   UNL     1       7.009   2.131  -3.326  1.00  0.00    -0.427 OA
BRANCH  25  26
ATOM     26  C   UNL     1       7.558   3.242  -2.693  1.00  0.00     0.308 C 
ATOM     27  C   UNL     1       7.859   2.887  -1.267  1.00  0.00     0.139 C 
ATOM     28  O   UNL     1       7.744   4.352  -3.174  1.00  0.00    -0.252 OA
ENDBRANCH  25  26
ENDBRANCH  15  25
BRANCH  24  29
ATOM     29  N   UNL     1       4.670   3.761 -10.339  1.00  0.00    -0.369 N 
ATOM     30  H   UNL     1       5.527   3.934 -10.791  1.00  0.00     0.159 HD
ATOM     31  H   UNL     1       3.825   4.024 -10.771  1.00  0.00     0.159 HD
ENDBRANCH  24  29
ENDBRANCH   6  14
ENDBRANCH   3   5
ENDBRANCH   2   3
ENDBRANCH   1   2
BRANCH   1  32
ATOM     32  C   UNL     1       0.266   0.562 -14.977  1.00  0.00     0.275 C 
BRANCH  32  33
ATOM     33  O   UNL     1       1.700   0.592 -15.095  1.00  0.00    -0.458 OA
BRANCH  33  34
ATOM     34  C   UNL     1       2.248   1.829 -15.092  1.00  0.00     0.338 C 
ATOM     35  O   UNL     1       1.655   2.892 -15.042  1.00  0.00    -0.246 OA
BRANCH  34  36
ATOM     36  C   UNL     1       3.712   1.727 -15.094  1.00  0.00     0.060 A 
ATOM     37  C   UNL     1       4.390   1.551 -16.298  1.00  0.00     0.016 A 
ATOM     38  C   UNL     1       4.415   1.903 -13.900  1.00  0.00     0.016 A 
ATOM     39  C   UNL     1       5.786   1.511 -16.291  1.00  0.00     0.010 A 
ATOM     40  C   UNL     1       5.808   1.895 -13.900  1.00  0.00     0.010 A 
ATOM     41  C   UNL     1       6.505   1.678 -15.093  1.00  0.00    -0.014 A 
BRANCH  41  42
ATOM     42  C   UNL     1       7.987   1.642 -15.101  1.00  0.00     0.031 A 
ATOM     43  C   UNL     1       8.727   0.488 -14.487  1.00  0.00     0.074 A 
ATOM     44  C   UNL     1       8.664   2.658 -15.668  1.00  0.00     0.049 A 
ATOM     45  N   UNL     1      10.005   0.218 -14.535  1.00  0.00    -0.248 NA
ATOM     46  C   UNL     1       7.938  -0.480 -13.709  1.00  0.00     0.031 C 
ATOM     47  C   UNL     1       8.047   3.864 -16.221  1.00  0.00     0.029 A 
ATOM     48  N   UNL     1      10.007   2.837 -15.887  1.00  0.00    -0.354 N 
ATOM     49  C   UNL     1      10.172  -0.958 -13.813  1.00  0.00     0.074 A 
ATOM     50  C   UNL     1       8.877  -1.311 -13.278  1.00  0.00     0.031 C 
ATOM     51  C   UNL     1       9.004   4.636 -16.758  1.00  0.00     0.029 A 
ATOM     52  C   UNL     1      10.304   3.993 -16.571  1.00  0.00     0.049 A 
ATOM     53  H   UNL     1      10.693   2.199 -15.583  1.00  0.00     0.167 HD
ATOM     54  C   UNL     1      11.299  -1.689 -13.644  1.00  0.00     0.034 A 
ATOM     55  C   UNL     1      11.484   4.469 -17.020  1.00  0.00     0.034 A 
ATOM     56  C   UNL     1      12.579  -1.319 -14.191  1.00  0.00     0.049 A 
ATOM     57  C   UNL     1      12.724   3.632 -16.831  1.00  0.00     0.074 A 
ATOM     58  C   UNL     1      13.766  -2.026 -14.139  1.00  0.00     0.029 A 
ATOM     59  N   UNL     1      12.844  -0.143 -14.880  1.00  0.00    -0.354 N 
ATOM     60  N   UNL     1      12.844   2.451 -16.270  1.00  0.00    -0.248 NA
ATOM     61  C   UNL     1      13.987   4.175 -17.352  1.00  0.00     0.031 C 
ATOM     62  C   UNL     1      14.762  -1.251 -14.735  1.00  0.00     0.029 A 
ATOM     63  C   UNL     1      14.184  -0.092 -15.229  1.00  0.00     0.049 A 
ATOM     64  H   UNL     1      12.179   0.551 -15.090  1.00  0.00     0.167 HD
ATOM     65  C   UNL     1      14.185   2.099 -16.393  1.00  0.00     0.074 A 
ATOM     66  C   UNL     1      14.832   3.182 -17.104  1.00  0.00     0.031 C 
ATOM     67  C   UNL     1      14.820   0.984 -15.952  1.00  0.00     0.034 A 
BRANCH  54  68
ATOM     68  C   UNL     1      11.214  -2.986 -12.877  1.00  0.00     0.023 A 
ATOM     69  C   UNL     1      11.968  -3.166 -11.703  1.00  0.00     0.031 A 
ATOM     70  C   UNL     1      10.500  -4.087 -13.385  1.00  0.00     0.131 A 
ATOM     71  C   UNL     1      12.020  -4.428 -11.096  1.00  0.00     0.055 A 
ATOM     72  C   UNL     1      10.521  -5.330 -12.752  1.00  0.00     0.041 A 
ATOM     73  F   UNL     1       9.771  -3.969 -14.507  1.00  0.00    -0.206 F 
ATOM     74  C   UNL     1      11.294  -5.508 -11.610  1.00  0.00     0.022 A 
BRANCH  71  75
ATOM     75  S   UNL     1      13.085  -4.737  -9.661  1.00  0.00     0.124 S 
ATOM     76  O   UNL     1      12.119  -5.195  -8.664  1.00  0.00    -0.237 OA
ATOM     77  O   UNL     1      13.991  -5.763 -10.168  1.00  0.00    -0.237 OA
ATOM     78  O   UNL     1      13.690  -3.439  -9.386  1.00  0.00    -0.744 OA
ENDBRANCH  71  75
ENDBRANCH  54  68
BRANCH  55  79
ATOM     79  C   UNL     1      11.503   5.754 -17.779  1.00  0.00     0.023 A 
ATOM     80  C   UNL     1      11.096   6.958 -17.176  1.00  0.00     0.031 A 
ATOM     81  C   UNL     1      11.813   5.774 -19.150  1.00  0.00     0.131 A 
ATOM     82  C   UNL     1      10.944   8.112 -17.956  1.00  0.00     0.055 A 
ATOM     83  C   UNL     1      11.728   6.942 -19.908  1.00  0.00     0.041 A 
ATOM     84  F   UNL     1      12.189   4.647 -19.774  1.00  0.00    -0.206 F 
ATOM     85  C   UNL     1      11.274   8.116 -19.315  1.00  0.00     0.022 A 
BRANCH  82  86
ATOM     86  S   UNL     1      10.181   9.607 -17.267  1.00  0.00     0.124 S 
ATOM     87  O   UNL     1      11.244  10.594 -17.426  1.00  0.00    -0.237 OA
ATOM     88  O   UNL     1       9.022   9.780 -18.140  1.00  0.00    -0.237 OA
ATOM     89  O   UNL     1       9.868   9.231 -15.892  1.00  0.00    -0.744 OA
ENDBRANCH  82  86
ENDBRANCH  55  79
BRANCH  67  90
ATOM     90  C   UNL     1      16.303   0.841 -16.209  1.00  0.00     0.023 A 
ATOM     91  C   UNL     1      16.782  -0.233 -16.983  1.00  0.00     0.031 A 
ATOM     92  C   UNL     1      17.240   1.656 -15.550  1.00  0.00     0.131 A 
ATOM     93  C   UNL     1      18.157  -0.494 -17.039  1.00  0.00     0.055 A 
ATOM     94  C   UNL     1      18.612   1.423 -15.651  1.00  0.00     0.041 A 
ATOM     95  F   UNL     1      16.833   2.685 -14.790  1.00  0.00    -0.206 F 
ATOM     96  C   UNL     1      19.075   0.333 -16.384  1.00  0.00     0.022 A 
BRANCH  93  97
ATOM     97  S   UNL     1      18.797  -1.971 -17.876  1.00  0.00     0.124 S 
ATOM     98  O   UNL     1      19.655  -1.387 -18.904  1.00  0.00    -0.237 OA
ATOM     99  O   UNL     1      19.500  -2.658 -16.795  1.00  0.00    -0.237 OA
ATOM    100  O   UNL     1      17.601  -2.642 -18.373  1.00  0.00    -0.744 OA
ENDBRANCH  93  97
ENDBRANCH  67  90
ENDBRANCH  41  42
ENDBRANCH  34  36
ENDBRANCH  33  34
ENDBRANCH  32  33
ENDBRANCH   1  32
TORSDOF 18
