REMARK SMILES C[C@@](NC(=O)CCOC1CC[NH2+]CC1)(C(=O)OCCOC(=O)c1ccc(-c2c3nc(c(-c4cc(S(=O)(=O)[O-])ccc4F)c4ccc([nH]4)c(-c4cc(S(=O)(=O)[O-])ccc4F)c4nc(c(-c5cc(S(=O)(=O)[O-])ccc5F)c5ccc2[nH]5)C=C4)C=C3)cc1)C(F)(F)F
REMARK SMILES IDX 18 1 17 2 15 3 16 4 2 5 1 6 3 7 4 8 5 10 6 11 7 12 8 13 9 14
REMARK SMILES IDX 10 15 14 16 11 17 13 18 12 19 86 22 87 23 88 24 89 25 19 26
REMARK SMILES IDX 20 27 21 28 22 29 23 30 24 31 85 32 25 33 84 34 26 35 27 36
REMARK SMILES IDX 28 37 78 38 29 39 83 40 77 41 79 42 30 43 82 44 76 45 75 46
REMARK SMILES IDX 31 48 63 49 43 50 62 51 44 52 47 53 61 54 80 55 45 56 46 57
REMARK SMILES IDX 60 59 81 60 48 61 32 62 33 63 41 64 34 65 40 66 42 67 39 68
REMARK SMILES IDX 35 69 36 70 37 71 38 72 64 73 65 74 73 75 66 76 72 77 74 78
REMARK SMILES IDX 71 79 67 80 68 81 69 82 70 83 49 84 50 85 58 86 51 87 57 88
REMARK SMILES IDX 59 89 56 90 52 91 53 92 54 93 55 94
REMARK H PARENT 3 9 12 20 12 21 79 47 47 58
REMARK Flexibility Score: inf
ROOT
ATOM      1  C   UNL     1      -3.969  -1.264   1.097  1.00  0.00     0.274 C 
ENDROOT
BRANCH   1   2
ATOM      2  O   UNL     1      -2.535  -1.229   1.202  1.00  0.00    -0.460 OA
BRANCH   2   3
ATOM      3  C   UNL     1      -1.796  -2.329   1.562  1.00  0.00     0.341 C 
ATOM      4  O   UNL     1      -2.268  -3.333   2.038  1.00  0.00    -0.249 OA
BRANCH   3   5
ATOM      5  C   UNL     1      -0.301  -1.998   1.369  1.00  0.00     0.231 C 
ATOM      6  C   UNL     1      -0.208  -0.899   0.291  1.00  0.00     0.058 C 
BRANCH   5   7
ATOM      7  N   UNL     1       0.331  -1.727   2.710  1.00  0.00    -0.333 N 
ATOM      8  C   UNL     1       0.205  -0.803   3.686  1.00  0.00     0.223 C 
ATOM      9  H   UNL     1       1.014  -2.400   2.933  1.00  0.00     0.164 HD
ATOM     10  O   UNL     1       0.957  -0.878   4.659  1.00  0.00    -0.275 OA
BRANCH   8  11
ATOM     11  C   UNL     1      -0.792   0.308   3.576  1.00  0.00     0.128 C 
BRANCH  11  12
ATOM     12  C   UNL     1      -0.139   1.519   2.926  1.00  0.00     0.170 C 
BRANCH  12  13
ATOM     13  O   UNL     1       0.658   1.090   1.827  1.00  0.00    -0.377 OA
BRANCH  13  14
ATOM     14  C   UNL     1       1.950   1.677   1.695  1.00  0.00     0.129 C 
ATOM     15  C   UNL     1       1.846   2.818   0.696  1.00  0.00     0.093 C 
ATOM     16  C   UNL     1       2.974   0.610   1.259  1.00  0.00     0.093 C 
ATOM     17  C   UNL     1       1.730   2.289  -0.729  1.00  0.00     0.263 C 
ATOM     18  C   UNL     1       3.157   0.387  -0.251  1.00  0.00     0.263 C 
ATOM     19  N   UNL     1       2.946   1.566  -1.084  1.00  0.00    -0.346 N 
ATOM     20  H   UNL     1       3.743   2.192  -0.974  1.00  0.00     0.346 HD
ATOM     21  H   UNL     1       2.848   1.251  -2.049  1.00  0.00     0.346 HD
ENDBRANCH  13  14
ENDBRANCH  12  13
ENDBRANCH  11  12
ENDBRANCH   8  11
ENDBRANCH   5   7
BRANCH   5  22
ATOM     22  C   UNL     1       0.482  -3.197   0.776  1.00  0.00     0.422 C 
ATOM     23  F   UNL     1       0.550  -3.175  -0.570  1.00  0.00    -0.168 F 
ATOM     24  F   UNL     1       1.782  -3.130   1.193  1.00  0.00    -0.168 F 
ATOM     25  F   UNL     1       0.023  -4.398   1.166  1.00  0.00    -0.168 F 
ENDBRANCH   5  22
ENDBRANCH   3   5
ENDBRANCH   2   3
ENDBRANCH   1   2
BRANCH   1  26
ATOM     26  C   UNL     1      -4.308  -0.983  -0.371  1.00  0.00     0.275 C 
BRANCH  26  27
ATOM     27  O   UNL     1      -3.901  -2.143  -1.117  1.00  0.00    -0.458 OA
BRANCH  27  28
ATOM     28  C   UNL     1      -3.304  -1.955  -2.319  1.00  0.00     0.338 C 
ATOM     29  O   UNL     1      -3.275  -0.925  -2.972  1.00  0.00    -0.246 OA
BRANCH  28  30
ATOM     30  C   UNL     1      -2.574  -3.200  -2.650  1.00  0.00     0.060 A 
ATOM     31  C   UNL     1      -1.892  -3.838  -1.623  1.00  0.00     0.016 A 
ATOM     32  C   UNL     1      -2.458  -3.704  -3.941  1.00  0.00     0.016 A 
ATOM     33  C   UNL     1      -1.035  -4.896  -1.882  1.00  0.00     0.010 A 
ATOM     34  C   UNL     1      -1.718  -4.886  -4.163  1.00  0.00     0.010 A 
ATOM     35  C   UNL     1      -0.986  -5.504  -3.129  1.00  0.00    -0.014 A 
BRANCH  35  36
ATOM     36  C   UNL     1      -0.173  -6.752  -3.306  1.00  0.00     0.031 A 
ATOM     37  C   UNL     1       0.716  -6.900  -4.512  1.00  0.00     0.074 A 
ATOM     38  C   UNL     1      -0.196  -7.755  -2.393  1.00  0.00     0.049 A 
ATOM     39  N   UNL     1       1.180  -7.987  -5.068  1.00  0.00    -0.248 NA
ATOM     40  C   UNL     1       1.117  -5.659  -5.195  1.00  0.00     0.031 C 
ATOM     41  C   UNL     1      -0.894  -7.738  -1.100  1.00  0.00     0.029 A 
ATOM     42  N   UNL     1       0.394  -9.002  -2.406  1.00  0.00    -0.354 N 
ATOM     43  C   UNL     1       1.836  -7.574  -6.223  1.00  0.00     0.074 A 
ATOM     44  C   UNL     1       1.738  -6.130  -6.269  1.00  0.00     0.031 C 
ATOM     45  C   UNL     1      -0.640  -8.868  -0.430  1.00  0.00     0.029 A 
ATOM     46  C   UNL     1       0.055  -9.780  -1.318  1.00  0.00     0.049 A 
ATOM     47  H   UNL     1       0.998  -9.306  -3.121  1.00  0.00     0.167 HD
ATOM     48  C   UNL     1       2.434  -8.346  -7.163  1.00  0.00     0.034 A 
ATOM     49  C   UNL     1       0.164 -11.106  -1.095  1.00  0.00     0.034 A 
ATOM     50  C   UNL     1       2.583  -9.777  -7.037  1.00  0.00     0.049 A 
ATOM     51  C   UNL     1       0.744 -11.958  -2.189  1.00  0.00     0.074 A 
ATOM     52  C   UNL     1       3.177 -10.664  -7.919  1.00  0.00     0.029 A 
ATOM     53  N   UNL     1       2.151 -10.528  -5.952  1.00  0.00    -0.354 N 
ATOM     54  N   UNL     1       1.230 -11.587  -3.351  1.00  0.00    -0.248 NA
ATOM     55  C   UNL     1       0.757 -13.407  -1.960  1.00  0.00     0.031 C 
ATOM     56  C   UNL     1       3.042 -11.955  -7.399  1.00  0.00     0.029 A 
ATOM     57  C   UNL     1       2.434 -11.869  -6.157  1.00  0.00     0.049 A 
ATOM     58  H   UNL     1       1.707 -10.162  -5.153  1.00  0.00     0.167 HD
ATOM     59  C   UNL     1       1.612 -12.761  -3.989  1.00  0.00     0.074 A 
ATOM     60  C   UNL     1       1.333 -13.845  -3.069  1.00  0.00     0.031 C 
ATOM     61  C   UNL     1       2.135 -12.933  -5.229  1.00  0.00     0.034 A 
BRANCH  48  62
ATOM     62  C   UNL     1       2.881  -7.687  -8.446  1.00  0.00     0.023 A 
ATOM     63  C   UNL     1       3.933  -6.758  -8.504  1.00  0.00     0.031 A 
ATOM     64  C   UNL     1       2.225  -8.014  -9.649  1.00  0.00     0.131 A 
ATOM     65  C   UNL     1       4.267  -6.158  -9.730  1.00  0.00     0.055 A 
ATOM     66  C   UNL     1       2.609  -7.469 -10.875  1.00  0.00     0.041 A 
ATOM     67  F   UNL     1       1.195  -8.875  -9.652  1.00  0.00    -0.206 F 
ATOM     68  C   UNL     1       3.631  -6.527 -10.919  1.00  0.00     0.022 A 
BRANCH  65  69
ATOM     69  S   UNL     1       5.476  -4.806  -9.740  1.00  0.00     0.124 S 
ATOM     70  O   UNL     1       4.823  -3.821  -8.880  1.00  0.00    -0.237 OA
ATOM     71  O   UNL     1       6.667  -5.442  -9.191  1.00  0.00    -0.237 OA
ATOM     72  O   UNL     1       5.562  -4.432 -11.150  1.00  0.00    -0.744 OA
ENDBRANCH  65  69
ENDBRANCH  48  62
BRANCH  49  73
ATOM     73  C   UNL     1      -0.431 -11.730   0.130  1.00  0.00     0.023 A 
ATOM     74  C   UNL     1       0.352 -12.482   1.019  1.00  0.00     0.031 A 
ATOM     75  C   UNL     1      -1.813 -11.637   0.397  1.00  0.00     0.131 A 
ATOM     76  C   UNL     1      -0.254 -13.141   2.102  1.00  0.00     0.055 A 
ATOM     77  C   UNL     1      -2.396 -12.225   1.520  1.00  0.00     0.041 A 
ATOM     78  F   UNL     1      -2.623 -10.953  -0.427  1.00  0.00    -0.206 F 
ATOM     79  C   UNL     1      -1.617 -12.998   2.372  1.00  0.00     0.022 A 
BRANCH  76  80
ATOM     80  S   UNL     1       0.742 -14.295   3.084  1.00  0.00     0.124 S 
ATOM     81  O   UNL     1       1.248 -15.198   2.056  1.00  0.00    -0.237 OA
ATOM     82  O   UNL     1       1.723 -13.405   3.695  1.00  0.00    -0.237 OA
ATOM     83  O   UNL     1      -0.227 -14.882   4.007  1.00  0.00    -0.744 OA
ENDBRANCH  76  80
ENDBRANCH  49  73
BRANCH  61  84
ATOM     84  C   UNL     1       2.470 -14.346  -5.625  1.00  0.00     0.023 A 
ATOM     85  C   UNL     1       1.465 -15.307  -5.829  1.00  0.00     0.031 A 
ATOM     86  C   UNL     1       3.810 -14.743  -5.764  1.00  0.00     0.131 A 
ATOM     87  C   UNL     1       1.819 -16.636  -6.099  1.00  0.00     0.055 A 
ATOM     88  C   UNL     1       4.154 -16.053  -6.098  1.00  0.00     0.041 A 
ATOM     89  F   UNL     1       4.807 -13.864  -5.573  1.00  0.00    -0.206 F 
ATOM     90  C   UNL     1       3.156 -17.011  -6.253  1.00  0.00     0.022 A 
BRANCH  87  91
ATOM     91  S   UNL     1       0.510 -17.890  -6.145  1.00  0.00     0.124 S 
ATOM     92  O   UNL     1      -0.049 -17.794  -4.801  1.00  0.00    -0.237 OA
ATOM     93  O   UNL     1      -0.344 -17.412  -7.227  1.00  0.00    -0.237 OA
ATOM     94  O   UNL     1       1.233 -19.129  -6.430  1.00  0.00    -0.744 OA
ENDBRANCH  87  91
ENDBRANCH  61  84
ENDBRANCH  35  36
ENDBRANCH  28  30
ENDBRANCH  27  28
ENDBRANCH  26  27
ENDBRANCH   1  26
TORSDOF 20
