REMARK SMILES CC1=C(C)C[C@H](C(=O)OCCOC(=O)c2ccc(-c3c4nc(c(-c5cc(S(=O)(=O)[O-])ccc5F)c5ccc([nH]5)c(-c5cc(S(=O)(=O)[O-])ccc5F)c5nc(c(-c6cc(S(=O)(=O)[O-])ccc6F)c6ccc3[nH]6)C=C5)C=C4)cc2)[C@@H](C(=O)Nc2nc(-c3ccc(C)cc3)c(C)s2)C1
REMARK SMILES IDX 10 1 9 2 7 3 8 4 6 5 1 6 2 7 3 8 95 9 4 10 5 11 78 12 79 13
REMARK SMILES IDX 80 14 81 15 82 17 83 18 94 19 84 20 92 21 93 22 85 23 86 24
REMARK SMILES IDX 91 25 87 26 90 27 88 28 89 29 11 30 12 31 13 32 14 33 15 34
REMARK SMILES IDX 16 35 77 36 17 37 76 38 18 39 19 40 20 41 70 42 21 43 75 44
REMARK SMILES IDX 69 45 71 46 22 47 74 48 68 49 67 50 23 52 55 53 35 54 54 55
REMARK SMILES IDX 36 56 39 57 53 58 72 59 37 60 38 61 52 63 73 64 40 65 24 66
REMARK SMILES IDX 25 67 33 68 26 69 32 70 34 71 31 72 27 73 28 74 29 75 30 76
REMARK SMILES IDX 56 77 57 78 65 79 58 80 64 81 66 82 63 83 59 84 60 85 61 86
REMARK SMILES IDX 62 87 41 88 42 89 50 90 43 91 49 92 51 93 48 94 44 95 45 96
REMARK SMILES IDX 46 97 47 98
REMARK H PARENT 81 16 71 51 39 62
REMARK Flexibility Score: inf
ROOT
ATOM      1  C   UNL     1      -3.240  -4.326   3.510  1.00  0.00     0.274 C 
ENDROOT
BRANCH   1   2
ATOM      2  O   UNL     1      -1.872  -3.932   3.301  1.00  0.00    -0.462 OA
BRANCH   2   3
ATOM      3  C   UNL     1      -1.646  -2.604   3.091  1.00  0.00     0.310 C 
ATOM      4  O   UNL     1      -2.527  -1.763   2.973  1.00  0.00    -0.252 OA
BRANCH   3   5
ATOM      5  C   UNL     1      -0.159  -2.292   3.169  1.00  0.00     0.116 C 
ATOM      6  C   UNL     1       0.865  -0.561  -0.766  1.00  0.00     0.039 C 
ATOM      7  C   UNL     1       0.635  -1.244   0.557  1.00  0.00    -0.074 C 
ATOM      8  C   UNL     1       1.017  -2.499   0.863  1.00  0.00    -0.073 C 
ATOM      9  C   UNL     1      -0.089  -0.392   1.558  1.00  0.00     0.045 C 
ATOM     10  C   UNL     1       1.808  -3.387  -0.058  1.00  0.00     0.039 C 
ATOM     11  C   UNL     1       0.704  -3.125   2.206  1.00  0.00     0.046 C 
ATOM     12  C   UNL     1       0.111  -0.762   3.031  1.00  0.00     0.097 C 
BRANCH  12  13
ATOM     13  C   UNL     1       1.436  -0.428   3.757  1.00  0.00     0.230 C 
ATOM     14  O   UNL     1       1.911  -1.260   4.548  1.00  0.00    -0.274 OA
ATOM     15  N   UNL     1       2.122   0.741   3.708  1.00  0.00    -0.302 N 
ATOM     16  H   UNL     1       2.728   0.923   4.463  1.00  0.00     0.172 HD
BRANCH  15  17
ATOM     17  C   UNL     1       2.068   1.687   2.738  1.00  0.00     0.190 A 
ATOM     18  N   UNL     1       3.083   1.966   1.963  1.00  0.00    -0.220 NA
ATOM     19  S   UNL     1       0.727   2.728   2.617  1.00  0.00    -0.101 S 
ATOM     20  C   UNL     1       2.666   2.841   0.975  1.00  0.00     0.086 A 
ATOM     21  C   UNL     1       1.337   3.234   1.077  1.00  0.00     0.031 A 
ATOM     22  C   UNL     1       0.447   3.927   0.109  1.00  0.00     0.059 C 
BRANCH  20  23
ATOM     23  C   UNL     1       3.561   3.173  -0.126  1.00  0.00     0.001 A 
ATOM     24  C   UNL     1       4.426   2.195  -0.634  1.00  0.00     0.010 A 
ATOM     25  C   UNL     1       3.596   4.457  -0.680  1.00  0.00     0.010 A 
ATOM     26  C   UNL     1       5.273   2.481  -1.709  1.00  0.00     0.004 A 
ATOM     27  C   UNL     1       4.439   4.744  -1.757  1.00  0.00     0.004 A 
ATOM     28  C   UNL     1       5.271   3.754  -2.291  1.00  0.00    -0.051 A 
ATOM     29  C   UNL     1       6.176   4.053  -3.448  1.00  0.00     0.044 C 
ENDBRANCH  20  23
ENDBRANCH  15  17
ENDBRANCH  12  13
ENDBRANCH   3   5
ENDBRANCH   2   3
ENDBRANCH   1   2
BRANCH   1  30
ATOM     30  C   UNL     1      -3.464  -4.722   4.971  1.00  0.00     0.275 C 
BRANCH  30  31
ATOM     31  O   UNL     1      -3.297  -3.591   5.847  1.00  0.00    -0.458 OA
BRANCH  31  32
ATOM     32  C   UNL     1      -2.100  -3.522   6.475  1.00  0.00     0.338 C 
ATOM     33  O   UNL     1      -1.183  -4.327   6.403  1.00  0.00    -0.246 OA
BRANCH  32  34
ATOM     34  C   UNL     1      -1.993  -2.243   7.193  1.00  0.00     0.060 A 
ATOM     35  C   UNL     1      -1.190  -1.247   6.638  1.00  0.00     0.016 A 
ATOM     36  C   UNL     1      -2.582  -2.055   8.443  1.00  0.00     0.016 A 
ATOM     37  C   UNL     1      -0.954  -0.062   7.324  1.00  0.00     0.010 A 
ATOM     38  C   UNL     1      -2.355  -0.856   9.132  1.00  0.00     0.010 A 
ATOM     39  C   UNL     1      -1.526   0.142   8.584  1.00  0.00    -0.014 A 
BRANCH  39  40
ATOM     40  C   UNL     1      -1.163   1.355   9.360  1.00  0.00     0.031 A 
ATOM     41  C   UNL     1      -0.257   1.222  10.552  1.00  0.00     0.074 A 
ATOM     42  C   UNL     1      -1.584   2.571   8.965  1.00  0.00     0.049 A 
ATOM     43  N   UNL     1       0.089   2.120  11.437  1.00  0.00    -0.248 NA
ATOM     44  C   UNL     1       0.332  -0.106  10.775  1.00  0.00     0.031 C 
ATOM     45  C   UNL     1      -2.388   2.840   7.772  1.00  0.00     0.029 A 
ATOM     46  N   UNL     1      -1.386   3.810   9.521  1.00  0.00    -0.354 N 
ATOM     47  C   UNL     1       0.914   1.460  12.342  1.00  0.00     0.074 A 
ATOM     48  C   UNL     1       0.996   0.082  11.905  1.00  0.00     0.031 C 
ATOM     49  C   UNL     1      -2.600   4.163   7.677  1.00  0.00     0.029 A 
ATOM     50  C   UNL     1      -2.008   4.827   8.835  1.00  0.00     0.049 A 
ATOM     51  H   UNL     1      -0.849   3.957  10.333  1.00  0.00     0.167 HD
ATOM     52  C   UNL     1       1.543   1.961  13.436  1.00  0.00     0.034 A 
ATOM     53  C   UNL     1      -2.119   6.138   9.129  1.00  0.00     0.034 A 
ATOM     54  C   UNL     1       1.458   3.342  13.848  1.00  0.00     0.049 A 
ATOM     55  C   UNL     1      -1.489   6.655  10.398  1.00  0.00     0.074 A 
ATOM     56  C   UNL     1       2.028   3.953  14.952  1.00  0.00     0.029 A 
ATOM     57  N   UNL     1       0.761   4.332  13.165  1.00  0.00    -0.354 N 
ATOM     58  N   UNL     1      -0.783   6.007  11.296  1.00  0.00    -0.248 NA
ATOM     59  C   UNL     1      -1.682   8.080  10.698  1.00  0.00     0.031 C 
ATOM     60  C   UNL     1       1.631   5.296  14.966  1.00  0.00     0.029 A 
ATOM     61  C   UNL     1       0.869   5.542  13.835  1.00  0.00     0.049 A 
ATOM     62  H   UNL     1       0.263   4.195  12.328  1.00  0.00     0.167 HD
ATOM     63  C   UNL     1      -0.431   6.951  12.256  1.00  0.00     0.074 A 
ATOM     64  C   UNL     1      -0.991   8.214  11.821  1.00  0.00     0.031 C 
ATOM     65  C   UNL     1       0.291   6.790  13.394  1.00  0.00     0.034 A 
BRANCH  52  66
ATOM     66  C   UNL     1       2.309   0.983  14.293  1.00  0.00     0.023 A 
ATOM     67  C   UNL     1       3.448   0.307  13.819  1.00  0.00     0.031 A 
ATOM     68  C   UNL     1       1.855   0.676  15.588  1.00  0.00     0.131 A 
ATOM     69  C   UNL     1       4.042  -0.696  14.601  1.00  0.00     0.055 A 
ATOM     70  C   UNL     1       2.499  -0.266  16.392  1.00  0.00     0.041 A 
ATOM     71  F   UNL     1       0.760   1.272  16.087  1.00  0.00    -0.206 F 
ATOM     72  C   UNL     1       3.589  -0.971  15.893  1.00  0.00     0.022 A 
BRANCH  69  73
ATOM     73  S   UNL     1       5.315  -1.746  13.846  1.00  0.00     0.124 S 
ATOM     74  O   UNL     1       4.596  -2.306  12.704  1.00  0.00    -0.237 OA
ATOM     75  O   UNL     1       6.368  -0.788  13.533  1.00  0.00    -0.237 OA
ATOM     76  O   UNL     1       5.637  -2.705  14.901  1.00  0.00    -0.744 OA
ENDBRANCH  69  73
ENDBRANCH  52  66
BRANCH  53  77
ATOM     77  C   UNL     1      -2.906   7.047   8.248  1.00  0.00     0.023 A 
ATOM     78  C   UNL     1      -2.293   8.111   7.569  1.00  0.00     0.031 A 
ATOM     79  C   UNL     1      -4.298   6.891   8.113  1.00  0.00     0.131 A 
ATOM     80  C   UNL     1      -3.074   9.001   6.814  1.00  0.00     0.055 A 
ATOM     81  C   UNL     1      -5.063   7.748   7.321  1.00  0.00     0.041 A 
ATOM     82  F   UNL     1      -4.934   5.892   8.745  1.00  0.00    -0.206 F 
ATOM     83  C   UNL     1      -4.452   8.818   6.675  1.00  0.00     0.022 A 
BRANCH  80  84
ATOM     84  S   UNL     1      -2.273  10.447   6.068  1.00  0.00     0.124 S 
ATOM     85  O   UNL     1      -1.731  11.125   7.240  1.00  0.00    -0.237 OA
ATOM     86  O   UNL     1      -1.298   9.828   5.176  1.00  0.00    -0.237 OA
ATOM     87  O   UNL     1      -3.373  11.139   5.399  1.00  0.00    -0.744 OA
ENDBRANCH  80  84
ENDBRANCH  53  77
BRANCH  65  88
ATOM     88  C   UNL     1       0.549   8.028  14.216  1.00  0.00     0.023 A 
ATOM     89  C   UNL     1      -0.482   8.681  14.914  1.00  0.00     0.031 A 
ATOM     90  C   UNL     1       1.843   8.573  14.280  1.00  0.00     0.131 A 
ATOM     91  C   UNL     1      -0.211   9.872  15.605  1.00  0.00     0.055 A 
ATOM     92  C   UNL     1       2.117   9.730  15.011  1.00  0.00     0.041 A 
ATOM     93  F   UNL     1       2.863   7.990  13.630  1.00  0.00    -0.206 F 
ATOM     94  C   UNL     1       1.085  10.393  15.669  1.00  0.00     0.022 A 
BRANCH  91  95
ATOM     95  S   UNL     1      -1.591  10.782  16.352  1.00  0.00     0.124 S 
ATOM     96  O   UNL     1      -2.445  11.043  15.198  1.00  0.00    -0.237 OA
ATOM     97  O   UNL     1      -2.108   9.823  17.324  1.00  0.00    -0.237 OA
ATOM     98  O   UNL     1      -0.952  11.963  16.930  1.00  0.00    -0.744 OA
ENDBRANCH  91  95
ENDBRANCH  65  88
ENDBRANCH  39  40
ENDBRANCH  32  34
ENDBRANCH  31  32
ENDBRANCH  30  31
ENDBRANCH   1  30
TORSDOF 17
