REMARK SMILES NC(=O)N[C@@H](C(=O)N[C@@H](CO)C(=O)OCCOC(=O)c1ccc(-c2c3nc(c(-c4cc(S(=O)(=O)[O-])ccc4F)c4ccc([nH]4)c(-c4cc(S(=O)(=O)[O-])ccc4F)c4nc(c(-c5cc(S(=O)(=O)[O-])ccc5F)c5ccc2[nH]5)C=C4)C=C3)cc1)c1ccccc1
REMARK SMILES IDX 15 1 14 2 12 3 13 4 9 5 8 6 6 7 7 8 5 10 4 11 1 12 2 13 3 16
REMARK SMILES IDX 83 18 84 19 88 20 85 21 87 22 86 23 10 24 11 25 16 27 17 28
REMARK SMILES IDX 18 29 19 30 20 31 21 32 82 33 22 34 81 35 23 36 24 37 25 38
REMARK SMILES IDX 75 39 26 40 80 41 74 42 76 43 27 44 79 45 73 46 72 47 28 49
REMARK SMILES IDX 60 50 40 51 59 52 41 53 44 54 58 55 77 56 42 57 43 58 57 60
REMARK SMILES IDX 78 61 45 62 29 63 30 64 38 65 31 66 37 67 39 68 36 69 32 70
REMARK SMILES IDX 33 71 34 72 35 73 61 74 62 75 70 76 63 77 69 78 71 79 68 80
REMARK SMILES IDX 64 81 65 82 66 83 67 84 46 85 47 86 55 87 48 88 54 89 56 90
REMARK SMILES IDX 53 91 49 92 50 93 51 94 52 95
REMARK H PARENT 8 9 1 14 1 15 4 17 11 26 76 48 44 59
REMARK Flexibility Score: inf
ROOT
ATOM      1  C   UNL     1       3.683   5.284   0.813  1.00  0.00     0.274 C 
ENDROOT
BRANCH   1   2
ATOM      2  O   UNL     1       3.064   4.348   1.714  1.00  0.00    -0.460 OA
BRANCH   2   3
ATOM      3  C   UNL     1       1.891   3.793   1.298  1.00  0.00     0.331 C 
ATOM      4  O   UNL     1       1.287   4.118   0.281  1.00  0.00    -0.250 OA
BRANCH   3   5
ATOM      5  C   UNL     1       1.388   2.701   2.252  1.00  0.00     0.218 C 
BRANCH   5   6
ATOM      6  N   UNL     1       2.383   2.285   3.250  1.00  0.00    -0.339 N 
ATOM      7  C   UNL     1       2.833   1.034   3.594  1.00  0.00     0.248 C 
ATOM      8  O   UNL     1       3.784   1.019   4.379  1.00  0.00    -0.272 OA
ATOM      9  H   UNL     1       2.793   3.024   3.755  1.00  0.00     0.164 HD
BRANCH   7  10
ATOM     10  C   UNL     1       2.202  -0.242   2.940  1.00  0.00     0.203 C 
BRANCH  10  11
ATOM     11  N   UNL     1       0.754  -0.222   3.159  1.00  0.00    -0.322 N 
ATOM     12  N   UNL     1       0.026  -0.573   1.000  1.00  0.00    -0.352 N 
ATOM     13  C   UNL     1      -0.264  -0.328   2.288  1.00  0.00     0.313 C 
ATOM     14  H   UNL     1      -0.699  -0.656   0.339  1.00  0.00     0.161 HD
ATOM     15  H   UNL     1       0.964  -0.670   0.716  1.00  0.00     0.161 HD
ATOM     16  O   UNL     1      -1.418  -0.136   2.650  1.00  0.00    -0.249 OA
ATOM     17  H   UNL     1       0.482  -0.112   4.099  1.00  0.00     0.166 HD
ENDBRANCH  10  11
BRANCH  10  18
ATOM     18  C   UNL     1       2.746  -1.606   3.360  1.00  0.00    -0.016 A 
ATOM     19  C   UNL     1       2.588  -2.700   2.482  1.00  0.00     0.006 A 
ATOM     20  C   UNL     1       3.345  -1.860   4.603  1.00  0.00     0.006 A 
ATOM     21  C   UNL     1       3.044  -3.977   2.817  1.00  0.00     0.000 A 
ATOM     22  C   UNL     1       3.819  -3.136   4.930  1.00  0.00     0.000 A 
ATOM     23  C   UNL     1       3.671  -4.192   4.037  1.00  0.00     0.000 A 
ENDBRANCH  10  18
ENDBRANCH   7  10
ENDBRANCH   5   6
BRANCH   5  24
ATOM     24  C   UNL     1       0.109   3.208   2.927  1.00  0.00     0.193 C 
BRANCH  24  25
ATOM     25  O   UNL     1       0.412   4.199   3.915  1.00  0.00    -0.394 OA
ATOM     26  H   UNL     1       0.982   3.812   4.597  1.00  0.00     0.210 HD
ENDBRANCH  24  25
ENDBRANCH   5  24
ENDBRANCH   3   5
ENDBRANCH   2   3
ENDBRANCH   1   2
BRANCH   1  27
ATOM     27  C   UNL     1       4.947   4.682   0.196  1.00  0.00     0.275 C 
BRANCH  27  28
ATOM     28  O   UNL     1       4.636   3.567  -0.659  1.00  0.00    -0.458 OA
BRANCH  28  29
ATOM     29  C   UNL     1       4.654   2.362  -0.044  1.00  0.00     0.338 C 
ATOM     30  O   UNL     1       4.893   2.127   1.126  1.00  0.00    -0.246 OA
BRANCH  29  31
ATOM     31  C   UNL     1       4.225   1.320  -0.981  1.00  0.00     0.060 A 
ATOM     32  C   UNL     1       2.898   0.893  -0.938  1.00  0.00     0.016 A 
ATOM     33  C   UNL     1       5.158   0.675  -1.791  1.00  0.00     0.016 A 
ATOM     34  C   UNL     1       2.508  -0.226  -1.668  1.00  0.00     0.010 A 
ATOM     35  C   UNL     1       4.750  -0.418  -2.561  1.00  0.00     0.010 A 
ATOM     36  C   UNL     1       3.429  -0.896  -2.484  1.00  0.00    -0.014 A 
BRANCH  36  37
ATOM     37  C   UNL     1       3.035  -2.130  -3.215  1.00  0.00     0.031 A 
ATOM     38  C   UNL     1       3.714  -3.433  -2.893  1.00  0.00     0.074 A 
ATOM     39  C   UNL     1       2.068  -2.094  -4.152  1.00  0.00     0.049 A 
ATOM     40  N   UNL     1       3.700  -4.561  -3.553  1.00  0.00    -0.248 NA
ATOM     41  C   UNL     1       4.522  -3.460  -1.664  1.00  0.00     0.031 C 
ATOM     42  C   UNL     1       1.267  -0.919  -4.500  1.00  0.00     0.029 A 
ATOM     43  N   UNL     1       1.594  -3.076  -4.984  1.00  0.00    -0.354 N 
ATOM     44  C   UNL     1       4.541  -5.420  -2.853  1.00  0.00     0.074 A 
ATOM     45  C   UNL     1       5.046  -4.676  -1.716  1.00  0.00     0.031 C 
ATOM     46  C   UNL     1       0.388  -1.254  -5.457  1.00  0.00     0.029 A 
ATOM     47  C   UNL     1       0.628  -2.636  -5.859  1.00  0.00     0.049 A 
ATOM     48  H   UNL     1       1.915  -4.007  -4.958  1.00  0.00     0.167 HD
ATOM     49  C   UNL     1       4.868  -6.705  -3.142  1.00  0.00     0.034 A 
ATOM     50  C   UNL     1       0.045  -3.253  -6.906  1.00  0.00     0.034 A 
ATOM     51  C   UNL     1       4.335  -7.433  -4.269  1.00  0.00     0.049 A 
ATOM     52  C   UNL     1       0.478  -4.651  -7.259  1.00  0.00     0.074 A 
ATOM     53  C   UNL     1       4.618  -8.725  -4.679  1.00  0.00     0.029 A 
ATOM     54  N   UNL     1       3.397  -6.933  -5.163  1.00  0.00    -0.354 N 
ATOM     55  N   UNL     1       1.365  -5.415  -6.664  1.00  0.00    -0.248 NA
ATOM     56  C   UNL     1      -0.151  -5.260  -8.438  1.00  0.00     0.031 C 
ATOM     57  C   UNL     1       3.888  -8.988  -5.845  1.00  0.00     0.029 A 
ATOM     58  C   UNL     1       3.101  -7.883  -6.128  1.00  0.00     0.049 A 
ATOM     59  H   UNL     1       3.000  -6.034  -5.118  1.00  0.00     0.167 HD
ATOM     60  C   UNL     1       1.389  -6.601  -7.391  1.00  0.00     0.074 A 
ATOM     61  C   UNL     1       0.421  -6.455  -8.460  1.00  0.00     0.031 C 
ATOM     62  C   UNL     1       2.143  -7.713  -7.193  1.00  0.00     0.034 A 
BRANCH  49  63
ATOM     63  C   UNL     1       5.902  -7.365  -2.263  1.00  0.00     0.023 A 
ATOM     64  C   UNL     1       5.663  -7.633  -0.905  1.00  0.00     0.031 A 
ATOM     65  C   UNL     1       7.170  -7.682  -2.783  1.00  0.00     0.131 A 
ATOM     66  C   UNL     1       6.699  -8.124  -0.096  1.00  0.00     0.055 A 
ATOM     67  C   UNL     1       8.173  -8.243  -1.991  1.00  0.00     0.041 A 
ATOM     68  F   UNL     1       7.463  -7.429  -4.069  1.00  0.00    -0.206 F 
ATOM     69  C   UNL     1       7.946  -8.451  -0.634  1.00  0.00     0.022 A 
BRANCH  66  70
ATOM     70  S   UNL     1       6.440  -8.183   1.700  1.00  0.00     0.124 S 
ATOM     71  O   UNL     1       6.070  -6.800   1.993  1.00  0.00    -0.237 OA
ATOM     72  O   UNL     1       5.373  -9.168   1.831  1.00  0.00    -0.237 OA
ATOM     73  O   UNL     1       7.742  -8.596   2.220  1.00  0.00    -0.744 OA
ENDBRANCH  66  70
ENDBRANCH  49  63
BRANCH  50  74
ATOM     74  C   UNL     1      -0.947  -2.526  -7.745  1.00  0.00     0.023 A 
ATOM     75  C   UNL     1      -2.288  -2.935  -7.796  1.00  0.00     0.031 A 
ATOM     76  C   UNL     1      -0.561  -1.421  -8.525  1.00  0.00     0.131 A 
ATOM     77  C   UNL     1      -3.192  -2.257  -8.630  1.00  0.00     0.055 A 
ATOM     78  C   UNL     1      -1.474  -0.721  -9.315  1.00  0.00     0.041 A 
ATOM     79  F   UNL     1       0.710  -0.991  -8.511  1.00  0.00    -0.206 F 
ATOM     80  C   UNL     1      -2.797  -1.144  -9.377  1.00  0.00     0.022 A 
BRANCH  77  81
ATOM     81  S   UNL     1      -4.887  -2.887  -8.767  1.00  0.00     0.124 S 
ATOM     82  O   UNL     1      -4.664  -4.226  -9.300  1.00  0.00    -0.237 OA
ATOM     83  O   UNL     1      -5.349  -2.814  -7.385  1.00  0.00    -0.237 OA
ATOM     84  O   UNL     1      -5.526  -1.946  -9.685  1.00  0.00    -0.744 OA
ENDBRANCH  77  81
ENDBRANCH  50  74
BRANCH  62  85
ATOM     85  C   UNL     1       1.905  -8.868  -8.130  1.00  0.00     0.023 A 
ATOM     86  C   UNL     1       2.321  -8.829  -9.472  1.00  0.00     0.031 A 
ATOM     87  C   UNL     1       1.238 -10.017  -7.672  1.00  0.00     0.131 A 
ATOM     88  C   UNL     1       2.027  -9.905 -10.323  1.00  0.00     0.055 A 
ATOM     89  C   UNL     1       0.987 -11.102  -8.511  1.00  0.00     0.041 A 
ATOM     90  F   UNL     1       0.819 -10.101  -6.399  1.00  0.00    -0.206 F 
ATOM     91  C   UNL     1       1.373 -11.046  -9.848  1.00  0.00     0.022 A 
BRANCH  88  92
ATOM     92  S   UNL     1       2.452  -9.769 -12.081  1.00  0.00     0.124 S 
ATOM     93  O   UNL     1       1.664  -8.613 -12.495  1.00  0.00    -0.237 OA
ATOM     94  O   UNL     1       3.898  -9.574 -12.039  1.00  0.00    -0.237 OA
ATOM     95  O   UNL     1       2.017 -11.048 -12.639  1.00  0.00    -0.744 OA
ENDBRANCH  88  92
ENDBRANCH  62  85
ENDBRANCH  36  37
ENDBRANCH  29  31
ENDBRANCH  28  29
ENDBRANCH  27  28
ENDBRANCH   1  27
TORSDOF 20
