REMARK SMILES Cc1ccccc1CN1C(=O)[C@H](CC(=O)OCCOC(=O)c2ccc(-c3c4nc(c(-c5cc(S(=O)(=O)[O-])ccc5F)c5ccc([nH]5)c(-c5cc(S(=O)(=O)[O-])ccc5F)c5nc(c(-c6cc(S(=O)(=O)[O-])ccc6F)c6ccc3[nH]6)C=C5)C=C4)cc2)n2c(nc3ccccc32)[C@H]1C
REMARK SMILES IDX 17 1 16 2 14 3 15 4 13 5 12 6 9 7 10 8 94 9 11 10 86 11
REMARK SMILES IDX 95 12 85 13 87 14 93 15 88 16 92 17 89 18 91 19 90 20 8 21
REMARK SMILES IDX 7 22 1 23 2 24 3 25 4 26 6 27 5 28 18 29 19 30 20 31 21 32
REMARK SMILES IDX 22 33 23 34 84 35 24 36 83 37 25 38 26 39 27 40 77 41 28 42
REMARK SMILES IDX 82 43 76 44 78 45 29 46 81 47 75 48 74 49 30 51 62 52 42 53
REMARK SMILES IDX 61 54 43 55 46 56 60 57 79 58 44 59 45 60 59 62 80 63 47 64
REMARK SMILES IDX 31 65 32 66 40 67 33 68 39 69 41 70 38 71 34 72 35 73 36 74
REMARK SMILES IDX 37 75 63 76 64 77 72 78 65 79 71 80 73 81 70 82 66 83 67 84
REMARK SMILES IDX 68 85 69 86 48 87 49 88 57 89 50 90 56 91 58 92 55 93 51 94
REMARK SMILES IDX 52 95 53 96 54 97
REMARK H PARENT 78 50 46 61
REMARK Flexibility Score: inf
ROOT
ATOM      1  C   UNL     1       5.717   4.008  -2.913  1.00  0.00     0.274 C 
ENDROOT
BRANCH   1   2
ATOM      2  O   UNL     1       4.453   4.497  -3.390  1.00  0.00    -0.462 OA
BRANCH   2   3
ATOM      3  C   UNL     1       3.472   3.568  -3.354  1.00  0.00     0.308 C 
ATOM      4  O   UNL     1       3.608   2.423  -2.930  1.00  0.00    -0.252 OA
BRANCH   3   5
ATOM      5  C   UNL     1       2.173   4.107  -3.897  1.00  0.00     0.158 C 
BRANCH   5   6
ATOM      6  C   UNL     1       1.105   3.263  -3.213  1.00  0.00     0.189 C 
ATOM      7  N   UNL     1       0.074   3.099  -1.005  1.00  0.00    -0.327 N 
ATOM      8  C   UNL     1       1.176   3.549  -1.704  1.00  0.00     0.247 C 
ATOM      9  C   UNL     1      -1.159   3.786  -1.415  1.00  0.00     0.149 C 
ATOM     10  O   UNL     1       2.131   4.068  -1.131  1.00  0.00    -0.272 OA
ATOM     11  C   UNL     1      -1.339   3.573  -2.901  1.00  0.00     0.133 A 
ATOM     12  C   UNL     1      -2.435   3.453  -0.662  1.00  0.00     0.040 C 
ATOM     13  N   UNL     1      -0.250   3.383  -3.725  1.00  0.00    -0.313 N 
ATOM     14  N   UNL     1      -2.464   3.497  -3.584  1.00  0.00    -0.231 NA
ATOM     15  C   UNL     1      -0.715   2.989  -4.960  1.00  0.00     0.069 A 
ATOM     16  C   UNL     1      -2.099   3.100  -4.847  1.00  0.00     0.089 A 
ATOM     17  C   UNL     1      -0.094   2.519  -6.127  1.00  0.00     0.028 A 
ATOM     18  C   UNL     1      -2.913   2.770  -5.943  1.00  0.00     0.030 A 
ATOM     19  C   UNL     1      -0.925   2.180  -7.204  1.00  0.00     0.002 A 
ATOM     20  C   UNL     1      -2.312   2.308  -7.120  1.00  0.00     0.002 A 
BRANCH   7  21
ATOM     21  C   UNL     1       0.330   2.536   0.326  1.00  0.00     0.156 C 
BRANCH  21  22
ATOM     22  C   UNL     1      -0.008   1.054   0.366  1.00  0.00    -0.026 A 
ATOM     23  C   UNL     1       2.366   0.166  -0.183  1.00  0.00     0.044 C 
ATOM     24  C   UNL     1       0.879   0.009   0.012  1.00  0.00    -0.046 A 
ATOM     25  C   UNL     1       0.376  -1.304  -0.102  1.00  0.00     0.004 A 
ATOM     26  C   UNL     1      -0.968  -1.590   0.132  1.00  0.00     0.000 A 
ATOM     27  C   UNL     1      -1.330   0.713   0.700  1.00  0.00     0.006 A 
ATOM     28  C   UNL     1      -1.817  -0.582   0.556  1.00  0.00     0.000 A 
ENDBRANCH  21  22
ENDBRANCH   7  21
ENDBRANCH   5   6
ENDBRANCH   3   5
ENDBRANCH   2   3
ENDBRANCH   1   2
BRANCH   1  29
ATOM     29  C   UNL     1       6.276   2.895  -3.817  1.00  0.00     0.275 C 
BRANCH  29  30
ATOM     30  O   UNL     1       6.421   3.414  -5.155  1.00  0.00    -0.458 OA
BRANCH  30  31
ATOM     31  C   UNL     1       5.314   3.471  -5.936  1.00  0.00     0.338 C 
ATOM     32  O   UNL     1       4.384   2.661  -5.943  1.00  0.00    -0.246 OA
BRANCH  31  33
ATOM     33  C   UNL     1       5.301   4.759  -6.692  1.00  0.00     0.060 A 
ATOM     34  C   UNL     1       4.318   5.029  -7.649  1.00  0.00     0.016 A 
ATOM     35  C   UNL     1       6.190   5.785  -6.355  1.00  0.00     0.016 A 
ATOM     36  C   UNL     1       4.246   6.310  -8.252  1.00  0.00     0.010 A 
ATOM     37  C   UNL     1       6.130   7.046  -6.970  1.00  0.00     0.010 A 
ATOM     38  C   UNL     1       5.151   7.349  -7.920  1.00  0.00    -0.014 A 
BRANCH  38  39
ATOM     39  C   UNL     1       4.761   8.785  -8.219  1.00  0.00     0.031 A 
ATOM     40  C   UNL     1       3.978   9.280  -6.958  1.00  0.00     0.074 A 
ATOM     41  C   UNL     1       5.457   9.810  -8.853  1.00  0.00     0.049 A 
ATOM     42  N   UNL     1       4.558   9.308  -5.788  1.00  0.00    -0.248 NA
ATOM     43  C   UNL     1       2.544   9.564  -6.795  1.00  0.00     0.031 C 
ATOM     44  C   UNL     1       4.775  11.001  -9.393  1.00  0.00     0.029 A 
ATOM     45  N   UNL     1       6.817  10.134  -9.164  1.00  0.00    -0.354 N 
ATOM     46  C   UNL     1       3.801  10.131  -4.956  1.00  0.00     0.074 A 
ATOM     47  C   UNL     1       2.474  10.025  -5.520  1.00  0.00     0.031 C 
ATOM     48  C   UNL     1       5.664  11.974  -9.706  1.00  0.00     0.029 A 
ATOM     49  C   UNL     1       7.014  11.566  -9.315  1.00  0.00     0.049 A 
ATOM     50  H   UNL     1       7.534   9.466  -9.264  1.00  0.00     0.167 HD
ATOM     51  C   UNL     1       4.440  11.060  -4.154  1.00  0.00     0.034 A 
ATOM     52  C   UNL     1       8.019  12.475  -8.977  1.00  0.00     0.034 A 
ATOM     53  C   UNL     1       5.789  11.187  -4.645  1.00  0.00     0.049 A 
ATOM     54  C   UNL     1       9.140  11.942  -8.081  1.00  0.00     0.074 A 
ATOM     55  C   UNL     1       6.048  11.532  -5.948  1.00  0.00     0.029 A 
ATOM     56  N   UNL     1       7.008  10.886  -4.046  1.00  0.00    -0.354 N 
ATOM     57  N   UNL     1       9.154  12.122  -6.789  1.00  0.00    -0.248 NA
ATOM     58  C   UNL     1      10.282  11.127  -8.502  1.00  0.00     0.031 C 
ATOM     59  C   UNL     1       7.062  10.649  -6.192  1.00  0.00     0.029 A 
ATOM     60  C   UNL     1       7.877  10.643  -5.092  1.00  0.00     0.049 A 
ATOM     61  H   UNL     1       7.209  10.853  -3.083  1.00  0.00     0.167 HD
ATOM     62  C   UNL     1       9.837  11.041  -6.245  1.00  0.00     0.074 A 
ATOM     63  C   UNL     1      10.726  10.639  -7.323  1.00  0.00     0.031 C 
ATOM     64  C   UNL     1       9.277  10.303  -5.206  1.00  0.00     0.034 A 
BRANCH  51  65
ATOM     65  C   UNL     1       3.972  12.220  -3.325  1.00  0.00     0.023 A 
ATOM     66  C   UNL     1       4.756  13.407  -3.381  1.00  0.00     0.031 A 
ATOM     67  C   UNL     1       2.997  12.164  -2.334  1.00  0.00     0.131 A 
ATOM     68  C   UNL     1       4.656  14.413  -2.421  1.00  0.00     0.055 A 
ATOM     69  C   UNL     1       2.851  13.208  -1.400  1.00  0.00     0.041 A 
ATOM     70  F   UNL     1       2.215  11.081  -2.203  1.00  0.00    -0.206 F 
ATOM     71  C   UNL     1       3.699  14.323  -1.421  1.00  0.00     0.022 A 
BRANCH  68  72
ATOM     72  S   UNL     1       5.906  15.733  -2.433  1.00  0.00     0.124 S 
ATOM     73  O   UNL     1       7.140  14.981  -2.230  1.00  0.00    -0.237 OA
ATOM     74  O   UNL     1       5.715  16.330  -3.750  1.00  0.00    -0.237 OA
ATOM     75  O   UNL     1       5.510  16.576  -1.306  1.00  0.00    -0.744 OA
ENDBRANCH  68  72
ENDBRANCH  51  65
BRANCH  52  76
ATOM     76  C   UNL     1       7.837  14.017  -8.815  1.00  0.00     0.023 A 
ATOM     77  C   UNL     1       8.124  15.013  -9.782  1.00  0.00     0.031 A 
ATOM     78  C   UNL     1       7.528  14.524  -7.525  1.00  0.00     0.131 A 
ATOM     79  C   UNL     1       8.138  16.402  -9.416  1.00  0.00     0.055 A 
ATOM     80  C   UNL     1       7.583  15.873  -7.160  1.00  0.00     0.041 A 
ATOM     81  F   UNL     1       7.155  13.705  -6.545  1.00  0.00    -0.206 F 
ATOM     82  C   UNL     1       7.896  16.825  -8.106  1.00  0.00     0.022 A 
BRANCH  79  83
ATOM     83  S   UNL     1       8.413  17.723 -10.653  1.00  0.00     0.124 S 
ATOM     84  O   UNL     1       9.866  17.723 -10.802  1.00  0.00    -0.237 OA
ATOM     85  O   UNL     1       7.661  17.243 -11.809  1.00  0.00    -0.237 OA
ATOM     86  O   UNL     1       7.858  18.923 -10.027  1.00  0.00    -0.744 OA
ENDBRANCH  79  83
ENDBRANCH  52  76
BRANCH  64  87
ATOM     87  C   UNL     1       9.751   8.945  -4.779  1.00  0.00     0.023 A 
ATOM     88  C   UNL     1      11.106   8.611  -4.798  1.00  0.00     0.031 A 
ATOM     89  C   UNL     1       8.857   7.934  -4.345  1.00  0.00     0.131 A 
ATOM     90  C   UNL     1      11.523   7.309  -4.479  1.00  0.00     0.055 A 
ATOM     91  C   UNL     1       9.278   6.648  -3.999  1.00  0.00     0.041 A 
ATOM     92  F   UNL     1       7.535   8.143  -4.247  1.00  0.00    -0.206 F 
ATOM     93  C   UNL     1      10.620   6.324  -4.077  1.00  0.00     0.022 A 
BRANCH  90  94
ATOM     94  S   UNL     1      13.284   6.922  -4.585  1.00  0.00     0.124 S 
ATOM     95  O   UNL     1      13.473   6.810  -6.029  1.00  0.00    -0.237 OA
ATOM     96  O   UNL     1      13.902   8.080  -3.948  1.00  0.00    -0.237 OA
ATOM     97  O   UNL     1      13.399   5.670  -3.841  1.00  0.00    -0.744 OA
ENDBRANCH  90  94
ENDBRANCH  64  87
ENDBRANCH  38  39
ENDBRANCH  31  33
ENDBRANCH  30  31
ENDBRANCH  29  30
ENDBRANCH   1  29
TORSDOF 17
