REMARK SMILES Cc1ccccc1[C@@H]1[NH2+][C@H](C(=O)OCCOC(=O)c2ccc(-c3c4nc(c(-c5cc(S(=O)(=O)[O-])ccc5F)c5ccc([nH]5)c(-c5cc(S(=O)(=O)[O-])ccc5F)c5nc(c(-c6cc(S(=O)(=O)[O-])ccc6F)c6ccc3[nH]6)C=C5)C=C4)cc2)CC2=c3ccccc3=N[C@@H]21
REMARK SMILES IDX 15 1 14 2 13 3 11 4 12 5 10 6 8 7 9 8 91 9 83 12 90 13 82 14
REMARK SMILES IDX 84 15 89 16 85 17 88 18 86 19 87 20 7 21 1 22 2 23 3 24 4 25
REMARK SMILES IDX 6 26 5 27 16 28 17 29 18 30 19 31 20 32 81 33 21 34 80 35
REMARK SMILES IDX 22 36 23 37 24 38 74 39 25 40 79 41 73 42 75 43 26 44 78 45
REMARK SMILES IDX 72 46 71 47 27 49 59 50 39 51 58 52 40 53 43 54 57 55 76 56
REMARK SMILES IDX 41 57 42 58 56 60 77 61 44 62 28 63 29 64 37 65 30 66 36 67
REMARK SMILES IDX 38 68 35 69 31 70 32 71 33 72 34 73 60 74 61 75 69 76 62 77
REMARK SMILES IDX 68 78 70 79 67 80 63 81 64 82 65 83 66 84 45 85 46 86 54 87
REMARK SMILES IDX 47 88 53 89 55 90 52 91 48 92 49 93 50 94 51 95
REMARK H PARENT 9 10 9 11 75 48 43 59
REMARK Flexibility Score: inf
ROOT
ATOM      1  C   UNL     1      -0.777   3.882  -1.419  1.00  0.00     0.275 C 
ENDROOT
BRANCH   1   2
ATOM      2  C   UNL     1       0.628   4.486  -1.644  1.00  0.00     0.274 C 
BRANCH   2   3
ATOM      3  O   UNL     1       1.247   5.327  -0.629  1.00  0.00    -0.458 OA
BRANCH   3   4
ATOM      4  C   UNL     1       1.742   5.067   0.612  1.00  0.00     0.365 C 
ATOM      5  O   UNL     1       2.400   5.924   1.201  1.00  0.00    -0.245 OA
BRANCH   4   6
ATOM      6  C   UNL     1       1.422   3.708   1.237  1.00  0.00     0.298 C 
ATOM      7  C   UNL     1       1.728   1.369   0.483  1.00  0.00     0.243 C 
ATOM      8  N   UNL     1       1.504   2.759   0.140  1.00  0.00    -0.326 N 
ATOM      9  C   UNL     1       3.216   1.321   1.031  1.00  0.00     0.196 C 
ATOM     10  H   UNL     1       0.626   2.810  -0.377  1.00  0.00     0.347 HD
ATOM     11  H   UNL     1       2.332   3.037  -0.387  1.00  0.00     0.347 HD
ATOM     12  C   UNL     1       3.478   2.565   1.898  1.00  0.00    -0.024 C 
ATOM     13  N   UNL     1       4.281   1.437  -0.014  1.00  0.00    -0.270 NA
ATOM     14  C   UNL     1       2.303   3.321   2.444  1.00  0.00     0.111 C 
ATOM     15  C   UNL     1       4.617   3.178   1.582  1.00  0.00     0.002 A 
ATOM     16  C   UNL     1       5.000   2.457   0.358  1.00  0.00     0.066 A 
ATOM     17  C   UNL     1       5.151   4.468   1.901  1.00  0.00     0.010 A 
ATOM     18  C   UNL     1       6.117   3.056  -0.410  1.00  0.00     0.028 A 
ATOM     19  C   UNL     1       6.110   4.982   1.118  1.00  0.00     0.001 A 
ATOM     20  C   UNL     1       6.612   4.248  -0.030  1.00  0.00     0.002 A 
BRANCH   7  21
ATOM     21  C   UNL     1       1.160   0.679  -0.773  1.00  0.00     0.015 A 
ATOM     22  C   UNL     1      -1.232   0.447   0.253  1.00  0.00     0.045 C 
ATOM     23  C   UNL     1      -0.241   0.416  -0.889  1.00  0.00    -0.042 A 
ATOM     24  C   UNL     1      -0.824   0.256  -2.168  1.00  0.00     0.004 A 
ATOM     25  C   UNL     1      -0.071   0.400  -3.328  1.00  0.00     0.000 A 
ATOM     26  C   UNL     1       1.905   0.736  -1.974  1.00  0.00     0.010 A 
ATOM     27  C   UNL     1       1.294   0.628  -3.229  1.00  0.00     0.001 A 
ENDBRANCH   7  21
ENDBRANCH   4   6
ENDBRANCH   3   4
ENDBRANCH   2   3
ENDBRANCH   1   2
BRANCH   1  28
ATOM     28  O   UNL     1      -1.278   3.627  -0.066  1.00  0.00    -0.458 OA
BRANCH  28  29
ATOM     29  C   UNL     1      -1.776   4.481   0.886  1.00  0.00     0.338 C 
ATOM     30  O   UNL     1      -2.060   4.095   2.016  1.00  0.00    -0.246 OA
BRANCH  29  31
ATOM     31  C   UNL     1      -1.708   5.908   0.550  1.00  0.00     0.060 A 
ATOM     32  C   UNL     1      -0.772   6.749   1.177  1.00  0.00     0.016 A 
ATOM     33  C   UNL     1      -2.198   6.194  -0.692  1.00  0.00     0.016 A 
ATOM     34  C   UNL     1      -0.106   7.723   0.411  1.00  0.00     0.010 A 
ATOM     35  C   UNL     1      -1.356   6.927  -1.477  1.00  0.00     0.010 A 
ATOM     36  C   UNL     1      -0.315   7.730  -0.969  1.00  0.00    -0.014 A 
BRANCH  36  37
ATOM     37  C   UNL     1       0.429   8.502  -1.988  1.00  0.00     0.031 A 
ATOM     38  C   UNL     1       1.897   8.746  -1.996  1.00  0.00     0.074 A 
ATOM     39  C   UNL     1      -0.361   9.072  -2.933  1.00  0.00     0.049 A 
ATOM     40  N   UNL     1       2.428   9.916  -2.157  1.00  0.00    -0.248 NA
ATOM     41  C   UNL     1       2.914   7.695  -1.902  1.00  0.00     0.031 C 
ATOM     42  C   UNL     1      -0.054   9.941  -4.050  1.00  0.00     0.029 A 
ATOM     43  N   UNL     1      -1.758   9.127  -2.869  1.00  0.00    -0.354 N 
ATOM     44  C   UNL     1       3.759   9.729  -2.492  1.00  0.00     0.074 A 
ATOM     45  C   UNL     1       4.050   8.357  -2.170  1.00  0.00     0.031 C 
ATOM     46  C   UNL     1      -1.153  10.692  -4.299  1.00  0.00     0.029 A 
ATOM     47  C   UNL     1      -2.154  10.376  -3.279  1.00  0.00     0.049 A 
ATOM     48  H   UNL     1      -2.353   8.397  -2.580  1.00  0.00     0.167 HD
ATOM     49  C   UNL     1       4.426  10.657  -3.240  1.00  0.00     0.034 A 
ATOM     50  C   UNL     1      -2.726  11.184  -2.341  1.00  0.00     0.034 A 
ATOM     51  C   UNL     1       3.497  11.670  -3.716  1.00  0.00     0.049 A 
ATOM     52  C   UNL     1      -1.918  12.435  -2.224  1.00  0.00     0.074 A 
ATOM     53  C   UNL     1       2.864  11.812  -4.940  1.00  0.00     0.029 A 
ATOM     54  N   UNL     1       2.857  12.516  -2.827  1.00  0.00    -0.354 N 
ATOM     55  N   UNL     1      -0.625  12.482  -2.376  1.00  0.00    -0.248 NA
ATOM     56  C   UNL     1      -2.532  13.738  -2.037  1.00  0.00     0.031 C 
ATOM     57  C   UNL     1       1.805  12.731  -4.773  1.00  0.00     0.029 A 
ATOM     58  C   UNL     1       1.812  13.156  -3.456  1.00  0.00     0.049 A 
ATOM     59  H   UNL     1       3.111  12.642  -1.884  1.00  0.00     0.167 HD
ATOM     60  C   UNL     1      -0.242  13.794  -2.442  1.00  0.00     0.074 A 
ATOM     61  C   UNL     1      -1.466  14.540  -2.191  1.00  0.00     0.031 C 
ATOM     62  C   UNL     1       1.034  14.162  -2.763  1.00  0.00     0.034 A 
BRANCH  49  63
ATOM     63  C   UNL     1       5.800  10.497  -3.865  1.00  0.00     0.023 A 
ATOM     64  C   UNL     1       6.079  11.145  -5.092  1.00  0.00     0.031 A 
ATOM     65  C   UNL     1       6.871   9.772  -3.314  1.00  0.00     0.131 A 
ATOM     66  C   UNL     1       7.305  10.994  -5.761  1.00  0.00     0.055 A 
ATOM     67  C   UNL     1       8.100   9.612  -3.984  1.00  0.00     0.041 A 
ATOM     68  F   UNL     1       6.783   9.217  -2.095  1.00  0.00    -0.206 F 
ATOM     69  C   UNL     1       8.317  10.211  -5.221  1.00  0.00     0.022 A 
BRANCH  66  70
ATOM     70  S   UNL     1       7.537  11.832  -7.357  1.00  0.00     0.124 S 
ATOM     71  O   UNL     1       6.489  11.229  -8.175  1.00  0.00    -0.237 OA
ATOM     72  O   UNL     1       7.353  13.235  -7.005  1.00  0.00    -0.237 OA
ATOM     73  O   UNL     1       8.901  11.466  -7.737  1.00  0.00    -0.744 OA
ENDBRANCH  66  70
ENDBRANCH  49  63
BRANCH  50  74
ATOM     74  C   UNL     1      -3.412  10.473  -1.196  1.00  0.00     0.023 A 
ATOM     75  C   UNL     1      -4.383   9.481  -1.484  1.00  0.00     0.031 A 
ATOM     76  C   UNL     1      -2.937  10.523   0.125  1.00  0.00     0.131 A 
ATOM     77  C   UNL     1      -4.763   8.527  -0.519  1.00  0.00     0.055 A 
ATOM     78  C   UNL     1      -3.353   9.599   1.100  1.00  0.00     0.041 A 
ATOM     79  F   UNL     1      -2.003  11.416   0.483  1.00  0.00    -0.206 F 
ATOM     80  C   UNL     1      -4.250   8.581   0.776  1.00  0.00     0.022 A 
BRANCH  77  81
ATOM     81  S   UNL     1      -5.707   7.059  -1.052  1.00  0.00     0.124 S 
ATOM     82  O   UNL     1      -7.084   7.535  -0.991  1.00  0.00    -0.237 OA
ATOM     83  O   UNL     1      -5.176   6.806  -2.391  1.00  0.00    -0.237 OA
ATOM     84  O   UNL     1      -5.351   6.040  -0.067  1.00  0.00    -0.744 OA
ENDBRANCH  77  81
ENDBRANCH  50  74
BRANCH  62  85
ATOM     85  C   UNL     1       1.632  15.536  -2.610  1.00  0.00     0.023 A 
ATOM     86  C   UNL     1       0.978  16.568  -1.938  1.00  0.00     0.031 A 
ATOM     87  C   UNL     1       2.938  15.836  -3.074  1.00  0.00     0.131 A 
ATOM     88  C   UNL     1       1.542  17.846  -1.844  1.00  0.00     0.055 A 
ATOM     89  C   UNL     1       3.539  17.083  -2.898  1.00  0.00     0.041 A 
ATOM     90  F   UNL     1       3.703  14.929  -3.699  1.00  0.00    -0.206 F 
ATOM     91  C   UNL     1       2.830  18.109  -2.297  1.00  0.00     0.022 A 
BRANCH  88  92
ATOM     92  S   UNL     1       0.500  19.162  -1.178  1.00  0.00     0.124 S 
ATOM     93  O   UNL     1      -0.587  19.204  -2.153  1.00  0.00    -0.237 OA
ATOM     94  O   UNL     1       0.144  18.644   0.140  1.00  0.00    -0.237 OA
ATOM     95  O   UNL     1       1.379  20.328  -1.173  1.00  0.00    -0.744 OA
ENDBRANCH  88  92
ENDBRANCH  62  85
ENDBRANCH  36  37
ENDBRANCH  29  31
ENDBRANCH  28  29
ENDBRANCH   1  28
TORSDOF 15
