REMARK SMILES O=C(OCCOC(=O)[C@@H](Cc1c[nH]c2ccccc12)Nc1ncnc2ccccc12)c1ccc(-c2c3nc(c(-c4cc(S(=O)(=O)[O-])ccc4F)c4ccc([nH]4)c(-c4cc(S(=O)(=O)[O-])ccc4F)c4nc(c(-c5cc(S(=O)(=O)[O-])ccc5F)c5ccc2[nH]5)C=C4)C=C3)cc1
REMARK SMILES IDX 4 1 3 2 2 3 1 4 31 5 32 6 93 7 33 8 92 9 34 10 35 11 36 12
REMARK SMILES IDX 86 13 37 14 91 15 85 16 87 17 38 18 90 19 84 20 83 21 39 23
REMARK SMILES IDX 71 24 51 25 70 26 52 27 55 28 69 29 88 30 53 31 54 32 68 34
REMARK SMILES IDX 89 35 56 36 40 37 41 38 49 39 42 40 48 41 50 42 47 43 43 44
REMARK SMILES IDX 44 45 45 46 46 47 72 48 73 49 81 50 74 51 80 52 82 53 79 54
REMARK SMILES IDX 75 55 76 56 77 57 78 58 57 59 58 60 66 61 59 62 65 63 67 64
REMARK SMILES IDX 64 65 60 66 61 67 62 68 63 69 5 70 6 71 7 72 8 73 9 74 10 75
REMARK SMILES IDX 11 76 12 77 19 78 13 79 14 80 18 81 15 83 17 84 16 85 20 86
REMARK SMILES IDX 21 88 22 89 30 90 23 91 25 92 29 93 24 94 26 95 28 96 27 97
REMARK H PARENT 87 22 55 33 13 82 20 87
REMARK Flexibility Score: inf
ROOT
ATOM      1  C   UNL     1       4.245  -1.729   1.038  1.00  0.00     0.275 C 
ENDROOT
BRANCH   1   2
ATOM      2  O   UNL     1       3.426  -0.777   1.718  1.00  0.00    -0.458 OA
BRANCH   2   3
ATOM      3  C   UNL     1       2.854   0.194   0.982  1.00  0.00     0.338 C 
ATOM      4  O   UNL     1       1.717   0.593   1.224  1.00  0.00    -0.246 OA
BRANCH   3   5
ATOM      5  C   UNL     1       3.595   0.871  -0.120  1.00  0.00     0.060 A 
ATOM      6  C   UNL     1       4.119   0.209  -1.766  1.00  0.00     0.016 A 
ATOM      7  C   UNL     1       3.267   2.616   0.045  1.00  0.00     0.016 A 
ATOM      8  C   UNL     1       4.344   1.389  -3.198  1.00  0.00     0.010 A 
ATOM      9  C   UNL     1       3.430   3.696  -1.356  1.00  0.00     0.010 A 
ATOM     10  C   UNL     1       4.095   3.172  -2.925  1.00  0.00    -0.014 A 
BRANCH  10  11
ATOM     11  C   UNL     1       4.622   4.249  -3.837  1.00  0.00     0.031 A 
ATOM     12  C   UNL     1       5.314   5.519  -3.302  1.00  0.00     0.074 A 
ATOM     13  C   UNL     1       4.561   4.041  -5.165  1.00  0.00     0.049 A 
ATOM     14  N   UNL     1       5.990   6.447  -3.952  1.00  0.00    -0.248 NA
ATOM     15  C   UNL     1       5.259   5.815  -1.866  1.00  0.00     0.031 C 
ATOM     16  C   UNL     1       3.909   2.901  -5.801  1.00  0.00     0.029 A 
ATOM     17  N   UNL     1       5.065   4.755  -6.221  1.00  0.00    -0.354 N 
ATOM     18  C   UNL     1       6.441   7.363  -2.990  1.00  0.00     0.074 A 
ATOM     19  C   UNL     1       5.950   6.924  -1.725  1.00  0.00     0.031 C 
ATOM     20  C   UNL     1       4.160   2.915  -7.114  1.00  0.00     0.029 A 
ATOM     21  C   UNL     1       4.836   4.161  -7.441  1.00  0.00     0.049 A 
ATOM     22  H   UNL     1       5.544   5.609  -6.116  1.00  0.00     0.167 HD
ATOM     23  C   UNL     1       7.150   8.512  -3.115  1.00  0.00     0.034 A 
ATOM     24  C   UNL     1       5.070   4.599  -8.693  1.00  0.00     0.034 A 
ATOM     25  C   UNL     1       7.436   9.078  -4.398  1.00  0.00     0.049 A 
ATOM     26  C   UNL     1       5.706   5.951  -8.840  1.00  0.00     0.074 A 
ATOM     27  C   UNL     1       7.986  10.306  -4.704  1.00  0.00     0.029 A 
ATOM     28  N   UNL     1       7.096   8.467  -5.598  1.00  0.00    -0.354 N 
ATOM     29  N   UNL     1       6.122   6.771  -7.899  1.00  0.00    -0.248 NA
ATOM     30  C   UNL     1       5.883   6.455 -10.204  1.00  0.00     0.031 C 
ATOM     31  C   UNL     1       7.858  10.490  -6.084  1.00  0.00     0.029 A 
ATOM     32  C   UNL     1       7.360   9.322  -6.647  1.00  0.00     0.049 A 
ATOM     33  H   UNL     1       6.723   7.561  -5.687  1.00  0.00     0.167 HD
ATOM     34  C   UNL     1       6.623   7.885  -8.558  1.00  0.00     0.074 A 
ATOM     35  C   UNL     1       6.461   7.627  -9.977  1.00  0.00     0.031 C 
ATOM     36  C   UNL     1       7.171   9.015  -8.044  1.00  0.00     0.034 A 
BRANCH  23  37
ATOM     37  C   UNL     1       7.451   9.280  -1.835  1.00  0.00     0.023 A 
ATOM     38  C   UNL     1       8.231   8.722  -0.799  1.00  0.00     0.031 A 
ATOM     39  C   UNL     1       6.803  10.501  -1.572  1.00  0.00     0.131 A 
ATOM     40  C   UNL     1       8.248   9.325   0.473  1.00  0.00     0.055 A 
ATOM     41  C   UNL     1       6.902  11.143  -0.334  1.00  0.00     0.041 A 
ATOM     42  F   UNL     1       6.004  11.063  -2.492  1.00  0.00    -0.206 F 
ATOM     43  C   UNL     1       7.608  10.544   0.705  1.00  0.00     0.022 A 
BRANCH  40  44
ATOM     44  S   UNL     1       8.918   8.381   1.876  1.00  0.00     0.124 S 
ATOM     45  O   UNL     1       8.085   7.180   1.848  1.00  0.00    -0.237 OA
ATOM     46  O   UNL     1      10.313   8.195   1.495  1.00  0.00    -0.237 OA
ATOM     47  O   UNL     1       8.694   9.260   3.022  1.00  0.00    -0.744 OA
ENDBRANCH  40  44
ENDBRANCH  23  37
BRANCH  24  48
ATOM     48  C   UNL     1       4.592   3.790  -9.855  1.00  0.00     0.023 A 
ATOM     49  C   UNL     1       5.472   3.242 -10.800  1.00  0.00     0.031 A 
ATOM     50  C   UNL     1       3.218   3.494  -9.992  1.00  0.00     0.131 A 
ATOM     51  C   UNL     1       4.971   2.418 -11.825  1.00  0.00     0.055 A 
ATOM     52  C   UNL     1       2.736   2.623 -10.968  1.00  0.00     0.041 A 
ATOM     53  F   UNL     1       2.325   4.004  -9.127  1.00  0.00    -0.206 F 
ATOM     54  C   UNL     1       3.616   2.083 -11.896  1.00  0.00     0.022 A 
BRANCH  51  55
ATOM     55  S   UNL     1       6.105   1.826 -13.112  1.00  0.00     0.124 S 
ATOM     56  O   UNL     1       6.649   3.076 -13.630  1.00  0.00    -0.237 OA
ATOM     57  O   UNL     1       7.027   0.992 -12.348  1.00  0.00    -0.237 OA
ATOM     58  O   UNL     1       5.230   1.101 -14.031  1.00  0.00    -0.744 OA
ENDBRANCH  51  55
ENDBRANCH  24  48
BRANCH  36  59
ATOM     59  C   UNL     1       7.694  10.027  -9.020  1.00  0.00     0.023 A 
ATOM     60  C   UNL     1       6.837  10.790  -9.825  1.00  0.00     0.031 A 
ATOM     61  C   UNL     1       9.077  10.271  -9.081  1.00  0.00     0.131 A 
ATOM     62  C   UNL     1       7.381  11.743 -10.693  1.00  0.00     0.055 A 
ATOM     63  C   UNL     1       9.605  11.267  -9.895  1.00  0.00     0.041 A 
ATOM     64  F   UNL     1       9.930   9.563  -8.322  1.00  0.00    -0.206 F 
ATOM     65  C   UNL     1       8.755  12.004 -10.715  1.00  0.00     0.022 A 
BRANCH  62  66
ATOM     66  S   UNL     1       6.275  12.586 -11.852  1.00  0.00     0.124 S 
ATOM     67  O   UNL     1       5.734  11.467 -12.618  1.00  0.00    -0.237 OA
ATOM     68  O   UNL     1       5.338  13.259 -10.959  1.00  0.00    -0.237 OA
ATOM     69  O   UNL     1       7.170  13.471 -12.595  1.00  0.00    -0.744 OA
ENDBRANCH  62  66
ENDBRANCH  36  59
ENDBRANCH  10  11
ENDBRANCH   3   5
ENDBRANCH   2   3
ENDBRANCH   1   2
BRANCH   1  70
ATOM     70  C   UNL     1       3.401  -2.517   0.006  1.00  0.00     0.274 C 
BRANCH  70  71
ATOM     71  O   UNL     1       2.818  -1.516  -0.871  1.00  0.00    -0.461 OA
BRANCH  71  72
ATOM     72  C   UNL     1       1.707  -1.232  -1.560  1.00  0.00     0.329 C 
ATOM     73  O   UNL     1       0.779  -2.021  -1.674  1.00  0.00    -0.250 OA
BRANCH  72  74
ATOM     74  C   UNL     1       1.855   0.208  -2.379  1.00  0.00     0.195 C 
BRANCH  74  75
ATOM     75  C   UNL     1       2.836   1.711  -1.865  1.00  0.00     0.074 C 
BRANCH  75  76
ATOM     76  C   UNL     1       4.923   2.001  -1.324  1.00  0.00    -0.020 A 
ATOM     77  C   UNL     1       5.705   2.919  -0.522  1.00  0.00     0.087 A 
ATOM     78  C   UNL     1       6.349   1.077  -1.778  1.00  0.00     0.003 A 
ATOM     79  N   UNL     1       7.076   2.845  -0.702  1.00  0.00    -0.361 N 
ATOM     80  C   UNL     1       7.488   1.680  -1.273  1.00  0.00     0.046 A 
ATOM     81  C   UNL     1       6.636  -0.130  -2.557  1.00  0.00     0.010 A 
ATOM     82  H   UNL     1       7.694   3.566  -0.443  1.00  0.00     0.166 HD
ATOM     83  C   UNL     1       8.788   1.149  -1.431  1.00  0.00     0.026 A 
ATOM     84  C   UNL     1       7.894  -0.722  -2.647  1.00  0.00     0.001 A 
ATOM     85  C   UNL     1       8.967  -0.081  -2.077  1.00  0.00     0.002 A 
ENDBRANCH  75  76
ENDBRANCH  74  75
BRANCH  74  86
ATOM     86  N   UNL     1       2.114  -0.107  -3.804  1.00  0.00    -0.356 N 
ATOM     87  H   UNL     1       3.020  -0.450  -3.980  1.00  0.00     0.163 HD
BRANCH  86  88
ATOM     88  C   UNL     1       1.329  -0.011  -4.916  1.00  0.00     0.137 A 
ATOM     89  N   UNL     1       1.641  -0.995  -5.781  1.00  0.00    -0.219 NA
ATOM     90  C   UNL     1       0.367   0.968  -5.227  1.00  0.00     0.043 A 
ATOM     91  C   UNL     1       0.949  -1.050  -6.921  1.00  0.00     0.224 A 
ATOM     92  C   UNL     1      -0.317   0.764  -6.440  1.00  0.00     0.076 A 
ATOM     93  C   UNL     1       0.066   2.144  -4.489  1.00  0.00     0.014 A 
ATOM     94  N   UNL     1      -0.051  -0.243  -7.273  1.00  0.00    -0.236 NA
ATOM     95  C   UNL     1      -1.308   1.659  -6.826  1.00  0.00     0.029 A 
ATOM     96  C   UNL     1      -0.902   3.053  -4.917  1.00  0.00     0.001 A 
ATOM     97  C   UNL     1      -1.609   2.797  -6.079  1.00  0.00     0.002 A 
ENDBRANCH  86  88
ENDBRANCH  74  86
ENDBRANCH  72  74
ENDBRANCH  71  72
ENDBRANCH  70  71
ENDBRANCH   1  70
TORSDOF 18
