REMARK SMILES CCC[NH2+][C@]1(C(=O)OCCOC(=O)c2ccc(-c3c4nc(c(-c5cc(S(=O)(=O)[O-])ccc5F)c5ccc([nH]5)c(-c5cc(S(=O)(=O)[O-])ccc5F)c5nc(c(-c6cc(S(=O)(=O)[O-])ccc6F)c6ccc3[nH]6)C=C5)C=C4)cc2)CCC[C@@H]([N@@H+](C)[C@@H](C)C2CC2)C1
REMARK SMILES IDX 9 1 8 2 6 3 7 4 5 5 77 6 88 7 78 8 80 9 79 10 4 11 3 14 2 15
REMARK SMILES IDX 1 16 81 17 82 18 83 20 84 21 85 22 86 23 87 24 10 25 11 26
REMARK SMILES IDX 12 27 13 28 14 29 15 30 76 31 16 32 75 33 17 34 18 35 19 36
REMARK SMILES IDX 69 37 20 38 74 39 68 40 70 41 21 42 73 43 67 44 66 45 22 47
REMARK SMILES IDX 54 48 34 49 53 50 35 51 38 52 52 53 71 54 36 55 37 56 51 58
REMARK SMILES IDX 72 59 39 60 23 61 24 62 32 63 25 64 31 65 33 66 30 67 26 68
REMARK SMILES IDX 27 69 28 70 29 71 55 72 56 73 64 74 57 75 63 76 65 77 62 78
REMARK SMILES IDX 58 79 59 80 60 81 61 82 40 83 41 84 49 85 42 86 48 87 50 88
REMARK SMILES IDX 47 89 43 90 44 91 45 92 46 93
REMARK H PARENT 4 12 4 13 81 19 70 46 38 57
REMARK Flexibility Score: inf
ROOT
ATOM      1  C   UNL     1       0.831   0.617   0.669  1.00  0.00     0.274 C 
ENDROOT
BRANCH   1   2
ATOM      2  O   UNL     1       1.093   1.930   1.199  1.00  0.00    -0.457 OA
BRANCH   2   3
ATOM      3  C   UNL     1       1.103   2.947   0.284  1.00  0.00     0.368 C 
ATOM      4  O   UNL     1       0.854   2.801  -0.909  1.00  0.00    -0.245 OA
BRANCH   3   5
ATOM      5  C   UNL     1       1.619   4.290   0.907  1.00  0.00     0.200 C 
ATOM      6  C   UNL     1       1.239   5.422  -0.088  1.00  0.00     0.081 C 
ATOM      7  C   UNL     1       0.886   4.536   2.262  1.00  0.00     0.146 C 
ATOM      8  C   UNL     1       1.419   6.831   0.457  1.00  0.00     0.013 C 
ATOM      9  C   UNL     1       0.985   5.979   2.813  1.00  0.00     0.190 C 
ATOM     10  C   UNL     1       0.625   7.025   1.745  1.00  0.00     0.065 C 
BRANCH   5  11
ATOM     11  N   UNL     1       3.095   4.112   0.909  1.00  0.00    -0.332 N 
ATOM     12  H   UNL     1       3.269   3.115   1.035  1.00  0.00     0.347 HD
ATOM     13  H   UNL     1       3.378   4.537   0.026  1.00  0.00     0.347 HD
BRANCH  11  14
ATOM     14  C   UNL     1       3.915   4.801   1.880  1.00  0.00     0.261 C 
BRANCH  14  15
ATOM     15  C   UNL     1       5.405   4.601   1.577  1.00  0.00     0.058 C 
ATOM     16  C   UNL     1       5.853   5.317   0.306  1.00  0.00     0.010 C 
ENDBRANCH  14  15
ENDBRANCH  11  14
ENDBRANCH   5  11
BRANCH   9  17
ATOM     17  N   UNL     1       0.393   6.165   4.158  1.00  0.00    -0.332 N 
ATOM     18  C   UNL     1       0.976   7.329   4.841  1.00  0.00     0.333 C 
ATOM     19  H   UNL     1       0.663   5.269   4.562  1.00  0.00     0.348 HD
BRANCH  17  20
ATOM     20  C   UNL     1      -1.065   6.117   4.391  1.00  0.00     0.184 C 
ATOM     21  C   UNL     1      -1.957   7.047   3.561  1.00  0.00     0.075 C 
BRANCH  20  22
ATOM     22  C   UNL     1      -1.609   4.704   4.380  1.00  0.00     0.047 C 
ATOM     23  C   UNL     1      -0.879   3.522   4.978  1.00  0.00     0.010 C 
ATOM     24  C   UNL     1      -2.063   4.094   5.692  1.00  0.00     0.010 C 
ENDBRANCH  20  22
ENDBRANCH  17  20
ENDBRANCH   9  17
ENDBRANCH   3   5
ENDBRANCH   2   3
ENDBRANCH   1   2
BRANCH   1  25
ATOM     25  C   UNL     1      -0.613   0.202   0.930  1.00  0.00     0.275 C 
BRANCH  25  26
ATOM     26  O   UNL     1      -1.499   1.145   0.308  1.00  0.00    -0.458 OA
BRANCH  26  27
ATOM     27  C   UNL     1      -2.404   1.725   1.125  1.00  0.00     0.338 C 
ATOM     28  O   UNL     1      -2.618   1.462   2.302  1.00  0.00    -0.246 OA
BRANCH  27  29
ATOM     29  C   UNL     1      -3.151   2.748   0.381  1.00  0.00     0.060 A 
ATOM     30  C   UNL     1      -2.476   3.819  -0.207  1.00  0.00     0.016 A 
ATOM     31  C   UNL     1      -4.542   2.693   0.354  1.00  0.00     0.016 A 
ATOM     32  C   UNL     1      -3.192   4.873  -0.771  1.00  0.00     0.010 A 
ATOM     33  C   UNL     1      -5.257   3.714  -0.274  1.00  0.00     0.010 A 
ATOM     34  C   UNL     1      -4.591   4.830  -0.815  1.00  0.00    -0.014 A 
BRANCH  34  35
ATOM     35  C   UNL     1      -5.378   5.965  -1.367  1.00  0.00     0.031 A 
ATOM     36  C   UNL     1      -6.325   6.714  -0.469  1.00  0.00     0.074 A 
ATOM     37  C   UNL     1      -5.269   6.310  -2.664  1.00  0.00     0.049 A 
ATOM     38  N   UNL     1      -7.271   7.562  -0.779  1.00  0.00    -0.248 NA
ATOM     39  C   UNL     1      -6.199   6.452   0.973  1.00  0.00     0.031 C 
ATOM     40  C   UNL     1      -4.349   5.704  -3.628  1.00  0.00     0.029 A 
ATOM     41  N   UNL     1      -5.948   7.250  -3.398  1.00  0.00    -0.354 N 
ATOM     42  C   UNL     1      -7.890   7.896   0.422  1.00  0.00     0.074 A 
ATOM     43  C   UNL     1      -7.213   7.148   1.462  1.00  0.00     0.031 C 
ATOM     44  C   UNL     1      -4.516   6.292  -4.823  1.00  0.00     0.029 A 
ATOM     45  C   UNL     1      -5.608   7.255  -4.731  1.00  0.00     0.049 A 
ATOM     46  H   UNL     1      -6.614   7.862  -3.009  1.00  0.00     0.167 HD
ATOM     47  C   UNL     1      -8.930   8.742   0.631  1.00  0.00     0.034 A 
ATOM     48  C   UNL     1      -6.150   7.916  -5.773  1.00  0.00     0.034 A 
ATOM     49  C   UNL     1      -9.570   9.499  -0.419  1.00  0.00     0.049 A 
ATOM     50  C   UNL     1      -7.330   8.817  -5.529  1.00  0.00     0.074 A 
ATOM     51  C   UNL     1     -10.627  10.388  -0.325  1.00  0.00     0.029 A 
ATOM     52  N   UNL     1      -9.207   9.460  -1.760  1.00  0.00    -0.354 N 
ATOM     53  N   UNL     1      -7.958   9.069  -4.404  1.00  0.00    -0.248 NA
ATOM     54  C   UNL     1      -7.882   9.513  -6.698  1.00  0.00     0.031 C 
ATOM     55  C   UNL     1     -10.935  10.846  -1.612  1.00  0.00     0.029 A 
ATOM     56  C   UNL     1     -10.029  10.293  -2.504  1.00  0.00     0.049 A 
ATOM     57  H   UNL     1      -8.472   8.918  -2.129  1.00  0.00     0.167 HD
ATOM     58  C   UNL     1      -8.976   9.959  -4.729  1.00  0.00     0.074 A 
ATOM     59  C   UNL     1      -8.865  10.214  -6.152  1.00  0.00     0.031 C 
ATOM     60  C   UNL     1      -9.917  10.517  -3.926  1.00  0.00     0.034 A 
BRANCH  47  61
ATOM     61  C   UNL     1      -9.476   8.831   2.036  1.00  0.00     0.023 A 
ATOM     62  C   UNL     1      -8.714   9.341   3.103  1.00  0.00     0.031 A 
ATOM     63  C   UNL     1     -10.766   8.350   2.322  1.00  0.00     0.131 A 
ATOM     64  C   UNL     1      -9.218   9.286   4.412  1.00  0.00     0.055 A 
ATOM     65  C   UNL     1     -11.293   8.370   3.615  1.00  0.00     0.041 A 
ATOM     66  F   UNL     1     -11.533   7.831   1.349  1.00  0.00    -0.206 F 
ATOM     67  C   UNL     1     -10.511   8.825   4.672  1.00  0.00     0.022 A 
BRANCH  64  68
ATOM     68  S   UNL     1      -8.104   9.684   5.788  1.00  0.00     0.124 S 
ATOM     69  O   UNL     1      -7.011   8.740   5.567  1.00  0.00    -0.237 OA
ATOM     70  O   UNL     1      -7.794  11.088   5.545  1.00  0.00    -0.237 OA
ATOM     71  O   UNL     1      -8.916   9.419   6.974  1.00  0.00    -0.744 OA
ENDBRANCH  64  68
ENDBRANCH  47  61
BRANCH  48  72
ATOM     72  C   UNL     1      -5.630   7.689  -7.150  1.00  0.00     0.023 A 
ATOM     73  C   UNL     1      -4.970   8.707  -7.854  1.00  0.00     0.031 A 
ATOM     74  C   UNL     1      -5.794   6.443  -7.782  1.00  0.00     0.131 A 
ATOM     75  C   UNL     1      -4.515   8.467  -9.160  1.00  0.00     0.055 A 
ATOM     76  C   UNL     1      -5.301   6.196  -9.064  1.00  0.00     0.041 A 
ATOM     77  F   UNL     1      -6.417   5.437  -7.149  1.00  0.00    -0.206 F 
ATOM     78  C   UNL     1      -4.662   7.215  -9.763  1.00  0.00     0.022 A 
BRANCH  75  79
ATOM     79  S   UNL     1      -3.762   9.835 -10.084  1.00  0.00     0.124 S 
ATOM     80  O   UNL     1      -4.855  10.800 -10.130  1.00  0.00    -0.237 OA
ATOM     81  O   UNL     1      -2.630  10.188  -9.234  1.00  0.00    -0.237 OA
ATOM     82  O   UNL     1      -3.410   9.227 -11.365  1.00  0.00    -0.744 OA
ENDBRANCH  75  79
ENDBRANCH  48  72
BRANCH  60  83
ATOM     83  C   UNL     1     -10.872  11.484  -4.576  1.00  0.00     0.023 A 
ATOM     84  C   UNL     1     -11.861  11.051  -5.475  1.00  0.00     0.031 A 
ATOM     85  C   UNL     1     -10.770  12.861  -4.309  1.00  0.00     0.131 A 
ATOM     86  C   UNL     1     -12.679  11.993  -6.118  1.00  0.00     0.055 A 
ATOM     87  C   UNL     1     -11.618  13.789  -4.915  1.00  0.00     0.041 A 
ATOM     88  F   UNL     1      -9.840  13.325  -3.459  1.00  0.00    -0.206 F 
ATOM     89  C   UNL     1     -12.572  13.358  -5.833  1.00  0.00     0.022 A 
BRANCH  86  90
ATOM     90  S   UNL     1     -13.834  11.421  -7.394  1.00  0.00     0.124 S 
ATOM     91  O   UNL     1     -12.935  10.800  -8.361  1.00  0.00    -0.237 OA
ATOM     92  O   UNL     1     -14.696  10.509  -6.649  1.00  0.00    -0.237 OA
ATOM     93  O   UNL     1     -14.480  12.651  -7.848  1.00  0.00    -0.744 OA
ENDBRANCH  86  90
ENDBRANCH  60  83
ENDBRANCH  34  35
ENDBRANCH  27  29
ENDBRANCH  26  27
ENDBRANCH  25  26
ENDBRANCH   1  25
TORSDOF 20
