REMARK SMILES CN(C(=O)N[C@@](C)(C(=O)OCCOC(=O)c1ccc(-c2c3nc(c(-c4cc(S(=O)(=O)[O-])ccc4F)c4ccc([nH]4)c(-c4cc(S(=O)(=O)[O-])ccc4F)c4nc(c(-c5cc(S(=O)(=O)[O-])ccc5F)c5ccc2[nH]5)C=C4)C=C3)cc1)C(F)(F)F)c1ccc(F)cc1
REMARK SMILES IDX 11 1 10 2 8 3 9 4 6 5 7 6 5 7 3 8 4 9 2 11 1 12 83 13 84 14
REMARK SMILES IDX 89 15 85 16 88 17 86 18 87 19 79 20 80 21 81 22 82 23 12 24
REMARK SMILES IDX 13 25 14 26 15 27 16 28 17 29 78 30 18 31 77 32 19 33 20 34
REMARK SMILES IDX 21 35 71 36 22 37 76 38 70 39 72 40 23 41 75 42 69 43 68 44
REMARK SMILES IDX 24 46 56 47 36 48 55 49 37 50 40 51 54 52 73 53 38 54 39 55
REMARK SMILES IDX 53 57 74 58 41 59 25 60 26 61 34 62 27 63 33 64 35 65 32 66
REMARK SMILES IDX 28 67 29 68 30 69 31 70 57 71 58 72 66 73 59 74 65 75 67 76
REMARK SMILES IDX 64 77 60 78 61 79 62 80 63 81 42 82 43 83 51 84 44 85 50 86
REMARK SMILES IDX 52 87 49 88 45 89 46 90 47 91 48 92
REMARK H PARENT 5 10 72 45 40 56
REMARK Flexibility Score: inf
ROOT
ATOM      1  C   UNL     1       0.707  -5.176  -2.114  1.00  0.00     0.274 C 
ENDROOT
BRANCH   1   2
ATOM      2  O   UNL     1       0.104  -3.905  -1.786  1.00  0.00    -0.460 OA
BRANCH   2   3
ATOM      3  C   UNL     1       0.130  -3.566  -0.457  1.00  0.00     0.341 C 
ATOM      4  O   UNL     1       0.698  -4.241   0.392  1.00  0.00    -0.249 OA
BRANCH   3   5
ATOM      5  C   UNL     1      -0.838  -2.413  -0.151  1.00  0.00     0.232 C 
ATOM      6  C   UNL     1      -2.248  -3.063  -0.161  1.00  0.00     0.058 C 
BRANCH   5   7
ATOM      7  N   UNL     1      -0.877  -1.413  -1.288  1.00  0.00    -0.314 N 
ATOM      8  C   UNL     1      -0.414  -0.270  -1.809  1.00  0.00     0.322 C 
ATOM      9  O   UNL     1      -0.691  -0.200  -3.016  1.00  0.00    -0.248 OA
ATOM     10  H   UNL     1      -1.540  -1.756  -1.930  1.00  0.00     0.166 HD
BRANCH   8  11
ATOM     11  N   UNL     1       0.275   0.706  -1.150  1.00  0.00    -0.298 N 
ATOM     12  C   UNL     1       0.477   0.821   0.283  1.00  0.00     0.155 C 
BRANCH  11  13
ATOM     13  C   UNL     1       0.701   1.892  -1.856  1.00  0.00     0.045 A 
ATOM     14  C   UNL     1      -0.189   2.595  -2.682  1.00  0.00     0.029 A 
ATOM     15  C   UNL     1       1.968   2.447  -1.599  1.00  0.00     0.029 A 
ATOM     16  C   UNL     1       0.163   3.846  -3.197  1.00  0.00     0.041 A 
ATOM     17  C   UNL     1       2.326   3.687  -2.135  1.00  0.00     0.041 A 
ATOM     18  C   UNL     1       1.411   4.384  -2.910  1.00  0.00     0.123 A 
ATOM     19  F   UNL     1       1.712   5.608  -3.357  1.00  0.00    -0.207 F 
ENDBRANCH  11  13
ENDBRANCH   8  11
ENDBRANCH   5   7
BRANCH   5  20
ATOM     20  C   UNL     1      -0.577  -2.006   1.302  1.00  0.00     0.422 C 
ATOM     21  F   UNL     1       0.676  -1.560   1.513  1.00  0.00    -0.168 F 
ATOM     22  F   UNL     1      -1.444  -1.042   1.699  1.00  0.00    -0.168 F 
ATOM     23  F   UNL     1      -0.778  -3.035   2.165  1.00  0.00    -0.168 F 
ENDBRANCH   5  20
ENDBRANCH   3   5
ENDBRANCH   2   3
ENDBRANCH   1   2
BRANCH   1  24
ATOM     24  C   UNL     1       2.070  -5.005  -2.772  1.00  0.00     0.275 C 
BRANCH  24  25
ATOM     25  O   UNL     1       2.909  -4.191  -1.940  1.00  0.00    -0.458 OA
BRANCH  25  26
ATOM     26  C   UNL     1       3.303  -3.027  -2.509  1.00  0.00     0.338 C 
ATOM     27  O   UNL     1       3.091  -2.653  -3.647  1.00  0.00    -0.246 OA
BRANCH  26  28
ATOM     28  C   UNL     1       4.060  -2.230  -1.535  1.00  0.00     0.060 A 
ATOM     29  C   UNL     1       3.415  -1.706  -0.416  1.00  0.00     0.016 A 
ATOM     30  C   UNL     1       5.373  -1.866  -1.831  1.00  0.00     0.016 A 
ATOM     31  C   UNL     1       4.052  -0.734   0.355  1.00  0.00     0.010 A 
ATOM     32  C   UNL     1       6.030  -0.939  -1.017  1.00  0.00     0.010 A 
ATOM     33  C   UNL     1       5.353  -0.312   0.044  1.00  0.00    -0.014 A 
BRANCH  33  34
ATOM     34  C   UNL     1       5.945   0.876   0.725  1.00  0.00     0.031 A 
ATOM     35  C   UNL     1       6.302   2.095  -0.095  1.00  0.00     0.074 A 
ATOM     36  C   UNL     1       6.122   0.902   2.061  1.00  0.00     0.049 A 
ATOM     37  N   UNL     1       6.960   3.170   0.257  1.00  0.00    -0.248 NA
ATOM     38  C   UNL     1       5.867   2.098  -1.501  1.00  0.00     0.031 C 
ATOM     39  C   UNL     1       5.758  -0.172   2.986  1.00  0.00     0.029 A 
ATOM     40  N   UNL     1       6.644   1.877   2.876  1.00  0.00    -0.354 N 
ATOM     41  C   UNL     1       7.076   3.943  -0.895  1.00  0.00     0.074 A 
ATOM     42  C   UNL     1       6.414   3.215  -1.956  1.00  0.00     0.031 C 
ATOM     43  C   UNL     1       6.035   0.217   4.242  1.00  0.00     0.029 A 
ATOM     44  C   UNL     1       6.674   1.529   4.207  1.00  0.00     0.049 A 
ATOM     45  H   UNL     1       6.967   2.744   2.539  1.00  0.00     0.167 HD
ATOM     46  C   UNL     1       7.685   5.143  -1.057  1.00  0.00     0.034 A 
ATOM     47  C   UNL     1       7.193   2.172   5.273  1.00  0.00     0.034 A 
ATOM     48  C   UNL     1       8.301   5.886   0.015  1.00  0.00     0.049 A 
ATOM     49  C   UNL     1       7.888   3.494   5.065  1.00  0.00     0.074 A 
ATOM     50  C   UNL     1       8.945   7.110  -0.043  1.00  0.00     0.029 A 
ATOM     51  N   UNL     1       8.337   5.482   1.342  1.00  0.00    -0.354 N 
ATOM     52  N   UNL     1       8.059   4.171   3.953  1.00  0.00    -0.248 NA
ATOM     53  C   UNL     1       8.472   4.129   6.253  1.00  0.00     0.031 C 
ATOM     54  C   UNL     1       9.411   7.423   1.240  1.00  0.00     0.029 A 
ATOM     55  C   UNL     1       9.005   6.423   2.108  1.00  0.00     0.049 A 
ATOM     56  H   UNL     1       7.945   4.647   1.688  1.00  0.00     0.167 HD
ATOM     57  C   UNL     1       8.759   5.319   4.315  1.00  0.00     0.074 A 
ATOM     58  C   UNL     1       8.958   5.252   5.748  1.00  0.00     0.031 C 
ATOM     59  C   UNL     1       9.201   6.337   3.534  1.00  0.00     0.034 A 
BRANCH  46  60
ATOM     60  C   UNL     1       7.782   5.688  -2.460  1.00  0.00     0.023 A 
ATOM     61  C   UNL     1       6.657   6.130  -3.175  1.00  0.00     0.031 A 
ATOM     62  C   UNL     1       9.035   5.739  -3.100  1.00  0.00     0.131 A 
ATOM     63  C   UNL     1       6.800   6.551  -4.508  1.00  0.00     0.055 A 
ATOM     64  C   UNL     1       9.179   6.221  -4.402  1.00  0.00     0.041 A 
ATOM     65  F   UNL     1      10.140   5.307  -2.471  1.00  0.00    -0.206 F 
ATOM     66  C   UNL     1       8.056   6.619  -5.118  1.00  0.00     0.022 A 
BRANCH  63  67
ATOM     67  S   UNL     1       5.306   6.887  -5.480  1.00  0.00     0.124 S 
ATOM     68  O   UNL     1       4.613   5.604  -5.397  1.00  0.00    -0.237 OA
ATOM     69  O   UNL     1       4.704   7.997  -4.751  1.00  0.00    -0.237 OA
ATOM     70  O   UNL     1       5.828   7.221  -6.804  1.00  0.00    -0.744 OA
ENDBRANCH  63  67
ENDBRANCH  46  60
BRANCH  47  71
ATOM     71  C   UNL     1       7.146   1.552   6.629  1.00  0.00     0.023 A 
ATOM     72  C   UNL     1       6.444   2.160   7.682  1.00  0.00     0.031 A 
ATOM     73  C   UNL     1       7.856   0.369   6.907  1.00  0.00     0.131 A 
ATOM     74  C   UNL     1       6.499   1.607   8.971  1.00  0.00     0.055 A 
ATOM     75  C   UNL     1       7.863  -0.206   8.178  1.00  0.00     0.041 A 
ATOM     76  F   UNL     1       8.548  -0.250   5.938  1.00  0.00    -0.206 F 
ATOM     77  C   UNL     1       7.193   0.421   9.222  1.00  0.00     0.022 A 
BRANCH  74  78
ATOM     78  S   UNL     1       5.724   2.511  10.340  1.00  0.00     0.124 S 
ATOM     79  O   UNL     1       6.405   3.799  10.270  1.00  0.00    -0.237 OA
ATOM     80  O   UNL     1       4.319   2.505   9.948  1.00  0.00    -0.237 OA
ATOM     81  O   UNL     1       6.046   1.697  11.510  1.00  0.00    -0.744 OA
ENDBRANCH  74  78
ENDBRANCH  47  71
BRANCH  59  82
ATOM     82  C   UNL     1       9.901   7.474   4.232  1.00  0.00     0.023 A 
ATOM     83  C   UNL     1      11.176   7.316   4.802  1.00  0.00     0.031 A 
ATOM     84  C   UNL     1       9.270   8.725   4.348  1.00  0.00     0.131 A 
ATOM     85  C   UNL     1      11.758   8.377   5.511  1.00  0.00     0.055 A 
ATOM     86  C   UNL     1       9.875   9.792   5.013  1.00  0.00     0.041 A 
ATOM     87  F   UNL     1       8.052   8.926   3.821  1.00  0.00    -0.206 F 
ATOM     88  C   UNL     1      11.121   9.617   5.611  1.00  0.00     0.022 A 
BRANCH  85  89
ATOM     89  S   UNL     1      13.325   8.090   6.380  1.00  0.00     0.124 S 
ATOM     90  O   UNL     1      12.989   6.972   7.255  1.00  0.00    -0.237 OA
ATOM     91  O   UNL     1      14.239   7.788   5.282  1.00  0.00    -0.237 OA
ATOM     92  O   UNL     1      13.576   9.358   7.063  1.00  0.00    -0.744 OA
ENDBRANCH  85  89
ENDBRANCH  59  82
ENDBRANCH  33  34
ENDBRANCH  26  28
ENDBRANCH  25  26
ENDBRANCH  24  25
ENDBRANCH   1  24
TORSDOF 18
