REMARK SMILES COc1ccccc1C[N@@H+](C)[C@@H](C)c1ccc(C(=O)OCCOC(=O)c2ccc(-c3c4nc(c(-c5cc(S(=O)(=O)[O-])ccc5F)c5ccc([nH]5)c(-c5cc(S(=O)(=O)[O-])ccc5F)c5nc(c(-c6cc(S(=O)(=O)[O-])ccc6F)c6ccc3[nH]6)C=C5)C=C4)cc2)o1
REMARK SMILES IDX 21 1 20 2 18 3 19 4 17 5 14 6 15 7 89 8 16 9 12 10 13 11
REMARK SMILES IDX 10 12 11 13 9 15 8 16 3 17 4 18 5 19 7 20 6 21 2 22 1 23
REMARK SMILES IDX 22 24 23 25 24 26 25 27 26 28 27 29 88 30 28 31 87 32 29 33
REMARK SMILES IDX 30 34 31 35 81 36 32 37 86 38 80 39 82 40 33 41 85 42 79 43
REMARK SMILES IDX 78 44 34 46 66 47 46 48 65 49 47 50 50 51 64 52 83 53 48 54
REMARK SMILES IDX 49 55 63 57 84 58 51 59 35 60 36 61 44 62 37 63 43 64 45 65
REMARK SMILES IDX 42 66 38 67 39 68 40 69 41 70 67 71 68 72 76 73 69 74 75 75
REMARK SMILES IDX 77 76 74 77 70 78 71 79 72 80 73 81 52 82 53 83 61 84 54 85
REMARK SMILES IDX 60 86 62 87 59 88 55 89 56 90 57 91 58 92
REMARK H PARENT 10 14 82 45 50 56
REMARK Flexibility Score: inf
ROOT
ATOM      1  C   UNL     1      -1.140   0.715   7.622  1.00  0.00     0.275 C 
ENDROOT
BRANCH   1   2
ATOM      2  O   UNL     1      -0.133   0.077   6.819  1.00  0.00    -0.456 OA
BRANCH   2   3
ATOM      3  C   UNL     1       0.051   0.595   5.565  1.00  0.00     0.374 C 
ATOM      4  O   UNL     1      -0.748   1.329   5.005  1.00  0.00    -0.242 OA
BRANCH   3   5
ATOM      5  C   UNL     1       1.368   0.234   5.090  1.00  0.00     0.212 A 
ATOM      6  C   UNL     1       3.088   0.347   3.708  1.00  0.00     0.162 A 
ATOM      7  C   UNL     1       3.487  -0.436   4.772  1.00  0.00     0.053 A 
ATOM      8  O   UNL     1       1.803   0.764   3.902  1.00  0.00    -0.448 OA
ATOM      9  C   UNL     1       2.382  -0.522   5.647  1.00  0.00     0.059 A 
BRANCH   6  10
ATOM     10  C   UNL     1       3.800   0.759   2.445  1.00  0.00     0.248 C 
ATOM     11  C   UNL     1       3.068   1.848   1.649  1.00  0.00     0.084 C 
BRANCH  10  12
ATOM     12  N   UNL     1       4.246  -0.435   1.674  1.00  0.00    -0.325 N 
ATOM     13  C   UNL     1       5.331  -0.068   0.755  1.00  0.00     0.333 C 
ATOM     14  H   UNL     1       4.560  -1.094   2.386  1.00  0.00     0.348 HD
BRANCH  12  15
ATOM     15  C   UNL     1       3.191  -1.138   0.914  1.00  0.00     0.303 C 
BRANCH  15  16
ATOM     16  C   UNL     1       2.068  -1.756   1.722  1.00  0.00     0.048 A 
ATOM     17  C   UNL     1       0.752  -1.261   1.740  1.00  0.00     0.127 A 
ATOM     18  C   UNL     1      -0.189  -1.788   2.636  1.00  0.00     0.047 A 
ATOM     19  C   UNL     1       0.147  -2.836   3.491  1.00  0.00     0.004 A 
ATOM     20  C   UNL     1       2.378  -2.840   2.572  1.00  0.00     0.013 A 
ATOM     21  C   UNL     1       1.430  -3.371   3.451  1.00  0.00     0.001 A 
BRANCH  17  22
ATOM     22  O   UNL     1       0.326  -0.150   1.064  1.00  0.00    -0.496 OA
ATOM     23  C   UNL     1       0.323  -0.271  -0.352  1.00  0.00     0.278 C 
ENDBRANCH  17  22
ENDBRANCH  15  16
ENDBRANCH  12  15
ENDBRANCH  10  12
ENDBRANCH   6  10
ENDBRANCH   3   5
ENDBRANCH   2   3
ENDBRANCH   1   2
BRANCH   1  24
ATOM     24  C   UNL     1      -0.479   1.709   8.581  1.00  0.00     0.275 C 
BRANCH  24  25
ATOM     25  O   UNL     1       0.016   2.857   7.868  1.00  0.00    -0.458 OA
BRANCH  25  26
ATOM     26  C   UNL     1       1.332   2.821   7.548  1.00  0.00     0.338 C 
ATOM     27  O   UNL     1       2.136   1.951   7.830  1.00  0.00    -0.246 OA
BRANCH  26  28
ATOM     28  C   UNL     1       1.656   4.003   6.738  1.00  0.00     0.060 A 
ATOM     29  C   UNL     1       1.771   3.881   5.352  1.00  0.00     0.016 A 
ATOM     30  C   UNL     1       1.921   5.218   7.366  1.00  0.00     0.016 A 
ATOM     31  C   UNL     1       2.187   4.965   4.584  1.00  0.00     0.010 A 
ATOM     32  C   UNL     1       2.301   6.315   6.592  1.00  0.00     0.010 A 
ATOM     33  C   UNL     1       2.456   6.192   5.198  1.00  0.00    -0.014 A 
BRANCH  33  34
ATOM     34  C   UNL     1       2.961   7.342   4.410  1.00  0.00     0.031 A 
ATOM     35  C   UNL     1       4.358   7.836   4.655  1.00  0.00     0.074 A 
ATOM     36  C   UNL     1       2.166   7.957   3.515  1.00  0.00     0.049 A 
ATOM     37  N   UNL     1       4.927   8.946   4.267  1.00  0.00    -0.248 NA
ATOM     38  C   UNL     1       5.223   6.963   5.463  1.00  0.00     0.031 C 
ATOM     39  C   UNL     1       0.821   7.520   3.138  1.00  0.00     0.029 A 
ATOM     40  N   UNL     1       2.366   9.097   2.777  1.00  0.00    -0.354 N 
ATOM     41  C   UNL     1       6.206   8.926   4.814  1.00  0.00     0.074 A 
ATOM     42  C   UNL     1       6.316   7.701   5.578  1.00  0.00     0.031 C 
ATOM     43  C   UNL     1       0.312   8.389   2.250  1.00  0.00     0.029 A 
ATOM     44  C   UNL     1       1.260   9.482   2.056  1.00  0.00     0.049 A 
ATOM     45  H   UNL     1       3.218   9.590   2.765  1.00  0.00     0.167 HD
ATOM     46  C   UNL     1       7.189   9.850   4.687  1.00  0.00     0.034 A 
ATOM     47  C   UNL     1       1.018  10.614   1.365  1.00  0.00     0.034 A 
ATOM     48  C   UNL     1       7.047  11.061   3.913  1.00  0.00     0.049 A 
ATOM     49  C   UNL     1       2.090  11.675   1.315  1.00  0.00     0.074 A 
ATOM     50  C   UNL     1       7.972  12.070   3.711  1.00  0.00     0.029 A 
ATOM     51  N   UNL     1       5.901  11.429   3.216  1.00  0.00    -0.354 N 
ATOM     52  N   UNL     1       3.281  11.674   1.870  1.00  0.00    -0.248 NA
ATOM     53  C   UNL     1       1.788  12.891   0.548  1.00  0.00     0.031 C 
ATOM     54  C   UNL     1       7.362  13.079   2.960  1.00  0.00     0.029 A 
ATOM     55  C   UNL     1       6.088  12.661   2.609  1.00  0.00     0.049 A 
ATOM     56  H   UNL     1       5.077  10.893   3.163  1.00  0.00     0.167 HD
ATOM     57  C   UNL     1       3.885  12.866   1.479  1.00  0.00     0.074 A 
ATOM     58  C   UNL     1       2.926  13.562   0.646  1.00  0.00     0.031 C 
ATOM     59  C   UNL     1       5.124  13.336   1.772  1.00  0.00     0.034 A 
BRANCH  46  60
ATOM     60  C   UNL     1       8.469   9.617   5.454  1.00  0.00     0.023 A 
ATOM     61  C   UNL     1       9.299   8.510   5.202  1.00  0.00     0.031 A 
ATOM     62  C   UNL     1       8.849  10.501   6.480  1.00  0.00     0.131 A 
ATOM     63  C   UNL     1      10.419   8.275   6.014  1.00  0.00     0.055 A 
ATOM     64  C   UNL     1      10.012  10.309   7.227  1.00  0.00     0.041 A 
ATOM     65  F   UNL     1       8.086  11.562   6.786  1.00  0.00    -0.206 F 
ATOM     66  C   UNL     1      10.797   9.181   7.007  1.00  0.00     0.022 A 
BRANCH  63  67
ATOM     67  S   UNL     1      11.288   6.691   5.855  1.00  0.00     0.124 S 
ATOM     68  O   UNL     1      10.216   5.737   6.131  1.00  0.00    -0.237 OA
ATOM     69  O   UNL     1      11.769   6.730   4.479  1.00  0.00    -0.237 OA
ATOM     70  O   UNL     1      12.326   6.764   6.881  1.00  0.00    -0.744 OA
ENDBRANCH  63  67
ENDBRANCH  46  60
BRANCH  47  71
ATOM     71  C   UNL     1      -0.306  10.833   0.713  1.00  0.00     0.023 A 
ATOM     72  C   UNL     1      -0.411  10.983  -0.678  1.00  0.00     0.031 A 
ATOM     73  C   UNL     1      -1.483  10.941   1.477  1.00  0.00     0.131 A 
ATOM     74  C   UNL     1      -1.655  11.279  -1.258  1.00  0.00     0.055 A 
ATOM     75  C   UNL     1      -2.728  11.173   0.889  1.00  0.00     0.041 A 
ATOM     76  F   UNL     1      -1.442  10.811   2.813  1.00  0.00    -0.206 F 
ATOM     77  C   UNL     1      -2.816  11.358  -0.486  1.00  0.00     0.022 A 
BRANCH  74  78
ATOM     78  S   UNL     1      -1.715  11.660  -3.030  1.00  0.00     0.124 S 
ATOM     79  O   UNL     1      -0.797  12.790  -3.122  1.00  0.00    -0.237 OA
ATOM     80  O   UNL     1      -1.256  10.409  -3.626  1.00  0.00    -0.237 OA
ATOM     81  O   UNL     1      -3.123  11.979  -3.262  1.00  0.00    -0.744 OA
ENDBRANCH  74  78
ENDBRANCH  47  71
BRANCH  59  82
ATOM     82  C   UNL     1       5.550  14.626   1.113  1.00  0.00     0.023 A 
ATOM     83  C   UNL     1       4.966  15.863   1.432  1.00  0.00     0.031 A 
ATOM     84  C   UNL     1       6.585  14.607   0.158  1.00  0.00     0.131 A 
ATOM     85  C   UNL     1       5.394  17.026   0.772  1.00  0.00     0.055 A 
ATOM     86  C   UNL     1       7.046  15.774  -0.449  1.00  0.00     0.041 A 
ATOM     87  F   UNL     1       7.174  13.451  -0.188  1.00  0.00    -0.206 F 
ATOM     88  C   UNL     1       6.444  16.992  -0.150  1.00  0.00     0.022 A 
BRANCH  85  89
ATOM     89  S   UNL     1       4.512  18.581   1.079  1.00  0.00     0.124 S 
ATOM     90  O   UNL     1       3.153  18.246   0.667  1.00  0.00    -0.237 OA
ATOM     91  O   UNL     1       4.714  18.778   2.511  1.00  0.00    -0.237 OA
ATOM     92  O   UNL     1       5.202  19.542   0.220  1.00  0.00    -0.744 OA
ENDBRANCH  85  89
ENDBRANCH  59  82
ENDBRANCH  33  34
ENDBRANCH  26  28
ENDBRANCH  25  26
ENDBRANCH  24  25
ENDBRANCH   1  24
TORSDOF 19
