REMARK SMILES [NH3+]C1(C(=O)N2[C@@H](C(=O)OCCOC(=O)c3ccc(-c4c5nc(c(-c6cc(S(=O)(=O)[O-])ccc6F)c6ccc([nH]6)c(-c6cc(S(=O)(=O)[O-])ccc6F)c6nc(c(-c7cc(S(=O)(=O)[O-])ccc7F)c7ccc4[nH]7)C=C6)C=C5)cc3)CC[C@@H]3CCCC[C@@H]32)CC1
REMARK SMILES IDX 10 1 9 2 7 3 8 4 6 5 5 6 85 7 78 8 80 9 84 10 79 11 81 12
REMARK SMILES IDX 83 13 82 14 3 15 4 16 2 17 86 18 87 19 1 20 11 24 12 25
REMARK SMILES IDX 13 26 14 27 15 28 16 29 77 30 17 31 76 32 18 33 19 34 20 35
REMARK SMILES IDX 70 36 21 37 75 38 69 39 71 40 22 41 74 42 68 43 67 44 23 46
REMARK SMILES IDX 55 47 35 48 54 49 36 50 39 51 53 52 72 53 37 54 38 55 52 57
REMARK SMILES IDX 73 58 40 59 24 60 25 61 33 62 26 63 32 64 34 65 31 66 27 67
REMARK SMILES IDX 28 68 29 69 30 70 56 71 57 72 65 73 58 74 64 75 66 76 63 77
REMARK SMILES IDX 59 78 60 79 61 80 62 81 41 82 42 83 50 84 43 85 49 86 51 87
REMARK SMILES IDX 48 88 44 89 45 90 46 91 47 92
REMARK H PARENT 1 21 1 22 1 23 71 45 39 56
REMARK Flexibility Score: inf
ROOT
ATOM      1  C   UNL     1       1.727  -3.198  -3.825  1.00  0.00     0.274 C 
ENDROOT
BRANCH   1   2
ATOM      2  O   UNL     1       0.371  -2.874  -3.466  1.00  0.00    -0.461 OA
BRANCH   2   3
ATOM      3  C   UNL     1       0.090  -1.543  -3.439  1.00  0.00     0.328 C 
ATOM      4  O   UNL     1       0.935  -0.677  -3.632  1.00  0.00    -0.250 OA
BRANCH   3   5
ATOM      5  C   UNL     1      -1.403  -1.234  -3.213  1.00  0.00     0.195 C 
ATOM      6  N   UNL     1      -1.716  -0.237  -2.171  1.00  0.00    -0.320 N 
ATOM      7  C   UNL     1      -3.119   0.211  -2.107  1.00  0.00     0.089 C 
ATOM      8  C   UNL     1      -2.336  -2.443  -3.165  1.00  0.00     0.037 C 
ATOM      9  C   UNL     1      -4.114  -0.975  -2.158  1.00  0.00     0.012 C 
ATOM     10  C   UNL     1      -3.393   1.294  -3.164  1.00  0.00     0.025 C 
ATOM     11  C   UNL     1      -3.782  -1.958  -3.293  1.00  0.00     0.008 C 
ATOM     12  C   UNL     1      -5.568  -0.489  -2.239  1.00  0.00     0.006 C 
ATOM     13  C   UNL     1      -4.857   1.722  -3.209  1.00  0.00     0.002 C 
ATOM     14  C   UNL     1      -5.798   0.532  -3.348  1.00  0.00     0.000 C 
BRANCH   6  15
ATOM     15  C   UNL     1      -1.053  -0.333  -0.955  1.00  0.00     0.284 C 
ATOM     16  O   UNL     1      -1.475  -0.991  -0.007  1.00  0.00    -0.268 OA
BRANCH  15  17
ATOM     17  C   UNL     1       0.220   0.493  -0.800  1.00  0.00     0.174 C 
ATOM     18  C   UNL     1       0.071   1.991  -0.609  1.00  0.00     0.086 C 
ATOM     19  C   UNL     1       0.713   1.465  -1.851  1.00  0.00     0.086 C 
BRANCH  17  20
ATOM     20  N   UNL     1       1.246  -0.186   0.035  1.00  0.00    -0.345 N 
ATOM     21  H   UNL     1       0.787  -0.809   0.699  1.00  0.00     0.345 HD
ATOM     22  H   UNL     1       1.787   0.513   0.544  1.00  0.00     0.345 HD
ATOM     23  H   UNL     1       1.869  -0.727  -0.565  1.00  0.00     0.345 HD
ENDBRANCH  17  20
ENDBRANCH  15  17
ENDBRANCH   6  15
ENDBRANCH   3   5
ENDBRANCH   2   3
ENDBRANCH   1   2
BRANCH   1  24
ATOM     24  C   UNL     1       1.902  -3.407  -5.337  1.00  0.00     0.275 C 
BRANCH  24  25
ATOM     25  O   UNL     1       1.738  -2.201  -6.110  1.00  0.00    -0.458 OA
BRANCH  25  26
ATOM     26  C   UNL     1       0.471  -1.949  -6.521  1.00  0.00     0.338 C 
ATOM     27  O   UNL     1      -0.517  -2.628  -6.288  1.00  0.00    -0.246 OA
BRANCH  26  28
ATOM     28  C   UNL     1       0.383  -0.635  -7.183  1.00  0.00     0.060 A 
ATOM     29  C   UNL     1      -0.392   0.351  -6.568  1.00  0.00     0.016 A 
ATOM     30  C   UNL     1       0.944  -0.399  -8.437  1.00  0.00     0.016 A 
ATOM     31  C   UNL     1      -0.639   1.562  -7.198  1.00  0.00     0.010 A 
ATOM     32  C   UNL     1       0.720   0.836  -9.063  1.00  0.00     0.010 A 
ATOM     33  C   UNL     1      -0.079   1.819  -8.450  1.00  0.00    -0.014 A 
BRANCH  33  34
ATOM     34  C   UNL     1      -0.350   3.119  -9.108  1.00  0.00     0.031 A 
ATOM     35  C   UNL     1      -1.237   3.174 -10.316  1.00  0.00     0.074 A 
ATOM     36  C   UNL     1       0.179   4.246  -8.595  1.00  0.00     0.049 A 
ATOM     37  N   UNL     1      -1.468   4.173 -11.126  1.00  0.00    -0.248 NA
ATOM     38  C   UNL     1      -1.961   1.940 -10.656  1.00  0.00     0.031 C 
ATOM     39  C   UNL     1       0.981   4.322  -7.371  1.00  0.00     0.029 A 
ATOM     40  N   UNL     1       0.132   5.543  -9.041  1.00  0.00    -0.354 N 
ATOM     41  C   UNL     1      -2.337   3.683 -12.094  1.00  0.00     0.074 A 
ATOM     42  C   UNL     1      -2.591   2.295 -11.767  1.00  0.00     0.031 C 
ATOM     43  C   UNL     1       1.364   5.593  -7.175  1.00  0.00     0.029 A 
ATOM     44  C   UNL     1       0.902   6.405  -8.296  1.00  0.00     0.049 A 
ATOM     45  H   UNL     1      -0.400   5.828  -9.819  1.00  0.00     0.167 HD
ATOM     46  C   UNL     1      -2.861   4.337 -13.160  1.00  0.00     0.034 A 
ATOM     47  C   UNL     1       1.250   7.687  -8.524  1.00  0.00     0.034 A 
ATOM     48  C   UNL     1      -2.599   5.725 -13.455  1.00  0.00     0.049 A 
ATOM     49  C   UNL     1       0.732   8.362  -9.769  1.00  0.00     0.074 A 
ATOM     50  C   UNL     1      -3.084   6.491 -14.501  1.00  0.00     0.029 A 
ATOM     51  N   UNL     1      -1.772   6.555 -12.707  1.00  0.00    -0.354 N 
ATOM     52  N   UNL     1      -0.056   7.880 -10.703  1.00  0.00    -0.248 NA
ATOM     53  C   UNL     1       1.156   9.749  -9.994  1.00  0.00     0.031 C 
ATOM     54  C   UNL     1      -2.500   7.760 -14.423  1.00  0.00     0.029 A 
ATOM     55  C   UNL     1      -1.705   7.811 -13.289  1.00  0.00     0.049 A 
ATOM     56  H   UNL     1      -1.303   6.289 -11.884  1.00  0.00     0.167 HD
ATOM     57  C   UNL     1      -0.232   8.912 -11.619  1.00  0.00     0.074 A 
ATOM     58  C   UNL     1       0.511  10.048 -11.112  1.00  0.00     0.031 C 
ATOM     59  C   UNL     1      -0.942   8.924 -12.776  1.00  0.00     0.034 A 
BRANCH  46  60
ATOM     60  C   UNL     1      -3.701   3.538 -14.123  1.00  0.00     0.023 A 
ATOM     61  C   UNL     1      -4.959   3.020 -13.771  1.00  0.00     0.031 A 
ATOM     62  C   UNL     1      -3.221   3.281 -15.420  1.00  0.00     0.131 A 
ATOM     63  C   UNL     1      -5.670   2.230 -14.688  1.00  0.00     0.055 A 
ATOM     64  C   UNL     1      -3.962   2.551 -16.350  1.00  0.00     0.041 A 
ATOM     65  F   UNL     1      -2.015   3.731 -15.803  1.00  0.00    -0.206 F 
ATOM     66  C   UNL     1      -5.191   2.011 -15.983  1.00  0.00     0.022 A 
BRANCH  63  67
ATOM     67  S   UNL     1      -7.183   1.398 -14.133  1.00  0.00     0.124 S 
ATOM     68  O   UNL     1      -6.678   0.558 -13.050  1.00  0.00    -0.237 OA
ATOM     69  O   UNL     1      -8.031   2.515 -13.734  1.00  0.00    -0.237 OA
ATOM     70  O   UNL     1      -7.630   0.670 -15.319  1.00  0.00    -0.744 OA
ENDBRANCH  63  67
ENDBRANCH  46  60
BRANCH  47  71
ATOM     71  C   UNL     1       2.208   8.384  -7.620  1.00  0.00     0.023 A 
ATOM     72  C   UNL     1       1.837   9.537  -6.912  1.00  0.00     0.031 A 
ATOM     73  C   UNL     1       3.538   7.937  -7.500  1.00  0.00     0.131 A 
ATOM     74  C   UNL     1       2.795  10.229  -6.154  1.00  0.00     0.055 A 
ATOM     75  C   UNL     1       4.471   8.595  -6.698  1.00  0.00     0.041 A 
ATOM     76  F   UNL     1       3.950   6.842  -8.160  1.00  0.00    -0.206 F 
ATOM     77  C   UNL     1       4.104   9.759  -6.031  1.00  0.00     0.022 A 
BRANCH  74  78
ATOM     78  S   UNL     1       2.330  11.817  -5.411  1.00  0.00     0.124 S 
ATOM     79  O   UNL     1       1.872  12.568  -6.575  1.00  0.00    -0.237 OA
ATOM     80  O   UNL     1       1.298  11.415  -4.460  1.00  0.00    -0.237 OA
ATOM     81  O   UNL     1       3.576  12.291  -4.813  1.00  0.00    -0.744 OA
ENDBRANCH  74  78
ENDBRANCH  47  71
BRANCH  59  82
ATOM     82  C   UNL     1      -0.967  10.222 -13.542  1.00  0.00     0.023 A 
ATOM     83  C   UNL     1       0.183  10.725 -14.175  1.00  0.00     0.031 A 
ATOM     84  C   UNL     1      -2.151  10.976 -13.619  1.00  0.00     0.131 A 
ATOM     85  C   UNL     1       0.139  11.973 -14.813  1.00  0.00     0.055 A 
ATOM     86  C   UNL     1      -2.203  12.190 -14.304  1.00  0.00     0.041 A 
ATOM     87  F   UNL     1      -3.276  10.543 -13.030  1.00  0.00    -0.206 F 
ATOM     88  C   UNL     1      -1.051  12.701 -14.895  1.00  0.00     0.022 A 
BRANCH  85  89
ATOM     89  S   UNL     1       1.680  12.674 -15.463  1.00  0.00     0.124 S 
ATOM     90  O   UNL     1       2.504  12.762 -14.262  1.00  0.00    -0.237 OA
ATOM     91  O   UNL     1       2.089  11.675 -16.445  1.00  0.00    -0.237 OA
ATOM     92  O   UNL     1       1.263  13.958 -16.024  1.00  0.00    -0.744 OA
ENDBRANCH  85  89
ENDBRANCH  59  82
ENDBRANCH  33  34
ENDBRANCH  26  28
ENDBRANCH  25  26
ENDBRANCH  24  25
ENDBRANCH   1  24
TORSDOF 17
