REMARK SMILES C[C@H](CNC(=O)[C@H]1CCCCC[C@@H]1[NH3+])C(=O)OCCOC(=O)c1ccc(-c2c3nc(c(-c4cc(S(=O)(=O)[O-])ccc4F)c4ccc([nH]4)c(-c4cc(S(=O)(=O)[O-])ccc4F)c4nc(c(-c5cc(S(=O)(=O)[O-])ccc5F)c5ccc2[nH]5)C=C4)C=C3)cc1
REMARK SMILES IDX 17 1 15 2 16 3 2 4 1 5 3 6 4 7 5 8 6 10 7 11 8 12 9 13 10 14
REMARK SMILES IDX 13 16 12 17 11 18 14 20 18 24 19 25 20 26 21 27 22 28 23 29
REMARK SMILES IDX 24 30 85 31 25 32 84 33 26 34 27 35 28 36 78 37 29 38 83 39
REMARK SMILES IDX 77 40 79 41 30 42 82 43 76 44 75 45 31 47 63 48 43 49 62 50
REMARK SMILES IDX 44 51 47 52 61 53 80 54 45 55 46 56 60 58 81 59 48 60 32 61
REMARK SMILES IDX 33 62 41 63 34 64 40 65 42 66 39 67 35 68 36 69 37 70 38 71
REMARK SMILES IDX 64 72 65 73 73 74 66 75 72 76 74 77 71 78 67 79 68 80 69 81
REMARK SMILES IDX 70 82 49 83 50 84 58 85 51 86 57 87 59 88 56 89 52 90 53 91
REMARK SMILES IDX 54 92 55 93
REMARK H PARENT 4 9 14 21 14 22 14 23 79 46 47 57
REMARK Flexibility Score: 90.00
ROOT
ATOM      1  O   UNL     1       8.427  -2.493  -1.270  1.00  0.00    -0.462 OA
ENDROOT
BRANCH   1   2
ATOM      2  C   UNL     1       7.488  -3.462  -1.104  1.00  0.00     0.310 C 
ATOM      3  O   UNL     1       7.538  -4.340  -0.251  1.00  0.00    -0.252 OA
BRANCH   2   4
ATOM      4  C   UNL     1       6.392  -3.408  -2.146  1.00  0.00     0.115 C 
ATOM      5  C   UNL     1       6.811  -4.257  -3.344  1.00  0.00     0.022 C 
BRANCH   4   6
ATOM      6  C   UNL     1       5.990  -1.978  -2.526  1.00  0.00     0.130 C 
BRANCH   6   7
ATOM      7  N   UNL     1       4.816  -1.993  -3.385  1.00  0.00    -0.355 N 
ATOM      8  C   UNL     1       3.593  -1.418  -3.282  1.00  0.00     0.229 C 
ATOM      9  H   UNL     1       4.933  -2.527  -4.203  1.00  0.00     0.163 HD
ATOM     10  O   UNL     1       2.753  -1.853  -4.075  1.00  0.00    -0.275 OA
BRANCH   8  11
ATOM     11  C   UNL     1       3.273  -0.315  -2.257  1.00  0.00     0.136 C 
BRANCH  11  12
ATOM     12  C   UNL     1       4.231   0.893  -2.312  1.00  0.00     0.020 C 
BRANCH  12  13
ATOM     13  C   UNL     1       4.524   1.426  -3.711  1.00  0.00     0.001 C 
BRANCH  13  14
ATOM     14  C   UNL     1       3.470   2.324  -4.349  1.00  0.00     0.000 CG0
ATOM     15  G   UNL     1       2.037   2.257  -3.833  1.00  0.00     0.000 G0
ENDBRANCH  13  14
ENDBRANCH  12  13
ENDBRANCH  11  12
BRANCH  11  16
ATOM     16  C   UNL     1       1.779   0.090  -2.403  1.00  0.00     0.193 C 
BRANCH  16  17
ATOM     17  C   UNL     1       1.448   0.855  -3.704  1.00  0.00     0.066 C 
BRANCH  17  18
ATOM     18  C   UNL     1       2.037   2.257  -3.833  1.00  0.00     0.006 CG0
ATOM     19  G   UNL     1       3.470   2.324  -4.349  1.00  0.00     0.000 G0
ENDBRANCH  17  18
ENDBRANCH  16  17
BRANCH  16  20
ATOM     20  N   UNL     1       1.263   0.851  -1.257  1.00  0.00    -0.354 N 
ATOM     21  H   UNL     1       1.733   1.756  -1.211  1.00  0.00     0.344 HD
ATOM     22  H   UNL     1       1.440   0.332  -0.397  1.00  0.00     0.344 HD
ATOM     23  H   UNL     1       0.260   0.994  -1.368  1.00  0.00     0.344 HD
ENDBRANCH  16  20
ENDBRANCH  11  16
ENDBRANCH   8  11
ENDBRANCH   6   7
ENDBRANCH   4   6
ENDBRANCH   2   4
ENDBRANCH   1   2
BRANCH   1  24
ATOM     24  C   UNL     1       9.518  -2.519  -0.328  1.00  0.00     0.274 C 
BRANCH  24  25
ATOM     25  C   UNL     1       9.322  -1.514   0.811  1.00  0.00     0.275 C 
BRANCH  25  26
ATOM     26  O   UNL     1       8.153  -1.803   1.597  1.00  0.00    -0.458 OA
BRANCH  26  27
ATOM     27  C   UNL     1       7.027  -1.155   1.213  1.00  0.00     0.338 C 
ATOM     28  O   UNL     1       6.920  -0.346   0.308  1.00  0.00    -0.246 OA
BRANCH  27  29
ATOM     29  C   UNL     1       5.873  -1.684   1.960  1.00  0.00     0.060 A 
ATOM     30  C   UNL     1       4.854  -2.318   1.243  1.00  0.00     0.016 A 
ATOM     31  C   UNL     1       5.771  -1.522   3.342  1.00  0.00     0.016 A 
ATOM     32  C   UNL     1       3.734  -2.814   1.904  1.00  0.00     0.010 A 
ATOM     33  C   UNL     1       4.644  -2.021   4.005  1.00  0.00     0.010 A 
ATOM     34  C   UNL     1       3.624  -2.675   3.291  1.00  0.00    -0.014 A 
BRANCH  34  35
ATOM     35  C   UNL     1       2.447  -3.227   4.004  1.00  0.00     0.031 A 
ATOM     36  C   UNL     1       1.384  -2.304   4.520  1.00  0.00     0.074 A 
ATOM     37  C   UNL     1       2.362  -4.556   4.207  1.00  0.00     0.049 A 
ATOM     38  N   UNL     1       0.364  -2.571   5.292  1.00  0.00    -0.248 NA
ATOM     39  C   UNL     1       1.483  -0.893   4.115  1.00  0.00     0.031 C 
ATOM     40  C   UNL     1       3.316  -5.547   3.705  1.00  0.00     0.029 A 
ATOM     41  N   UNL     1       1.446  -5.300   4.908  1.00  0.00    -0.354 N 
ATOM     42  C   UNL     1      -0.289  -1.360   5.491  1.00  0.00     0.074 A 
ATOM     43  C   UNL     1       0.454  -0.356   4.758  1.00  0.00     0.031 C 
ATOM     44  C   UNL     1       2.950  -6.764   4.138  1.00  0.00     0.029 A 
ATOM     45  C   UNL     1       1.776  -6.633   4.996  1.00  0.00     0.049 A 
ATOM     46  H   UNL     1       0.632  -4.917   5.309  1.00  0.00     0.167 HD
ATOM     47  C   UNL     1      -1.400  -1.117   6.228  1.00  0.00     0.034 A 
ATOM     48  C   UNL     1       1.230  -7.623   5.732  1.00  0.00     0.034 A 
ATOM     49  C   UNL     1      -2.129  -2.137   6.941  1.00  0.00     0.049 A 
ATOM     50  C   UNL     1       0.046  -7.304   6.611  1.00  0.00     0.074 A 
ATOM     51  C   UNL     1      -3.303  -2.009   7.663  1.00  0.00     0.029 A 
ATOM     52  N   UNL     1      -1.745  -3.467   7.041  1.00  0.00    -0.354 N 
ATOM     53  N   UNL     1      -0.577  -6.159   6.772  1.00  0.00    -0.248 NA
ATOM     54  C   UNL     1      -0.504  -8.405   7.412  1.00  0.00     0.031 C 
ATOM     55  C   UNL     1      -3.586  -3.241   8.261  1.00  0.00     0.029 A 
ATOM     56  C   UNL     1      -2.629  -4.158   7.856  1.00  0.00     0.049 A 
ATOM     57  H   UNL     1      -0.960  -3.863   6.598  1.00  0.00     0.167 HD
ATOM     58  C   UNL     1      -1.602  -6.410   7.680  1.00  0.00     0.074 A 
ATOM     59  C   UNL     1      -1.526  -7.816   8.015  1.00  0.00     0.031 C 
ATOM     60  C   UNL     1      -2.525  -5.557   8.192  1.00  0.00     0.034 A 
BRANCH  47  61
ATOM     61  C   UNL     1      -1.858   0.312   6.361  1.00  0.00     0.023 A 
ATOM     62  C   UNL     1      -2.393   1.032   5.280  1.00  0.00     0.031 A 
ATOM     63  C   UNL     1      -1.771   0.958   7.608  1.00  0.00     0.131 A 
ATOM     64  C   UNL     1      -2.784   2.369   5.458  1.00  0.00     0.055 A 
ATOM     65  C   UNL     1      -2.217   2.267   7.793  1.00  0.00     0.041 A 
ATOM     66  F   UNL     1      -1.246   0.324   8.669  1.00  0.00    -0.206 F 
ATOM     67  C   UNL     1      -2.721   2.983   6.712  1.00  0.00     0.022 A 
BRANCH  64  68
ATOM     68  S   UNL     1      -3.290   3.331   4.006  1.00  0.00     0.124 S 
ATOM     69  O   UNL     1      -2.079   3.289   3.190  1.00  0.00    -0.237 OA
ATOM     70  O   UNL     1      -4.428   2.570   3.505  1.00  0.00    -0.237 OA
ATOM     71  O   UNL     1      -3.613   4.644   4.561  1.00  0.00    -0.744 OA
ENDBRANCH  64  68
ENDBRANCH  47  61
BRANCH  48  72
ATOM     72  C   UNL     1       1.845  -8.982   5.751  1.00  0.00     0.023 A 
ATOM     73  C   UNL     1       1.130 -10.112   5.327  1.00  0.00     0.031 A 
ATOM     74  C   UNL     1       3.139  -9.178   6.269  1.00  0.00     0.131 A 
ATOM     75  C   UNL     1       1.690 -11.391   5.476  1.00  0.00     0.055 A 
ATOM     76  C   UNL     1       3.716 -10.446   6.358  1.00  0.00     0.041 A 
ATOM     77  F   UNL     1       3.866  -8.134   6.697  1.00  0.00    -0.206 F 
ATOM     78  C   UNL     1       2.983 -11.564   5.976  1.00  0.00     0.022 A 
BRANCH  75  79
ATOM     79  S   UNL     1       0.658 -12.839   5.116  1.00  0.00     0.124 S 
ATOM     80  O   UNL     1      -0.501 -12.597   5.968  1.00  0.00    -0.237 OA
ATOM     81  O   UNL     1       0.440 -12.703   3.680  1.00  0.00    -0.237 OA
ATOM     82  O   UNL     1       1.501 -13.964   5.514  1.00  0.00    -0.744 OA
ENDBRANCH  75  79
ENDBRANCH  48  72
BRANCH  60  83
ATOM     83  C   UNL     1      -3.537  -6.138   9.145  1.00  0.00     0.023 A 
ATOM     84  C   UNL     1      -3.171  -6.575  10.430  1.00  0.00     0.031 A 
ATOM     85  C   UNL     1      -4.884  -6.261   8.761  1.00  0.00     0.131 A 
ATOM     86  C   UNL     1      -4.133  -7.154  11.271  1.00  0.00     0.055 A 
ATOM     87  C   UNL     1      -5.847  -6.789   9.621  1.00  0.00     0.041 A 
ATOM     88  F   UNL     1      -5.286  -5.861   7.543  1.00  0.00    -0.206 F 
ATOM     89  C   UNL     1      -5.472  -7.249  10.880  1.00  0.00     0.022 A 
BRANCH  86  90
ATOM     90  S   UNL     1      -3.600  -7.845  12.861  1.00  0.00     0.124 S 
ATOM     91  O   UNL     1      -2.679  -8.896  12.441  1.00  0.00    -0.237 OA
ATOM     92  O   UNL     1      -2.994  -6.692  13.517  1.00  0.00    -0.237 OA
ATOM     93  O   UNL     1      -4.845  -8.316  13.465  1.00  0.00    -0.744 OA
ENDBRANCH  86  90
ENDBRANCH  60  83
ENDBRANCH  34  35
ENDBRANCH  27  29
ENDBRANCH  26  27
ENDBRANCH  25  26
ENDBRANCH  24  25
ENDBRANCH   1  24
TORSDOF 18
