REMARK SMILES O=C(NCCC1=CCCCC1)C1=C(C(=O)OCCOC(=O)c2ccc(-c3c4nc(c(-c5cc(S(=O)(=O)[O-])ccc5F)c5ccc([nH]5)c(-c5cc(S(=O)(=O)[O-])ccc5F)c5nc(c(-c6cc(S(=O)(=O)[O-])ccc6F)c6ccc3[nH]6)C=C5)C=C4)cc2)CCCC1
REMARK SMILES IDX 17 1 16 2 14 3 15 4 13 5 12 6 88 7 85 8 87 9 86 10 2 11 1 12
REMARK SMILES IDX 3 13 4 15 5 16 6 17 7 18 11 19 8 20 10 21 9 22 18 23 19 24
REMARK SMILES IDX 20 25 21 26 22 27 23 28 84 29 24 30 83 31 25 32 26 33 27 34
REMARK SMILES IDX 77 35 28 36 82 37 76 38 78 39 29 40 81 41 75 42 74 43 30 45
REMARK SMILES IDX 62 46 42 47 61 48 43 49 46 50 60 51 79 52 44 53 45 54 59 56
REMARK SMILES IDX 80 57 47 58 31 59 32 60 40 61 33 62 39 63 41 64 38 65 34 66
REMARK SMILES IDX 35 67 36 68 37 69 63 70 64 71 72 72 65 73 71 74 73 75 70 76
REMARK SMILES IDX 66 77 67 78 68 79 69 80 48 81 49 82 57 83 50 84 56 85 58 86
REMARK SMILES IDX 55 87 51 88 52 89 53 90 54 91
REMARK H PARENT 3 14 78 44 46 55
REMARK Flexibility Score: inf
ROOT
ATOM      1  C   UNL     1       3.660  -0.267   3.152  1.00  0.00     0.275 C 
ENDROOT
BRANCH   1   2
ATOM      2  O   UNL     1       3.281  -0.824   1.877  1.00  0.00    -0.459 OA
BRANCH   2   3
ATOM      3  C   UNL     1       4.301  -1.083   1.024  1.00  0.00     0.334 C 
ATOM      4  O   UNL     1       5.493  -1.006   1.285  1.00  0.00    -0.247 OA
BRANCH   3   5
ATOM      5  C   UNL     1       3.816  -1.476  -0.322  1.00  0.00     0.046 C 
ATOM      6  C   UNL     1       2.883  -0.778  -0.999  1.00  0.00     0.027 C 
ATOM      7  C   UNL     1       2.355  -1.228  -2.342  1.00  0.00     0.042 C 
ATOM      8  C   UNL     1       4.531  -2.655  -0.940  1.00  0.00     0.044 C 
ATOM      9  C   UNL     1       2.854  -2.606  -2.785  1.00  0.00     0.005 C 
ATOM     10  C   UNL     1       4.327  -2.778  -2.448  1.00  0.00     0.005 C 
BRANCH   6  11
ATOM     11  C   UNL     1       2.259   0.482  -0.509  1.00  0.00     0.247 C 
ATOM     12  O   UNL     1       1.038   0.582  -0.428  1.00  0.00    -0.270 OA
ATOM     13  N   UNL     1       3.042   1.570  -0.260  1.00  0.00    -0.352 N 
ATOM     14  H   UNL     1       2.550   2.397  -0.050  1.00  0.00     0.163 HD
BRANCH  13  15
ATOM     15  C   UNL     1       4.491   1.701  -0.257  1.00  0.00     0.120 C 
BRANCH  15  16
ATOM     16  C   UNL     1       4.989   3.141  -0.383  1.00  0.00     0.052 C 
BRANCH  16  17
ATOM     17  C   UNL     1       4.582   4.121   0.707  1.00  0.00    -0.072 C 
ATOM     18  C   UNL     1       4.599   5.441   0.440  1.00  0.00    -0.028 C 
ATOM     19  C   UNL     1       4.239   3.611   2.091  1.00  0.00     0.031 C 
ATOM     20  C   UNL     1       4.330   6.513   1.454  1.00  0.00     0.027 C 
ATOM     21  C   UNL     1       3.580   4.667   2.984  1.00  0.00     0.005 C 
ATOM     22  C   UNL     1       4.314   5.997   2.892  1.00  0.00     0.004 C 
ENDBRANCH  16  17
ENDBRANCH  15  16
ENDBRANCH  13  15
ENDBRANCH   6  11
ENDBRANCH   3   5
ENDBRANCH   2   3
ENDBRANCH   1   2
BRANCH   1  23
ATOM     23  C   UNL     1       3.607  -1.306   4.268  1.00  0.00     0.275 C 
BRANCH  23  24
ATOM     24  O   UNL     1       4.598  -2.320   4.040  1.00  0.00    -0.458 OA
BRANCH  24  25
ATOM     25  C   UNL     1       4.115  -3.548   3.745  1.00  0.00     0.338 C 
ATOM     26  O   UNL     1       2.955  -3.914   3.747  1.00  0.00    -0.246 OA
BRANCH  25  27
ATOM     27  C   UNL     1       5.231  -4.402   3.316  1.00  0.00     0.060 A 
ATOM     28  C   UNL     1       5.716  -4.237   2.022  1.00  0.00     0.016 A 
ATOM     29  C   UNL     1       5.709  -5.430   4.121  1.00  0.00     0.016 A 
ATOM     30  C   UNL     1       6.638  -5.126   1.489  1.00  0.00     0.010 A 
ATOM     31  C   UNL     1       6.684  -6.293   3.609  1.00  0.00     0.010 A 
ATOM     32  C   UNL     1       7.134  -6.164   2.280  1.00  0.00    -0.014 A 
BRANCH  32  33
ATOM     33  C   UNL     1       8.041  -7.173   1.680  1.00  0.00     0.031 A 
ATOM     34  C   UNL     1       7.559  -8.588   1.535  1.00  0.00     0.074 A 
ATOM     35  C   UNL     1       9.259  -6.819   1.228  1.00  0.00     0.049 A 
ATOM     36  N   UNL     1       8.232  -9.669   1.243  1.00  0.00    -0.248 NA
ATOM     37  C   UNL     1       6.123  -8.813   1.764  1.00  0.00     0.031 C 
ATOM     38  C   UNL     1       9.795  -5.456   1.218  1.00  0.00     0.029 A 
ATOM     39  N   UNL     1      10.268  -7.576   0.689  1.00  0.00    -0.354 N 
ATOM     40  C   UNL     1       7.314 -10.713   1.308  1.00  0.00     0.074 A 
ATOM     41  C   UNL     1       6.038 -10.131   1.668  1.00  0.00     0.031 C 
ATOM     42  C   UNL     1      11.029  -5.473   0.690  1.00  0.00     0.029 A 
ATOM     43  C   UNL     1      11.405  -6.854   0.408  1.00  0.00     0.049 A 
ATOM     44  H   UNL     1      10.185  -8.542   0.519  1.00  0.00     0.167 HD
ATOM     45  C   UNL     1       7.529 -12.035   1.097  1.00  0.00     0.034 A 
ATOM     46  C   UNL     1      12.629  -7.269   0.027  1.00  0.00     0.034 A 
ATOM     47  C   UNL     1       8.809 -12.578   0.711  1.00  0.00     0.049 A 
ATOM     48  C   UNL     1      12.866  -8.748  -0.136  1.00  0.00     0.074 A 
ATOM     49  C   UNL     1       9.159 -13.898   0.488  1.00  0.00     0.029 A 
ATOM     50  N   UNL     1       9.953 -11.821   0.482  1.00  0.00    -0.354 N 
ATOM     51  N   UNL     1      12.022  -9.742   0.025  1.00  0.00    -0.248 NA
ATOM     52  C   UNL     1      14.223  -9.162  -0.512  1.00  0.00     0.031 C 
ATOM     53  C   UNL     1      10.524 -13.943   0.177  1.00  0.00     0.029 A 
ATOM     54  C   UNL     1      11.012 -12.646   0.141  1.00  0.00     0.049 A 
ATOM     55  H   UNL     1      10.002 -10.840   0.552  1.00  0.00     0.167 HD
ATOM     56  C   UNL     1      12.745 -10.900  -0.237  1.00  0.00     0.074 A 
ATOM     57  C   UNL     1      14.087 -10.478  -0.591  1.00  0.00     0.031 C 
ATOM     58  C   UNL     1      12.345 -12.197  -0.188  1.00  0.00     0.034 A 
BRANCH  45  59
ATOM     59  C   UNL     1       6.377 -12.972   1.365  1.00  0.00     0.023 A 
ATOM     60  C   UNL     1       5.198 -12.951   0.600  1.00  0.00     0.031 A 
ATOM     61  C   UNL     1       6.440 -13.863   2.453  1.00  0.00     0.131 A 
ATOM     62  C   UNL     1       4.105 -13.747   0.978  1.00  0.00     0.055 A 
ATOM     63  C   UNL     1       5.377 -14.708   2.776  1.00  0.00     0.041 A 
ATOM     64  F   UNL     1       7.529 -13.910   3.235  1.00  0.00    -0.206 F 
ATOM     65  C   UNL     1       4.194 -14.642   2.047  1.00  0.00     0.022 A 
BRANCH  62  66
ATOM     66  S   UNL     1       2.514 -13.491   0.143  1.00  0.00     0.124 S 
ATOM     67  O   UNL     1       2.252 -12.084   0.433  1.00  0.00    -0.237 OA
ATOM     68  O   UNL     1       2.831 -13.810  -1.244  1.00  0.00    -0.237 OA
ATOM     69  O   UNL     1       1.620 -14.435   0.812  1.00  0.00    -0.744 OA
ENDBRANCH  62  66
ENDBRANCH  45  59
BRANCH  46  70
ATOM     70  C   UNL     1      13.742  -6.289  -0.134  1.00  0.00     0.023 A 
ATOM     71  C   UNL     1      14.358  -6.083  -1.378  1.00  0.00     0.031 A 
ATOM     72  C   UNL     1      14.229  -5.565   0.971  1.00  0.00     0.131 A 
ATOM     73  C   UNL     1      15.444  -5.198  -1.482  1.00  0.00     0.055 A 
ATOM     74  C   UNL     1      15.274  -4.649   0.852  1.00  0.00     0.041 A 
ATOM     75  F   UNL     1      13.679  -5.727   2.185  1.00  0.00    -0.206 F 
ATOM     76  C   UNL     1      15.896  -4.469  -0.379  1.00  0.00     0.022 A 
BRANCH  73  77
ATOM     77  S   UNL     1      16.308  -5.062  -3.071  1.00  0.00     0.124 S 
ATOM     78  O   UNL     1      16.733  -6.438  -3.298  1.00  0.00    -0.237 OA
ATOM     79  O   UNL     1      15.254  -4.562  -3.947  1.00  0.00    -0.237 OA
ATOM     80  O   UNL     1      17.385  -4.113  -2.793  1.00  0.00    -0.744 OA
ENDBRANCH  73  77
ENDBRANCH  46  70
BRANCH  58  81
ATOM     81  C   UNL     1      13.373 -13.233  -0.557  1.00  0.00     0.023 A 
ATOM     82  C   UNL     1      14.477 -13.499   0.271  1.00  0.00     0.031 A 
ATOM     83  C   UNL     1      13.258 -13.945  -1.763  1.00  0.00     0.131 A 
ATOM     84  C   UNL     1      15.454 -14.416  -0.144  1.00  0.00     0.055 A 
ATOM     85  C   UNL     1      14.205 -14.895  -2.146  1.00  0.00     0.041 A 
ATOM     86  F   UNL     1      12.223 -13.725  -2.589  1.00  0.00    -0.206 F 
ATOM     87  C   UNL     1      15.317 -15.126  -1.340  1.00  0.00     0.022 A 
BRANCH  84  88
ATOM     88  S   UNL     1      16.951 -14.608   0.861  1.00  0.00     0.124 S 
ATOM     89  O   UNL     1      17.500 -13.256   0.849  1.00  0.00    -0.237 OA
ATOM     90  O   UNL     1      16.414 -15.068   2.138  1.00  0.00    -0.237 OA
ATOM     91  O   UNL     1      17.732 -15.601   0.126  1.00  0.00    -0.744 OA
ENDBRANCH  84  88
ENDBRANCH  58  81
ENDBRANCH  32  33
ENDBRANCH  25  27
ENDBRANCH  24  25
ENDBRANCH  23  24
ENDBRANCH   1  23
TORSDOF 18
