REMARK SMILES O=C(CCN1C(=O)/C(=C/c2c3ccccc3cc3ccccc23)SC1=S)OCCOC(=O)c1ccc(-c2c3nc(c(-c4cc(S(=O)(=O)[O-])ccc4F)c4ccc([nH]4)c(-c4cc(S(=O)(=O)[O-])ccc4F)c4nc(c(-c5cc(S(=O)(=O)[O-])ccc5F)c5ccc2[nH]5)C=C4)C=C3)cc1
REMARK SMILES IDX 28 1 27 2 2 3 1 4 3 5 4 6 5 7 6 8 25 9 7 10 8 11 24 12 26 13
REMARK SMILES IDX 9 14 10 15 11 16 23 17 12 18 16 19 18 20 22 21 13 22 15 23
REMARK SMILES IDX 17 24 19 25 21 26 14 27 20 28 29 29 30 30 31 31 32 32 33 33
REMARK SMILES IDX 34 34 95 35 35 36 94 37 36 38 37 39 38 40 88 41 39 42 93 43
REMARK SMILES IDX 87 44 89 45 40 46 92 47 86 48 85 49 41 51 73 52 53 53 72 54
REMARK SMILES IDX 54 55 57 56 71 57 90 58 55 59 56 60 70 62 91 63 58 64 42 65
REMARK SMILES IDX 43 66 51 67 44 68 50 69 52 70 49 71 45 72 46 73 47 74 48 75
REMARK SMILES IDX 74 76 75 77 83 78 76 79 82 80 84 81 81 82 77 83 78 84 79 85
REMARK SMILES IDX 80 86 59 87 60 88 68 89 61 90 67 91 69 92 66 93 62 94 63 95
REMARK SMILES IDX 64 96 65 97
REMARK H PARENT 89 50 57 61
REMARK Flexibility Score: inf
ROOT
ATOM      1  C   UNL     1       3.384  -0.542   1.247  1.00  0.00     0.274 C 
ENDROOT
BRANCH   1   2
ATOM      2  O   UNL     1       2.182   0.107   0.795  1.00  0.00    -0.462 OA
BRANCH   2   3
ATOM      3  C   UNL     1       2.296   1.274   0.102  1.00  0.00     0.307 C 
ATOM      4  O   UNL     1       1.720   2.291   0.468  1.00  0.00    -0.252 OA
BRANCH   3   5
ATOM      5  C   UNL     1       3.027   1.189  -1.217  1.00  0.00     0.144 C 
BRANCH   5   6
ATOM      6  C   UNL     1       4.131   2.232  -1.391  1.00  0.00     0.139 C 
BRANCH   6   7
ATOM      7  N   UNL     1       5.300   1.975  -0.540  1.00  0.00    -0.292 N 
ATOM      8  C   UNL     1       5.622   2.875   0.462  1.00  0.00     0.266 C 
ATOM      9  C   UNL     1       6.149   0.895  -0.667  1.00  0.00     0.148 C 
ATOM     10  O   UNL     1       5.090   3.955   0.672  1.00  0.00    -0.268 OA
ATOM     11  C   UNL     1       6.730   2.336   1.301  1.00  0.00     0.081 C 
ATOM     12  S   UNL     1       7.080   0.728   0.816  1.00  0.00    -0.054 SA
ATOM     13  S   UNL     1       6.313  -0.165  -1.940  1.00  0.00    -0.052 S 
ATOM     14  C   UNL     1       7.278   3.075   2.279  1.00  0.00     0.030 C 
BRANCH  14  15
ATOM     15  C   UNL     1       8.206   2.647   3.363  1.00  0.00    -0.009 A 
ATOM     16  C   UNL     1       9.429   1.950   3.101  1.00  0.00    -0.010 A 
ATOM     17  C   UNL     1       7.807   2.943   4.715  1.00  0.00    -0.010 A 
ATOM     18  C   UNL     1       9.998   1.756   1.817  1.00  0.00     0.009 A 
ATOM     19  C   UNL     1      10.139   1.403   4.193  1.00  0.00    -0.017 A 
ATOM     20  C   UNL     1       8.608   2.468   5.777  1.00  0.00    -0.017 A 
ATOM     21  C   UNL     1       6.652   3.689   5.081  1.00  0.00     0.009 A 
ATOM     22  C   UNL     1      11.110   0.937   1.607  1.00  0.00     0.001 A 
ATOM     23  C   UNL     1      11.262   0.585   3.974  1.00  0.00     0.009 A 
ATOM     24  C   UNL     1       9.728   1.677   5.502  1.00  0.00     0.017 A 
ATOM     25  C   UNL     1       8.284   2.772   7.112  1.00  0.00     0.009 A 
ATOM     26  C   UNL     1       6.342   3.990   6.410  1.00  0.00     0.001 A 
ATOM     27  C   UNL     1      11.728   0.329   2.688  1.00  0.00     0.001 A 
ATOM     28  C   UNL     1       7.165   3.538   7.428  1.00  0.00     0.001 A 
ENDBRANCH  14  15
ENDBRANCH   6   7
ENDBRANCH   5   6
ENDBRANCH   3   5
ENDBRANCH   2   3
ENDBRANCH   1   2
BRANCH   1  29
ATOM     29  C   UNL     1       3.507  -1.993   0.774  1.00  0.00     0.275 C 
BRANCH  29  30
ATOM     30  O   UNL     1       3.340  -2.077  -0.648  1.00  0.00    -0.458 OA
BRANCH  30  31
ATOM     31  C   UNL     1       2.062  -2.332  -1.040  1.00  0.00     0.338 C 
ATOM     32  O   UNL     1       1.146  -2.677  -0.322  1.00  0.00    -0.246 OA
BRANCH  31  33
ATOM     33  C   UNL     1       1.884  -1.908  -2.449  1.00  0.00     0.060 A 
ATOM     34  C   UNL     1       0.683  -1.266  -2.771  1.00  0.00     0.016 A 
ATOM     35  C   UNL     1       2.863  -2.101  -3.430  1.00  0.00     0.016 A 
ATOM     36  C   UNL     1       0.438  -0.856  -4.081  1.00  0.00     0.010 A 
ATOM     37  C   UNL     1       2.614  -1.690  -4.745  1.00  0.00     0.010 A 
ATOM     38  C   UNL     1       1.386  -1.094  -5.084  1.00  0.00    -0.014 A 
BRANCH  38  39
ATOM     39  C   UNL     1       1.006  -0.872  -6.502  1.00  0.00     0.031 A 
ATOM     40  C   UNL     1       0.505  -2.041  -7.306  1.00  0.00     0.074 A 
ATOM     41  C   UNL     1       1.038   0.356  -7.051  1.00  0.00     0.049 A 
ATOM     42  N   UNL     1       0.053  -2.074  -8.533  1.00  0.00    -0.248 NA
ATOM     43  C   UNL     1       0.512  -3.347  -6.629  1.00  0.00     0.031 C 
ATOM     44  C   UNL     1       1.468   1.576  -6.370  1.00  0.00     0.029 A 
ATOM     45  N   UNL     1       0.693   0.779  -8.312  1.00  0.00    -0.354 N 
ATOM     46  C   UNL     1      -0.300  -3.398  -8.769  1.00  0.00     0.074 A 
ATOM     47  C   UNL     1       0.046  -4.144  -7.577  1.00  0.00     0.031 C 
ATOM     48  C   UNL     1       1.359   2.612  -7.222  1.00  0.00     0.029 A 
ATOM     49  C   UNL     1       0.875   2.127  -8.514  1.00  0.00     0.049 A 
ATOM     50  H   UNL     1       0.348   0.173  -9.006  1.00  0.00     0.167 HD
ATOM     51  C   UNL     1      -0.879  -3.942  -9.868  1.00  0.00     0.034 A 
ATOM     52  C   UNL     1       0.680   2.880  -9.617  1.00  0.00     0.034 A 
ATOM     53  C   UNL     1      -1.193  -3.201 -11.065  1.00  0.00     0.049 A 
ATOM     54  C   UNL     1       0.140   2.231 -10.871  1.00  0.00     0.074 A 
ATOM     55  C   UNL     1      -1.782  -3.657 -12.231  1.00  0.00     0.029 A 
ATOM     56  N   UNL     1      -0.927  -1.852 -11.258  1.00  0.00    -0.354 N 
ATOM     57  N   UNL     1      -0.216   0.982 -11.071  1.00  0.00    -0.248 NA
ATOM     58  C   UNL     1      -0.035   3.098 -12.045  1.00  0.00     0.031 C 
ATOM     59  C   UNL     1      -1.806  -2.605 -13.153  1.00  0.00     0.029 A 
ATOM     60  C   UNL     1      -1.304  -1.470 -12.537  1.00  0.00     0.049 A 
ATOM     61  H   UNL     1      -0.528  -1.254 -10.585  1.00  0.00     0.167 HD
ATOM     62  C   UNL     1      -0.691   0.927 -12.380  1.00  0.00     0.074 A 
ATOM     63  C   UNL     1      -0.582   2.266 -12.919  1.00  0.00     0.031 C 
ATOM     64  C   UNL     1      -1.182  -0.134 -13.071  1.00  0.00     0.034 A 
BRANCH  51  65
ATOM     65  C   UNL     1      -1.166  -5.422  -9.830  1.00  0.00     0.023 A 
ATOM     66  C   UNL     1      -2.093  -5.968  -8.925  1.00  0.00     0.031 A 
ATOM     67  C   UNL     1      -0.475  -6.303 -10.680  1.00  0.00     0.131 A 
ATOM     68  C   UNL     1      -2.253  -7.359  -8.841  1.00  0.00     0.055 A 
ATOM     69  C   UNL     1      -0.696  -7.681 -10.645  1.00  0.00     0.041 A 
ATOM     70  F   UNL     1       0.439  -5.840 -11.546  1.00  0.00    -0.206 F 
ATOM     71  C   UNL     1      -1.579  -8.217  -9.711  1.00  0.00     0.022 A 
BRANCH  68  72
ATOM     72  S   UNL     1      -3.245  -8.037  -7.482  1.00  0.00     0.124 S 
ATOM     73  O   UNL     1      -2.543  -7.512  -6.314  1.00  0.00    -0.237 OA
ATOM     74  O   UNL     1      -4.564  -7.473  -7.742  1.00  0.00    -0.237 OA
ATOM     75  O   UNL     1      -3.136  -9.482  -7.668  1.00  0.00    -0.744 OA
ENDBRANCH  68  72
ENDBRANCH  51  65
BRANCH  52  76
ATOM     76  C   UNL     1       1.023   4.331  -9.614  1.00  0.00     0.023 A 
ATOM     77  C   UNL     1       0.037   5.314  -9.801  1.00  0.00     0.031 A 
ATOM     78  C   UNL     1       2.360   4.751  -9.500  1.00  0.00     0.131 A 
ATOM     79  C   UNL     1       0.409   6.662  -9.920  1.00  0.00     0.055 A 
ATOM     80  C   UNL     1       2.719   6.098  -9.568  1.00  0.00     0.041 A 
ATOM     81  F   UNL     1       3.341   3.852  -9.323  1.00  0.00    -0.206 F 
ATOM     82  C   UNL     1       1.741   7.062  -9.793  1.00  0.00     0.022 A 
BRANCH  79  83
ATOM     83  S   UNL     1      -0.868   7.883 -10.335  1.00  0.00     0.124 S 
ATOM     84  O   UNL     1      -1.358   7.377 -11.611  1.00  0.00    -0.237 OA
ATOM     85  O   UNL     1      -1.780   7.763  -9.203  1.00  0.00    -0.237 OA
ATOM     86  O   UNL     1      -0.126   9.140 -10.404  1.00  0.00    -0.744 OA
ENDBRANCH  79  83
ENDBRANCH  52  76
BRANCH  64  87
ATOM     87  C   UNL     1      -1.685   0.123 -14.472  1.00  0.00     0.023 A 
ATOM     88  C   UNL     1      -0.818   0.477 -15.521  1.00  0.00     0.031 A 
ATOM     89  C   UNL     1      -3.057   0.008 -14.760  1.00  0.00     0.131 A 
ATOM     90  C   UNL     1      -1.338   0.749 -16.797  1.00  0.00     0.055 A 
ATOM     91  C   UNL     1      -3.561   0.225 -16.044  1.00  0.00     0.041 A 
ATOM     92  F   UNL     1      -3.931  -0.327 -13.798  1.00  0.00    -0.206 F 
ATOM     93  C   UNL     1      -2.701   0.609 -17.068  1.00  0.00     0.022 A 
BRANCH  90  94
ATOM     94  S   UNL     1      -0.217   1.363 -18.085  1.00  0.00     0.124 S 
ATOM     95  O   UNL     1       0.304   2.584 -17.478  1.00  0.00    -0.237 OA
ATOM     96  O   UNL     1       0.733   0.265 -18.223  1.00  0.00    -0.237 OA
ATOM     97  O   UNL     1      -1.096   1.569 -19.235  1.00  0.00    -0.744 OA
ENDBRANCH  90  94
ENDBRANCH  64  87
ENDBRANCH  38  39
ENDBRANCH  31  33
ENDBRANCH  30  31
ENDBRANCH  29  30
ENDBRANCH   1  29
TORSDOF 17
