REMARK SMILES COc1ccc(CCn2cc(C(=O)OCCOC(=O)c3ccc(-c4c5nc(c(-c6cc(S(=O)(=O)[O-])ccc6F)c6ccc([nH]6)c(-c6cc(S(=O)(=O)[O-])ccc6F)c6nc(c(-c7cc(S(=O)(=O)[O-])ccc7F)c7ccc4[nH]7)C=C6)C=C5)cc3)ccc2=O)cc1OC
REMARK SMILES IDX 15 1 14 2 12 3 13 4 11 5 9 6 10 7 85 8 84 9 86 10 83 11 8 12
REMARK SMILES IDX 7 13 6 14 3 15 4 16 88 17 5 18 87 19 2 20 1 21 89 22 90 23
REMARK SMILES IDX 16 24 17 25 18 26 19 27 20 28 21 29 82 30 22 31 81 32 23 33
REMARK SMILES IDX 24 34 25 35 75 36 26 37 80 38 74 39 76 40 27 41 79 42 73 43
REMARK SMILES IDX 72 44 28 46 60 47 40 48 59 49 41 50 44 51 58 52 77 53 42 54
REMARK SMILES IDX 43 55 57 57 78 58 45 59 29 60 30 61 38 62 31 63 37 64 39 65
REMARK SMILES IDX 36 66 32 67 33 68 34 69 35 70 61 71 62 72 70 73 63 74 69 75
REMARK SMILES IDX 71 76 68 77 64 78 65 79 66 80 67 81 46 82 47 83 55 84 48 85
REMARK SMILES IDX 54 86 56 87 53 88 49 89 50 90 51 91 52 92
REMARK H PARENT 76 45 44 56
REMARK Flexibility Score: inf
ROOT
ATOM      1  C   UNL     1      -0.967  -8.961  -6.470  1.00  0.00     0.275 C 
ENDROOT
BRANCH   1   2
ATOM      2  O   UNL     1      -0.633  -7.577  -6.222  1.00  0.00    -0.458 OA
BRANCH   2   3
ATOM      3  C   UNL     1      -1.285  -6.694  -7.021  1.00  0.00     0.339 C 
ATOM      4  O   UNL     1      -2.104  -6.992  -7.882  1.00  0.00    -0.246 OA
BRANCH   3   5
ATOM      5  C   UNL     1      -0.917  -5.278  -6.763  1.00  0.00     0.076 A 
ATOM      6  N   UNL     1       0.711  -3.536  -6.708  1.00  0.00    -0.314 N 
ATOM      7  C   UNL     1       0.363  -4.889  -6.636  1.00  0.00     0.104 A 
ATOM      8  C   UNL     1      -0.223  -2.572  -7.110  1.00  0.00     0.250 A 
ATOM      9  C   UNL     1      -1.641  -2.969  -6.981  1.00  0.00     0.072 A 
ATOM     10  O   UNL     1       0.041  -1.441  -7.502  1.00  0.00    -0.269 OA
ATOM     11  C   UNL     1      -1.944  -4.258  -6.809  1.00  0.00     0.023 A 
BRANCH   6  12
ATOM     12  C   UNL     1       2.119  -3.152  -6.593  1.00  0.00     0.130 C 
BRANCH  12  13
ATOM     13  C   UNL     1       2.426  -1.830  -5.858  1.00  0.00     0.057 C 
BRANCH  13  14
ATOM     14  C   UNL     1       2.105  -1.755  -4.382  1.00  0.00    -0.042 A 
ATOM     15  C   UNL     1       1.542  -1.315  -1.645  1.00  0.00     0.160 A 
ATOM     16  C   UNL     1       0.521  -1.654  -2.539  1.00  0.00     0.051 A 
ATOM     17  C   UNL     1       2.862  -1.233  -2.107  1.00  0.00     0.160 A 
ATOM     18  C   UNL     1       0.798  -1.849  -3.895  1.00  0.00     0.008 A 
ATOM     19  C   UNL     1       3.126  -1.460  -3.467  1.00  0.00     0.054 A 
BRANCH  15  20
ATOM     20  O   UNL     1       1.255  -1.131  -0.318  1.00  0.00    -0.493 OA
ATOM     21  C   UNL     1       0.208  -0.181  -0.100  1.00  0.00     0.278 C 
ENDBRANCH  15  20
BRANCH  17  22
ATOM     22  O   UNL     1       3.993  -0.935  -1.391  1.00  0.00    -0.493 OA
ATOM     23  C   UNL     1       3.822  -0.296  -0.135  1.00  0.00     0.278 C 
ENDBRANCH  17  22
ENDBRANCH  13  14
ENDBRANCH  12  13
ENDBRANCH   6  12
ENDBRANCH   3   5
ENDBRANCH   2   3
ENDBRANCH   1   2
BRANCH   1  24
ATOM     24  C   UNL     1      -2.052  -9.475  -5.523  1.00  0.00     0.275 C 
BRANCH  24  25
ATOM     25  O   UNL     1      -3.274  -8.736  -5.697  1.00  0.00    -0.458 OA
BRANCH  25  26
ATOM     26  C   UNL     1      -3.700  -8.056  -4.606  1.00  0.00     0.338 C 
ATOM     27  O   UNL     1      -3.179  -8.040  -3.505  1.00  0.00    -0.246 OA
BRANCH  26  28
ATOM     28  C   UNL     1      -4.911  -7.276  -4.917  1.00  0.00     0.060 A 
ATOM     29  C   UNL     1      -4.874  -6.320  -5.926  1.00  0.00     0.016 A 
ATOM     30  C   UNL     1      -6.026  -7.361  -4.087  1.00  0.00     0.016 A 
ATOM     31  C   UNL     1      -5.870  -5.347  -6.005  1.00  0.00     0.010 A 
ATOM     32  C   UNL     1      -7.093  -6.470  -4.264  1.00  0.00     0.010 A 
ATOM     33  C   UNL     1      -7.007  -5.411  -5.187  1.00  0.00    -0.014 A 
BRANCH  33  34
ATOM     34  C   UNL     1      -8.069  -4.357  -5.258  1.00  0.00     0.031 A 
ATOM     35  C   UNL     1      -8.510  -3.634  -4.005  1.00  0.00     0.074 A 
ATOM     36  C   UNL     1      -8.640  -4.026  -6.435  1.00  0.00     0.049 A 
ATOM     37  N   UNL     1      -9.553  -2.865  -3.811  1.00  0.00    -0.248 NA
ATOM     38  C   UNL     1      -7.678  -3.822  -2.807  1.00  0.00     0.031 C 
ATOM     39  C   UNL     1      -8.294  -4.595  -7.739  1.00  0.00     0.029 A 
ATOM     40  N   UNL     1      -9.630  -3.118  -6.730  1.00  0.00    -0.354 N 
ATOM     41  C   UNL     1      -9.544  -2.540  -2.456  1.00  0.00     0.074 A 
ATOM     42  C   UNL     1      -8.393  -3.202  -1.879  1.00  0.00     0.031 C 
ATOM     43  C   UNL     1      -9.013  -3.989  -8.694  1.00  0.00     0.029 A 
ATOM     44  C   UNL     1      -9.957  -3.072  -8.067  1.00  0.00     0.049 A 
ATOM     45  H   UNL     1     -10.065  -2.555  -6.050  1.00  0.00     0.167 HD
ATOM     46  C   UNL     1     -10.418  -1.768  -1.760  1.00  0.00     0.034 A 
ATOM     47  C   UNL     1     -10.938  -2.417  -8.719  1.00  0.00     0.034 A 
ATOM     48  C   UNL     1     -11.526  -1.062  -2.360  1.00  0.00     0.049 A 
ATOM     49  C   UNL     1     -11.907  -1.582  -7.928  1.00  0.00     0.074 A 
ATOM     50  C   UNL     1     -12.464  -0.244  -1.751  1.00  0.00     0.029 A 
ATOM     51  N   UNL     1     -11.836  -1.073  -3.714  1.00  0.00    -0.354 N 
ATOM     52  N   UNL     1     -11.947  -1.369  -6.634  1.00  0.00    -0.248 NA
ATOM     53  C   UNL     1     -12.977  -0.919  -8.685  1.00  0.00     0.031 C 
ATOM     54  C   UNL     1     -13.367   0.197  -2.726  1.00  0.00     0.029 A 
ATOM     55  C   UNL     1     -12.958  -0.293  -3.955  1.00  0.00     0.049 A 
ATOM     56  H   UNL     1     -11.334  -1.565  -4.403  1.00  0.00     0.167 HD
ATOM     57  C   UNL     1     -13.048  -0.546  -6.422  1.00  0.00     0.074 A 
ATOM     58  C   UNL     1     -13.627  -0.280  -7.723  1.00  0.00     0.031 C 
ATOM     59  C   UNL     1     -13.539  -0.058  -5.255  1.00  0.00     0.034 A 
BRANCH  46  60
ATOM     60  C   UNL     1     -10.246  -1.704  -0.259  1.00  0.00     0.023 A 
ATOM     61  C   UNL     1      -9.117  -1.124   0.345  1.00  0.00     0.031 A 
ATOM     62  C   UNL     1     -11.222  -2.271   0.583  1.00  0.00     0.131 A 
ATOM     63  C   UNL     1      -8.956  -1.193   1.739  1.00  0.00     0.055 A 
ATOM     64  C   UNL     1     -11.094  -2.265   1.973  1.00  0.00     0.041 A 
ATOM     65  F   UNL     1     -12.314  -2.856   0.065  1.00  0.00    -0.206 F 
ATOM     66  C   UNL     1      -9.947  -1.739   2.558  1.00  0.00     0.022 A 
BRANCH  63  67
ATOM     67  S   UNL     1      -7.365  -0.694   2.454  1.00  0.00     0.124 S 
ATOM     68  O   UNL     1      -6.433  -1.567   1.744  1.00  0.00    -0.237 OA
ATOM     69  O   UNL     1      -7.296   0.723   2.114  1.00  0.00    -0.237 OA
ATOM     70  O   UNL     1      -7.520  -0.988   3.877  1.00  0.00    -0.744 OA
ENDBRANCH  63  67
ENDBRANCH  46  60
BRANCH  47  71
ATOM     71  C   UNL     1     -11.107  -2.597 -10.189  1.00  0.00     0.023 A 
ATOM     72  C   UNL     1     -10.913  -1.529 -11.079  1.00  0.00     0.031 A 
ATOM     73  C   UNL     1     -11.476  -3.845 -10.724  1.00  0.00     0.131 A 
ATOM     74  C   UNL     1     -11.110  -1.725 -12.455  1.00  0.00     0.055 A 
ATOM     75  C   UNL     1     -11.621  -4.047 -12.096  1.00  0.00     0.041 A 
ATOM     76  F   UNL     1     -11.674  -4.898  -9.914  1.00  0.00    -0.206 F 
ATOM     77  C   UNL     1     -11.446  -2.980 -12.970  1.00  0.00     0.022 A 
BRANCH  74  78
ATOM     78  S   UNL     1     -10.977  -0.297 -13.566  1.00  0.00     0.124 S 
ATOM     79  O   UNL     1     -12.015   0.584 -13.043  1.00  0.00    -0.237 OA
ATOM     80  O   UNL     1      -9.600   0.131 -13.346  1.00  0.00    -0.237 OA
ATOM     81  O   UNL     1     -11.247  -0.866 -14.885  1.00  0.00    -0.744 OA
ENDBRANCH  74  78
ENDBRANCH  47  71
BRANCH  59  82
ATOM     82  C   UNL     1     -14.748   0.836  -5.354  1.00  0.00     0.023 A 
ATOM     83  C   UNL     1     -16.009   0.328  -5.713  1.00  0.00     0.031 A 
ATOM     84  C   UNL     1     -14.629   2.216  -5.120  1.00  0.00     0.131 A 
ATOM     85  C   UNL     1     -17.092   1.204  -5.879  1.00  0.00     0.055 A 
ATOM     86  C   UNL     1     -15.721   3.076  -5.239  1.00  0.00     0.041 A 
ATOM     87  F   UNL     1     -13.446   2.751  -4.778  1.00  0.00    -0.206 F 
ATOM     88  C   UNL     1     -16.958   2.574  -5.633  1.00  0.00     0.022 A 
BRANCH  85  89
ATOM     89  S   UNL     1     -18.661   0.543  -6.505  1.00  0.00     0.124 S 
ATOM     90  O   UNL     1     -18.264  -0.015  -7.793  1.00  0.00    -0.237 OA
ATOM     91  O   UNL     1     -19.025  -0.425  -5.475  1.00  0.00    -0.237 OA
ATOM     92  O   UNL     1     -19.524   1.721  -6.579  1.00  0.00    -0.744 OA
ENDBRANCH  85  89
ENDBRANCH  59  82
ENDBRANCH  33  34
ENDBRANCH  26  28
ENDBRANCH  25  26
ENDBRANCH  24  25
ENDBRANCH   1  24
TORSDOF 19
