REMARK SMILES CSCC[C@H](NC(=O)Cc1c(C)c2ccc(O)cc2oc1=O)C(=O)OCCOC(=O)c1ccc(-c2c3nc(c(-c4cc(S(=O)(=O)[O-])ccc4F)c4ccc([nH]4)c(-c4cc(S(=O)(=O)[O-])ccc4F)c4nc(c(-c5cc(S(=O)(=O)[O-])ccc5F)c5ccc2[nH]5)C=C4)C=C3)cc1
REMARK SMILES IDX 26 1 25 2 23 3 24 4 5 5 4 6 3 7 2 8 1 9 6 10 7 11 8 13 9 14
REMARK SMILES IDX 10 15 11 16 21 17 12 18 13 19 20 20 22 21 14 22 19 23 15 24
REMARK SMILES IDX 18 25 16 26 17 27 27 29 28 30 29 31 30 32 31 33 32 34 93 35
REMARK SMILES IDX 33 36 92 37 34 38 35 39 36 40 86 41 37 42 91 43 85 44 87 45
REMARK SMILES IDX 38 46 90 47 84 48 83 49 39 51 71 52 51 53 70 54 52 55 55 56
REMARK SMILES IDX 69 57 88 58 53 59 54 60 68 62 89 63 56 64 40 65 41 66 49 67
REMARK SMILES IDX 42 68 48 69 50 70 47 71 43 72 44 73 45 74 46 75 72 76 73 77
REMARK SMILES IDX 81 78 74 79 80 80 82 81 79 82 75 83 76 84 77 85 78 86 57 87
REMARK SMILES IDX 58 88 66 89 59 90 65 91 67 92 64 93 60 94 61 95 62 96 63 97
REMARK H PARENT 6 12 17 28 87 50 55 61
REMARK Flexibility Score: inf
ROOT
ATOM      1  C   UNL     1      -0.185  -6.133  -1.853  1.00  0.00     0.274 C 
ENDROOT
BRANCH   1   2
ATOM      2  O   UNL     1       0.123  -5.199  -0.799  1.00  0.00    -0.461 OA
BRANCH   2   3
ATOM      3  C   UNL     1       1.046  -4.257  -1.107  1.00  0.00     0.328 C 
ATOM      4  O   UNL     1       1.643  -4.201  -2.178  1.00  0.00    -0.250 OA
BRANCH   3   5
ATOM      5  C   UNL     1       1.303  -3.249   0.029  1.00  0.00     0.193 C 
BRANCH   5   6
ATOM      6  C   UNL     1       2.796  -3.294   0.405  1.00  0.00     0.048 C 
BRANCH   6   7
ATOM      7  C   UNL     1       3.214  -4.360   1.427  1.00  0.00     0.072 C 
BRANCH   7   8
ATOM      8  S   UNL     1       2.937  -6.096   0.930  1.00  0.00    -0.165 SA
ATOM      9  C   UNL     1       1.451  -6.489   1.895  1.00  0.00     0.085 C 
ENDBRANCH   7   8
ENDBRANCH   6   7
ENDBRANCH   5   6
BRANCH   5  10
ATOM     10  N   UNL     1       0.483  -3.169   1.246  1.00  0.00    -0.342 N 
ATOM     11  C   UNL     1      -0.102  -2.070   1.820  1.00  0.00     0.225 C 
ATOM     12  H   UNL     1       0.334  -4.022   1.714  1.00  0.00     0.164 HD
ATOM     13  O   UNL     1      -0.204  -2.057   3.049  1.00  0.00    -0.275 OA
BRANCH  11  14
ATOM     14  C   UNL     1      -0.697  -0.955   0.962  1.00  0.00     0.143 C 
BRANCH  14  15
ATOM     15  C   UNL     1       0.084   0.325   0.868  1.00  0.00     0.051 A 
ATOM     16  C   UNL     1      -0.264   1.543   1.345  1.00  0.00    -0.029 A 
ATOM     17  C   UNL     1       1.254   0.319  -0.048  1.00  0.00     0.340 A 
ATOM     18  C   UNL     1      -1.534   1.784   2.112  1.00  0.00     0.046 C 
ATOM     19  C   UNL     1       0.642   2.671   1.016  1.00  0.00     0.021 A 
ATOM     20  O   UNL     1       2.328   1.017   0.434  1.00  0.00    -0.422 OA
ATOM     21  O   UNL     1       1.291  -0.324  -1.087  1.00  0.00    -0.246 OA
ATOM     22  C   UNL     1       0.306   4.027   1.071  1.00  0.00     0.016 A 
ATOM     23  C   UNL     1       1.938   2.345   0.582  1.00  0.00     0.142 A 
ATOM     24  C   UNL     1       1.239   5.009   0.699  1.00  0.00     0.047 A 
ATOM     25  C   UNL     1       2.881   3.306   0.232  1.00  0.00     0.094 A 
ATOM     26  C   UNL     1       2.515   4.639   0.282  1.00  0.00     0.119 A 
BRANCH  26  27
ATOM     27  O   UNL     1       3.435   5.564  -0.109  1.00  0.00    -0.508 OA
ATOM     28  H   UNL     1       3.220   6.476  -0.088  1.00  0.00     0.293 HD
ENDBRANCH  26  27
ENDBRANCH  14  15
ENDBRANCH  11  14
ENDBRANCH   5  10
ENDBRANCH   3   5
ENDBRANCH   2   3
ENDBRANCH   1   2
BRANCH   1  29
ATOM     29  C   UNL     1      -1.699  -6.211  -2.027  1.00  0.00     0.275 C 
BRANCH  29  30
ATOM     30  O   UNL     1      -2.193  -4.952  -2.515  1.00  0.00    -0.458 OA
BRANCH  30  31
ATOM     31  C   UNL     1      -2.532  -4.067  -1.550  1.00  0.00     0.338 C 
ATOM     32  O   UNL     1      -2.578  -4.248  -0.347  1.00  0.00    -0.246 OA
BRANCH  31  33
ATOM     33  C   UNL     1      -2.735  -2.753  -2.166  1.00  0.00     0.060 A 
ATOM     34  C   UNL     1      -1.641  -1.900  -2.272  1.00  0.00     0.016 A 
ATOM     35  C   UNL     1      -4.012  -2.320  -2.506  1.00  0.00     0.016 A 
ATOM     36  C   UNL     1      -1.837  -0.567  -2.612  1.00  0.00     0.010 A 
ATOM     37  C   UNL     1      -4.184  -1.012  -2.970  1.00  0.00     0.010 A 
ATOM     38  C   UNL     1      -3.101  -0.115  -3.010  1.00  0.00    -0.014 A 
BRANCH  38  39
ATOM     39  C   UNL     1      -3.276   1.274  -3.516  1.00  0.00     0.031 A 
ATOM     40  C   UNL     1      -4.269   2.203  -2.875  1.00  0.00     0.074 A 
ATOM     41  C   UNL     1      -2.551   1.686  -4.576  1.00  0.00     0.049 A 
ATOM     42  N   UNL     1      -4.729   3.348  -3.308  1.00  0.00    -0.248 NA
ATOM     43  C   UNL     1      -4.825   1.782  -1.580  1.00  0.00     0.031 C 
ATOM     44  C   UNL     1      -1.509   0.902  -5.247  1.00  0.00     0.029 A 
ATOM     45  N   UNL     1      -2.580   2.862  -5.283  1.00  0.00    -0.354 N 
ATOM     46  C   UNL     1      -5.664   3.766  -2.367  1.00  0.00     0.074 A 
ATOM     47  C   UNL     1      -5.708   2.743  -1.342  1.00  0.00     0.031 C 
ATOM     48  C   UNL     1      -0.982   1.626  -6.242  1.00  0.00     0.029 A 
ATOM     49  C   UNL     1      -1.727   2.870  -6.363  1.00  0.00     0.049 A 
ATOM     50  H   UNL     1      -3.154   3.624  -5.042  1.00  0.00     0.167 HD
ATOM     51  C   UNL     1      -6.416   4.896  -2.370  1.00  0.00     0.034 A 
ATOM     52  C   UNL     1      -1.604   3.739  -7.384  1.00  0.00     0.034 A 
ATOM     53  C   UNL     1      -6.334   5.906  -3.400  1.00  0.00     0.049 A 
ATOM     54  C   UNL     1      -2.522   4.928  -7.423  1.00  0.00     0.074 A 
ATOM     55  C   UNL     1      -7.029   7.100  -3.498  1.00  0.00     0.029 A 
ATOM     56  N   UNL     1      -5.510   5.838  -4.518  1.00  0.00    -0.354 N 
ATOM     57  N   UNL     1      -3.440   5.288  -6.557  1.00  0.00    -0.248 NA
ATOM     58  C   UNL     1      -2.403   5.812  -8.587  1.00  0.00     0.031 C 
ATOM     59  C   UNL     1      -6.677   7.716  -4.704  1.00  0.00     0.029 A 
ATOM     60  C   UNL     1      -5.709   6.946  -5.329  1.00  0.00     0.049 A 
ATOM     61  H   UNL     1      -4.876   5.109  -4.706  1.00  0.00     0.167 HD
ATOM     62  C   UNL     1      -4.010   6.446  -7.072  1.00  0.00     0.074 A 
ATOM     63  C   UNL     1      -3.310   6.738  -8.308  1.00  0.00     0.031 C 
ATOM     64  C   UNL     1      -5.023   7.199  -6.574  1.00  0.00     0.034 A 
BRANCH  51  65
ATOM     65  C   UNL     1      -7.433   5.062  -1.266  1.00  0.00     0.023 A 
ATOM     66  C   UNL     1      -7.058   5.194   0.081  1.00  0.00     0.031 A 
ATOM     67  C   UNL     1      -8.808   5.057  -1.567  1.00  0.00     0.131 A 
ATOM     68  C   UNL     1      -8.042   5.243   1.082  1.00  0.00     0.055 A 
ATOM     69  C   UNL     1      -9.782   5.184  -0.574  1.00  0.00     0.041 A 
ATOM     70  F   UNL     1      -9.230   4.915  -2.833  1.00  0.00    -0.206 F 
ATOM     71  C   UNL     1      -9.402   5.262   0.762  1.00  0.00     0.022 A 
BRANCH  68  72
ATOM     72  S   UNL     1      -7.518   5.133   2.815  1.00  0.00     0.124 S 
ATOM     73  O   UNL     1      -6.773   3.876   2.820  1.00  0.00    -0.237 OA
ATOM     74  O   UNL     1      -6.723   6.345   2.981  1.00  0.00    -0.237 OA
ATOM     75  O   UNL     1      -8.779   5.106   3.554  1.00  0.00    -0.744 OA
ENDBRANCH  68  72
ENDBRANCH  51  65
BRANCH  52  76
ATOM     76  C   UNL     1      -0.649   3.460  -8.494  1.00  0.00     0.023 A 
ATOM     77  C   UNL     1       0.429   4.317  -8.753  1.00  0.00     0.031 A 
ATOM     78  C   UNL     1      -0.811   2.333  -9.324  1.00  0.00     0.131 A 
ATOM     79  C   UNL     1       1.289   4.050  -9.830  1.00  0.00     0.055 A 
ATOM     80  C   UNL     1       0.080   2.040 -10.355  1.00  0.00     0.041 A 
ATOM     81  F   UNL     1      -1.831   1.482  -9.124  1.00  0.00    -0.206 F 
ATOM     82  C   UNL     1       1.134   2.908 -10.620  1.00  0.00     0.022 A 
BRANCH  79  83
ATOM     83  S   UNL     1       2.574   5.264 -10.235  1.00  0.00     0.124 S 
ATOM     84  O   UNL     1       1.782   6.465 -10.475  1.00  0.00    -0.237 OA
ATOM     85  O   UNL     1       3.385   5.263  -9.022  1.00  0.00    -0.237 OA
ATOM     86  O   UNL     1       3.220   4.695 -11.415  1.00  0.00    -0.744 OA
ENDBRANCH  79  83
ENDBRANCH  52  76
BRANCH  64  87
ATOM     87  C   UNL     1      -5.411   8.415  -7.373  1.00  0.00     0.023 A 
ATOM     88  C   UNL     1      -6.034   8.297  -8.628  1.00  0.00     0.031 A 
ATOM     89  C   UNL     1      -5.130   9.704  -6.889  1.00  0.00     0.131 A 
ATOM     90  C   UNL     1      -6.309   9.447  -9.380  1.00  0.00     0.055 A 
ATOM     91  C   UNL     1      -5.459  10.848  -7.617  1.00  0.00     0.041 A 
ATOM     92  F   UNL     1      -4.530   9.872  -5.699  1.00  0.00    -0.206 F 
ATOM     93  C   UNL     1      -6.041  10.723  -8.876  1.00  0.00     0.022 A 
BRANCH  90  94
ATOM     94  S   UNL     1      -6.948   9.252 -11.066  1.00  0.00     0.124 S 
ATOM     95  O   UNL     1      -5.865   8.522 -11.717  1.00  0.00    -0.237 OA
ATOM     96  O   UNL     1      -8.182   8.503 -10.849  1.00  0.00    -0.237 OA
ATOM     97  O   UNL     1      -7.132  10.628 -11.524  1.00  0.00    -0.744 OA
ENDBRANCH  90  94
ENDBRANCH  64  87
ENDBRANCH  38  39
ENDBRANCH  31  33
ENDBRANCH  30  31
ENDBRANCH  29  30
ENDBRANCH   1  29
TORSDOF 21
