REMARK SMILES O=C(OCCOC(=O)c1ccc(S(=O)(=O)Cc2ncccn2)c(F)c1)c1ccc(-c2c3nc(c(-c4cc(S(=O)(=O)[O-])ccc4F)c4ccc([nH]4)c(-c4cc(S(=O)(=O)[O-])ccc4F)c4nc(c(-c5cc(S(=O)(=O)[O-])ccc5F)c5ccc2[nH]5)C=C4)C=C3)cc1
REMARK SMILES IDX 4 1 3 2 2 3 1 4 26 5 27 6 88 7 28 8 87 9 29 10 30 11 31 12
REMARK SMILES IDX 81 13 32 14 86 15 80 16 82 17 33 18 85 19 79 20 78 21 34 23
REMARK SMILES IDX 66 24 46 25 65 26 47 27 50 28 64 29 83 30 48 31 49 32 63 34
REMARK SMILES IDX 84 35 51 36 35 37 36 38 44 39 37 40 43 41 45 42 42 43 38 44
REMARK SMILES IDX 39 45 40 46 41 47 67 48 68 49 76 50 69 51 75 52 77 53 74 54
REMARK SMILES IDX 70 55 71 56 72 57 73 58 52 59 53 60 61 61 54 62 60 63 62 64
REMARK SMILES IDX 59 65 55 66 56 67 57 68 58 69 5 70 6 71 7 72 8 73 9 74 10 75
REMARK SMILES IDX 25 76 11 77 23 78 12 79 24 80 13 81 14 82 15 83 16 84 17 85
REMARK SMILES IDX 18 86 22 87 19 88 21 89 20 90
REMARK H PARENT 82 22 50 33
REMARK Flexibility Score: inf
ROOT
ATOM      1  C   UNL     1       4.184  -1.512  -0.110  1.00  0.00     0.275 C 
ENDROOT
BRANCH   1   2
ATOM      2  O   UNL     1       3.140  -0.827   0.602  1.00  0.00    -0.458 OA
BRANCH   2   3
ATOM      3  C   UNL     1       3.187   0.424   1.122  1.00  0.00     0.338 C 
ATOM      4  O   UNL     1       2.491   0.684   2.102  1.00  0.00    -0.246 OA
BRANCH   3   5
ATOM      5  C   UNL     1       3.844   1.562   0.402  1.00  0.00     0.060 A 
ATOM      6  C   UNL     1       5.056   1.516  -0.291  1.00  0.00     0.016 A 
ATOM      7  C   UNL     1       3.168   2.795   0.457  1.00  0.00     0.016 A 
ATOM      8  C   UNL     1       5.549   2.642  -0.963  1.00  0.00     0.010 A 
ATOM      9  C   UNL     1       3.642   3.914  -0.232  1.00  0.00     0.010 A 
ATOM     10  C   UNL     1       4.844   3.846  -0.945  1.00  0.00    -0.014 A 
BRANCH  10  11
ATOM     11  C   UNL     1       5.440   5.078  -1.512  1.00  0.00     0.031 A 
ATOM     12  C   UNL     1       5.962   6.114  -0.557  1.00  0.00     0.074 A 
ATOM     13  C   UNL     1       5.534   5.263  -2.842  1.00  0.00     0.049 A 
ATOM     14  N   UNL     1       6.449   7.300  -0.802  1.00  0.00    -0.248 NA
ATOM     15  C   UNL     1       5.940   5.753   0.871  1.00  0.00     0.031 C 
ATOM     16  C   UNL     1       5.124   4.300  -3.864  1.00  0.00     0.029 A 
ATOM     17  N   UNL     1       5.985   6.339  -3.565  1.00  0.00    -0.354 N 
ATOM     18  C   UNL     1       6.811   7.817   0.435  1.00  0.00     0.074 A 
ATOM     19  C   UNL     1       6.424   6.847   1.435  1.00  0.00     0.031 C 
ATOM     20  C   UNL     1       5.284   4.852  -5.080  1.00  0.00     0.029 A 
ATOM     21  C   UNL     1       5.802   6.207  -4.922  1.00  0.00     0.049 A 
ATOM     22  H   UNL     1       6.401   7.130  -3.151  1.00  0.00     0.167 HD
ATOM     23  C   UNL     1       7.449   8.978   0.711  1.00  0.00     0.034 A 
ATOM     24  C   UNL     1       6.008   7.092  -5.918  1.00  0.00     0.034 A 
ATOM     25  C   UNL     1       7.818   9.940  -0.289  1.00  0.00     0.049 A 
ATOM     26  C   UNL     1       6.581   8.444  -5.576  1.00  0.00     0.074 A 
ATOM     27  C   UNL     1       8.458  11.155  -0.126  1.00  0.00     0.029 A 
ATOM     28  N   UNL     1       7.572   9.794  -1.648  1.00  0.00    -0.354 N 
ATOM     29  N   UNL     1       6.916   8.924  -4.401  1.00  0.00    -0.248 NA
ATOM     30  C   UNL     1       6.823   9.365  -6.695  1.00  0.00     0.031 C 
ATOM     31  C   UNL     1       8.565  11.761  -1.384  1.00  0.00     0.029 A 
ATOM     32  C   UNL     1       8.035  10.902  -2.335  1.00  0.00     0.049 A 
ATOM     33  H   UNL     1       7.132   9.016  -2.062  1.00  0.00     0.167 HD
ATOM     34  C   UNL     1       7.444  10.187  -4.643  1.00  0.00     0.074 A 
ATOM     35  C   UNL     1       7.376  10.399  -6.075  1.00  0.00     0.031 C 
ATOM     36  C   UNL     1       7.957  11.085  -3.764  1.00  0.00     0.034 A 
BRANCH  23  37
ATOM     37  C   UNL     1       7.768   9.245   2.156  1.00  0.00     0.023 A 
ATOM     38  C   UNL     1       8.724   8.471   2.837  1.00  0.00     0.031 A 
ATOM     39  C   UNL     1       7.072  10.229   2.875  1.00  0.00     0.131 A 
ATOM     40  C   UNL     1       8.912   8.649   4.214  1.00  0.00     0.055 A 
ATOM     41  C   UNL     1       7.311  10.446   4.233  1.00  0.00     0.041 A 
ATOM     42  F   UNL     1       6.131  10.976   2.276  1.00  0.00    -0.206 F 
ATOM     43  C   UNL     1       8.227   9.646   4.913  1.00  0.00     0.022 A 
BRANCH  40  44
ATOM     44  S   UNL     1       9.994   7.497   5.103  1.00  0.00     0.124 S 
ATOM     45  O   UNL     1       9.205   6.268   5.068  1.00  0.00    -0.237 OA
ATOM     46  O   UNL     1      11.205   7.499   4.290  1.00  0.00    -0.237 OA
ATOM     47  O   UNL     1      10.132   8.108   6.423  1.00  0.00    -0.744 OA
ENDBRANCH  40  44
ENDBRANCH  23  37
BRANCH  24  48
ATOM     48  C   UNL     1       5.647   6.750  -7.321  1.00  0.00     0.023 A 
ATOM     49  C   UNL     1       6.631   6.542  -8.300  1.00  0.00     0.031 A 
ATOM     50  C   UNL     1       4.298   6.663  -7.710  1.00  0.00     0.131 A 
ATOM     51  C   UNL     1       6.253   6.287  -9.628  1.00  0.00     0.055 A 
ATOM     52  C   UNL     1       3.927   6.381  -9.026  1.00  0.00     0.041 A 
ATOM     53  F   UNL     1       3.321   6.846  -6.810  1.00  0.00    -0.206 F 
ATOM     54  C   UNL     1       4.907   6.200  -9.996  1.00  0.00     0.022 A 
BRANCH  51  55
ATOM     55  S   UNL     1       7.549   6.102 -10.885  1.00  0.00     0.124 S 
ATOM     56  O   UNL     1       8.199   7.407 -10.839  1.00  0.00    -0.237 OA
ATOM     57  O   UNL     1       8.322   4.981 -10.361  1.00  0.00    -0.237 OA
ATOM     58  O   UNL     1       6.801   5.819 -12.108  1.00  0.00    -0.744 OA
ENDBRANCH  51  55
ENDBRANCH  24  48
BRANCH  36  59
ATOM     59  C   UNL     1       8.536  12.349  -4.334  1.00  0.00     0.023 A 
ATOM     60  C   UNL     1       7.715  13.375  -4.828  1.00  0.00     0.031 A 
ATOM     61  C   UNL     1       9.928  12.538  -4.345  1.00  0.00     0.131 A 
ATOM     62  C   UNL     1       8.299  14.541  -5.341  1.00  0.00     0.055 A 
ATOM     63  C   UNL     1      10.502  13.718  -4.816  1.00  0.00     0.041 A 
ATOM     64  F   UNL     1      10.751  11.584  -3.880  1.00  0.00    -0.206 F 
ATOM     65  C   UNL     1       9.685  14.726  -5.322  1.00  0.00     0.022 A 
BRANCH  62  66
ATOM     66  S   UNL     1       7.225  15.812  -6.060  1.00  0.00     0.124 S 
ATOM     67  O   UNL     1       6.699  15.131  -7.238  1.00  0.00    -0.237 OA
ATOM     68  O   UNL     1       6.267  16.062  -4.987  1.00  0.00    -0.237 OA
ATOM     69  O   UNL     1       8.140  16.917  -6.338  1.00  0.00    -0.744 OA
ENDBRANCH  62  66
ENDBRANCH  36  59
ENDBRANCH  10  11
ENDBRANCH   3   5
ENDBRANCH   2   3
ENDBRANCH   1   2
BRANCH   1  70
ATOM     70  C   UNL     1       3.919  -1.606  -1.614  1.00  0.00     0.275 C 
BRANCH  70  71
ATOM     71  O   UNL     1       3.452  -0.368  -2.170  1.00  0.00    -0.458 OA
BRANCH  71  72
ATOM     72  C   UNL     1       2.109  -0.285  -2.346  1.00  0.00     0.338 C 
ATOM     73  O   UNL     1       1.277  -1.156  -2.158  1.00  0.00    -0.246 OA
BRANCH  72  74
ATOM     74  C   UNL     1       1.760   1.109  -2.654  1.00  0.00     0.063 A 
ATOM     75  C   UNL     1       2.177   1.728  -3.835  1.00  0.00     0.017 A 
ATOM     76  C   UNL     1       1.026   1.814  -1.701  1.00  0.00     0.056 A 
ATOM     77  C   UNL     1       1.850   3.071  -4.053  1.00  0.00     0.024 A 
ATOM     78  C   UNL     1       0.783   3.170  -1.890  1.00  0.00     0.142 A 
ATOM     79  C   UNL     1       1.163   3.796  -3.067  1.00  0.00     0.103 A 
ATOM     80  F   UNL     1       0.230   3.848  -0.876  1.00  0.00    -0.206 F 
BRANCH  79  81
ATOM     81  S   UNL     1       0.838   5.508  -3.369  1.00  0.00     0.188 S 
ATOM     82  O   UNL     1       2.085   6.169  -3.026  1.00  0.00    -0.223 OA
ATOM     83  O   UNL     1       0.317   5.594  -4.724  1.00  0.00    -0.223 OA
BRANCH  81  84
ATOM     84  C   UNL     1      -0.365   6.158  -2.271  1.00  0.00     0.219 C 
BRANCH  84  85
ATOM     85  C   UNL     1      -1.701   5.510  -2.430  1.00  0.00     0.143 A 
ATOM     86  N   UNL     1      -1.790   4.195  -2.701  1.00  0.00    -0.240 NA
ATOM     87  N   UNL     1      -2.765   6.257  -2.064  1.00  0.00    -0.240 NA
ATOM     88  C   UNL     1      -2.999   3.616  -2.601  1.00  0.00     0.115 A 
ATOM     89  C   UNL     1      -3.957   5.635  -1.990  1.00  0.00     0.115 A 
ATOM     90  C   UNL     1      -4.132   4.296  -2.239  1.00  0.00     0.040 A 
ENDBRANCH  84  85
ENDBRANCH  81  84
ENDBRANCH  79  81
ENDBRANCH  72  74
ENDBRANCH  71  72
ENDBRANCH  70  71
ENDBRANCH   1  70
TORSDOF 17
