REMARK SMILES O=C(OCCOC(=O)C1CCN(c2cc(C(F)(F)F)cc(Cl)n2)CC1)c1ccc(-c2c3nc(c(-c4cc(S(=O)(=O)[O-])ccc4F)c4ccc([nH]4)c(-c4cc(S(=O)(=O)[O-])ccc4F)c4nc(c(-c5cc(S(=O)(=O)[O-])ccc5F)c5ccc2[nH]5)C=C4)C=C3)cc1
REMARK SMILES IDX 4 1 3 2 2 3 1 4 26 5 27 6 88 7 28 8 87 9 29 10 30 11 31 12
REMARK SMILES IDX 81 13 32 14 86 15 80 16 82 17 33 18 85 19 79 20 78 21 34 23
REMARK SMILES IDX 66 24 46 25 65 26 47 27 50 28 64 29 83 30 48 31 49 32 63 34
REMARK SMILES IDX 84 35 51 36 35 37 36 38 44 39 37 40 43 41 45 42 42 43 38 44
REMARK SMILES IDX 39 45 40 46 41 47 67 48 68 49 76 50 69 51 75 52 77 53 74 54
REMARK SMILES IDX 70 55 71 56 72 57 73 58 52 59 53 60 61 61 54 62 60 63 62 64
REMARK SMILES IDX 59 65 55 66 56 67 57 68 58 69 5 70 6 71 7 72 8 73 9 74 10 75
REMARK SMILES IDX 25 76 11 77 24 78 12 79 13 80 14 81 23 82 15 83 21 84 20 85
REMARK SMILES IDX 22 86 16 87 17 88 18 89 19 90
REMARK H PARENT 82 22 50 33
REMARK Flexibility Score: inf
ROOT
ATOM      1  C   UNL     1       4.412  -0.378  -1.486  1.00  0.00     0.275 C 
ENDROOT
BRANCH   1   2
ATOM      2  O   UNL     1       3.215  -0.930  -0.902  1.00  0.00    -0.458 OA
BRANCH   2   3
ATOM      3  C   UNL     1       2.939  -1.276   0.381  1.00  0.00     0.338 C 
ATOM      4  O   UNL     1       1.949  -1.976   0.593  1.00  0.00    -0.246 OA
BRANCH   3   5
ATOM      5  C   UNL     1       3.652  -0.703   1.570  1.00  0.00     0.060 A 
ATOM      6  C   UNL     1       4.959  -0.213   1.584  1.00  0.00     0.016 A 
ATOM      7  C   UNL     1       2.903  -0.601   2.763  1.00  0.00     0.016 A 
ATOM      8  C   UNL     1       5.470   0.452   2.700  1.00  0.00     0.010 A 
ATOM      9  C   UNL     1       3.410   0.060   3.890  1.00  0.00     0.010 A 
ATOM     10  C   UNL     1       4.700   0.598   3.856  1.00  0.00    -0.014 A 
BRANCH  10  11
ATOM     11  C   UNL     1       5.372   1.111   5.068  1.00  0.00     0.031 A 
ATOM     12  C   UNL     1       5.953   0.093   6.001  1.00  0.00     0.074 A 
ATOM     13  C   UNL     1       5.582   2.429   5.247  1.00  0.00     0.049 A 
ATOM     14  N   UNL     1       6.722   0.262   7.040  1.00  0.00    -0.248 NA
ATOM     15  C   UNL     1       5.640  -1.313   5.697  1.00  0.00     0.031 C 
ATOM     16  C   UNL     1       5.119   3.485   4.347  1.00  0.00     0.029 A 
ATOM     17  N   UNL     1       6.263   3.106   6.226  1.00  0.00    -0.354 N 
ATOM     18  C   UNL     1       7.008  -1.018   7.499  1.00  0.00     0.074 A 
ATOM     19  C   UNL     1       6.281  -1.946   6.663  1.00  0.00     0.031 C 
ATOM     20  C   UNL     1       5.540   4.676   4.809  1.00  0.00     0.029 A 
ATOM     21  C   UNL     1       6.286   4.471   6.048  1.00  0.00     0.049 A 
ATOM     22  H   UNL     1       6.696   2.656   6.987  1.00  0.00     0.167 HD
ATOM     23  C   UNL     1       7.823  -1.384   8.516  1.00  0.00     0.034 A 
ATOM     24  C   UNL     1       6.849   5.436   6.805  1.00  0.00     0.034 A 
ATOM     25  C   UNL     1       8.486  -0.433   9.368  1.00  0.00     0.049 A 
ATOM     26  C   UNL     1       7.631   5.006   8.027  1.00  0.00     0.074 A 
ATOM     27  C   UNL     1       9.284  -0.669  10.470  1.00  0.00     0.029 A 
ATOM     28  N   UNL     1       8.398   0.949   9.224  1.00  0.00    -0.354 N 
ATOM     29  N   UNL     1       7.903   3.791   8.449  1.00  0.00    -0.248 NA
ATOM     30  C   UNL     1       8.191   6.073   8.863  1.00  0.00     0.031 C 
ATOM     31  C   UNL     1       9.611   0.567  11.039  1.00  0.00     0.029 A 
ATOM     32  C   UNL     1       9.097   1.578  10.239  1.00  0.00     0.049 A 
ATOM     33  H   UNL     1       7.910   1.411   8.504  1.00  0.00     0.167 HD
ATOM     34  C   UNL     1       8.701   3.950   9.579  1.00  0.00     0.074 A 
ATOM     35  C   UNL     1       8.876   5.378   9.759  1.00  0.00     0.031 C 
ATOM     36  C   UNL     1       9.248   3.008  10.392  1.00  0.00     0.034 A 
BRANCH  23  37
ATOM     37  C   UNL     1       7.938  -2.864   8.783  1.00  0.00     0.023 A 
ATOM     38  C   UNL     1       8.464  -3.747   7.821  1.00  0.00     0.031 A 
ATOM     39  C   UNL     1       7.401  -3.414   9.958  1.00  0.00     0.131 A 
ATOM     40  C   UNL     1       8.342  -5.132   8.004  1.00  0.00     0.055 A 
ATOM     41  C   UNL     1       7.369  -4.792  10.176  1.00  0.00     0.041 A 
ATOM     42  F   UNL     1       6.854  -2.623  10.895  1.00  0.00    -0.206 F 
ATOM     43  C   UNL     1       7.821  -5.661   9.187  1.00  0.00     0.022 A 
BRANCH  40  44
ATOM     44  S   UNL     1       8.686  -6.224   6.595  1.00  0.00     0.124 S 
ATOM     45  O   UNL     1       7.733  -5.734   5.602  1.00  0.00    -0.237 OA
ATOM     46  O   UNL     1      10.091  -5.952   6.319  1.00  0.00    -0.237 OA
ATOM     47  O   UNL     1       8.398  -7.559   7.118  1.00  0.00    -0.744 OA
ENDBRANCH  40  44
ENDBRANCH  23  37
BRANCH  24  48
ATOM     48  C   UNL     1       6.692   6.885   6.466  1.00  0.00     0.023 A 
ATOM     49  C   UNL     1       7.805   7.706   6.215  1.00  0.00     0.031 A 
ATOM     50  C   UNL     1       5.423   7.492   6.469  1.00  0.00     0.131 A 
ATOM     51  C   UNL     1       7.632   9.090   6.032  1.00  0.00     0.055 A 
ATOM     52  C   UNL     1       5.251   8.858   6.233  1.00  0.00     0.041 A 
ATOM     53  F   UNL     1       4.321   6.762   6.708  1.00  0.00    -0.206 F 
ATOM     54  C   UNL     1       6.362   9.669   6.028  1.00  0.00     0.022 A 
BRANCH  51  55
ATOM     55  S   UNL     1       9.105  10.145   5.899  1.00  0.00     0.124 S 
ATOM     56  O   UNL     1       9.798   9.847   7.146  1.00  0.00    -0.237 OA
ATOM     57  O   UNL     1       9.728   9.639   4.680  1.00  0.00    -0.237 OA
ATOM     58  O   UNL     1       8.550  11.493   5.798  1.00  0.00    -0.744 OA
ENDBRANCH  51  55
ENDBRANCH  24  48
BRANCH  36  59
ATOM     59  C   UNL     1      10.129   3.501  11.514  1.00  0.00     0.023 A 
ATOM     60  C   UNL     1       9.620   4.269  12.575  1.00  0.00     0.031 A 
ATOM     61  C   UNL     1      11.501   3.193  11.518  1.00  0.00     0.131 A 
ATOM     62  C   UNL     1      10.489   4.757  13.561  1.00  0.00     0.055 A 
ATOM     63  C   UNL     1      12.347   3.617  12.542  1.00  0.00     0.041 A 
ATOM     64  F   UNL     1      12.041   2.465  10.527  1.00  0.00    -0.206 F 
ATOM     65  C   UNL     1      11.844   4.417  13.564  1.00  0.00     0.022 A 
BRANCH  62  66
ATOM     66  S   UNL     1       9.845   5.935  14.779  1.00  0.00     0.124 S 
ATOM     67  O   UNL     1       9.339   7.005  13.926  1.00  0.00    -0.237 OA
ATOM     68  O   UNL     1       8.836   5.144  15.476  1.00  0.00    -0.237 OA
ATOM     69  O   UNL     1      11.021   6.281  15.576  1.00  0.00    -0.744 OA
ENDBRANCH  62  66
ENDBRANCH  36  59
ENDBRANCH  10  11
ENDBRANCH   3   5
ENDBRANCH   2   3
ENDBRANCH   1   2
BRANCH   1  70
ATOM     70  C   UNL     1       4.419   1.152  -1.568  1.00  0.00     0.274 C 
BRANCH  70  71
ATOM     71  O   UNL     1       4.039   1.768  -0.331  1.00  0.00    -0.462 OA
BRANCH  71  72
ATOM     72  C   UNL     1       2.720   2.087  -0.209  1.00  0.00     0.309 C 
ATOM     73  O   UNL     1       1.902   2.031  -1.119  1.00  0.00    -0.252 OA
BRANCH  72  74
ATOM     74  C   UNL     1       2.410   2.505   1.216  1.00  0.00     0.103 C 
ATOM     75  C   UNL     1       1.037   1.992   1.667  1.00  0.00     0.037 C 
ATOM     76  C   UNL     1       2.546   4.009   1.393  1.00  0.00     0.037 C 
ATOM     77  C   UNL     1      -0.116   2.784   1.068  1.00  0.00     0.119 C 
ATOM     78  C   UNL     1       1.413   4.746   0.698  1.00  0.00     0.119 C 
ATOM     79  N   UNL     1       0.148   4.210   1.167  1.00  0.00    -0.357 N 
BRANCH  79  80
ATOM     80  C   UNL     1      -0.876   5.040   1.544  1.00  0.00     0.130 A 
ATOM     81  C   UNL     1      -1.175   6.173   0.796  1.00  0.00     0.060 A 
ATOM     82  N   UNL     1      -1.567   4.737   2.658  1.00  0.00    -0.219 NA
ATOM     83  C   UNL     1      -2.190   7.040   1.205  1.00  0.00     0.062 A 
ATOM     84  C   UNL     1      -2.510   5.603   3.067  1.00  0.00     0.132 A 
ATOM     85  C   UNL     1      -2.861   6.755   2.392  1.00  0.00     0.054 A 
ATOM     86  Cl  UNL     1      -3.288   5.174   4.534  1.00  0.00    -0.062 Cl
BRANCH  83  87
ATOM     87  C   UNL     1      -2.531   8.222   0.351  1.00  0.00     0.416 C 
ATOM     88  F   UNL     1      -1.468   9.044   0.141  1.00  0.00    -0.166 F 
ATOM     89  F   UNL     1      -2.967   7.854  -0.886  1.00  0.00    -0.166 F 
ATOM     90  F   UNL     1      -3.516   9.004   0.873  1.00  0.00    -0.166 F 
ENDBRANCH  83  87
ENDBRANCH  79  80
ENDBRANCH  72  74
ENDBRANCH  71  72
ENDBRANCH  70  71
ENDBRANCH   1  70
TORSDOF 16
