REMARK SMILES O=C(OCCOC(=O)c1ccccc1Nc1cccc(S(F)(F)(F)(F)F)c1)c1ccc(-c2c3nc(c(-c4cc(S(=O)(=O)[O-])ccc4F)c4ccc([nH]4)c(-c4cc(S(=O)(=O)[O-])ccc4F)c4nc(c(-c5cc(S(=O)(=O)[O-])ccc5F)c5ccc2[nH]5)C=C4)C=C3)cc1
REMARK SMILES IDX 4 1 3 2 2 3 1 4 28 5 29 6 90 7 30 8 89 9 31 10 32 11 33 12
REMARK SMILES IDX 83 13 34 14 88 15 82 16 84 17 35 18 87 19 81 20 80 21 36 23
REMARK SMILES IDX 68 24 48 25 67 26 49 27 52 28 66 29 85 30 50 31 51 32 65 34
REMARK SMILES IDX 86 35 53 36 37 37 38 38 46 39 39 40 45 41 47 42 44 43 40 44
REMARK SMILES IDX 41 45 42 46 43 47 69 48 70 49 78 50 71 51 77 52 79 53 76 54
REMARK SMILES IDX 72 55 73 56 74 57 75 58 54 59 55 60 63 61 56 62 62 63 64 64
REMARK SMILES IDX 61 65 57 66 58 67 59 68 60 69 5 70 6 71 7 72 8 73 9 74 10 75
REMARK SMILES IDX 14 76 11 77 13 78 12 79 15 80 16 82 17 83 27 84 18 85 20 86
REMARK SMILES IDX 19 87 21 88 22 89 23 90 24 91 25 92 26 93
REMARK H PARENT 84 22 52 33 15 81
REMARK Flexibility Score: inf
ROOT
ATOM      1  C   UNL     1       4.383   0.470  -1.087  1.00  0.00     0.275 C 
ENDROOT
BRANCH   1   2
ATOM      2  O   UNL     1       2.962   0.470  -1.087  1.00  0.00    -0.458 OA
BRANCH   2   3
ATOM      3  C   UNL     1       2.252   0.064   0.074  1.00  0.00     0.338 C 
ATOM      4  O   UNL     1       0.982   0.064   0.074  1.00  0.00    -0.246 OA
BRANCH   3   5
ATOM      5  C   UNL     1       3.013  -0.370   1.317  1.00  0.00     0.060 A 
ATOM      6  C   UNL     1       4.131   0.352   1.700  1.00  0.00     0.016 A 
ATOM      7  C   UNL     1       2.639  -1.461   1.975  1.00  0.00     0.016 A 
ATOM      8  C   UNL     1       4.963  -0.326   2.621  1.00  0.00     0.010 A 
ATOM      9  C   UNL     1       3.438  -1.993   2.958  1.00  0.00     0.010 A 
ATOM     10  C   UNL     1       4.588  -1.364   3.346  1.00  0.00    -0.014 A 
BRANCH  10  11
ATOM     11  C   UNL     1       5.392  -1.834   4.548  1.00  0.00     0.031 A 
ATOM     12  C   UNL     1       5.908  -3.131   4.552  1.00  0.00     0.074 A 
ATOM     13  C   UNL     1       5.622  -0.906   5.548  1.00  0.00     0.049 A 
ATOM     14  N   UNL     1       6.711  -3.684   5.463  1.00  0.00    -0.248 NA
ATOM     15  C   UNL     1       5.637  -4.130   3.508  1.00  0.00     0.031 C 
ATOM     16  C   UNL     1       5.112   0.407   5.546  1.00  0.00     0.029 A 
ATOM     17  N   UNL     1       6.362  -1.069   6.698  1.00  0.00    -0.354 N 
ATOM     18  C   UNL     1       7.009  -4.938   5.115  1.00  0.00     0.074 A 
ATOM     19  C   UNL     1       6.317  -5.244   3.856  1.00  0.00     0.031 C 
ATOM     20  C   UNL     1       5.529   1.023   6.684  1.00  0.00     0.029 A 
ATOM     21  C   UNL     1       6.307   0.106   7.416  1.00  0.00     0.049 A 
ATOM     22  H   UNL     1       6.847  -1.884   6.962  1.00  0.00     0.167 HD
ATOM     23  C   UNL     1       7.831  -5.836   5.797  1.00  0.00     0.034 A 
ATOM     24  C   UNL     1       6.893   0.381   8.641  1.00  0.00     0.034 A 
ATOM     25  C   UNL     1       8.453  -5.546   7.001  1.00  0.00     0.049 A 
ATOM     26  C   UNL     1       7.669  -0.538   9.353  1.00  0.00     0.074 A 
ATOM     27  C   UNL     1       9.291  -6.437   7.698  1.00  0.00     0.029 A 
ATOM     28  N   UNL     1       8.377  -4.380   7.730  1.00  0.00    -0.354 N 
ATOM     29  N   UNL     1       7.998  -1.778   8.985  1.00  0.00    -0.248 NA
ATOM     30  C   UNL     1       8.268  -0.269  10.666  1.00  0.00     0.031 C 
ATOM     31  C   UNL     1       9.708  -5.821   8.836  1.00  0.00     0.029 A 
ATOM     32  C   UNL     1       9.136  -4.535   8.869  1.00  0.00     0.049 A 
ATOM     33  H   UNL     1       7.869  -3.575   7.481  1.00  0.00     0.167 HD
ATOM     34  C   UNL     1       8.768  -2.344   9.916  1.00  0.00     0.074 A 
ATOM     35  C   UNL     1       8.946  -1.385  11.015  1.00  0.00     0.031 C 
ATOM     36  C   UNL     1       9.331  -3.621   9.893  1.00  0.00     0.034 A 
BRANCH  23  37
ATOM     37  C   UNL     1       8.057  -7.208   5.185  1.00  0.00     0.023 A 
ATOM     38  C   UNL     1       8.698  -7.215   3.957  1.00  0.00     0.031 A 
ATOM     39  C   UNL     1       7.727  -8.340   5.796  1.00  0.00     0.131 A 
ATOM     40  C   UNL     1       8.691  -8.476   3.314  1.00  0.00     0.055 A 
ATOM     41  C   UNL     1       7.874  -9.548   5.158  1.00  0.00     0.041 A 
ATOM     42  F   UNL     1       7.251  -8.303   7.037  1.00  0.00    -0.206 F 
ATOM     43  C   UNL     1       8.445  -9.624   3.918  1.00  0.00     0.022 A 
BRANCH  40  44
ATOM     44  S   UNL     1       9.042  -8.518   1.539  1.00  0.00     0.124 S 
ATOM     45  O   UNL     1       8.001  -7.680   0.792  1.00  0.00    -0.237 OA
ATOM     46  O   UNL     1      10.438  -7.944   1.281  1.00  0.00    -0.237 OA
ATOM     47  O   UNL     1       8.979 -10.133   0.983  1.00  0.00    -0.744 OA
ENDBRANCH  40  44
ENDBRANCH  23  37
BRANCH  24  48
ATOM     48  C   UNL     1       6.681   1.759   9.245  1.00  0.00     0.023 A 
ATOM     49  C   UNL     1       7.762   2.546   9.607  1.00  0.00     0.031 A 
ATOM     50  C   UNL     1       5.435   2.140   9.502  1.00  0.00     0.131 A 
ATOM     51  C   UNL     1       7.435   3.592  10.502  1.00  0.00     0.055 A 
ATOM     52  C   UNL     1       5.188   3.251  10.272  1.00  0.00     0.041 A 
ATOM     53  F   UNL     1       4.417   1.439   9.011  1.00  0.00    -0.206 F 
ATOM     54  C   UNL     1       6.212   4.042  10.713  1.00  0.00     0.022 A 
BRANCH  51  55
ATOM     55  S   UNL     1       8.789   4.367  11.420  1.00  0.00     0.124 S 
ATOM     56  O   UNL     1       9.495   3.313  12.276  1.00  0.00    -0.237 OA
ATOM     57  O   UNL     1       9.789   4.978  10.436  1.00  0.00    -0.237 OA
ATOM     58  O   UNL     1       8.161   5.595  12.431  1.00  0.00    -0.744 OA
ENDBRANCH  51  55
ENDBRANCH  24  48
BRANCH  36  59
ATOM     59  C   UNL     1      10.213  -4.034  11.061  1.00  0.00     0.023 A 
ATOM     60  C   UNL     1       9.683  -4.004  12.340  1.00  0.00     0.031 A 
ATOM     61  C   UNL     1      11.480  -4.365  10.848  1.00  0.00     0.131 A 
ATOM     62  C   UNL     1      10.657  -4.061  13.365  1.00  0.00     0.055 A 
ATOM     63  C   UNL     1      12.345  -4.539  11.902  1.00  0.00     0.041 A 
ATOM     64  F   UNL     1      11.918  -4.531   9.602  1.00  0.00    -0.206 F 
ATOM     65  C   UNL     1      11.902  -4.465  13.193  1.00  0.00     0.022 A 
BRANCH  62  66
ATOM     66  S   UNL     1      10.161  -3.545  15.027  1.00  0.00     0.124 S 
ATOM     67  O   UNL     1       9.700  -2.085  14.992  1.00  0.00    -0.237 OA
ATOM     68  O   UNL     1       9.012  -4.430  15.515  1.00  0.00    -0.237 OA
ATOM     69  O   UNL     1      11.490  -3.697  16.092  1.00  0.00    -0.744 OA
ENDBRANCH  62  66
ENDBRANCH  36  59
ENDBRANCH  10  11
ENDBRANCH   3   5
ENDBRANCH   2   3
ENDBRANCH   1   2
BRANCH   1  70
ATOM     70  C   UNL     1       4.889   1.405  -0.001  1.00  0.00     0.275 C 
BRANCH  70  71
ATOM     71  O   UNL     1       4.416   0.964   1.263  1.00  0.00    -0.458 OA
BRANCH  71  72
ATOM     72  C   UNL     1       3.020   0.878   1.508  1.00  0.00     0.340 C 
ATOM     73  O   UNL     1       2.194   1.197   0.596  1.00  0.00    -0.246 OA
BRANCH  72  74
ATOM     74  C   UNL     1       2.513   0.405   2.861  1.00  0.00     0.083 A 
ATOM     75  C   UNL     1       1.416  -0.436   2.935  1.00  0.00     0.018 A 
ATOM     76  C   UNL     1       3.080   0.897   3.957  1.00  0.00     0.053 A 
ATOM     77  C   UNL     1       0.806  -0.472   4.212  1.00  0.00     0.001 A 
ATOM     78  C   UNL     1       2.501   0.708   5.188  1.00  0.00     0.027 A 
ATOM     79  C   UNL     1       1.381  -0.064   5.328  1.00  0.00     0.002 A 
BRANCH  76  80
ATOM     80  N   UNL     1       4.338   1.649   3.851  1.00  0.00    -0.355 N 
ATOM     81  H   UNL     1       4.757   1.787   2.970  1.00  0.00     0.167 HD
BRANCH  80  82
ATOM     82  C   UNL     1       4.972   2.196   5.059  1.00  0.00     0.040 A 
ATOM     83  C   UNL     1       5.281   3.543   5.143  1.00  0.00     0.026 A 
ATOM     84  C   UNL     1       5.331   1.346   6.014  1.00  0.00     0.050 A 
ATOM     85  C   UNL     1       6.232   3.852   6.144  1.00  0.00     0.004 A 
ATOM     86  C   UNL     1       6.154   1.751   7.037  1.00  0.00     0.109 A 
ATOM     87  C   UNL     1       6.547   3.056   7.149  1.00  0.00     0.024 A 
BRANCH  86  88
ATOM     88  S   UNL     1       6.726   0.540   8.255  1.00  0.00     0.310 S 
ATOM     89  F   UNL     1       5.344   0.819   8.982  1.00  0.00    -0.094 F 
ATOM     90  F   UNL     1       7.353   1.661   9.166  1.00  0.00    -0.094 F 
ATOM     91  F   UNL     1       7.008  -0.539   9.339  1.00  0.00    -0.094 F 
ATOM     92  F   UNL     1       5.968  -0.542   7.388  1.00  0.00    -0.094 F 
ATOM     93  F   UNL     1       6.332   1.644   7.195  1.00  0.00    -0.094 F 
ENDBRANCH  86  88
ENDBRANCH  80  82
ENDBRANCH  76  80
ENDBRANCH  72  74
ENDBRANCH  71  72
ENDBRANCH  70  71
ENDBRANCH   1  70
TORSDOF 17
