REMARK SMILES CC(C)C[C@H](CNC(=O)NC[C@H]1CCC(=O)N1)C(=O)OCCOC(=O)c1ccc(-c2c3nc(c(-c4cc(S(=O)(=O)[O-])ccc4F)c4ccc([nH]4)c(-c4cc(S(=O)(=O)[O-])ccc4F)c4nc(c(-c5cc(S(=O)(=O)[O-])ccc5F)c5ccc2[nH]5)C=C4)C=C3)cc1
REMARK SMILES IDX 21 1 20 2 18 3 19 4 5 5 4 6 2 7 1 8 3 9 6 10 7 11 8 12 9 14
REMARK SMILES IDX 10 15 11 17 12 18 13 19 17 20 14 21 15 22 16 24 22 25 23 26
REMARK SMILES IDX 24 27 25 28 26 29 27 30 88 31 28 32 87 33 29 34 30 35 31 36
REMARK SMILES IDX 81 37 32 38 86 39 80 40 82 41 33 42 85 43 79 44 78 45 34 47
REMARK SMILES IDX 66 48 46 49 65 50 47 51 50 52 64 53 83 54 48 55 49 56 63 58
REMARK SMILES IDX 84 59 51 60 35 61 36 62 44 63 37 64 43 65 45 66 42 67 38 68
REMARK SMILES IDX 39 69 40 70 41 71 67 72 68 73 76 74 69 75 75 76 77 77 74 78
REMARK SMILES IDX 70 79 71 80 72 81 73 82 52 83 53 84 61 85 54 86 60 87 62 88
REMARK SMILES IDX 59 89 55 90 56 91 57 92 58 93
REMARK H PARENT 7 13 10 16 17 23 82 46 50 57
REMARK Flexibility Score: inf
ROOT
ATOM      1  C   UNL     1      -3.208   5.038   8.395  1.00  0.00     0.274 C 
ENDROOT
BRANCH   1   2
ATOM      2  O   UNL     1      -3.782   4.183   7.384  1.00  0.00    -0.462 OA
BRANCH   2   3
ATOM      3  C   UNL     1      -2.885   3.621   6.534  1.00  0.00     0.310 C 
ATOM      4  O   UNL     1      -1.680   3.848   6.570  1.00  0.00    -0.252 OA
BRANCH   3   5
ATOM      5  C   UNL     1      -3.507   2.739   5.462  1.00  0.00     0.119 C 
BRANCH   5   6
ATOM      6  C   UNL     1      -3.578   3.527   4.138  1.00  0.00     0.020 C 
BRANCH   6   7
ATOM      7  C   UNL     1      -2.199   3.948   3.567  1.00  0.00    -0.017 C 
ATOM      8  C   UNL     1      -1.282   2.754   3.277  1.00  0.00     0.007 C 
ATOM      9  C   UNL     1      -2.382   4.776   2.296  1.00  0.00     0.007 C 
ENDBRANCH   6   7
ENDBRANCH   5   6
BRANCH   5  10
ATOM     10  C   UNL     1      -4.856   2.103   5.850  1.00  0.00     0.133 C 
BRANCH  10  11
ATOM     11  N   UNL     1      -4.667   0.767   6.412  1.00  0.00    -0.337 N 
ATOM     12  C   UNL     1      -5.129   0.082   7.460  1.00  0.00     0.314 C 
ATOM     13  H   UNL     1      -4.035   0.234   5.877  1.00  0.00     0.165 HD
ATOM     14  O   UNL     1      -4.951  -1.136   7.463  1.00  0.00    -0.249 OA
ATOM     15  N   UNL     1      -5.770   0.618   8.497  1.00  0.00    -0.336 N 
ATOM     16  H   UNL     1      -6.216  -0.047   9.069  1.00  0.00     0.165 HD
BRANCH  15  17
ATOM     17  C   UNL     1      -5.944   1.976   8.954  1.00  0.00     0.142 C 
BRANCH  17  18
ATOM     18  C   UNL     1      -7.371   2.497   8.718  1.00  0.00     0.101 C 
ATOM     19  C   UNL     1      -8.362   1.947   9.745  1.00  0.00     0.036 C 
ATOM     20  N   UNL     1      -7.461   3.918   8.948  1.00  0.00    -0.352 N 
ATOM     21  C   UNL     1      -8.268   2.935  10.908  1.00  0.00     0.102 C 
ATOM     22  C   UNL     1      -7.933   4.229  10.207  1.00  0.00     0.220 C 
ATOM     23  H   UNL     1      -7.212   4.595   8.277  1.00  0.00     0.163 HD
ATOM     24  O   UNL     1      -8.015   5.349  10.667  1.00  0.00    -0.275 OA
ENDBRANCH  17  18
ENDBRANCH  15  17
ENDBRANCH  10  11
ENDBRANCH   5  10
ENDBRANCH   3   5
ENDBRANCH   2   3
ENDBRANCH   1   2
BRANCH   1  25
ATOM     25  C   UNL     1      -2.752   4.262   9.636  1.00  0.00     0.275 C 
BRANCH  25  26
ATOM     26  O   UNL     1      -1.731   3.303   9.302  1.00  0.00    -0.458 OA
BRANCH  26  27
ATOM     27  C   UNL     1      -2.018   2.008   9.575  1.00  0.00     0.338 C 
ATOM     28  O   UNL     1      -2.999   1.587  10.165  1.00  0.00    -0.246 OA
BRANCH  27  29
ATOM     29  C   UNL     1      -0.977   1.132   9.010  1.00  0.00     0.060 A 
ATOM     30  C   UNL     1      -1.058   0.766   7.667  1.00  0.00     0.016 A 
ATOM     31  C   UNL     1      -0.004   0.564   9.831  1.00  0.00     0.016 A 
ATOM     32  C   UNL     1      -0.180  -0.175   7.135  1.00  0.00     0.010 A 
ATOM     33  C   UNL     1       0.895  -0.368   9.292  1.00  0.00     0.010 A 
ATOM     34  C   UNL     1       0.801  -0.759   7.944  1.00  0.00    -0.014 A 
BRANCH  34  35
ATOM     35  C   UNL     1       1.668  -1.828   7.380  1.00  0.00     0.031 A 
ATOM     36  C   UNL     1       1.479  -3.256   7.818  1.00  0.00     0.074 A 
ATOM     37  C   UNL     1       2.579  -1.525   6.434  1.00  0.00     0.049 A 
ATOM     38  N   UNL     1       2.167  -4.321   7.494  1.00  0.00    -0.248 NA
ATOM     39  C   UNL     1       0.369  -3.515   8.747  1.00  0.00     0.031 C 
ATOM     40  C   UNL     1       2.815  -0.185   5.894  1.00  0.00     0.029 A 
ATOM     41  N   UNL     1       3.467  -2.320   5.754  1.00  0.00    -0.354 N 
ATOM     42  C   UNL     1       1.583  -5.377   8.188  1.00  0.00     0.074 A 
ATOM     43  C   UNL     1       0.506  -4.813   8.976  1.00  0.00     0.031 C 
ATOM     44  C   UNL     1       3.777  -0.253   4.960  1.00  0.00     0.029 A 
ATOM     45  C   UNL     1       4.267  -1.625   4.875  1.00  0.00     0.049 A 
ATOM     46  H   UNL     1       3.527  -3.294   5.883  1.00  0.00     0.167 HD
ATOM     47  C   UNL     1       1.910  -6.694   8.162  1.00  0.00     0.034 A 
ATOM     48  C   UNL     1       5.298  -2.041   4.112  1.00  0.00     0.034 A 
ATOM     49  C   UNL     1       2.989  -7.237   7.368  1.00  0.00     0.049 A 
ATOM     50  C   UNL     1       5.681  -3.499   4.145  1.00  0.00     0.074 A 
ATOM     51  C   UNL     1       3.427  -8.549   7.285  1.00  0.00     0.029 A 
ATOM     52  N   UNL     1       3.801  -6.498   6.515  1.00  0.00    -0.354 N 
ATOM     53  N   UNL     1       5.148  -4.479   4.840  1.00  0.00    -0.248 NA
ATOM     54  C   UNL     1       6.798  -3.908   3.285  1.00  0.00     0.031 C 
ATOM     55  C   UNL     1       4.535  -8.591   6.431  1.00  0.00     0.029 A 
ATOM     56  C   UNL     1       4.747  -7.321   5.919  1.00  0.00     0.049 A 
ATOM     57  H   UNL     1       3.717  -5.530   6.357  1.00  0.00     0.167 HD
ATOM     58  C   UNL     1       5.859  -5.622   4.488  1.00  0.00     0.074 A 
ATOM     59  C   UNL     1       6.831  -5.215   3.494  1.00  0.00     0.031 C 
ATOM     60  C   UNL     1       5.727  -6.894   4.947  1.00  0.00     0.034 A 
BRANCH  47  61
ATOM     61  C   UNL     1       1.126  -7.622   9.062  1.00  0.00     0.023 A 
ATOM     62  C   UNL     1      -0.249  -7.856   8.875  1.00  0.00     0.031 A 
ATOM     63  C   UNL     1       1.759  -8.262  10.143  1.00  0.00     0.131 A 
ATOM     64  C   UNL     1      -0.955  -8.652   9.790  1.00  0.00     0.055 A 
ATOM     65  C   UNL     1       1.066  -9.114  11.005  1.00  0.00     0.041 A 
ATOM     66  F   UNL     1       3.064  -8.062  10.386  1.00  0.00    -0.206 F 
ATOM     67  C   UNL     1      -0.302  -9.302  10.840  1.00  0.00     0.022 A 
BRANCH  64  68
ATOM     68  S   UNL     1      -2.764  -8.729   9.668  1.00  0.00     0.124 S 
ATOM     69  O   UNL     1      -3.132  -7.329   9.861  1.00  0.00    -0.237 OA
ATOM     70  O   UNL     1      -2.968  -9.266   8.328  1.00  0.00    -0.237 OA
ATOM     71  O   UNL     1      -3.145  -9.622  10.761  1.00  0.00    -0.744 OA
ENDBRANCH  64  68
ENDBRANCH  47  61
BRANCH  48  72
ATOM     72  C   UNL     1       6.080  -1.062   3.301  1.00  0.00     0.023 A 
ATOM     73  C   UNL     1       6.142  -1.152   1.901  1.00  0.00     0.031 A 
ATOM     74  C   UNL     1       6.825  -0.046   3.928  1.00  0.00     0.131 A 
ATOM     75  C   UNL     1       6.965  -0.272   1.180  1.00  0.00     0.055 A 
ATOM     76  C   UNL     1       7.595   0.863   3.202  1.00  0.00     0.041 A 
ATOM     77  F   UNL     1       6.806   0.084   5.265  1.00  0.00    -0.206 F 
ATOM     78  C   UNL     1       7.680   0.743   1.819  1.00  0.00     0.022 A 
BRANCH  75  79
ATOM     79  S   UNL     1       7.163  -0.531  -0.605  1.00  0.00     0.124 S 
ATOM     80  O   UNL     1       7.639  -1.909  -0.656  1.00  0.00    -0.237 OA
ATOM     81  O   UNL     1       5.808  -0.302  -1.096  1.00  0.00    -0.237 OA
ATOM     82  O   UNL     1       8.142   0.483  -0.990  1.00  0.00    -0.744 OA
ENDBRANCH  75  79
ENDBRANCH  48  72
BRANCH  60  83
ATOM     83  C   UNL     1       6.649  -7.928   4.345  1.00  0.00     0.023 A 
ATOM     84  C   UNL     1       8.041  -7.875   4.538  1.00  0.00     0.031 A 
ATOM     85  C   UNL     1       6.134  -8.948   3.526  1.00  0.00     0.131 A 
ATOM     86  C   UNL     1       8.877  -8.773   3.857  1.00  0.00     0.055 A 
ATOM     87  C   UNL     1       6.966  -9.881   2.905  1.00  0.00     0.041 A 
ATOM     88  F   UNL     1       4.814  -9.047   3.304  1.00  0.00    -0.206 F 
ATOM     89  C   UNL     1       8.347  -9.785   3.053  1.00  0.00     0.022 A 
BRANCH  86  90
ATOM     90  S   UNL     1      10.671  -8.519   3.934  1.00  0.00     0.124 S 
ATOM     91  O   UNL     1      10.805  -7.147   3.456  1.00  0.00    -0.237 OA
ATOM     92  O   UNL     1      10.956  -8.732   5.349  1.00  0.00    -0.237 OA
ATOM     93  O   UNL     1      11.201  -9.543   3.035  1.00  0.00    -0.744 OA
ENDBRANCH  86  90
ENDBRANCH  60  83
ENDBRANCH  34  35
ENDBRANCH  27  29
ENDBRANCH  26  27
ENDBRANCH  25  26
ENDBRANCH   1  25
TORSDOF 20
