REMARK SMILES C[C@@H](C(=O)OCCOC(=O)c1ccc(-c2c3nc(c(-c4cc(S(=O)(=O)[O-])ccc4F)c4ccc([nH]4)c(-c4cc(S(=O)(=O)[O-])ccc4F)c4nc(c(-c5cc(S(=O)(=O)[O-])ccc5F)c5ccc2[nH]5)C=C4)C=C3)cc1)c1ccc2c(c1)[nH]c1ccc(Cl)cc12
REMARK SMILES IDX 7 1 6 2 5 3 3 4 4 5 2 6 1 7 74 8 75 9 79 10 76 11 78 12
REMARK SMILES IDX 77 13 80 14 87 15 81 16 86 18 82 19 84 20 83 21 85 22 8 23
REMARK SMILES IDX 9 24 10 25 11 26 12 27 73 28 13 29 72 30 14 31 15 32 16 33
REMARK SMILES IDX 66 34 17 35 71 36 65 37 67 38 18 39 70 40 64 41 63 42 19 44
REMARK SMILES IDX 51 45 31 46 50 47 32 48 35 49 49 50 68 51 33 52 34 53 48 55
REMARK SMILES IDX 69 56 36 57 20 58 21 59 29 60 22 61 28 62 30 63 27 64 23 65
REMARK SMILES IDX 24 66 25 67 26 68 52 69 53 70 61 71 54 72 60 73 62 74 59 75
REMARK SMILES IDX 55 76 56 77 57 78 58 79 37 80 38 81 46 82 39 83 45 84 47 85
REMARK SMILES IDX 44 86 40 87 41 88 42 89 43 90
REMARK H PARENT 80 17 67 43 35 54
REMARK Flexibility Score: inf
ROOT
ATOM      1  C   UNL     1       2.235  -1.991   3.789  1.00  0.00     0.275 C 
ENDROOT
BRANCH   1   2
ATOM      2  C   UNL     1       2.831  -2.484   2.473  1.00  0.00     0.274 C 
BRANCH   2   3
ATOM      3  O   UNL     1       2.324  -1.727   1.357  1.00  0.00    -0.462 OA
BRANCH   3   4
ATOM      4  C   UNL     1       1.288  -2.308   0.684  1.00  0.00     0.313 C 
ATOM      5  O   UNL     1       0.878  -3.433   0.954  1.00  0.00    -0.252 OA
BRANCH   4   6
ATOM      6  C   UNL     1       0.779  -1.447  -0.498  1.00  0.00     0.126 C 
ATOM      7  C   UNL     1       1.133   0.035  -0.302  1.00  0.00     0.025 C 
BRANCH   6   8
ATOM      8  C   UNL     1      -0.711  -1.699  -0.795  1.00  0.00    -0.032 A 
ATOM      9  C   UNL     1      -1.672  -0.676  -0.841  1.00  0.00     0.005 A 
ATOM     10  C   UNL     1      -1.143  -3.028  -0.983  1.00  0.00     0.031 A 
ATOM     11  C   UNL     1      -3.044  -0.955  -0.980  1.00  0.00     0.011 A 
ATOM     12  C   UNL     1      -2.515  -3.294  -1.019  1.00  0.00     0.047 A 
ATOM     13  C   UNL     1      -3.479  -2.293  -1.021  1.00  0.00     0.007 A 
ATOM     14  N   UNL     1      -3.177  -4.497  -1.004  1.00  0.00    -0.355 N 
ATOM     15  C   UNL     1      -4.761  -2.933  -1.018  1.00  0.00     0.009 A 
ATOM     16  C   UNL     1      -4.536  -4.310  -0.981  1.00  0.00     0.047 A 
ATOM     17  H   UNL     1      -2.735  -5.377  -1.010  1.00  0.00     0.167 HD
ATOM     18  C   UNL     1      -6.092  -2.468  -0.998  1.00  0.00     0.031 A 
ATOM     19  C   UNL     1      -5.568  -5.251  -0.927  1.00  0.00     0.028 A 
ATOM     20  C   UNL     1      -7.135  -3.400  -0.969  1.00  0.00     0.041 A 
ATOM     21  C   UNL     1      -6.877  -4.767  -0.944  1.00  0.00     0.022 A 
ATOM     22  Cl  UNL     1      -8.764  -2.843  -0.970  1.00  0.00    -0.084 Cl
ENDBRANCH   6   8
ENDBRANCH   4   6
ENDBRANCH   3   4
ENDBRANCH   2   3
ENDBRANCH   1   2
BRANCH   1  23
ATOM     23  O   UNL     1       0.804  -2.135   3.788  1.00  0.00    -0.458 OA
BRANCH  23  24
ATOM     24  C   UNL     1       0.100  -0.983   3.851  1.00  0.00     0.338 C 
ATOM     25  O   UNL     1       0.552   0.154   3.926  1.00  0.00    -0.246 OA
BRANCH  24  26
ATOM     26  C   UNL     1      -1.342  -1.269   3.850  1.00  0.00     0.060 A 
ATOM     27  C   UNL     1      -1.935  -1.839   2.728  1.00  0.00     0.016 A 
ATOM     28  C   UNL     1      -2.131  -0.855   4.926  1.00  0.00     0.016 A 
ATOM     29  C   UNL     1      -3.325  -1.924   2.649  1.00  0.00     0.010 A 
ATOM     30  C   UNL     1      -3.523  -1.009   4.870  1.00  0.00     0.010 A 
ATOM     31  C   UNL     1      -4.140  -1.506   3.710  1.00  0.00    -0.014 A 
BRANCH  31  32
ATOM     32  C   UNL     1      -5.625  -1.519   3.553  1.00  0.00     0.031 A 
ATOM     33  C   UNL     1      -6.396  -0.222   3.578  1.00  0.00     0.074 A 
ATOM     34  C   UNL     1      -6.278  -2.677   3.325  1.00  0.00     0.049 A 
ATOM     35  N   UNL     1      -7.689  -0.022   3.539  1.00  0.00    -0.248 NA
ATOM     36  C   UNL     1      -5.605   1.014   3.677  1.00  0.00     0.031 C 
ATOM     37  C   UNL     1      -5.642  -3.989   3.212  1.00  0.00     0.029 A 
ATOM     38  N   UNL     1      -7.608  -2.937   3.100  1.00  0.00    -0.354 N 
ATOM     39  C   UNL     1      -7.870   1.349   3.699  1.00  0.00     0.074 A 
ATOM     40  C   UNL     1      -6.550   1.933   3.807  1.00  0.00     0.031 C 
ATOM     41  C   UNL     1      -6.562  -4.893   2.841  1.00  0.00     0.029 A 
ATOM     42  C   UNL     1      -7.870  -4.250   2.771  1.00  0.00     0.049 A 
ATOM     43  H   UNL     1      -8.310  -2.249   3.167  1.00  0.00     0.167 HD
ATOM     44  C   UNL     1      -9.032   2.046   3.776  1.00  0.00     0.034 A 
ATOM     45  C   UNL     1      -9.029  -4.858   2.444  1.00  0.00     0.034 A 
ATOM     46  C   UNL     1     -10.337   1.454   3.603  1.00  0.00     0.049 A 
ATOM     47  C   UNL     1     -10.300  -4.044   2.469  1.00  0.00     0.074 A 
ATOM     48  C   UNL     1     -11.581   2.056   3.694  1.00  0.00     0.029 A 
ATOM     49  N   UNL     1     -10.568   0.122   3.281  1.00  0.00    -0.354 N 
ATOM     50  N   UNL     1     -10.461  -2.763   2.710  1.00  0.00    -0.248 NA
ATOM     51  C   UNL     1     -11.550  -4.767   2.197  1.00  0.00     0.031 C 
ATOM     52  C   UNL     1     -12.562   1.080   3.483  1.00  0.00     0.029 A 
ATOM     53  C   UNL     1     -11.931  -0.120   3.196  1.00  0.00     0.049 A 
ATOM     54  H   UNL     1      -9.866  -0.552   3.135  1.00  0.00     0.167 HD
ATOM     55  C   UNL     1     -11.830  -2.530   2.617  1.00  0.00     0.074 A 
ATOM     56  C   UNL     1     -12.442  -3.789   2.245  1.00  0.00     0.031 C 
ATOM     57  C   UNL     1     -12.526  -1.388   2.847  1.00  0.00     0.034 A 
BRANCH  44  58
ATOM     58  C   UNL     1      -8.940   3.500   4.179  1.00  0.00     0.023 A 
ATOM     59  C   UNL     1      -8.348   4.481   3.365  1.00  0.00     0.031 A 
ATOM     60  C   UNL     1      -9.418   3.894   5.443  1.00  0.00     0.131 A 
ATOM     61  C   UNL     1      -8.186   5.788   3.855  1.00  0.00     0.055 A 
ATOM     62  C   UNL     1      -9.323   5.212   5.893  1.00  0.00     0.041 A 
ATOM     63  F   UNL     1      -9.971   2.997   6.274  1.00  0.00    -0.206 F 
ATOM     64  C   UNL     1      -8.689   6.165   5.103  1.00  0.00     0.022 A 
BRANCH  61  65
ATOM     65  S   UNL     1      -7.176   6.957   2.903  1.00  0.00     0.124 S 
ATOM     66  O   UNL     1      -5.900   6.249   2.822  1.00  0.00    -0.237 OA
ATOM     67  O   UNL     1      -7.921   7.076   1.656  1.00  0.00    -0.237 OA
ATOM     68  O   UNL     1      -7.160   8.157   3.738  1.00  0.00    -0.744 OA
ENDBRANCH  61  65
ENDBRANCH  44  58
BRANCH  45  69
ATOM     69  C   UNL     1      -9.057  -6.297   2.039  1.00  0.00     0.023 A 
ATOM     70  C   UNL     1      -9.527  -6.664   0.766  1.00  0.00     0.031 A 
ATOM     71  C   UNL     1      -8.638  -7.328   2.897  1.00  0.00     0.131 A 
ATOM     72  C   UNL     1      -9.566  -8.014   0.386  1.00  0.00     0.055 A 
ATOM     73  C   UNL     1      -8.639  -8.668   2.500  1.00  0.00     0.041 A 
ATOM     74  F   UNL     1      -8.197  -7.048   4.134  1.00  0.00    -0.206 F 
ATOM     75  C   UNL     1      -9.111  -9.018   1.239  1.00  0.00     0.022 A 
BRANCH  72  76
ATOM     76  S   UNL     1     -10.260  -8.438  -1.235  1.00  0.00     0.124 S 
ATOM     77  O   UNL     1     -11.588  -7.841  -1.160  1.00  0.00    -0.237 OA
ATOM     78  O   UNL     1      -9.311  -7.792  -2.137  1.00  0.00    -0.237 OA
ATOM     79  O   UNL     1     -10.230  -9.899  -1.245  1.00  0.00    -0.744 OA
ENDBRANCH  72  76
ENDBRANCH  45  69
BRANCH  57  80
ATOM     80  C   UNL     1     -14.027  -1.469   2.718  1.00  0.00     0.023 A 
ATOM     81  C   UNL     1     -14.791  -2.243   3.611  1.00  0.00     0.031 A 
ATOM     82  C   UNL     1     -14.699  -0.787   1.690  1.00  0.00     0.131 A 
ATOM     83  C   UNL     1     -16.175  -2.368   3.422  1.00  0.00     0.055 A 
ATOM     84  C   UNL     1     -16.085  -0.870   1.541  1.00  0.00     0.041 A 
ATOM     85  F   UNL     1     -14.020  -0.031   0.813  1.00  0.00    -0.206 F 
ATOM     86  C   UNL     1     -16.829  -1.674   2.401  1.00  0.00     0.022 A 
BRANCH  83  87
ATOM     87  S   UNL     1     -17.097  -3.516   4.480  1.00  0.00     0.124 S 
ATOM     88  O   UNL     1     -16.454  -4.791   4.180  1.00  0.00    -0.237 OA
ATOM     89  O   UNL     1     -16.853  -2.978   5.815  1.00  0.00    -0.237 OA
ATOM     90  O   UNL     1     -18.474  -3.390   4.006  1.00  0.00    -0.744 OA
ENDBRANCH  83  87
ENDBRANCH  57  80
ENDBRANCH  31  32
ENDBRANCH  24  26
ENDBRANCH  23  24
ENDBRANCH   1  23
TORSDOF 15
