REMARK SMILES CC[C@]1(C(=O)OCCOC(=O)c2ccc(-c3c4nc(c(-c5cc(S(=O)(=O)[O-])ccc5F)c5ccc([nH]5)c(-c5cc(S(=O)(=O)[O-])ccc5F)c5nc(c(-c6cc(S(=O)(=O)[O-])ccc6F)c6ccc3[nH]6)C=C5)C=C4)cc2)CC[N@@H+](Cc2ccc(CC(C)C)cc2)C1
REMARK SMILES IDX 7 1 6 2 4 3 5 4 3 5 75 6 89 7 76 8 77 9 2 11 1 12 78 13
REMARK SMILES IDX 79 14 80 15 88 16 81 17 87 18 82 19 83 20 84 21 85 22 86 23
REMARK SMILES IDX 8 24 9 25 10 26 11 27 12 28 13 29 74 30 14 31 73 32 15 33
REMARK SMILES IDX 16 34 17 35 67 36 18 37 72 38 66 39 68 40 19 41 71 42 65 43
REMARK SMILES IDX 64 44 20 46 52 47 32 48 51 49 33 50 36 51 50 52 69 53 34 54
REMARK SMILES IDX 35 55 49 57 70 58 37 59 21 60 22 61 30 62 23 63 29 64 31 65
REMARK SMILES IDX 28 66 24 67 25 68 26 69 27 70 53 71 54 72 62 73 55 74 61 75
REMARK SMILES IDX 63 76 60 77 56 78 57 79 58 80 59 81 38 82 39 83 47 84 40 85
REMARK SMILES IDX 46 86 48 87 45 88 41 89 42 90 43 91 44 92
REMARK H PARENT 77 10 68 45 36 56
REMARK Flexibility Score: inf
ROOT
ATOM      1  C   UNL     1       3.212  -0.259  -3.817  1.00  0.00     0.274 C 
ENDROOT
BRANCH   1   2
ATOM      2  O   UNL     1       2.052  -0.898  -3.245  1.00  0.00    -0.461 OA
BRANCH   2   3
ATOM      3  C   UNL     1       2.229  -1.365  -1.975  1.00  0.00     0.318 C 
ATOM      4  O   UNL     1       3.252  -1.179  -1.325  1.00  0.00    -0.251 OA
BRANCH   3   5
ATOM      5  C   UNL     1       0.996  -2.105  -1.440  1.00  0.00     0.122 C 
ATOM      6  C   UNL     1       0.225  -2.837  -2.555  1.00  0.00     0.086 C 
ATOM      7  C   UNL     1       1.456  -3.250  -0.507  1.00  0.00     0.281 C 
ATOM      8  C   UNL     1      -0.179  -4.160  -1.932  1.00  0.00     0.263 C 
ATOM      9  N   UNL     1       0.905  -4.513  -1.019  1.00  0.00    -0.330 N 
ATOM     10  H   UNL     1       0.526  -5.071  -0.254  1.00  0.00     0.348 HD
BRANCH   5  11
ATOM     11  C   UNL     1       0.023  -1.144  -0.714  1.00  0.00     0.021 C 
ATOM     12  C   UNL     1       0.625  -0.322   0.419  1.00  0.00     0.005 C 
ENDBRANCH   5  11
BRANCH   9  13
ATOM     13  C   UNL     1       1.906  -5.453  -1.545  1.00  0.00     0.299 C 
BRANCH  13  14
ATOM     14  C   UNL     1       2.655  -5.039  -2.794  1.00  0.00     0.006 A 
ATOM     15  C   UNL     1       2.132  -5.332  -4.061  1.00  0.00     0.010 A 
ATOM     16  C   UNL     1       3.846  -4.307  -2.714  1.00  0.00     0.010 A 
ATOM     17  C   UNL     1       2.726  -4.816  -5.213  1.00  0.00     0.004 A 
ATOM     18  C   UNL     1       4.455  -3.810  -3.869  1.00  0.00     0.004 A 
ATOM     19  C   UNL     1       3.875  -4.022  -5.124  1.00  0.00    -0.048 A 
BRANCH  19  20
ATOM     20  C   UNL     1       4.447  -3.375  -6.359  1.00  0.00     0.038 C 
BRANCH  20  21
ATOM     21  C   UNL     1       5.641  -4.120  -6.977  1.00  0.00    -0.013 C 
ATOM     22  C   UNL     1       5.255  -5.511  -7.483  1.00  0.00     0.008 C 
ATOM     23  C   UNL     1       6.211  -3.291  -8.132  1.00  0.00     0.008 C 
ENDBRANCH  20  21
ENDBRANCH  19  20
ENDBRANCH  13  14
ENDBRANCH   9  13
ENDBRANCH   3   5
ENDBRANCH   2   3
ENDBRANCH   1   2
BRANCH   1  24
ATOM     24  C   UNL     1       2.824   0.436  -5.120  1.00  0.00     0.275 C 
BRANCH  24  25
ATOM     25  O   UNL     1       2.075   1.604  -4.752  1.00  0.00    -0.458 OA
BRANCH  25  26
ATOM     26  C   UNL     1       0.773   1.616  -5.104  1.00  0.00     0.338 C 
ATOM     27  O   UNL     1       0.229   0.986  -5.995  1.00  0.00    -0.246 OA
BRANCH  26  28
ATOM     28  C   UNL     1       0.075   2.427  -4.096  1.00  0.00     0.060 A 
ATOM     29  C   UNL     1       0.076   1.958  -2.782  1.00  0.00     0.016 A 
ATOM     30  C   UNL     1      -0.619   3.584  -4.431  1.00  0.00     0.016 A 
ATOM     31  C   UNL     1      -0.676   2.601  -1.807  1.00  0.00     0.010 A 
ATOM     32  C   UNL     1      -1.302   4.281  -3.425  1.00  0.00     0.010 A 
ATOM     33  C   UNL     1      -1.365   3.780  -2.109  1.00  0.00    -0.014 A 
BRANCH  33  34
ATOM     34  C   UNL     1      -2.219   4.425  -1.070  1.00  0.00     0.031 A 
ATOM     35  C   UNL     1      -3.694   4.589  -1.323  1.00  0.00     0.074 A 
ATOM     36  C   UNL     1      -1.702   4.812   0.114  1.00  0.00     0.049 A 
ATOM     37  N   UNL     1      -4.577   5.294  -0.665  1.00  0.00    -0.248 NA
ATOM     38  C   UNL     1      -4.240   3.878  -2.489  1.00  0.00     0.031 C 
ATOM     39  C   UNL     1      -0.307   4.646   0.530  1.00  0.00     0.029 A 
ATOM     40  N   UNL     1      -2.297   5.410   1.199  1.00  0.00    -0.354 N 
ATOM     41  C   UNL     1      -5.766   5.175  -1.379  1.00  0.00     0.074 A 
ATOM     42  C   UNL     1      -5.486   4.326  -2.519  1.00  0.00     0.031 C 
ATOM     43  C   UNL     1      -0.167   5.082   1.791  1.00  0.00     0.029 A 
ATOM     44  C   UNL     1      -1.432   5.651   2.242  1.00  0.00     0.049 A 
ATOM     45  H   UNL     1      -3.253   5.644   1.227  1.00  0.00     0.167 HD
ATOM     46  C   UNL     1      -6.973   5.732  -1.111  1.00  0.00     0.034 A 
ATOM     47  C   UNL     1      -1.622   6.297   3.410  1.00  0.00     0.034 A 
ATOM     48  C   UNL     1      -7.247   6.525   0.064  1.00  0.00     0.049 A 
ATOM     49  C   UNL     1      -2.969   6.912   3.686  1.00  0.00     0.074 A 
ATOM     50  C   UNL     1      -8.423   7.156   0.429  1.00  0.00     0.029 A 
ATOM     51  N   UNL     1      -6.333   6.775   1.081  1.00  0.00    -0.354 N 
ATOM     52  N   UNL     1      -4.050   6.903   2.940  1.00  0.00    -0.248 NA
ATOM     53  C   UNL     1      -3.113   7.643   4.951  1.00  0.00     0.031 C 
ATOM     54  C   UNL     1      -8.209   7.820   1.643  1.00  0.00     0.029 A 
ATOM     55  C   UNL     1      -6.917   7.556   2.067  1.00  0.00     0.049 A 
ATOM     56  H   UNL     1      -5.406   6.445   1.099  1.00  0.00     0.167 HD
ATOM     57  C   UNL     1      -4.999   7.639   3.642  1.00  0.00     0.074 A 
ATOM     58  C   UNL     1      -4.376   8.038   4.889  1.00  0.00     0.031 C 
ATOM     59  C   UNL     1      -6.266   7.970   3.287  1.00  0.00     0.034 A 
BRANCH  46  60
ATOM     60  C   UNL     1      -8.054   5.566  -2.152  1.00  0.00     0.023 A 
ATOM     61  C   UNL     1      -8.612   4.314  -2.463  1.00  0.00     0.031 A 
ATOM     62  C   UNL     1      -8.489   6.682  -2.889  1.00  0.00     0.131 A 
ATOM     63  C   UNL     1      -9.514   4.198  -3.533  1.00  0.00     0.055 A 
ATOM     64  C   UNL     1      -9.445   6.573  -3.900  1.00  0.00     0.041 A 
ATOM     65  F   UNL     1      -7.973   7.899  -2.654  1.00  0.00    -0.206 F 
ATOM     66  C   UNL     1      -9.952   5.322  -4.238  1.00  0.00     0.022 A 
BRANCH  63  67
ATOM     67  S   UNL     1      -9.995   2.539  -4.088  1.00  0.00     0.124 S 
ATOM     68  O   UNL     1      -8.700   1.959  -4.437  1.00  0.00    -0.237 OA
ATOM     69  O   UNL     1     -10.646   1.987  -2.906  1.00  0.00    -0.237 OA
ATOM     70  O   UNL     1     -10.878   2.800  -5.223  1.00  0.00    -0.744 OA
ENDBRANCH  63  67
ENDBRANCH  46  60
BRANCH  47  71
ATOM     71  C   UNL     1      -0.493   6.477   4.369  1.00  0.00     0.023 A 
ATOM     72  C   UNL     1      -0.528   5.904   5.650  1.00  0.00     0.031 A 
ATOM     73  C   UNL     1       0.623   7.263   4.028  1.00  0.00     0.131 A 
ATOM     74  C   UNL     1       0.517   6.151   6.554  1.00  0.00     0.055 A 
ATOM     75  C   UNL     1       1.683   7.463   4.912  1.00  0.00     0.041 A 
ATOM     76  F   UNL     1       0.704   7.837   2.817  1.00  0.00    -0.206 F 
ATOM     77  C   UNL     1       1.629   6.914   6.188  1.00  0.00     0.022 A 
BRANCH  74  78
ATOM     78  S   UNL     1       0.372   5.519   8.249  1.00  0.00     0.124 S 
ATOM     79  O   UNL     1      -0.853   6.165   8.705  1.00  0.00    -0.237 OA
ATOM     80  O   UNL     1       0.295   4.078   8.029  1.00  0.00    -0.237 OA
ATOM     81  O   UNL     1       1.600   5.983   8.892  1.00  0.00    -0.744 OA
ENDBRANCH  74  78
ENDBRANCH  47  71
BRANCH  59  82
ATOM     82  C   UNL     1      -7.046   8.796   4.277  1.00  0.00     0.023 A 
ATOM     83  C   UNL     1      -6.702  10.133   4.543  1.00  0.00     0.031 A 
ATOM     84  C   UNL     1      -8.110   8.227   4.996  1.00  0.00     0.131 A 
ATOM     85  C   UNL     1      -7.376  10.840   5.550  1.00  0.00     0.055 A 
ATOM     86  C   UNL     1      -8.812   8.952   5.960  1.00  0.00     0.041 A 
ATOM     87  F   UNL     1      -8.477   6.953   4.781  1.00  0.00    -0.206 F 
ATOM     88  C   UNL     1      -8.437  10.261   6.252  1.00  0.00     0.022 A 
BRANCH  85  89
ATOM     89  S   UNL     1      -6.781  12.493   6.001  1.00  0.00     0.124 S 
ATOM     90  O   UNL     1      -5.386  12.232   6.341  1.00  0.00    -0.237 OA
ATOM     91  O   UNL     1      -7.008  13.251   4.775  1.00  0.00    -0.237 OA
ATOM     92  O   UNL     1      -7.633  12.868   7.128  1.00  0.00    -0.744 OA
ENDBRANCH  85  89
ENDBRANCH  59  82
ENDBRANCH  33  34
ENDBRANCH  26  28
ENDBRANCH  25  26
ENDBRANCH  24  25
ENDBRANCH   1  24
TORSDOF 19
