REMARK SMILES COc1cccc(NC(=O)c2nccnc2C(=O)OCCOC(=O)c2ccc(-c3c4nc(c(-c5cc(S(=O)(=O)[O-])ccc5F)c5ccc([nH]5)c(-c5cc(S(=O)(=O)[O-])ccc5F)c5nc(c(-c6cc(S(=O)(=O)[O-])ccc6F)c6ccc3[nH]6)C=C5)C=C4)cc2)c1
REMARK SMILES IDX 20 1 19 2 17 3 18 4 16 5 11 6 12 7 13 8 15 9 14 10 9 11 8 12
REMARK SMILES IDX 10 14 7 15 3 16 4 17 88 18 5 19 6 20 2 21 1 22 21 23 22 24
REMARK SMILES IDX 23 25 24 26 25 27 26 28 87 29 27 30 86 31 28 32 29 33 30 34
REMARK SMILES IDX 80 35 31 36 85 37 79 38 81 39 32 40 84 41 78 42 77 43 33 45
REMARK SMILES IDX 65 46 45 47 64 48 46 49 49 50 63 51 82 52 47 53 48 54 62 56
REMARK SMILES IDX 83 57 50 58 34 59 35 60 43 61 36 62 42 63 44 64 41 65 37 66
REMARK SMILES IDX 38 67 39 68 40 69 66 70 67 71 75 72 68 73 74 74 76 75 73 76
REMARK SMILES IDX 69 77 70 78 71 79 72 80 51 81 52 82 60 83 53 84 59 85 61 86
REMARK SMILES IDX 58 87 54 88 55 89 56 90 57 91
REMARK H PARENT 8 13 81 44 49 55
REMARK Flexibility Score: inf
ROOT
ATOM      1  C   UNL     1       6.962   3.467   6.456  1.00  0.00     0.275 C 
ENDROOT
BRANCH   1   2
ATOM      2  O   UNL     1       5.698   2.776   6.502  1.00  0.00    -0.457 OA
BRANCH   2   3
ATOM      3  C   UNL     1       5.360   2.232   7.700  1.00  0.00     0.359 C 
ATOM      4  O   UNL     1       6.018   2.314   8.723  1.00  0.00    -0.244 OA
BRANCH   3   5
ATOM      5  C   UNL     1       4.011   1.604   7.660  1.00  0.00     0.179 A 
ATOM      6  C   UNL     1       3.510   0.864   6.600  1.00  0.00     0.161 A 
ATOM      7  N   UNL     1       2.287   0.243   6.665  1.00  0.00    -0.247 NA
ATOM      8  C   UNL     1       1.564   0.460   7.787  1.00  0.00     0.132 A 
ATOM      9  N   UNL     1       3.269   1.793   8.800  1.00  0.00    -0.245 NA
ATOM     10  C   UNL     1       2.042   1.227   8.829  1.00  0.00     0.132 A 
BRANCH   6  11
ATOM     11  C   UNL     1       4.287   0.602   5.369  1.00  0.00     0.276 C 
ATOM     12  N   UNL     1       3.711   0.650   4.113  1.00  0.00    -0.320 N 
ATOM     13  H   UNL     1       4.289   0.294   3.400  1.00  0.00     0.170 HD
ATOM     14  O   UNL     1       5.457   0.224   5.471  1.00  0.00    -0.267 OA
BRANCH  12  15
ATOM     15  C   UNL     1       2.458   1.108   3.649  1.00  0.00     0.045 A 
ATOM     16  C   UNL     1       0.814   1.022   1.847  1.00  0.00     0.120 A 
ATOM     17  C   UNL     1      -0.044   1.821   2.600  1.00  0.00     0.046 A 
ATOM     18  C   UNL     1       2.064   0.676   2.371  1.00  0.00     0.072 A 
ATOM     19  C   UNL     1       0.354   2.297   3.846  1.00  0.00     0.006 A 
ATOM     20  C   UNL     1       1.610   1.961   4.357  1.00  0.00     0.026 A 
BRANCH  16  21
ATOM     21  O   UNL     1       0.319   0.647   0.628  1.00  0.00    -0.497 OA
ATOM     22  C   UNL     1       1.095  -0.269  -0.130  1.00  0.00     0.278 C 
ENDBRANCH  16  21
ENDBRANCH  12  15
ENDBRANCH   6  11
ENDBRANCH   3   5
ENDBRANCH   2   3
ENDBRANCH   1   2
BRANCH   1  23
ATOM     23  C   UNL     1       6.772   4.941   6.089  1.00  0.00     0.275 C 
BRANCH  23  24
ATOM     24  O   UNL     1       6.019   5.649   7.092  1.00  0.00    -0.458 OA
BRANCH  24  25
ATOM     25  C   UNL     1       4.676   5.598   6.920  1.00  0.00     0.338 C 
ATOM     26  O   UNL     1       4.074   5.069   5.997  1.00  0.00    -0.246 OA
BRANCH  25  27
ATOM     27  C   UNL     1       3.987   6.147   8.099  1.00  0.00     0.060 A 
ATOM     28  C   UNL     1       3.067   5.313   8.735  1.00  0.00     0.016 A 
ATOM     29  C   UNL     1       4.158   7.466   8.524  1.00  0.00     0.016 A 
ATOM     30  C   UNL     1       2.297   5.794   9.787  1.00  0.00     0.010 A 
ATOM     31  C   UNL     1       3.382   7.950   9.589  1.00  0.00     0.010 A 
ATOM     32  C   UNL     1       2.435   7.121  10.217  1.00  0.00    -0.014 A 
BRANCH  32  33
ATOM     33  C   UNL     1       1.524   7.625  11.278  1.00  0.00     0.031 A 
ATOM     34  C   UNL     1       0.395   8.553  10.919  1.00  0.00     0.074 A 
ATOM     35  C   UNL     1       1.650   7.171  12.541  1.00  0.00     0.049 A 
ATOM     36  N   UNL     1      -0.509   9.096  11.693  1.00  0.00    -0.248 NA
ATOM     37  C   UNL     1       0.265   8.912   9.499  1.00  0.00     0.031 C 
ATOM     38  C   UNL     1       2.666   6.220  12.995  1.00  0.00     0.029 A 
ATOM     39  N   UNL     1       0.909   7.428  13.667  1.00  0.00    -0.354 N 
ATOM     40  C   UNL     1      -1.315   9.864  10.859  1.00  0.00     0.074 A 
ATOM     41  C   UNL     1      -0.769   9.741   9.523  1.00  0.00     0.031 C 
ATOM     42  C   UNL     1       2.467   5.955  14.296  1.00  0.00     0.029 A 
ATOM     43  C   UNL     1       1.347   6.754  14.784  1.00  0.00     0.049 A 
ATOM     44  H   UNL     1       0.136   8.038  13.675  1.00  0.00     0.167 HD
ATOM     45  C   UNL     1      -2.414  10.594  11.175  1.00  0.00     0.034 A 
ATOM     46  C   UNL     1       0.909   6.793  16.058  1.00  0.00     0.034 A 
ATOM     47  C   UNL     1      -2.948  10.711  12.511  1.00  0.00     0.049 A 
ATOM     48  C   UNL     1      -0.265   7.680  16.396  1.00  0.00     0.074 A 
ATOM     49  C   UNL     1      -4.033  11.453  12.947  1.00  0.00     0.029 A 
ATOM     50  N   UNL     1      -2.438  10.065  13.631  1.00  0.00    -0.354 N 
ATOM     51  N   UNL     1      -0.990   8.433  15.601  1.00  0.00    -0.248 NA
ATOM     52  C   UNL     1      -0.679   7.720  17.805  1.00  0.00     0.031 C 
ATOM     53  C   UNL     1      -4.147  11.297  14.333  1.00  0.00     0.029 A 
ATOM     54  C   UNL     1      -3.175  10.405  14.755  1.00  0.00     0.049 A 
ATOM     55  H   UNL     1      -1.665   9.455  13.627  1.00  0.00     0.167 HD
ATOM     56  C   UNL     1      -1.961   9.014  16.412  1.00  0.00     0.074 A 
ATOM     57  C   UNL     1      -1.745   8.503  17.749  1.00  0.00     0.031 C 
ATOM     58  C   UNL     1      -2.942   9.893  16.084  1.00  0.00     0.034 A 
BRANCH  45  59
ATOM     59  C   UNL     1      -3.080  11.360  10.060  1.00  0.00     0.023 A 
ATOM     60  C   UNL     1      -3.735  10.706   9.002  1.00  0.00     0.031 A 
ATOM     61  C   UNL     1      -3.048  12.766  10.047  1.00  0.00     0.131 A 
ATOM     62  C   UNL     1      -4.281  11.455   7.947  1.00  0.00     0.055 A 
ATOM     63  C   UNL     1      -3.654  13.508   9.031  1.00  0.00     0.041 A 
ATOM     64  F   UNL     1      -2.419  13.443  11.021  1.00  0.00    -0.206 F 
ATOM     65  C   UNL     1      -4.266  12.852   7.967  1.00  0.00     0.022 A 
BRANCH  62  66
ATOM     66  S   UNL     1      -4.912  10.576   6.492  1.00  0.00     0.124 S 
ATOM     67  O   UNL     1      -3.712   9.892   6.017  1.00  0.00    -0.237 OA
ATOM     68  O   UNL     1      -5.950   9.724   7.062  1.00  0.00    -0.237 OA
ATOM     69  O   UNL     1      -5.394  11.649   5.625  1.00  0.00    -0.744 OA
ENDBRANCH  62  66
ENDBRANCH  45  59
BRANCH  46  70
ATOM     70  C   UNL     1       1.598   6.013  17.129  1.00  0.00     0.023 A 
ATOM     71  C   UNL     1       0.915   5.035  17.869  1.00  0.00     0.031 A 
ATOM     72  C   UNL     1       2.929   6.298  17.484  1.00  0.00     0.131 A 
ATOM     73  C   UNL     1       1.544   4.420  18.964  1.00  0.00     0.055 A 
ATOM     74  C   UNL     1       3.570   5.638  18.533  1.00  0.00     0.041 A 
ATOM     75  F   UNL     1       3.627   7.229  16.815  1.00  0.00    -0.206 F 
ATOM     76  C   UNL     1       2.871   4.705  19.292  1.00  0.00     0.022 A 
BRANCH  73  77
ATOM     77  S   UNL     1       0.561   3.329  20.029  1.00  0.00     0.124 S 
ATOM     78  O   UNL     1      -0.554   4.195  20.395  1.00  0.00    -0.237 OA
ATOM     79  O   UNL     1       0.248   2.227  19.126  1.00  0.00    -0.237 OA
ATOM     80  O   UNL     1       1.479   3.000  21.118  1.00  0.00    -0.744 OA
ENDBRANCH  73  77
ENDBRANCH  46  70
BRANCH  58  81
ATOM     81  C   UNL     1      -3.876  10.312  17.193  1.00  0.00     0.023 A 
ATOM     82  C   UNL     1      -3.430  11.087  18.279  1.00  0.00     0.031 A 
ATOM     83  C   UNL     1      -5.219   9.898  17.182  1.00  0.00     0.131 A 
ATOM     84  C   UNL     1      -4.302  11.367  19.342  1.00  0.00     0.055 A 
ATOM     85  C   UNL     1      -6.098  10.230  18.215  1.00  0.00     0.041 A 
ATOM     86  F   UNL     1      -5.697   9.157  16.170  1.00  0.00    -0.206 F 
ATOM     87  C   UNL     1      -5.636  10.954  19.310  1.00  0.00     0.022 A 
BRANCH  84  88
ATOM     88  S   UNL     1      -3.640  12.190  20.817  1.00  0.00     0.124 S 
ATOM     89  O   UNL     1      -2.573  11.280  21.221  1.00  0.00    -0.237 OA
ATOM     90  O   UNL     1      -3.210  13.480  20.287  1.00  0.00    -0.237 OA
ATOM     91  O   UNL     1      -4.785  12.244  21.723  1.00  0.00    -0.744 OA
ENDBRANCH  84  88
ENDBRANCH  58  81
ENDBRANCH  32  33
ENDBRANCH  25  27
ENDBRANCH  24  25
ENDBRANCH  23  24
ENDBRANCH   1  23
TORSDOF 17
