REMARK SMILES C[C@@H](C(=O)OCCOC(=O)c1ccc(-c2c3nc(c(-c4cc(S(=O)(=O)[O-])ccc4F)c4ccc([nH]4)c(-c4cc(S(=O)(=O)[O-])ccc4F)c4nc(c(-c5cc(S(=O)(=O)[O-])ccc5F)c5ccc2[nH]5)C=C4)C=C3)cc1)[C@H](C)[N@H+]1C[C@H]2C[NH2+]C[C@@H]2[C@@H]1C
REMARK SMILES IDX 7 1 6 2 5 3 3 4 4 5 2 6 1 7 74 8 75 9 76 10 77 11 83 12
REMARK SMILES IDX 78 14 82 15 84 16 79 17 81 18 80 19 8 22 9 23 10 24 11 25
REMARK SMILES IDX 12 26 73 27 13 28 72 29 14 30 15 31 16 32 66 33 17 34 71 35
REMARK SMILES IDX 65 36 67 37 18 38 70 39 64 40 63 41 19 43 51 44 31 45 50 46
REMARK SMILES IDX 32 47 35 48 49 49 68 50 33 51 34 52 48 54 69 55 36 56 20 57
REMARK SMILES IDX 21 58 29 59 22 60 28 61 30 62 27 63 23 64 24 65 25 66 26 67
REMARK SMILES IDX 52 68 53 69 61 70 54 71 60 72 62 73 59 74 55 75 56 76 57 77
REMARK SMILES IDX 58 78 37 79 38 80 46 81 39 82 45 83 47 84 44 85 40 86 41 87
REMARK SMILES IDX 42 88 43 89
REMARK H PARENT 76 13 80 20 80 21 67 42 35 53
REMARK Flexibility Score: inf
ROOT
ATOM      1  C   UNL     1      -4.029   4.250   1.560  1.00  0.00     0.275 C 
ENDROOT
BRANCH   1   2
ATOM      2  C   UNL     1      -4.003   2.998   2.441  1.00  0.00     0.274 C 
BRANCH   2   3
ATOM      3  O   UNL     1      -2.695   2.428   2.391  1.00  0.00    -0.462 OA
BRANCH   3   4
ATOM      4  C   UNL     1      -2.562   1.201   1.831  1.00  0.00     0.314 C 
ATOM      5  O   UNL     1      -3.459   0.368   1.744  1.00  0.00    -0.252 OA
BRANCH   4   6
ATOM      6  C   UNL     1      -1.174   0.988   1.268  1.00  0.00     0.154 C 
ATOM      7  C   UNL     1      -0.103   1.891   1.899  1.00  0.00     0.026 C 
BRANCH   6   8
ATOM      8  C   UNL     1      -1.244   0.997  -0.282  1.00  0.00     0.195 C 
ATOM      9  C   UNL     1       0.163   0.663  -0.844  1.00  0.00     0.076 C 
BRANCH   8  10
ATOM     10  N   UNL     1      -1.764   2.221  -0.886  1.00  0.00    -0.329 N 
ATOM     11  C   UNL     1      -0.580   3.712  -1.276  1.00  0.00     0.272 C 
ATOM     12  C   UNL     1      -3.592   2.618  -1.467  1.00  0.00     0.190 C 
ATOM     13  H   UNL     1      -1.968   1.376  -0.352  1.00  0.00     0.348 HD
ATOM     14  C   UNL     1      -1.755   5.295  -1.657  1.00  0.00     0.114 C 
ATOM     15  C   UNL     1      -3.651   4.636  -1.903  1.00  0.00     0.116 C 
ATOM     16  C   UNL     1      -4.777   1.861  -0.851  1.00  0.00     0.076 C 
ATOM     17  C   UNL     1      -1.771   6.682  -2.243  1.00  0.00     0.270 C 
ATOM     18  C   UNL     1      -4.103   6.029  -1.375  1.00  0.00     0.271 C 
ATOM     19  N   UNL     1      -3.231   7.074  -2.082  1.00  0.00    -0.345 N 
ATOM     20  H   UNL     1      -3.619   7.236  -3.011  1.00  0.00     0.346 HD
ATOM     21  H   UNL     1      -3.241   7.905  -1.491  1.00  0.00     0.346 HD
ENDBRANCH   8  10
ENDBRANCH   6   8
ENDBRANCH   4   6
ENDBRANCH   3   4
ENDBRANCH   2   3
ENDBRANCH   1   2
BRANCH   1  22
ATOM     22  O   UNL     1      -3.850   3.958   0.143  1.00  0.00    -0.458 OA
BRANCH  22  23
ATOM     23  C   UNL     1      -2.489   3.913  -0.489  1.00  0.00     0.338 C 
ATOM     24  O   UNL     1      -1.734   4.175   0.484  1.00  0.00    -0.246 OA
BRANCH  23  25
ATOM     25  C   UNL     1      -2.122   3.442  -2.561  1.00  0.00     0.060 A 
ATOM     26  C   UNL     1      -1.701   2.088  -3.159  1.00  0.00     0.016 A 
ATOM     27  C   UNL     1      -2.216   4.229  -3.836  1.00  0.00     0.016 A 
ATOM     28  C   UNL     1      -1.356   1.685  -4.445  1.00  0.00     0.010 A 
ATOM     29  C   UNL     1      -2.034   3.806  -5.188  1.00  0.00     0.010 A 
ATOM     30  C   UNL     1      -1.583   2.536  -5.484  1.00  0.00    -0.014 A 
BRANCH  30  31
ATOM     31  C   UNL     1      -1.252   2.059  -6.828  1.00  0.00     0.031 A 
ATOM     32  C   UNL     1      -0.113   2.719  -7.529  1.00  0.00     0.074 A 
ATOM     33  C   UNL     1      -1.871   0.957  -7.294  1.00  0.00     0.049 A 
ATOM     34  N   UNL     1       0.352   2.501  -8.723  1.00  0.00    -0.248 NA
ATOM     35  C   UNL     1       0.588   3.782  -6.788  1.00  0.00     0.031 C 
ATOM     36  C   UNL     1      -2.925   0.215  -6.584  1.00  0.00     0.029 A 
ATOM     37  N   UNL     1      -1.679   0.232  -8.435  1.00  0.00    -0.354 N 
ATOM     38  C   UNL     1       1.374   3.426  -8.893  1.00  0.00     0.074 A 
ATOM     39  C   UNL     1       1.428   4.237  -7.700  1.00  0.00     0.031 C 
ATOM     40  C   UNL     1      -3.236  -0.888  -7.278  1.00  0.00     0.029 A 
ATOM     41  C   UNL     1      -2.495  -0.873  -8.529  1.00  0.00     0.049 A 
ATOM     42  H   UNL     1      -1.020   0.475  -9.124  1.00  0.00     0.167 HD
ATOM     43  C   UNL     1       2.192   3.561  -9.960  1.00  0.00     0.034 A 
ATOM     44  C   UNL     1      -2.650  -1.742  -9.544  1.00  0.00     0.034 A 
ATOM     45  C   UNL     1       2.087   2.702 -11.110  1.00  0.00     0.049 A 
ATOM     46  C   UNL     1      -1.792  -1.510 -10.759  1.00  0.00     0.074 A 
ATOM     47  C   UNL     1       2.806   2.739 -12.287  1.00  0.00     0.029 A 
ATOM     48  N   UNL     1       1.191   1.639 -11.218  1.00  0.00    -0.354 N 
ATOM     49  N   UNL     1      -0.876  -0.585 -10.951  1.00  0.00    -0.248 NA
ATOM     50  C   UNL     1      -1.985  -2.419 -11.889  1.00  0.00     0.031 C 
ATOM     51  C   UNL     1       2.289   1.755 -13.135  1.00  0.00     0.029 A 
ATOM     52  C   UNL     1       1.318   1.033 -12.454  1.00  0.00     0.049 A 
ATOM     53  H   UNL     1       0.560   1.361 -10.515  1.00  0.00     0.167 HD
ATOM     54  C   UNL     1      -0.365  -0.813 -12.222  1.00  0.00     0.074 A 
ATOM     55  C   UNL     1      -1.062  -1.980 -12.733  1.00  0.00     0.031 C 
ATOM     56  C   UNL     1       0.587  -0.128 -12.910  1.00  0.00     0.034 A 
BRANCH  43  57
ATOM     57  C   UNL     1       3.166   4.712  -9.938  1.00  0.00     0.023 A 
ATOM     58  C   UNL     1       4.162   4.830  -8.953  1.00  0.00     0.031 A 
ATOM     59  C   UNL     1       3.026   5.764 -10.859  1.00  0.00     0.131 A 
ATOM     60  C   UNL     1       4.913   6.011  -8.854  1.00  0.00     0.055 A 
ATOM     61  C   UNL     1       3.844   6.894 -10.816  1.00  0.00     0.041 A 
ATOM     62  F   UNL     1       2.065   5.731 -11.795  1.00  0.00    -0.206 F 
ATOM     63  C   UNL     1       4.783   7.032  -9.798  1.00  0.00     0.022 A 
BRANCH  60  64
ATOM     64  S   UNL     1       5.924   6.274  -7.370  1.00  0.00     0.124 S 
ATOM     65  O   UNL     1       4.913   6.228  -6.315  1.00  0.00    -0.237 OA
ATOM     66  O   UNL     1       6.851   5.150  -7.415  1.00  0.00    -0.237 OA
ATOM     67  O   UNL     1       6.523   7.588  -7.591  1.00  0.00    -0.744 OA
ENDBRANCH  60  64
ENDBRANCH  43  57
BRANCH  44  68
ATOM     68  C   UNL     1      -3.679  -2.822  -9.482  1.00  0.00     0.023 A 
ATOM     69  C   UNL     1      -3.333  -4.176  -9.611  1.00  0.00     0.031 A 
ATOM     70  C   UNL     1      -5.044  -2.511  -9.320  1.00  0.00     0.131 A 
ATOM     71  C   UNL     1      -4.337  -5.159  -9.620  1.00  0.00     0.055 A 
ATOM     72  C   UNL     1      -6.031  -3.497  -9.260  1.00  0.00     0.041 A 
ATOM     73  F   UNL     1      -5.443  -1.234  -9.200  1.00  0.00    -0.206 F 
ATOM     74  C   UNL     1      -5.681  -4.831  -9.425  1.00  0.00     0.022 A 
BRANCH  71  75
ATOM     75  S   UNL     1      -3.873  -6.871 -10.000  1.00  0.00     0.124 S 
ATOM     76  O   UNL     1      -3.199  -6.716 -11.284  1.00  0.00    -0.237 OA
ATOM     77  O   UNL     1      -3.022  -7.213  -8.865  1.00  0.00    -0.237 OA
ATOM     78  O   UNL     1      -5.156  -7.569 -10.048  1.00  0.00    -0.744 OA
ENDBRANCH  71  75
ENDBRANCH  44  68
BRANCH  56  79
ATOM     79  C   UNL     1       0.947  -0.673 -14.264  1.00  0.00     0.023 A 
ATOM     80  C   UNL     1       0.026  -0.677 -15.323  1.00  0.00     0.031 A 
ATOM     81  C   UNL     1       2.231  -1.197 -14.490  1.00  0.00     0.131 A 
ATOM     82  C   UNL     1       0.381  -1.262 -16.544  1.00  0.00     0.055 A 
ATOM     83  C   UNL     1       2.607  -1.698 -15.734  1.00  0.00     0.041 A 
ATOM     84  F   UNL     1       3.144  -1.220 -13.505  1.00  0.00    -0.206 F 
ATOM     85  C   UNL     1       1.673  -1.748 -16.765  1.00  0.00     0.022 A 
BRANCH  82  86
ATOM     86  S   UNL     1      -0.910  -1.497 -17.791  1.00  0.00     0.124 S 
ATOM     87  O   UNL     1      -1.883  -2.309 -17.067  1.00  0.00    -0.237 OA
ATOM     88  O   UNL     1      -1.317  -0.126 -18.083  1.00  0.00    -0.237 OA
ATOM     89  O   UNL     1      -0.214  -2.183 -18.878  1.00  0.00    -0.744 OA
ENDBRANCH  82  86
ENDBRANCH  56  79
ENDBRANCH  30  31
ENDBRANCH  23  25
ENDBRANCH  22  23
ENDBRANCH   1  22
TORSDOF 16
