REMARK SMILES CCOC(=O)c1c(NC(=O)[C@@H]2[C@@H](C(=O)OCCOC(=O)c3ccc(-c4c5nc(c(-c6cc(S(=O)(=O)[O-])ccc6F)c6ccc([nH]6)c(-c6cc(S(=O)(=O)[O-])ccc6F)c6nc(c(-c7cc(S(=O)(=O)[O-])ccc7F)c7ccc4[nH]7)C=C6)C=C5)cc3)[C@@H]3C=C[C@H]2CC3)sc2c1CCC2
REMARK SMILES IDX 16 1 15 2 13 3 14 4 12 5 11 6 87 7 84 8 86 9 88 10 85 11
REMARK SMILES IDX 89 12 9 13 8 14 10 16 7 17 6 18 92 19 90 20 91 21 93 22
REMARK SMILES IDX 95 23 94 24 4 25 5 26 3 27 2 28 1 29 17 30 18 31 19 32 20 33
REMARK SMILES IDX 21 34 22 35 83 36 23 37 82 38 24 39 25 40 26 41 76 42 27 43
REMARK SMILES IDX 81 44 75 45 77 46 28 47 80 48 74 49 73 50 29 52 61 53 41 54
REMARK SMILES IDX 60 55 42 56 45 57 59 58 78 59 43 60 44 61 58 63 79 64 46 65
REMARK SMILES IDX 30 66 31 67 39 68 32 69 38 70 40 71 37 72 33 73 34 74 35 75
REMARK SMILES IDX 36 76 62 77 63 78 71 79 64 80 70 81 72 82 69 83 65 84 66 85
REMARK SMILES IDX 67 86 68 87 47 88 48 89 56 90 49 91 55 92 57 93 54 94 50 95
REMARK SMILES IDX 51 96 52 97 53 98
REMARK H PARENT 8 15 77 51 45 62
REMARK Flexibility Score: inf
ROOT
ATOM      1  C   UNL     1       9.206   3.452  -8.353  1.00  0.00     0.274 C 
ENDROOT
BRANCH   1   2
ATOM      2  O   UNL     1       8.768   3.488  -6.982  1.00  0.00    -0.462 OA
BRANCH   2   3
ATOM      3  C   UNL     1       7.506   3.970  -6.780  1.00  0.00     0.310 C 
ATOM      4  O   UNL     1       6.798   4.436  -7.666  1.00  0.00    -0.252 OA
BRANCH   3   5
ATOM      5  C   UNL     1       7.141   3.973  -5.307  1.00  0.00     0.119 C 
ATOM      6  C   UNL     1       5.572   3.738  -5.052  1.00  0.00     0.100 C 
ATOM      7  C   UNL     1       5.060   5.114  -4.563  1.00  0.00     0.025 C 
ATOM      8  C   UNL     1       7.588   5.374  -4.762  1.00  0.00     0.026 C 
ATOM      9  C   UNL     1       5.737   5.413  -3.249  1.00  0.00    -0.027 C 
ATOM     10  C   UNL     1       5.384   6.204  -5.604  1.00  0.00     0.009 C 
ATOM     11  C   UNL     1       7.070   5.509  -3.344  1.00  0.00    -0.027 C 
ATOM     12  C   UNL     1       6.885   6.505  -5.562  1.00  0.00     0.009 C 
BRANCH   6  13
ATOM     13  C   UNL     1       5.325   2.509  -4.105  1.00  0.00     0.229 C 
ATOM     14  N   UNL     1       4.214   2.255  -3.331  1.00  0.00    -0.317 N 
ATOM     15  H   UNL     1       4.215   1.377  -2.886  1.00  0.00     0.170 HD
ATOM     16  O   UNL     1       6.208   1.643  -4.008  1.00  0.00    -0.274 OA
BRANCH  14  17
ATOM     17  C   UNL     1       3.103   3.026  -3.078  1.00  0.00     0.110 A 
ATOM     18  C   UNL     1       2.360   3.227  -1.910  1.00  0.00     0.098 A 
ATOM     19  C   UNL     1       1.785   4.528  -2.025  1.00  0.00    -0.017 A 
ATOM     20  S   UNL     1       2.209   3.729  -4.386  1.00  0.00    -0.122 S 
ATOM     21  C   UNL     1       1.809   4.966  -3.318  1.00  0.00     0.011 A 
ATOM     22  C   UNL     1       1.268   5.584  -1.116  1.00  0.00     0.038 C 
ATOM     23  C   UNL     1       1.523   6.403  -3.475  1.00  0.00     0.047 C 
ATOM     24  C   UNL     1       0.806   6.694  -2.124  1.00  0.00     0.010 C 
BRANCH  18  25
ATOM     25  C   UNL     1       2.304   2.386  -0.742  1.00  0.00     0.341 C 
ATOM     26  O   UNL     1       3.278   1.804  -0.245  1.00  0.00    -0.246 OA
BRANCH  25  27
ATOM     27  O   UNL     1       1.016   2.253  -0.336  1.00  0.00    -0.462 OA
BRANCH  27  28
ATOM     28  C   UNL     1       0.679   1.203   0.579  1.00  0.00     0.230 C 
ATOM     29  C   UNL     1       0.925  -0.175  -0.012  1.00  0.00     0.049 C 
ENDBRANCH  27  28
ENDBRANCH  25  27
ENDBRANCH  18  25
ENDBRANCH  14  17
ENDBRANCH   6  13
ENDBRANCH   3   5
ENDBRANCH   2   3
ENDBRANCH   1   2
BRANCH   1  30
ATOM     30  C   UNL     1       8.729   2.212  -9.101  1.00  0.00     0.275 C 
BRANCH  30  31
ATOM     31  O   UNL     1       7.331   2.252  -9.371  1.00  0.00    -0.458 OA
BRANCH  31  32
ATOM     32  C   UNL     1       6.556   1.709  -8.403  1.00  0.00     0.338 C 
ATOM     33  O   UNL     1       6.904   1.398  -7.276  1.00  0.00    -0.246 OA
BRANCH  32  34
ATOM     34  C   UNL     1       5.244   1.372  -8.954  1.00  0.00     0.060 A 
ATOM     35  C   UNL     1       4.321   0.812  -8.070  1.00  0.00     0.016 A 
ATOM     36  C   UNL     1       5.084   1.304 -10.345  1.00  0.00     0.016 A 
ATOM     37  C   UNL     1       3.366  -0.031  -8.588  1.00  0.00     0.010 A 
ATOM     38  C   UNL     1       4.131   0.461 -10.858  1.00  0.00     0.010 A 
ATOM     39  C   UNL     1       3.354  -0.273  -9.970  1.00  0.00    -0.014 A 
BRANCH  39  40
ATOM     40  C   UNL     1       2.389  -1.218 -10.489  1.00  0.00     0.031 A 
ATOM     41  C   UNL     1       1.015  -0.696 -10.344  1.00  0.00     0.074 A 
ATOM     42  C   UNL     1       2.716  -2.378 -11.090  1.00  0.00     0.049 A 
ATOM     43  N   UNL     1       0.163  -1.014  -9.430  1.00  0.00    -0.248 NA
ATOM     44  C   UNL     1       0.647   0.502 -11.116  1.00  0.00     0.031 C 
ATOM     45  C   UNL     1       4.039  -2.865 -11.488  1.00  0.00     0.029 A 
ATOM     46  N   UNL     1       1.891  -3.363 -11.537  1.00  0.00    -0.354 N 
ATOM     47  C   UNL     1      -0.962  -0.252  -9.702  1.00  0.00     0.074 A 
ATOM     48  C   UNL     1      -0.519   0.820 -10.550  1.00  0.00     0.031 C 
ATOM     49  C   UNL     1       3.899  -3.934 -12.310  1.00  0.00     0.029 A 
ATOM     50  C   UNL     1       2.492  -4.298 -12.379  1.00  0.00     0.049 A 
ATOM     51  H   UNL     1       0.941  -3.412 -11.286  1.00  0.00     0.167 HD
ATOM     52  C   UNL     1      -2.201  -0.759  -9.468  1.00  0.00     0.034 A 
ATOM     53  C   UNL     1       1.861  -5.269 -13.101  1.00  0.00     0.034 A 
ATOM     54  C   UNL     1      -2.126  -1.901  -8.581  1.00  0.00     0.049 A 
ATOM     55  C   UNL     1       0.561  -5.507 -12.419  1.00  0.00     0.074 A 
ATOM     56  C   UNL     1      -1.701  -2.106  -7.283  1.00  0.00     0.029 A 
ATOM     57  N   UNL     1      -2.153  -3.146  -9.168  1.00  0.00    -0.354 N 
ATOM     58  N   UNL     1       0.467  -5.991 -11.210  1.00  0.00    -0.248 NA
ATOM     59  C   UNL     1      -0.592  -4.742 -12.867  1.00  0.00     0.031 C 
ATOM     60  C   UNL     1      -1.063  -3.383  -7.297  1.00  0.00     0.029 A 
ATOM     61  C   UNL     1      -1.201  -3.937  -8.573  1.00  0.00     0.049 A 
ATOM     62  H   UNL     1      -2.756  -3.424  -9.895  1.00  0.00     0.167 HD
ATOM     63  C   UNL     1      -0.526  -5.242 -10.595  1.00  0.00     0.074 A 
ATOM     64  C   UNL     1      -1.201  -4.548 -11.693  1.00  0.00     0.031 C 
ATOM     65  C   UNL     1      -0.518  -5.034  -9.243  1.00  0.00     0.034 A 
BRANCH  52  66
ATOM     66  C   UNL     1      -3.389  -0.525 -10.376  1.00  0.00     0.023 A 
ATOM     67  C   UNL     1      -4.599  -1.140 -10.006  1.00  0.00     0.031 A 
ATOM     68  C   UNL     1      -3.338  -0.013 -11.694  1.00  0.00     0.131 A 
ATOM     69  C   UNL     1      -5.632  -1.318 -10.941  1.00  0.00     0.055 A 
ATOM     70  C   UNL     1      -4.393  -0.136 -12.600  1.00  0.00     0.041 A 
ATOM     71  F   UNL     1      -2.246   0.549 -12.222  1.00  0.00    -0.206 F 
ATOM     72  C   UNL     1      -5.537  -0.820 -12.238  1.00  0.00     0.022 A 
BRANCH  69  73
ATOM     73  S   UNL     1      -7.035  -2.361 -10.479  1.00  0.00     0.124 S 
ATOM     74  O   UNL     1      -6.370  -3.617 -10.149  1.00  0.00    -0.237 OA
ATOM     75  O   UNL     1      -7.605  -1.619  -9.360  1.00  0.00    -0.237 OA
ATOM     76  O   UNL     1      -7.851  -2.385 -11.691  1.00  0.00    -0.744 OA
ENDBRANCH  69  73
ENDBRANCH  52  66
BRANCH  53  77
ATOM     77  C   UNL     1       2.095  -5.607 -14.543  1.00  0.00     0.023 A 
ATOM     78  C   UNL     1       1.600  -6.783 -15.160  1.00  0.00     0.031 A 
ATOM     79  C   UNL     1       2.605  -4.615 -15.412  1.00  0.00     0.131 A 
ATOM     80  C   UNL     1       1.630  -6.922 -16.574  1.00  0.00     0.055 A 
ATOM     81  C   UNL     1       2.624  -4.755 -16.802  1.00  0.00     0.041 A 
ATOM     82  F   UNL     1       3.026  -3.430 -14.943  1.00  0.00    -0.206 F 
ATOM     83  C   UNL     1       2.128  -5.905 -17.390  1.00  0.00     0.022 A 
BRANCH  80  84
ATOM     84  S   UNL     1       0.956  -8.410 -17.395  1.00  0.00     0.124 S 
ATOM     85  O   UNL     1       1.867  -9.455 -16.943  1.00  0.00    -0.237 OA
ATOM     86  O   UNL     1      -0.406  -8.466 -16.877  1.00  0.00    -0.237 OA
ATOM     87  O   UNL     1       1.054  -8.090 -18.820  1.00  0.00    -0.744 OA
ENDBRANCH  80  84
ENDBRANCH  53  77
BRANCH  65  88
ATOM     88  C   UNL     1       0.372  -5.919  -8.385  1.00  0.00     0.023 A 
ATOM     89  C   UNL     1       1.780  -6.033  -8.485  1.00  0.00     0.031 A 
ATOM     90  C   UNL     1      -0.263  -6.616  -7.341  1.00  0.00     0.131 A 
ATOM     91  C   UNL     1       2.488  -6.832  -7.560  1.00  0.00     0.055 A 
ATOM     92  C   UNL     1       0.443  -7.380  -6.415  1.00  0.00     0.041 A 
ATOM     93  F   UNL     1      -1.595  -6.539  -7.184  1.00  0.00    -0.206 F 
ATOM     94  C   UNL     1       1.822  -7.496  -6.524  1.00  0.00     0.022 A 
BRANCH  91  95
ATOM     95  S   UNL     1       4.294  -7.062  -7.697  1.00  0.00     0.124 S 
ATOM     96  O   UNL     1       4.492  -7.375  -9.107  1.00  0.00    -0.237 OA
ATOM     97  O   UNL     1       4.812  -5.772  -7.248  1.00  0.00    -0.237 OA
ATOM     98  O   UNL     1       4.566  -8.175  -6.784  1.00  0.00    -0.744 OA
ENDBRANCH  91  95
ENDBRANCH  65  88
ENDBRANCH  39  40
ENDBRANCH  32  34
ENDBRANCH  31  32
ENDBRANCH  30  31
ENDBRANCH   1  30
TORSDOF 19
