REMARK SMILES O=C(Nc1ccccc1C(=O)OCCOC(=O)c1ccc(-c2c3nc(c(-c4cc(S(=O)(=O)[O-])ccc4F)c4ccc([nH]4)c(-c4cc(S(=O)(=O)[O-])ccc4F)c4nc(c(-c5cc(S(=O)(=O)[O-])ccc5F)c5ccc2[nH]5)C=C4)C=C3)cc1)c1ccc2c(c1)C(=O)N(Cc1ccccc1)C2=O
REMARK SMILES IDX 13 1 12 2 10 3 11 4 9 5 4 6 5 7 6 8 8 9 7 10 3 11 1 12 2 13
REMARK SMILES IDX 81 15 82 16 86 17 83 18 85 19 84 20 87 21 97 22 88 23 89 24
REMARK SMILES IDX 98 25 90 26 91 27 92 28 96 29 93 30 95 31 94 32 14 33 15 34
REMARK SMILES IDX 16 35 17 36 18 37 19 38 80 39 20 40 79 41 21 42 22 43 23 44
REMARK SMILES IDX 73 45 24 46 78 47 72 48 74 49 25 50 77 51 71 52 70 53 26 55
REMARK SMILES IDX 58 56 38 57 57 58 39 59 42 60 56 61 75 62 40 63 41 64 55 66
REMARK SMILES IDX 76 67 43 68 27 69 28 70 36 71 29 72 35 73 37 74 34 75 30 76
REMARK SMILES IDX 31 77 32 78 33 79 59 80 60 81 68 82 61 83 67 84 69 85 66 86
REMARK SMILES IDX 62 87 63 88 64 89 65 90 44 91 45 92 53 93 46 94 52 95 54 96
REMARK SMILES IDX 51 97 47 98 48 99 49 100 50 101
REMARK H PARENT 3 14 74 54 42 65
REMARK Flexibility Score: inf
ROOT
ATOM      1  C   UNL     1       2.274   2.628   1.422  1.00  0.00     0.275 C 
ENDROOT
BRANCH   1   2
ATOM      2  O   UNL     1       3.102   1.458   1.611  1.00  0.00    -0.458 OA
BRANCH   2   3
ATOM      3  C   UNL     1       4.057   1.234   0.673  1.00  0.00     0.340 C 
ATOM      4  O   UNL     1       4.412   2.004  -0.205  1.00  0.00    -0.246 OA
BRANCH   3   5
ATOM      5  C   UNL     1       4.681  -0.091   0.850  1.00  0.00     0.083 A 
ATOM      6  C   UNL     1       4.059  -1.316   0.570  1.00  0.00     0.056 A 
ATOM      7  C   UNL     1       4.723  -2.495   0.974  1.00  0.00     0.027 A 
ATOM      8  C   UNL     1       6.008  -2.475   1.521  1.00  0.00     0.002 A 
ATOM      9  C   UNL     1       5.975  -0.083   1.411  1.00  0.00     0.018 A 
ATOM     10  C   UNL     1       6.648  -1.264   1.716  1.00  0.00     0.001 A 
BRANCH   6  11
ATOM     11  N   UNL     1       2.813  -1.564  -0.042  1.00  0.00    -0.321 N 
ATOM     12  O   UNL     1       0.905  -1.368  -1.207  1.00  0.00    -0.269 OA
ATOM     13  C   UNL     1       2.040  -0.943  -0.985  1.00  0.00     0.255 C 
ATOM     14  H   UNL     1       2.395  -2.390   0.293  1.00  0.00     0.170 HD
BRANCH  13  15
ATOM     15  C   UNL     1       2.504   0.169  -1.821  1.00  0.00     0.041 A 
ATOM     16  C   UNL     1       3.447   0.004  -2.860  1.00  0.00     0.015 A 
ATOM     17  C   UNL     1       1.848   1.385  -1.640  1.00  0.00     0.028 A 
ATOM     18  C   UNL     1       3.784   1.091  -3.691  1.00  0.00     0.015 A 
ATOM     19  C   UNL     1       2.281   2.454  -2.394  1.00  0.00     0.054 A 
ATOM     20  C   UNL     1       3.206   2.319  -3.409  1.00  0.00     0.053 A 
ATOM     21  C   UNL     1       1.901   3.859  -2.297  1.00  0.00     0.261 C 
ATOM     22  C   UNL     1       3.324   3.637  -4.043  1.00  0.00     0.261 C 
ATOM     23  O   UNL     1       1.092   4.281  -1.503  1.00  0.00    -0.269 OA
ATOM     24  N   UNL     1       2.594   4.511  -3.280  1.00  0.00    -0.270 N 
ATOM     25  O   UNL     1       3.879   3.828  -5.111  1.00  0.00    -0.269 OA
BRANCH  24  26
ATOM     26  C   UNL     1       2.337   5.893  -3.625  1.00  0.00     0.164 C 
BRANCH  26  27
ATOM     27  C   UNL     1       2.893   6.960  -2.703  1.00  0.00    -0.028 A 
ATOM     28  C   UNL     1       3.878   6.732  -1.732  1.00  0.00     0.005 A 
ATOM     29  C   UNL     1       2.412   8.274  -2.866  1.00  0.00     0.005 A 
ATOM     30  C   UNL     1       4.355   7.787  -0.943  1.00  0.00     0.000 A 
ATOM     31  C   UNL     1       2.890   9.325  -2.080  1.00  0.00     0.000 A 
ATOM     32  C   UNL     1       3.863   9.081  -1.117  1.00  0.00     0.000 A 
ENDBRANCH  26  27
ENDBRANCH  24  26
ENDBRANCH  13  15
ENDBRANCH   6  11
ENDBRANCH   3   5
ENDBRANCH   2   3
ENDBRANCH   1   2
BRANCH   1  33
ATOM     33  C   UNL     1       2.644   3.874   2.221  1.00  0.00     0.275 C 
BRANCH  33  34
ATOM     34  O   UNL     1       3.909   4.410   1.810  1.00  0.00    -0.458 OA
BRANCH  34  35
ATOM     35  C   UNL     1       4.936   3.938   2.542  1.00  0.00     0.338 C 
ATOM     36  O   UNL     1       4.879   3.158   3.479  1.00  0.00    -0.246 OA
BRANCH  35  37
ATOM     37  C   UNL     1       6.216   4.408   2.013  1.00  0.00     0.060 A 
ATOM     38  C   UNL     1       6.934   3.514   1.226  1.00  0.00     0.016 A 
ATOM     39  C   UNL     1       6.824   5.540   2.546  1.00  0.00     0.016 A 
ATOM     40  C   UNL     1       8.308   3.630   1.132  1.00  0.00     0.010 A 
ATOM     41  C   UNL     1       8.194   5.721   2.348  1.00  0.00     0.010 A 
ATOM     42  C   UNL     1       8.957   4.725   1.709  1.00  0.00    -0.014 A 
BRANCH  42  43
ATOM     43  C   UNL     1      10.440   4.759   1.752  1.00  0.00     0.031 A 
ATOM     44  C   UNL     1      11.134   4.791   3.087  1.00  0.00     0.074 A 
ATOM     45  C   UNL     1      11.153   4.709   0.612  1.00  0.00     0.049 A 
ATOM     46  N   UNL     1      12.381   5.058   3.368  1.00  0.00    -0.248 NA
ATOM     47  C   UNL     1      10.301   4.502   4.266  1.00  0.00     0.031 C 
ATOM     48  C   UNL     1      10.592   4.569  -0.735  1.00  0.00     0.029 A 
ATOM     49  N   UNL     1      12.506   4.763   0.402  1.00  0.00    -0.354 N 
ATOM     50  C   UNL     1      12.469   5.042   4.758  1.00  0.00     0.074 A 
ATOM     51  C   UNL     1      11.145   4.740   5.259  1.00  0.00     0.031 C 
ATOM     52  C   UNL     1      11.592   4.523  -1.626  1.00  0.00     0.029 A 
ATOM     53  C   UNL     1      12.851   4.747  -0.929  1.00  0.00     0.049 A 
ATOM     54  H   UNL     1      13.166   4.809   1.131  1.00  0.00     0.167 HD
ATOM     55  C   UNL     1      13.558   5.270   5.532  1.00  0.00     0.034 A 
ATOM     56  C   UNL     1      14.039   4.963  -1.525  1.00  0.00     0.034 A 
ATOM     57  C   UNL     1      14.871   5.523   4.987  1.00  0.00     0.049 A 
ATOM     58  C   UNL     1      15.223   5.278  -0.652  1.00  0.00     0.074 A 
ATOM     59  C   UNL     1      16.055   5.775   5.657  1.00  0.00     0.029 A 
ATOM     60  N   UNL     1      15.174   5.543   3.629  1.00  0.00    -0.354 N 
ATOM     61  N   UNL     1      15.283   5.364   0.658  1.00  0.00    -0.248 NA
ATOM     62  C   UNL     1      16.493   5.540  -1.335  1.00  0.00     0.031 C 
ATOM     63  C   UNL     1      17.056   6.006   4.707  1.00  0.00     0.029 A 
ATOM     64  C   UNL     1      16.518   5.824   3.442  1.00  0.00     0.049 A 
ATOM     65  H   UNL     1      14.526   5.382   2.905  1.00  0.00     0.167 HD
ATOM     66  C   UNL     1      16.605   5.676   0.957  1.00  0.00     0.074 A 
ATOM     67  C   UNL     1      17.308   5.740  -0.310  1.00  0.00     0.031 C 
ATOM     68  C   UNL     1      17.187   5.894   2.164  1.00  0.00     0.034 A 
BRANCH  55  69
ATOM     69  C   UNL     1      13.352   5.337   7.028  1.00  0.00     0.023 A 
ATOM     70  C   UNL     1      12.914   4.233   7.780  1.00  0.00     0.031 A 
ATOM     71  C   UNL     1      13.553   6.553   7.709  1.00  0.00     0.131 A 
ATOM     72  C   UNL     1      12.619   4.386   9.146  1.00  0.00     0.055 A 
ATOM     73  C   UNL     1      13.337   6.678   9.083  1.00  0.00     0.041 A 
ATOM     74  F   UNL     1      13.947   7.651   7.044  1.00  0.00    -0.206 F 
ATOM     75  C   UNL     1      12.852   5.595   9.807  1.00  0.00     0.022 A 
BRANCH  72  76
ATOM     76  S   UNL     1      11.785   3.028  10.013  1.00  0.00     0.124 S 
ATOM     77  O   UNL     1      10.565   2.880   9.224  1.00  0.00    -0.237 OA
ATOM     78  O   UNL     1      12.753   1.942   9.903  1.00  0.00    -0.237 OA
ATOM     79  O   UNL     1      11.586   3.553  11.363  1.00  0.00    -0.744 OA
ENDBRANCH  72  76
ENDBRANCH  55  69
BRANCH  56  80
ATOM     80  C   UNL     1      14.142   4.974  -3.012  1.00  0.00     0.023 A 
ATOM     81  C   UNL     1      14.935   4.037  -3.690  1.00  0.00     0.031 A 
ATOM     82  C   UNL     1      13.455   5.935  -3.778  1.00  0.00     0.131 A 
ATOM     83  C   UNL     1      15.046   4.098  -5.088  1.00  0.00     0.055 A 
ATOM     84  C   UNL     1      13.522   5.955  -5.172  1.00  0.00     0.041 A 
ATOM     85  F   UNL     1      12.683   6.856  -3.180  1.00  0.00    -0.206 F 
ATOM     86  C   UNL     1      14.331   5.038  -5.834  1.00  0.00     0.022 A 
BRANCH  83  87
ATOM     87  S   UNL     1      16.199   2.970  -5.916  1.00  0.00     0.124 S 
ATOM     88  O   UNL     1      17.461   3.305  -5.265  1.00  0.00    -0.237 OA
ATOM     89  O   UNL     1      15.635   1.665  -5.588  1.00  0.00    -0.237 OA
ATOM     90  O   UNL     1      16.101   3.355  -7.322  1.00  0.00    -0.744 OA
ENDBRANCH  83  87
ENDBRANCH  56  80
BRANCH  68  91
ATOM     91  C   UNL     1      18.668   6.174   2.153  1.00  0.00     0.023 A 
ATOM     92  C   UNL     1      19.190   7.360   1.610  1.00  0.00     0.031 A 
ATOM     93  C   UNL     1      19.567   5.225   2.671  1.00  0.00     0.131 A 
ATOM     94  C   UNL     1      20.579   7.540   1.541  1.00  0.00     0.055 A 
ATOM     95  C   UNL     1      20.945   5.438   2.656  1.00  0.00     0.041 A 
ATOM     96  F   UNL     1      19.119   4.074   3.198  1.00  0.00    -0.206 F 
ATOM     97  C   UNL     1      21.459   6.595   2.075  1.00  0.00     0.022 A 
BRANCH  94  98
ATOM     98  S   UNL     1      21.224   8.982   0.652  1.00  0.00     0.124 S 
ATOM     99  O   UNL     1      20.665   8.790  -0.683  1.00  0.00    -0.237 OA
ATOM    100  O   UNL     1      20.674  10.095   1.419  1.00  0.00    -0.237 OA
ATOM    101  O   UNL     1      22.674   8.822   0.746  1.00  0.00    -0.744 OA
ENDBRANCH  94  98
ENDBRANCH  68  91
ENDBRANCH  42  43
ENDBRANCH  35  37
ENDBRANCH  34  35
ENDBRANCH  33  34
ENDBRANCH   1  33
TORSDOF 18
