REMARK SMILES Cc1oc2c(C)c3oc(=O)c(CCC(=O)N[C@H](Cc4ccc(Cl)cc4)C(=O)OCCOC(=O)c4ccc(-c5c6nc(c(-c7cc(S(=O)(=O)[O-])ccc7F)c7ccc([nH]7)c(-c7cc(S(=O)(=O)[O-])ccc7F)c7nc(c(-c8cc(S(=O)(=O)[O-])ccc8F)c8ccc5[nH]8)C=C7)C=C6)cc4)c(C)c3cc2c1C
REMARK SMILES IDX 29 1 28 2 26 3 27 4 17 5 16 6 14 7 15 8 13 10 12 11 11 12
REMARK SMILES IDX 1 13 2 14 3 15 102 16 4 17 101 18 103 19 5 20 100 21 6 22
REMARK SMILES IDX 7 23 99 24 8 25 97 26 9 27 98 28 10 29 18 30 19 31 20 32
REMARK SMILES IDX 25 33 21 34 24 35 22 36 23 37 30 38 31 39 32 40 33 41 34 42
REMARK SMILES IDX 35 43 96 44 36 45 95 46 37 47 38 48 39 49 89 50 40 51 94 52
REMARK SMILES IDX 88 53 90 54 41 55 93 56 87 57 86 58 42 60 74 61 54 62 73 63
REMARK SMILES IDX 55 64 58 65 72 66 91 67 56 68 57 69 71 71 92 72 59 73 43 74
REMARK SMILES IDX 44 75 52 76 45 77 51 78 53 79 50 80 46 81 47 82 48 83 49 84
REMARK SMILES IDX 75 85 76 86 84 87 77 88 83 89 85 90 82 91 78 92 79 93 80 94
REMARK SMILES IDX 81 95 60 96 61 97 69 98 62 99 68 100 70 101 67 102 63 103
REMARK SMILES IDX 64 104 65 105 66 106
REMARK H PARENT 16 9 90 59 58 70
REMARK Flexibility Score: inf
ROOT
ATOM      1  C   UNL     1      -3.310   0.079  -4.242  1.00  0.00     0.274 C 
ENDROOT
BRANCH   1   2
ATOM      2  O   UNL     1      -2.436   1.232  -3.708  1.00  0.00    -0.461 OA
BRANCH   2   3
ATOM      3  C   UNL     1      -1.067   1.397  -3.795  1.00  0.00     0.329 C 
ATOM      4  O   UNL     1      -0.303   0.524  -3.387  1.00  0.00    -0.250 OA
BRANCH   3   5
ATOM      5  C   UNL     1      -0.505   2.698  -4.636  1.00  0.00     0.196 C 
BRANCH   5   6
ATOM      6  N   UNL     1       0.837   2.388  -5.187  1.00  0.00    -0.342 N 
ATOM      7  C   UNL     1       1.278   2.381  -6.487  1.00  0.00     0.221 C 
ATOM      8  O   UNL     1       2.165   1.559  -6.745  1.00  0.00    -0.275 OA
ATOM      9  H   UNL     1       1.517   2.151  -4.515  1.00  0.00     0.164 HD
BRANCH   7  10
ATOM     10  C   UNL     1       0.830   3.392  -7.572  1.00  0.00     0.105 C 
BRANCH  10  11
ATOM     11  C   UNL     1      -0.377   3.125  -8.496  1.00  0.00     0.053 C 
BRANCH  11  12
ATOM     12  C   UNL     1      -1.687   3.650  -7.934  1.00  0.00     0.042 A 
ATOM     13  C   UNL     1      -7.222   3.835  -1.601  1.00  0.00     0.088 C 
ATOM     14  C   UNL     1      -6.205   3.972  -2.670  1.00  0.00     0.105 A 
ATOM     15  O   UNL     1      -6.465   4.791  -3.747  1.00  0.00    -0.461 OA
ATOM     16  C   UNL     1      -4.977   3.357  -2.810  1.00  0.00    -0.002 A 
ATOM     17  C   UNL     1      -5.447   4.606  -4.659  1.00  0.00     0.141 A 
ATOM     18  C   UNL     1      -4.633   3.613  -4.170  1.00  0.00     0.025 A 
ATOM     19  C   UNL     1      -4.254   2.578  -1.760  1.00  0.00     0.049 C 
ATOM     20  C   UNL     1      -5.183   5.239  -5.907  1.00  0.00     0.036 A 
ATOM     21  C   UNL     1      -3.734   3.124  -5.108  1.00  0.00     0.024 A 
ATOM     22  C   UNL     1      -6.127   6.265  -6.430  1.00  0.00     0.052 C 
ATOM     23  C   UNL     1      -4.048   4.745  -6.663  1.00  0.00     0.145 A 
ATOM     24  C   UNL     1      -3.456   3.553  -6.370  1.00  0.00     0.022 A 
ATOM     25  O   UNL     1      -3.422   5.453  -7.716  1.00  0.00    -0.422 OA
ATOM     26  C   UNL     1      -2.462   2.839  -7.208  1.00  0.00    -0.030 A 
ATOM     27  C   UNL     1      -2.144   5.051  -8.185  1.00  0.00     0.339 A 
ATOM     28  C   UNL     1      -2.115   1.341  -7.151  1.00  0.00     0.046 C 
ATOM     29  O   UNL     1      -1.417   5.820  -8.819  1.00  0.00    -0.246 OA
ENDBRANCH  11  12
ENDBRANCH  10  11
ENDBRANCH   7  10
ENDBRANCH   5   6
BRANCH   5  30
ATOM     30  C   UNL     1      -0.684   4.233  -4.467  1.00  0.00     0.072 C 
BRANCH  30  31
ATOM     31  C   UNL     1      -0.778   4.881  -3.127  1.00  0.00    -0.045 A 
ATOM     32  C   UNL     1      -2.022   5.280  -2.625  1.00  0.00     0.005 A 
ATOM     33  C   UNL     1       0.369   5.211  -2.410  1.00  0.00     0.005 A 
ATOM     34  C   UNL     1      -2.149   5.786  -1.337  1.00  0.00     0.021 A 
ATOM     35  C   UNL     1       0.255   5.764  -1.135  1.00  0.00     0.021 A 
ATOM     36  C   UNL     1      -1.004   5.986  -0.579  1.00  0.00     0.041 A 
ATOM     37  Cl  UNL     1      -1.147   6.498   1.055  1.00  0.00    -0.084 Cl
ENDBRANCH  30  31
ENDBRANCH   5  30
ENDBRANCH   3   5
ENDBRANCH   2   3
ENDBRANCH   1   2
BRANCH   1  38
ATOM     38  C   UNL     1      -4.773   0.395  -5.109  1.00  0.00     0.275 C 
BRANCH  38  39
ATOM     39  O   UNL     1      -4.740   0.891  -6.556  1.00  0.00    -0.458 OA
BRANCH  39  40
ATOM     40  C   UNL     1      -5.792   1.611  -7.144  1.00  0.00     0.338 C 
ATOM     41  O   UNL     1      -6.878   1.726  -6.601  1.00  0.00    -0.246 OA
BRANCH  40  42
ATOM     42  C   UNL     1      -5.454   2.413  -8.462  1.00  0.00     0.060 A 
ATOM     43  C   UNL     1      -4.428   2.083  -9.351  1.00  0.00     0.016 A 
ATOM     44  C   UNL     1      -6.115   3.627  -8.769  1.00  0.00     0.016 A 
ATOM     45  C   UNL     1      -3.954   2.996 -10.356  1.00  0.00     0.010 A 
ATOM     46  C   UNL     1      -5.658   4.536  -9.795  1.00  0.00     0.010 A 
ATOM     47  C   UNL     1      -4.523   4.267 -10.576  1.00  0.00    -0.014 A 
BRANCH  47  48
ATOM     48  C   UNL     1      -4.103   5.034 -11.826  1.00  0.00     0.031 A 
ATOM     49  C   UNL     1      -5.169   4.870 -12.863  1.00  0.00     0.074 A 
ATOM     50  C   UNL     1      -3.363   6.156 -12.079  1.00  0.00     0.049 A 
ATOM     51  N   UNL     1      -6.250   5.592 -12.858  1.00  0.00    -0.248 NA
ATOM     52  C   UNL     1      -5.226   3.700 -13.733  1.00  0.00     0.031 C 
ATOM     53  C   UNL     1      -3.181   7.300 -11.183  1.00  0.00     0.029 A 
ATOM     54  N   UNL     1      -2.783   6.602 -13.280  1.00  0.00    -0.354 N 
ATOM     55  C   UNL     1      -7.164   4.946 -13.661  1.00  0.00     0.074 A 
ATOM     56  C   UNL     1      -6.486   3.778 -14.185  1.00  0.00     0.031 C 
ATOM     57  C   UNL     1      -2.680   8.344 -11.887  1.00  0.00     0.029 A 
ATOM     58  C   UNL     1      -2.350   7.940 -13.264  1.00  0.00     0.049 A 
ATOM     59  H   UNL     1      -2.687   6.023 -14.070  1.00  0.00     0.167 HD
ATOM     60  C   UNL     1      -8.436   5.386 -13.830  1.00  0.00     0.034 A 
ATOM     61  C   UNL     1      -2.352   8.825 -14.315  1.00  0.00     0.034 A 
ATOM     62  C   UNL     1      -8.767   6.627 -13.197  1.00  0.00     0.049 A 
ATOM     63  C   UNL     1      -3.824   9.060 -14.511  1.00  0.00     0.074 A 
ATOM     64  C   UNL     1      -9.326   7.043 -12.007  1.00  0.00     0.029 A 
ATOM     65  N   UNL     1      -8.434   7.795 -13.842  1.00  0.00    -0.354 N 
ATOM     66  N   UNL     1      -4.599   9.849 -13.822  1.00  0.00    -0.248 NA
ATOM     67  C   UNL     1      -4.519   8.082 -15.348  1.00  0.00     0.031 C 
ATOM     68  C   UNL     1      -8.860   8.382 -11.811  1.00  0.00     0.029 A 
ATOM     69  C   UNL     1      -8.013   8.676 -12.877  1.00  0.00     0.049 A 
ATOM     70  H   UNL     1      -8.487   7.967 -14.810  1.00  0.00     0.167 HD
ATOM     71  C   UNL     1      -5.869   9.283 -13.921  1.00  0.00     0.074 A 
ATOM     72  C   UNL     1      -5.755   8.217 -14.898  1.00  0.00     0.031 C 
ATOM     73  C   UNL     1      -6.895   9.571 -13.069  1.00  0.00     0.034 A 
BRANCH  60  74
ATOM     74  C   UNL     1      -9.409   4.730 -14.717  1.00  0.00     0.023 A 
ATOM     75  C   UNL     1      -9.643   5.307 -15.970  1.00  0.00     0.031 A 
ATOM     76  C   UNL     1     -10.225   3.677 -14.291  1.00  0.00     0.131 A 
ATOM     77  C   UNL     1     -10.714   4.865 -16.748  1.00  0.00     0.055 A 
ATOM     78  C   UNL     1     -11.287   3.227 -15.079  1.00  0.00     0.041 A 
ATOM     79  F   UNL     1     -10.031   3.101 -13.094  1.00  0.00    -0.206 F 
ATOM     80  C   UNL     1     -11.546   3.834 -16.309  1.00  0.00     0.022 A 
BRANCH  77  81
ATOM     81  S   UNL     1     -11.031   5.731 -18.304  1.00  0.00     0.124 S 
ATOM     82  O   UNL     1     -11.169   7.111 -17.860  1.00  0.00    -0.237 OA
ATOM     83  O   UNL     1      -9.824   5.419 -19.063  1.00  0.00    -0.237 OA
ATOM     84  O   UNL     1     -12.257   5.103 -18.795  1.00  0.00    -0.744 OA
ENDBRANCH  77  81
ENDBRANCH  60  74
BRANCH  61  85
ATOM     85  C   UNL     1      -1.444   8.703 -15.521  1.00  0.00     0.023 A 
ATOM     86  C   UNL     1      -0.063   8.495 -15.334  1.00  0.00     0.031 A 
ATOM     87  C   UNL     1      -1.852   8.891 -16.864  1.00  0.00     0.131 A 
ATOM     88  C   UNL     1       0.814   8.377 -16.438  1.00  0.00     0.055 A 
ATOM     89  C   UNL     1      -0.995   8.714 -17.960  1.00  0.00     0.041 A 
ATOM     90  F   UNL     1      -3.102   9.266 -17.173  1.00  0.00    -0.206 F 
ATOM     91  C   UNL     1       0.346   8.435 -17.750  1.00  0.00     0.022 A 
BRANCH  88  92
ATOM     92  S   UNL     1       2.590   8.116 -16.157  1.00  0.00     0.124 S 
ATOM     93  O   UNL     1       3.054   9.467 -15.863  1.00  0.00    -0.237 OA
ATOM     94  O   UNL     1       2.601   7.177 -15.039  1.00  0.00    -0.237 OA
ATOM     95  O   UNL     1       3.056   7.560 -17.426  1.00  0.00    -0.744 OA
ENDBRANCH  88  92
ENDBRANCH  61  85
BRANCH  73  96
ATOM     96  C   UNL     1      -6.685  10.720 -12.138  1.00  0.00     0.023 A 
ATOM     97  C   UNL     1      -6.746  12.036 -12.624  1.00  0.00     0.031 A 
ATOM     98  C   UNL     1      -6.497  10.527 -10.759  1.00  0.00     0.131 A 
ATOM     99  C   UNL     1      -6.663  13.115 -11.733  1.00  0.00     0.055 A 
ATOM    100  C   UNL     1      -6.433  11.603  -9.873  1.00  0.00     0.041 A 
ATOM    101  F   UNL     1      -6.406   9.291 -10.238  1.00  0.00    -0.206 F 
ATOM    102  C   UNL     1      -6.527  12.905 -10.358  1.00  0.00     0.022 A 
BRANCH  99 103
ATOM    103  S   UNL     1      -6.816  14.803 -12.378  1.00  0.00     0.124 S 
ATOM    104  O   UNL     1      -5.533  15.002 -13.049  1.00  0.00    -0.237 OA
ATOM    105  O   UNL     1      -7.983  14.715 -13.244  1.00  0.00    -0.237 OA
ATOM    106  O   UNL     1      -7.010  15.610 -11.171  1.00  0.00    -0.744 OA
ENDBRANCH  99 103
ENDBRANCH  73  96
ENDBRANCH  47  48
ENDBRANCH  40  42
ENDBRANCH  39  40
ENDBRANCH  38  39
ENDBRANCH   1  38
TORSDOF 20
