REMARK SMILES C[C@]1(C(=O)N2CCC(CC(=O)OCCOC(=O)c3ccc(-c4c5nc(c(-c6cc(S(=O)(=O)[O-])ccc6F)c6ccc([nH]6)c(-c6cc(S(=O)(=O)[O-])ccc6F)c6nc(c(-c7cc(S(=O)(=O)[O-])ccc7F)c7ccc4[nH]7)C=C6)C=C5)cc3)CC2)CCC[NH2+]C1
REMARK SMILES IDX 14 1 13 2 12 3 10 4 11 5 9 6 8 7 3 8 4 9 5 10 6 11 82 12
REMARK SMILES IDX 7 13 81 14 2 15 1 16 83 17 87 18 84 19 86 20 85 21 15 24
REMARK SMILES IDX 16 25 17 26 18 27 19 28 80 29 20 30 79 31 21 32 22 33 23 34
REMARK SMILES IDX 73 35 24 36 78 37 72 38 74 39 25 40 77 41 71 42 70 43 26 45
REMARK SMILES IDX 58 46 38 47 57 48 39 49 42 50 56 51 75 52 40 53 41 54 55 56
REMARK SMILES IDX 76 57 43 58 27 59 28 60 36 61 29 62 35 63 37 64 34 65 30 66
REMARK SMILES IDX 31 67 32 68 33 69 59 70 60 71 68 72 61 73 67 74 69 75 66 76
REMARK SMILES IDX 62 77 63 78 64 79 65 80 44 81 45 82 53 83 46 84 52 85 54 86
REMARK SMILES IDX 51 87 47 88 48 89 49 90 50 91
REMARK H PARENT 86 22 86 23 74 44 42 55
REMARK Flexibility Score: inf
ROOT
ATOM      1  C   UNL     1       7.177  -1.114  -5.498  1.00  0.00     0.275 C 
ENDROOT
BRANCH   1   2
ATOM      2  C   UNL     1       6.334  -2.379  -5.343  1.00  0.00     0.274 C 
BRANCH   2   3
ATOM      3  O   UNL     1       5.605  -2.333  -4.104  1.00  0.00    -0.462 OA
BRANCH   3   4
ATOM      4  C   UNL     1       6.163  -2.972  -3.046  1.00  0.00     0.306 C 
ATOM      5  O   UNL     1       7.135  -3.712  -3.109  1.00  0.00    -0.252 OA
BRANCH   4   6
ATOM      6  C   UNL     1       5.406  -2.714  -1.760  1.00  0.00     0.126 C 
BRANCH   6   7
ATOM      7  C   UNL     1       4.990  -1.243  -1.504  1.00  0.00     0.003 C 
ATOM      8  C   UNL     1       1.243  -0.358   0.013  1.00  0.00     0.234 C 
ATOM      9  O   UNL     1       0.909   0.348   0.970  1.00  0.00    -0.274 OA
ATOM     10  N   UNL     1       2.504  -0.226  -0.531  1.00  0.00    -0.342 N 
ATOM     11  C   UNL     1       3.641  -0.019   0.346  1.00  0.00     0.120 C 
ATOM     12  C   UNL     1       2.784   0.080  -1.913  1.00  0.00     0.120 C 
ATOM     13  C   UNL     1       4.704  -1.058   0.009  1.00  0.00     0.026 C 
ATOM     14  C   UNL     1       3.853  -0.839  -2.470  1.00  0.00     0.026 C 
BRANCH   8  15
ATOM     15  C   UNL     1       0.259  -1.399  -0.595  1.00  0.00     0.095 C 
ATOM     16  C   UNL     1      -0.664  -0.681  -1.595  1.00  0.00     0.028 C 
ATOM     17  C   UNL     1       0.900  -2.624  -1.281  1.00  0.00     0.028 C 
ATOM     18  C   UNL     1      -0.606  -1.952   0.575  1.00  0.00     0.277 C 
ATOM     19  C   UNL     1       1.659  -3.515  -0.301  1.00  0.00     0.063 C 
ATOM     20  N   UNL     1       0.160  -2.784   1.512  1.00  0.00    -0.345 N 
ATOM     21  C   UNL     1       0.780  -3.935   0.871  1.00  0.00     0.260 C 
ATOM     22  H   UNL     1       0.893  -2.211   1.932  1.00  0.00     0.346 HD
ATOM     23  H   UNL     1      -0.492  -3.137   2.212  1.00  0.00     0.346 HD
ENDBRANCH   8  15
ENDBRANCH   6   7
ENDBRANCH   4   6
ENDBRANCH   3   4
ENDBRANCH   2   3
ENDBRANCH   1   2
BRANCH   1  24
ATOM     24  O   UNL     1       8.239  -1.104  -4.528  1.00  0.00    -0.458 OA
BRANCH  24  25
ATOM     25  C   UNL     1       8.130  -0.191  -3.534  1.00  0.00     0.338 C 
ATOM     26  O   UNL     1       7.276   0.666  -3.404  1.00  0.00    -0.246 OA
BRANCH  25  27
ATOM     27  C   UNL     1       9.197  -0.441  -2.554  1.00  0.00     0.060 A 
ATOM     28  C   UNL     1       8.931  -1.239  -1.438  1.00  0.00     0.016 A 
ATOM     29  C   UNL     1      10.445   0.159  -2.715  1.00  0.00     0.016 A 
ATOM     30  C   UNL     1       9.916  -1.448  -0.475  1.00  0.00     0.010 A 
ATOM     31  C   UNL     1      11.439  -0.067  -1.758  1.00  0.00     0.010 A 
ATOM     32  C   UNL     1      11.180  -0.867  -0.630  1.00  0.00    -0.014 A 
BRANCH  32  33
ATOM     33  C   UNL     1      12.225  -1.054   0.406  1.00  0.00     0.031 A 
ATOM     34  C   UNL     1      12.607   0.101   1.286  1.00  0.00     0.074 A 
ATOM     35  C   UNL     1      12.830  -2.248   0.549  1.00  0.00     0.049 A 
ATOM     36  N   UNL     1      13.598   0.206   2.133  1.00  0.00    -0.248 NA
ATOM     37  C   UNL     1      11.759   1.299   1.193  1.00  0.00     0.031 C 
ATOM     38  C   UNL     1      12.494  -3.460  -0.201  1.00  0.00     0.029 A 
ATOM     39  N   UNL     1      13.861  -2.637   1.366  1.00  0.00    -0.354 N 
ATOM     40  C   UNL     1      13.503   1.486   2.668  1.00  0.00     0.074 A 
ATOM     41  C   UNL     1      12.375   2.127   2.025  1.00  0.00     0.031 C 
ATOM     42  C   UNL     1      13.310  -4.455   0.188  1.00  0.00     0.029 A 
ATOM     43  C   UNL     1      14.265  -3.936   1.163  1.00  0.00     0.049 A 
ATOM     44  H   UNL     1      14.274  -2.042   2.034  1.00  0.00     0.167 HD
ATOM     45  C   UNL     1      14.284   2.067   3.613  1.00  0.00     0.034 A 
ATOM     46  C   UNL     1      15.313  -4.615   1.672  1.00  0.00     0.034 A 
ATOM     47  C   UNL     1      15.409   1.413   4.236  1.00  0.00     0.049 A 
ATOM     48  C   UNL     1      16.238  -3.909   2.632  1.00  0.00     0.074 A 
ATOM     49  C   UNL     1      16.282   1.913   5.187  1.00  0.00     0.029 A 
ATOM     50  N   UNL     1      15.820   0.113   3.967  1.00  0.00    -0.354 N 
ATOM     51  N   UNL     1      16.169  -2.682   3.097  1.00  0.00    -0.248 NA
ATOM     52  C   UNL     1      17.387  -4.676   3.131  1.00  0.00     0.031 C 
ATOM     53  C   UNL     1      17.252   0.938   5.449  1.00  0.00     0.029 A 
ATOM     54  C   UNL     1      16.946  -0.196   4.714  1.00  0.00     0.049 A 
ATOM     55  H   UNL     1      15.376  -0.499   3.337  1.00  0.00     0.167 HD
ATOM     56  C   UNL     1      17.248  -2.544   3.965  1.00  0.00     0.074 A 
ATOM     57  C   UNL     1      17.945  -3.813   3.968  1.00  0.00     0.031 C 
ATOM     58  C   UNL     1      17.629  -1.467   4.698  1.00  0.00     0.034 A 
BRANCH  45  59
ATOM     59  C   UNL     1      13.972   3.496   3.982  1.00  0.00     0.023 A 
ATOM     60  C   UNL     1      12.771   3.848   4.621  1.00  0.00     0.031 A 
ATOM     61  C   UNL     1      14.876   4.525   3.664  1.00  0.00     0.131 A 
ATOM     62  C   UNL     1      12.476   5.198   4.861  1.00  0.00     0.055 A 
ATOM     63  C   UNL     1      14.610   5.860   3.973  1.00  0.00     0.041 A 
ATOM     64  F   UNL     1      16.029   4.251   3.033  1.00  0.00    -0.206 F 
ATOM     65  C   UNL     1      13.397   6.205   4.563  1.00  0.00     0.022 A 
BRANCH  62  66
ATOM     66  S   UNL     1      10.816   5.633   5.447  1.00  0.00     0.124 S 
ATOM     67  O   UNL     1       9.978   5.118   4.367  1.00  0.00    -0.237 OA
ATOM     68  O   UNL     1      10.733   4.920   6.717  1.00  0.00    -0.237 OA
ATOM     69  O   UNL     1      10.860   7.090   5.551  1.00  0.00    -0.744 OA
ENDBRANCH  62  66
ENDBRANCH  45  59
BRANCH  46  70
ATOM     70  C   UNL     1      15.593  -6.016   1.244  1.00  0.00     0.023 A 
ATOM     71  C   UNL     1      15.578  -7.071   2.170  1.00  0.00     0.031 A 
ATOM     72  C   UNL     1      15.949  -6.311  -0.084  1.00  0.00     0.131 A 
ATOM     73  C   UNL     1      15.961  -8.360   1.768  1.00  0.00     0.055 A 
ATOM     74  C   UNL     1      16.273  -7.606  -0.492  1.00  0.00     0.041 A 
ATOM     75  F   UNL     1      15.986  -5.340  -1.010  1.00  0.00    -0.206 F 
ATOM     76  C   UNL     1      16.295  -8.638   0.441  1.00  0.00     0.022 A 
BRANCH  73  77
ATOM     77  S   UNL     1      16.118  -9.652   3.032  1.00  0.00     0.124 S 
ATOM     78  O   UNL     1      17.066  -9.046   3.961  1.00  0.00    -0.237 OA
ATOM     79  O   UNL     1      14.745  -9.778   3.508  1.00  0.00    -0.237 OA
ATOM     80  O   UNL     1      16.625 -10.800   2.284  1.00  0.00    -0.744 OA
ENDBRANCH  73  77
ENDBRANCH  46  70
BRANCH  58  81
ATOM     81  C   UNL     1      18.824  -1.645   5.600  1.00  0.00     0.023 A 
ATOM     82  C   UNL     1      20.123  -1.799   5.086  1.00  0.00     0.031 A 
ATOM     83  C   UNL     1      18.654  -1.673   6.996  1.00  0.00     0.131 A 
ATOM     84  C   UNL     1      21.197  -2.023   5.961  1.00  0.00     0.055 A 
ATOM     85  C   UNL     1      19.733  -1.844   7.863  1.00  0.00     0.041 A 
ATOM     86  F   UNL     1      17.434  -1.532   7.538  1.00  0.00    -0.206 F 
ATOM     87  C   UNL     1      21.012  -2.031   7.346  1.00  0.00     0.022 A 
BRANCH  84  88
ATOM     88  S   UNL     1      22.833  -2.376   5.262  1.00  0.00     0.124 S 
ATOM     89  O   UNL     1      22.582  -3.594   4.499  1.00  0.00    -0.237 OA
ATOM     90  O   UNL     1      23.103  -1.176   4.475  1.00  0.00    -0.237 OA
ATOM     91  O   UNL     1      23.681  -2.545   6.440  1.00  0.00    -0.744 OA
ENDBRANCH  84  88
ENDBRANCH  58  81
ENDBRANCH  32  33
ENDBRANCH  25  27
ENDBRANCH  24  25
ENDBRANCH   1  24
TORSDOF 16
