REMARK SMILES COc1ccc(-c2ncn(CC(=O)OCCOC(=O)c3ccc(-c4c5nc(c(-c6cc(S(=O)(=O)[O-])ccc6F)c6ccc([nH]6)c(-c6cc(S(=O)(=O)[O-])ccc6F)c6nc(c(-c7cc(S(=O)(=O)[O-])ccc7F)c7ccc4[nH]7)C=C6)C=C5)cc3)c2-c2ccc(OC)cc2)cc1
REMARK SMILES IDX 15 1 14 2 12 3 13 4 11 5 10 6 7 7 8 8 83 9 9 10 6 11 3 12
REMARK SMILES IDX 4 13 93 14 5 15 92 16 2 17 1 18 84 19 85 20 91 21 86 22
REMARK SMILES IDX 90 23 87 24 88 25 89 26 16 27 17 28 18 29 19 30 20 31 21 32
REMARK SMILES IDX 82 33 22 34 81 35 23 36 24 37 25 38 75 39 26 40 80 41 74 42
REMARK SMILES IDX 76 43 27 44 79 45 73 46 72 47 28 49 60 50 40 51 59 52 41 53
REMARK SMILES IDX 44 54 58 55 77 56 42 57 43 58 57 60 78 61 45 62 29 63 30 64
REMARK SMILES IDX 38 65 31 66 37 67 39 68 36 69 32 70 33 71 34 72 35 73 61 74
REMARK SMILES IDX 62 75 70 76 63 77 69 78 71 79 68 80 64 81 65 82 66 83 67 84
REMARK SMILES IDX 46 85 47 86 55 87 48 88 54 89 56 90 53 91 49 92 50 93 51 94
REMARK SMILES IDX 52 95
REMARK H PARENT 76 48 44 59
REMARK Flexibility Score: inf
ROOT
ATOM      1  C   UNL     1      -1.681 -10.161  -3.265  1.00  0.00     0.274 C 
ENDROOT
BRANCH   1   2
ATOM      2  O   UNL     1      -0.537  -9.425  -2.810  1.00  0.00    -0.461 OA
BRANCH   2   3
ATOM      3  C   UNL     1       0.673  -9.851  -3.237  1.00  0.00     0.326 C 
ATOM      4  O   UNL     1       0.867 -10.944  -3.766  1.00  0.00    -0.250 OA
BRANCH   3   5
ATOM      5  C   UNL     1       1.750  -8.806  -3.122  1.00  0.00     0.246 C 
BRANCH   5   6
ATOM      6  N   UNL     1       1.883  -8.069  -1.866  1.00  0.00    -0.319 N 
ATOM      7  C   UNL     1       2.130  -6.335  -0.546  1.00  0.00     0.096 A 
ATOM      8  N   UNL     1       3.177  -7.177  -0.275  1.00  0.00    -0.236 NA
ATOM      9  C   UNL     1       1.273  -6.887  -1.492  1.00  0.00     0.076 A 
ATOM     10  C   UNL     1       2.969  -8.229  -1.036  1.00  0.00     0.201 A 
BRANCH   7  11
ATOM     11  C   UNL     1       1.926  -5.019   0.042  1.00  0.00     0.003 A 
ATOM     12  C   UNL     1       1.321  -2.349   0.654  1.00  0.00     0.118 A 
ATOM     13  C   UNL     1       0.398  -3.354   0.934  1.00  0.00     0.047 A 
ATOM     14  C   UNL     1       2.566  -2.682   0.122  1.00  0.00     0.047 A 
ATOM     15  C   UNL     1       0.708  -4.684   0.653  1.00  0.00     0.014 A 
ATOM     16  C   UNL     1       2.868  -4.013  -0.189  1.00  0.00     0.014 A 
BRANCH  12  17
ATOM     17  O   UNL     1       0.952  -1.089   1.022  1.00  0.00    -0.497 OA
ATOM     18  C   UNL     1       1.293  -0.053   0.102  1.00  0.00     0.278 C 
ENDBRANCH  12  17
ENDBRANCH   7  11
BRANCH   9  19
ATOM     19  C   UNL     1      -0.083  -6.449  -1.792  1.00  0.00     0.001 A 
ATOM     20  C   UNL     1      -1.118  -7.186  -1.220  1.00  0.00     0.014 A 
ATOM     21  C   UNL     1      -0.378  -5.187  -2.309  1.00  0.00     0.014 A 
ATOM     22  C   UNL     1      -2.431  -6.753  -1.292  1.00  0.00     0.047 A 
ATOM     23  C   UNL     1      -1.710  -4.729  -2.325  1.00  0.00     0.047 A 
ATOM     24  C   UNL     1      -2.750  -5.561  -1.909  1.00  0.00     0.118 A 
BRANCH  24  25
ATOM     25  O   UNL     1      -4.099  -5.438  -2.080  1.00  0.00    -0.497 OA
ATOM     26  C   UNL     1      -4.641  -4.145  -2.203  1.00  0.00     0.278 C 
ENDBRANCH  24  25
ENDBRANCH   9  19
ENDBRANCH   5   6
ENDBRANCH   3   5
ENDBRANCH   2   3
ENDBRANCH   1   2
BRANCH   1  27
ATOM     27  C   UNL     1      -2.809  -9.210  -3.670  1.00  0.00     0.275 C 
BRANCH  27  28
ATOM     28  O   UNL     1      -2.678  -8.443  -4.891  1.00  0.00    -0.458 OA
BRANCH  28  29
ATOM     29  C   UNL     1      -1.591  -7.658  -5.120  1.00  0.00     0.338 C 
ATOM     30  O   UNL     1      -0.438  -8.032  -5.115  1.00  0.00    -0.246 OA
BRANCH  29  31
ATOM     31  C   UNL     1      -2.007  -6.242  -5.374  1.00  0.00     0.060 A 
ATOM     32  C   UNL     1      -1.045  -5.221  -5.460  1.00  0.00     0.016 A 
ATOM     33  C   UNL     1      -3.357  -5.894  -5.385  1.00  0.00     0.016 A 
ATOM     34  C   UNL     1      -1.434  -3.868  -5.379  1.00  0.00     0.010 A 
ATOM     35  C   UNL     1      -3.733  -4.556  -5.281  1.00  0.00     0.010 A 
ATOM     36  C   UNL     1      -2.783  -3.526  -5.178  1.00  0.00    -0.014 A 
BRANCH  36  37
ATOM     37  C   UNL     1      -3.282  -2.131  -5.309  1.00  0.00     0.031 A 
ATOM     38  C   UNL     1      -3.208  -1.787  -6.740  1.00  0.00     0.074 A 
ATOM     39  C   UNL     1      -3.851  -1.273  -4.414  1.00  0.00     0.049 A 
ATOM     40  N   UNL     1      -2.309  -1.004  -7.239  1.00  0.00    -0.248 NA
ATOM     41  C   UNL     1      -3.916  -2.598  -7.747  1.00  0.00     0.031 C 
ATOM     42  C   UNL     1      -3.873  -1.339  -2.959  1.00  0.00     0.029 A 
ATOM     43  N   UNL     1      -4.656  -0.166  -4.616  1.00  0.00    -0.354 N 
ATOM     44  C   UNL     1      -2.638  -0.946  -8.577  1.00  0.00     0.074 A 
ATOM     45  C   UNL     1      -3.330  -2.168  -8.866  1.00  0.00     0.031 C 
ATOM     46  C   UNL     1      -4.907  -0.631  -2.444  1.00  0.00     0.029 A 
ATOM     47  C   UNL     1      -5.482   0.162  -3.516  1.00  0.00     0.049 A 
ATOM     48  H   UNL     1      -4.654   0.349  -5.454  1.00  0.00     0.167 HD
ATOM     49  C   UNL     1      -2.764   0.274  -9.157  1.00  0.00     0.034 A 
ATOM     50  C   UNL     1      -6.425   1.143  -3.371  1.00  0.00     0.034 A 
ATOM     51  C   UNL     1      -2.069   1.290  -8.384  1.00  0.00     0.049 A 
ATOM     52  C   UNL     1      -5.996   2.236  -4.257  1.00  0.00     0.074 A 
ATOM     53  C   UNL     1      -0.788   1.412  -7.878  1.00  0.00     0.029 A 
ATOM     54  N   UNL     1      -2.847   2.190  -7.693  1.00  0.00    -0.354 N 
ATOM     55  N   UNL     1      -4.934   2.951  -4.019  1.00  0.00    -0.248 NA
ATOM     56  C   UNL     1      -6.472   2.258  -5.628  1.00  0.00     0.031 C 
ATOM     57  C   UNL     1      -0.921   2.127  -6.655  1.00  0.00     0.029 A 
ATOM     58  C   UNL     1      -2.250   2.522  -6.503  1.00  0.00     0.049 A 
ATOM     59  H   UNL     1      -3.709   2.546  -8.008  1.00  0.00     0.167 HD
ATOM     60  C   UNL     1      -4.331   3.072  -5.255  1.00  0.00     0.074 A 
ATOM     61  C   UNL     1      -5.395   2.788  -6.215  1.00  0.00     0.031 C 
ATOM     62  C   UNL     1      -2.969   3.055  -5.354  1.00  0.00     0.034 A 
BRANCH  49  63
ATOM     63  C   UNL     1      -3.890   0.608 -10.111  1.00  0.00     0.023 A 
ATOM     64  C   UNL     1      -3.824   1.862 -10.731  1.00  0.00     0.031 A 
ATOM     65  C   UNL     1      -5.129  -0.074 -10.230  1.00  0.00     0.131 A 
ATOM     66  C   UNL     1      -4.959   2.417 -11.341  1.00  0.00     0.055 A 
ATOM     67  C   UNL     1      -6.230   0.451 -10.904  1.00  0.00     0.041 A 
ATOM     68  F   UNL     1      -5.394  -1.239  -9.629  1.00  0.00    -0.206 F 
ATOM     69  C   UNL     1      -6.160   1.719 -11.441  1.00  0.00     0.022 A 
BRANCH  66  70
ATOM     70  S   UNL     1      -4.878   4.145 -11.853  1.00  0.00     0.124 S 
ATOM     71  O   UNL     1      -4.631   4.805 -10.577  1.00  0.00    -0.237 OA
ATOM     72  O   UNL     1      -3.767   4.124 -12.798  1.00  0.00    -0.237 OA
ATOM     73  O   UNL     1      -6.194   4.381 -12.442  1.00  0.00    -0.744 OA
ENDBRANCH  66  70
ENDBRANCH  49  63
BRANCH  50  74
ATOM     74  C   UNL     1      -7.722   1.194  -2.616  1.00  0.00     0.023 A 
ATOM     75  C   UNL     1      -8.458   2.396  -2.423  1.00  0.00     0.031 A 
ATOM     76  C   UNL     1      -8.413  -0.004  -2.339  1.00  0.00     0.131 A 
ATOM     77  C   UNL     1      -9.819   2.362  -2.017  1.00  0.00     0.055 A 
ATOM     78  C   UNL     1      -9.759  -0.032  -1.946  1.00  0.00     0.041 A 
ATOM     79  F   UNL     1      -7.827  -1.196  -2.534  1.00  0.00    -0.206 F 
ATOM     80  C   UNL     1     -10.473   1.150  -1.801  1.00  0.00     0.022 A 
BRANCH  77  81
ATOM     81  S   UNL     1     -10.812   3.896  -1.891  1.00  0.00     0.124 S 
ATOM     82  O   UNL     1     -10.334   4.477  -0.642  1.00  0.00    -0.237 OA
ATOM     83  O   UNL     1     -10.463   4.605  -3.116  1.00  0.00    -0.237 OA
ATOM     84  O   UNL     1     -12.192   3.405  -1.848  1.00  0.00    -0.744 OA
ENDBRANCH  77  81
ENDBRANCH  50  74
BRANCH  62  85
ATOM     85  C   UNL     1      -2.152   3.468  -4.137  1.00  0.00     0.023 A 
ATOM     86  C   UNL     1      -2.272   2.938  -2.833  1.00  0.00     0.031 A 
ATOM     87  C   UNL     1      -1.151   4.437  -4.344  1.00  0.00     0.131 A 
ATOM     88  C   UNL     1      -1.435   3.405  -1.798  1.00  0.00     0.055 A 
ATOM     89  C   UNL     1      -0.288   4.854  -3.332  1.00  0.00     0.041 A 
ATOM     90  F   UNL     1      -0.975   4.986  -5.557  1.00  0.00    -0.206 F 
ATOM     91  C   UNL     1      -0.432   4.345  -2.050  1.00  0.00     0.022 A 
BRANCH  88  92
ATOM     92  S   UNL     1      -1.637   2.777  -0.102  1.00  0.00     0.124 S 
ATOM     93  O   UNL     1      -2.934   3.312   0.292  1.00  0.00    -0.237 OA
ATOM     94  O   UNL     1      -1.567   1.331  -0.290  1.00  0.00    -0.237 OA
ATOM     95  O   UNL     1      -0.493   3.352   0.609  1.00  0.00    -0.744 OA
ENDBRANCH  88  92
ENDBRANCH  62  85
ENDBRANCH  36  37
ENDBRANCH  29  31
ENDBRANCH  28  29
ENDBRANCH  27  28
ENDBRANCH   1  27
TORSDOF 19
