REMARK SMILES C[C@@H](CO)CS[C@@H](C)C[C@@](C)([NH3+])C(=O)OCCOC(=O)c1ccc(-c2c3nc(c(-c4cc(S(=O)(=O)[O-])ccc4F)c4ccc([nH]4)c(-c4cc(S(=O)(=O)[O-])ccc4F)c4nc(c(-c5cc(S(=O)(=O)[O-])ccc5F)c5ccc2[nH]5)C=C4)C=C3)cc1
REMARK SMILES IDX 13 1 14 2 10 3 11 4 9 5 7 6 8 7 6 8 5 9 2 10 1 11 3 12 4 13
REMARK SMILES IDX 12 15 15 19 16 20 17 21 18 22 19 23 20 24 21 25 22 26 83 27
REMARK SMILES IDX 23 28 82 29 24 30 25 31 26 32 76 33 27 34 81 35 75 36 77 37
REMARK SMILES IDX 28 38 80 39 74 40 73 41 29 43 61 44 41 45 60 46 42 47 45 48
REMARK SMILES IDX 59 49 78 50 43 51 44 52 58 54 79 55 46 56 30 57 31 58 39 59
REMARK SMILES IDX 32 60 38 61 40 62 37 63 33 64 34 65 35 66 36 67 62 68 63 69
REMARK SMILES IDX 71 70 64 71 70 72 72 73 69 74 65 75 66 76 67 77 68 78 47 79
REMARK SMILES IDX 48 80 56 81 49 82 55 83 57 84 54 85 50 86 51 87 52 88 53 89
REMARK H PARENT 4 14 12 16 12 17 12 18 77 42 45 53
REMARK Flexibility Score: inf
ROOT
ATOM      1  C   UNL     1      -0.176  -3.308  -3.322  1.00  0.00     0.367 C 
ATOM      2  O   UNL     1      -1.309  -3.730  -3.371  1.00  0.00    -0.245 OA
ENDROOT
BRANCH   1   3
ATOM      3  C   UNL     1       0.250  -1.877  -3.648  1.00  0.00     0.191 C 
ATOM      4  C   UNL     1      -0.104  -1.622  -5.125  1.00  0.00     0.092 C 
BRANCH   3   5
ATOM      5  C   UNL     1      -0.428  -0.855  -2.699  1.00  0.00     0.094 C 
BRANCH   5   6
ATOM      6  C   UNL     1      -1.497  -1.173  -1.551  1.00  0.00     0.050 C 
ATOM      7  C   UNL     1      -2.223   0.160  -1.254  1.00  0.00     0.019 C 
BRANCH   6   8
ATOM      8  S   UNL     1      -1.716  -2.523  -0.050  1.00  0.00    -0.158 SA
BRANCH   8   9
ATOM      9  C   UNL     1      -0.554  -2.737   1.665  1.00  0.00     0.075 C 
BRANCH   9  10
ATOM     10  C   UNL     1       0.965  -2.758   2.430  1.00  0.00     0.021 C 
ATOM     11  C   UNL     1       2.245  -1.905   2.177  1.00  0.00     0.011 C 
BRANCH  10  12
ATOM     12  C   UNL     1       0.763  -2.617   3.967  1.00  0.00     0.160 C 
BRANCH  12  13
ATOM     13  O   UNL     1       0.389  -1.293   4.323  1.00  0.00    -0.396 OA
ATOM     14  H   UNL     1       1.091  -0.677   4.060  1.00  0.00     0.210 HD
ENDBRANCH  12  13
ENDBRANCH  10  12
ENDBRANCH   9  10
ENDBRANCH   8   9
ENDBRANCH   6   8
ENDBRANCH   5   6
ENDBRANCH   3   5
BRANCH   3  15
ATOM     15  N   UNL     1       1.736  -1.712  -3.658  1.00  0.00    -0.344 N 
ATOM     16  H   UNL     1       1.969  -0.744  -3.880  1.00  0.00     0.345 HD
ATOM     17  H   UNL     1       2.142  -2.330  -4.361  1.00  0.00     0.345 HD
ATOM     18  H   UNL     1       2.110  -1.950  -2.739  1.00  0.00     0.345 HD
ENDBRANCH   3  15
ENDBRANCH   1   3
BRANCH   1  19
ATOM     19  O   UNL     1       0.899  -4.042  -2.919  1.00  0.00    -0.457 OA
BRANCH  19  20
ATOM     20  C   UNL     1       0.742  -4.508  -1.592  1.00  0.00     0.274 C 
BRANCH  20  21
ATOM     21  C   UNL     1       1.528  -3.587  -0.641  1.00  0.00     0.275 C 
BRANCH  21  22
ATOM     22  O   UNL     1       0.961  -2.243  -0.421  1.00  0.00    -0.458 OA
BRANCH  22  23
ATOM     23  C   UNL     1       1.641  -1.066  -0.520  1.00  0.00     0.338 C 
ATOM     24  O   UNL     1       2.717  -0.980  -1.093  1.00  0.00    -0.246 OA
BRANCH  23  25
ATOM     25  C   UNL     1       0.955   0.154   0.120  1.00  0.00     0.060 A 
ATOM     26  C   UNL     1       1.168   1.421  -0.421  1.00  0.00     0.016 A 
ATOM     27  C   UNL     1       0.172   0.125   1.280  1.00  0.00     0.016 A 
ATOM     28  C   UNL     1       0.606   2.567   0.177  1.00  0.00     0.010 A 
ATOM     29  C   UNL     1      -0.350   1.234   1.921  1.00  0.00     0.010 A 
ATOM     30  C   UNL     1      -0.141   2.469   1.359  1.00  0.00    -0.014 A 
BRANCH  30  31
ATOM     31  C   UNL     1      -0.719   3.623   2.053  1.00  0.00     0.031 A 
ATOM     32  C   UNL     1       0.123   4.358   3.036  1.00  0.00     0.074 A 
ATOM     33  C   UNL     1      -2.019   3.901   1.858  1.00  0.00     0.049 A 
ATOM     34  N   UNL     1      -0.051   5.547   3.532  1.00  0.00    -0.248 NA
ATOM     35  C   UNL     1       1.309   3.650   3.548  1.00  0.00     0.031 C 
ATOM     36  C   UNL     1      -2.944   3.053   1.109  1.00  0.00     0.029 A 
ATOM     37  N   UNL     1      -2.793   4.952   2.251  1.00  0.00    -0.354 N 
ATOM     38  C   UNL     1       1.044   5.768   4.357  1.00  0.00     0.074 A 
ATOM     39  C   UNL     1       1.827   4.553   4.369  1.00  0.00     0.031 C 
ATOM     40  C   UNL     1      -4.134   3.657   1.006  1.00  0.00     0.029 A 
ATOM     41  C   UNL     1      -4.053   4.935   1.690  1.00  0.00     0.049 A 
ATOM     42  H   UNL     1      -2.485   5.652   2.871  1.00  0.00     0.167 HD
ATOM     43  C   UNL     1       1.349   6.912   5.012  1.00  0.00     0.034 A 
ATOM     44  C   UNL     1      -5.003   5.886   1.691  1.00  0.00     0.034 A 
ATOM     45  C   UNL     1       0.436   8.031   5.025  1.00  0.00     0.049 A 
ATOM     46  C   UNL     1      -4.626   7.175   2.367  1.00  0.00     0.074 A 
ATOM     47  C   UNL     1       0.570   9.269   5.620  1.00  0.00     0.029 A 
ATOM     48  N   UNL     1      -0.827   8.012   4.425  1.00  0.00    -0.354 N 
ATOM     49  N   UNL     1      -3.509   7.471   3.000  1.00  0.00    -0.248 NA
ATOM     50  C   UNL     1      -5.601   8.261   2.306  1.00  0.00     0.031 C 
ATOM     51  C   UNL     1      -0.632   9.966   5.438  1.00  0.00     0.029 A 
ATOM     52  C   UNL     1      -1.492   9.201   4.659  1.00  0.00     0.049 A 
ATOM     53  H   UNL     1      -1.191   7.257   3.909  1.00  0.00     0.167 HD
ATOM     54  C   UNL     1      -3.643   8.787   3.415  1.00  0.00     0.074 A 
ATOM     55  C   UNL     1      -4.934   9.233   2.910  1.00  0.00     0.031 C 
ATOM     56  C   UNL     1      -2.801   9.559   4.154  1.00  0.00     0.034 A 
BRANCH  43  57
ATOM     57  C   UNL     1       2.665   6.958   5.753  1.00  0.00     0.023 A 
ATOM     58  C   UNL     1       3.889   6.755   5.082  1.00  0.00     0.031 A 
ATOM     59  C   UNL     1       2.712   7.141   7.144  1.00  0.00     0.131 A 
ATOM     60  C   UNL     1       5.089   6.659   5.807  1.00  0.00     0.055 A 
ATOM     61  C   UNL     1       3.919   7.122   7.852  1.00  0.00     0.041 A 
ATOM     62  F   UNL     1       1.584   7.309   7.851  1.00  0.00    -0.206 F 
ATOM     63  C   UNL     1       5.115   6.865   7.187  1.00  0.00     0.022 A 
BRANCH  60  64
ATOM     64  S   UNL     1       6.590   6.114   4.942  1.00  0.00     0.124 S 
ATOM     65  O   UNL     1       6.193   4.791   4.467  1.00  0.00    -0.237 OA
ATOM     66  O   UNL     1       6.754   7.138   3.916  1.00  0.00    -0.237 OA
ATOM     67  O   UNL     1       7.609   6.112   5.990  1.00  0.00    -0.744 OA
ENDBRANCH  60  64
ENDBRANCH  43  57
BRANCH  44  68
ATOM     68  C   UNL     1      -6.300   5.673   0.982  1.00  0.00     0.023 A 
ATOM     69  C   UNL     1      -6.679   6.464  -0.115  1.00  0.00     0.031 A 
ATOM     70  C   UNL     1      -7.176   4.642   1.374  1.00  0.00     0.131 A 
ATOM     71  C   UNL     1      -7.910   6.238  -0.756  1.00  0.00     0.055 A 
ATOM     72  C   UNL     1      -8.373   4.386   0.701  1.00  0.00     0.041 A 
ATOM     73  F   UNL     1      -6.863   3.840   2.404  1.00  0.00    -0.206 F 
ATOM     74  C   UNL     1      -8.753   5.195  -0.364  1.00  0.00     0.022 A 
BRANCH  71  75
ATOM     75  S   UNL     1      -8.439   7.379  -2.065  1.00  0.00     0.124 S 
ATOM     76  O   UNL     1      -8.318   8.673  -1.402  1.00  0.00    -0.237 OA
ATOM     77  O   UNL     1      -7.467   7.104  -3.118  1.00  0.00    -0.237 OA
ATOM     78  O   UNL     1      -9.807   6.954  -2.355  1.00  0.00    -0.744 OA
ENDBRANCH  71  75
ENDBRANCH  44  68
BRANCH  56  79
ATOM     79  C   UNL     1      -3.296  10.948   4.445  1.00  0.00     0.023 A 
ATOM     80  C   UNL     1      -4.436  11.155   5.238  1.00  0.00     0.031 A 
ATOM     81  C   UNL     1      -2.652  12.063   3.887  1.00  0.00     0.131 A 
ATOM     82  C   UNL     1      -4.955  12.446   5.375  1.00  0.00     0.055 A 
ATOM     83  C   UNL     1      -3.125  13.356   4.101  1.00  0.00     0.041 A 
ATOM     84  F   UNL     1      -1.562  11.911   3.119  1.00  0.00    -0.206 F 
ATOM     85  C   UNL     1      -4.295  13.551   4.831  1.00  0.00     0.022 A 
BRANCH  82  86
ATOM     86  S   UNL     1      -6.585  12.635   6.142  1.00  0.00     0.124 S 
ATOM     87  O   UNL     1      -7.420  11.803   5.280  1.00  0.00    -0.237 OA
ATOM     88  O   UNL     1      -6.357  12.127   7.490  1.00  0.00    -0.237 OA
ATOM     89  O   UNL     1      -6.839  14.071   6.053  1.00  0.00    -0.744 OA
ENDBRANCH  82  86
ENDBRANCH  56  79
ENDBRANCH  30  31
ENDBRANCH  23  25
ENDBRANCH  22  23
ENDBRANCH  21  22
ENDBRANCH  20  21
ENDBRANCH  19  20
ENDBRANCH   1  19
TORSDOF 22
