REMARK SMILES O=C(OCCOC(=O)c1cc2sc(Cl)cc2s1)c1ccc(-c2c3nc(c(-c4cc(S(=O)(=O)[O-])ccc4F)c4ccc([nH]4)c(-c4cc(S(=O)(=O)[O-])ccc4F)c4nc(c(-c5cc(S(=O)(=O)[O-])ccc5F)c5ccc2[nH]5)C=C4)C=C3)cc1
REMARK SMILES IDX 3 1 2 2 1 3 18 4 19 5 80 6 20 7 79 8 21 9 22 10 23 11 73 12
REMARK SMILES IDX 24 13 78 14 72 15 74 16 25 17 77 18 71 19 70 20 26 22 58 23
REMARK SMILES IDX 38 24 57 25 39 26 42 27 56 28 75 29 40 30 41 31 55 33 76 34
REMARK SMILES IDX 43 35 27 36 28 37 36 38 29 39 35 40 37 41 34 42 30 43 31 44
REMARK SMILES IDX 32 45 33 46 59 47 60 48 68 49 61 50 67 51 69 52 66 53 62 54
REMARK SMILES IDX 63 55 64 56 65 57 44 58 45 59 53 60 46 61 52 62 54 63 51 64
REMARK SMILES IDX 47 65 48 66 49 67 50 68 4 69 5 70 6 71 7 72 8 73 9 74 10 75
REMARK SMILES IDX 17 76 11 77 16 78 12 79 15 80 13 81 14 82
REMARK H PARENT 74 21 42 32
REMARK Flexibility Score: inf
ROOT
ATOM      1  O   UNL     1       3.437  -1.419  -0.083  1.00  0.00    -0.458 OA
ENDROOT
BRANCH   1   2
ATOM      2  C   UNL     1       2.397  -0.594   0.160  1.00  0.00     0.338 C 
ATOM      3  O   UNL     1       1.523  -0.352  -0.659  1.00  0.00    -0.246 OA
BRANCH   2   4
ATOM      4  C   UNL     1       2.276  -0.232   1.591  1.00  0.00     0.060 A 
ATOM      5  C   UNL     1       3.380  -0.129   2.444  1.00  0.00     0.016 A 
ATOM      6  C   UNL     1       0.985  -0.006   2.084  1.00  0.00     0.016 A 
ATOM      7  C   UNL     1       3.185   0.090   3.799  1.00  0.00     0.010 A 
ATOM      8  C   UNL     1       0.790   0.224   3.437  1.00  0.00     0.010 A 
ATOM      9  C   UNL     1       1.886   0.217   4.298  1.00  0.00    -0.014 A 
BRANCH   9  10
ATOM     10  C   UNL     1       1.704   0.505   5.717  1.00  0.00     0.031 A 
ATOM     11  C   UNL     1       2.278   1.816   6.125  1.00  0.00     0.074 A 
ATOM     12  C   UNL     1       0.953  -0.263   6.536  1.00  0.00     0.049 A 
ATOM     13  N   UNL     1       3.306   2.029   6.879  1.00  0.00    -0.248 NA
ATOM     14  C   UNL     1       1.780   3.030   5.455  1.00  0.00     0.031 C 
ATOM     15  C   UNL     1       0.160  -1.439   6.174  1.00  0.00     0.029 A 
ATOM     16  N   UNL     1       0.650  -0.099   7.856  1.00  0.00    -0.354 N 
ATOM     17  C   UNL     1       3.389   3.412   7.018  1.00  0.00     0.074 A 
ATOM     18  C   UNL     1       2.607   3.956   5.943  1.00  0.00     0.031 C 
ATOM     19  C   UNL     1      -0.710  -1.722   7.170  1.00  0.00     0.029 A 
ATOM     20  C   UNL     1      -0.453  -0.836   8.295  1.00  0.00     0.049 A 
ATOM     21  H   UNL     1       1.167   0.490   8.452  1.00  0.00     0.167 HD
ATOM     22  C   UNL     1       3.827   3.964   8.186  1.00  0.00     0.034 A 
ATOM     23  C   UNL     1      -1.136  -0.701   9.470  1.00  0.00     0.034 A 
ATOM     24  C   UNL     1       4.556   2.982   8.970  1.00  0.00     0.049 A 
ATOM     25  C   UNL     1      -0.214  -0.027  10.418  1.00  0.00     0.074 A 
ATOM     26  C   UNL     1       5.650   2.169   8.731  1.00  0.00     0.029 A 
ATOM     27  N   UNL     1       3.939   2.438  10.077  1.00  0.00    -0.354 N 
ATOM     28  N   UNL     1       0.884  -0.583  10.852  1.00  0.00    -0.248 NA
ATOM     29  C   UNL     1      -0.232   1.428  10.468  1.00  0.00     0.031 C 
ATOM     30  C   UNL     1       5.325   0.926   9.353  1.00  0.00     0.029 A 
ATOM     31  C   UNL     1       4.112   1.079  10.026  1.00  0.00     0.049 A 
ATOM     32  H   UNL     1       3.459   2.936  10.778  1.00  0.00     0.167 HD
ATOM     33  C   UNL     1       1.839   0.420  10.788  1.00  0.00     0.074 A 
ATOM     34  C   UNL     1       1.074   1.659  10.635  1.00  0.00     0.031 C 
ATOM     35  C   UNL     1       3.156   0.129  10.562  1.00  0.00     0.034 A 
BRANCH  22  36
ATOM     36  C   UNL     1       3.203   5.194   8.832  1.00  0.00     0.023 A 
ATOM     37  C   UNL     1       3.637   5.487  10.139  1.00  0.00     0.031 A 
ATOM     38  C   UNL     1       2.017   5.847   8.429  1.00  0.00     0.131 A 
ATOM     39  C   UNL     1       2.806   6.174  11.037  1.00  0.00     0.055 A 
ATOM     40  C   UNL     1       1.230   6.600   9.307  1.00  0.00     0.041 A 
ATOM     41  F   UNL     1       1.506   5.748   7.198  1.00  0.00    -0.206 F 
ATOM     42  C   UNL     1       1.594   6.721  10.636  1.00  0.00     0.022 A 
BRANCH  39  43
ATOM     43  S   UNL     1       3.237   6.101  12.793  1.00  0.00     0.124 S 
ATOM     44  O   UNL     1       3.308   4.658  12.998  1.00  0.00    -0.237 OA
ATOM     45  O   UNL     1       4.507   6.819  12.817  1.00  0.00    -0.237 OA
ATOM     46  O   UNL     1       2.120   6.779  13.443  1.00  0.00    -0.744 OA
ENDBRANCH  39  43
ENDBRANCH  22  36
BRANCH  23  47
ATOM     47  C   UNL     1      -2.615  -0.805   9.689  1.00  0.00     0.023 A 
ATOM     48  C   UNL     1      -3.217  -0.951  10.964  1.00  0.00     0.031 A 
ATOM     49  C   UNL     1      -3.492  -0.510   8.619  1.00  0.00     0.131 A 
ATOM     50  C   UNL     1      -4.623  -0.805  11.119  1.00  0.00     0.055 A 
ATOM     51  C   UNL     1      -4.872  -0.365   8.778  1.00  0.00     0.041 A 
ATOM     52  F   UNL     1      -3.025  -0.263   7.386  1.00  0.00    -0.206 F 
ATOM     53  C   UNL     1      -5.444  -0.503  10.030  1.00  0.00     0.022 A 
BRANCH  50  54
ATOM     54  S   UNL     1      -5.419  -0.927  12.761  1.00  0.00     0.124 S 
ATOM     55  O   UNL     1      -5.249  -2.338  13.087  1.00  0.00    -0.237 OA
ATOM     56  O   UNL     1      -4.652   0.022  13.558  1.00  0.00    -0.237 OA
ATOM     57  O   UNL     1      -6.803  -0.525  12.502  1.00  0.00    -0.744 OA
ENDBRANCH  50  54
ENDBRANCH  23  47
BRANCH  35  58
ATOM     58  C   UNL     1       3.617  -1.307  10.697  1.00  0.00     0.023 A 
ATOM     59  C   UNL     1       3.100  -2.405   9.970  1.00  0.00     0.031 A 
ATOM     60  C   UNL     1       4.722  -1.543  11.534  1.00  0.00     0.131 A 
ATOM     61  C   UNL     1       3.683  -3.681  10.113  1.00  0.00     0.055 A 
ATOM     62  C   UNL     1       5.309  -2.800  11.656  1.00  0.00     0.041 A 
ATOM     63  F   UNL     1       5.279  -0.536  12.228  1.00  0.00    -0.206 F 
ATOM     64  C   UNL     1       4.786  -3.877  10.952  1.00  0.00     0.022 A 
BRANCH  61  65
ATOM     65  S   UNL     1       3.008  -5.125   9.229  1.00  0.00     0.124 S 
ATOM     66  O   UNL     1       1.571  -5.022   9.448  1.00  0.00    -0.237 OA
ATOM     67  O   UNL     1       3.464  -4.897   7.860  1.00  0.00    -0.237 OA
ATOM     68  O   UNL     1       3.646  -6.261   9.897  1.00  0.00    -0.744 OA
ENDBRANCH  61  65
ENDBRANCH  35  58
ENDBRANCH   9  10
ENDBRANCH   2   4
ENDBRANCH   1   2
BRANCH   1  69
ATOM     69  C   UNL     1       4.689  -0.870  -0.534  1.00  0.00     0.275 C 
BRANCH  69  70
ATOM     70  C   UNL     1       4.625   0.308  -1.505  1.00  0.00     0.275 C 
BRANCH  70  71
ATOM     71  O   UNL     1       4.127   1.483  -0.844  1.00  0.00    -0.458 OA
BRANCH  71  72
ATOM     72  C   UNL     1       3.062   2.109  -1.420  1.00  0.00     0.348 C 
ATOM     73  O   UNL     1       2.561   1.813  -2.505  1.00  0.00    -0.245 OA
BRANCH  72  74
ATOM     74  C   UNL     1       2.658   3.201  -0.572  1.00  0.00     0.114 A 
ATOM     75  C   UNL     1       3.390   4.330  -0.269  1.00  0.00     0.047 A 
ATOM     76  S   UNL     1       1.119   3.160   0.175  1.00  0.00    -0.127 S 
ATOM     77  C   UNL     1       2.702   5.140   0.680  1.00  0.00     0.048 A 
ATOM     78  C   UNL     1       1.505   4.602   1.074  1.00  0.00     0.047 A 
ATOM     79  S   UNL     1       3.040   6.650   1.488  1.00  0.00    -0.122 S 
ATOM     80  C   UNL     1       0.881   5.347   2.122  1.00  0.00     0.052 A 
ATOM     81  C   UNL     1       1.630   6.458   2.406  1.00  0.00     0.095 A 
ATOM     82  Cl  UNL     1       1.244   7.652   3.585  1.00  0.00    -0.072 Cl
ENDBRANCH  72  74
ENDBRANCH  71  72
ENDBRANCH  70  71
ENDBRANCH  69  70
ENDBRANCH   1  69
TORSDOF 14
