REMARK SMILES Nc1ccc(-c2cc(Cl)cc3c2O[C@H](C(F)(F)F)C(C(=O)OCCOC(=O)c2ccc(-c4c5nc(c(-c6cc(S(=O)(=O)[O-])ccc6F)c6ccc([nH]6)c(-c6cc(S(=O)(=O)[O-])ccc6F)c6nc(c(-c7cc(S(=O)(=O)[O-])ccc7F)c7ccc4[nH]7)C=C6)C=C5)cc2)=C3)cc1
REMARK SMILES IDX 24 1 23 2 22 3 20 4 21 5 19 6 6 7 7 8 12 9 8 10 11 11 13 12
REMARK SMILES IDX 9 13 10 14 91 15 14 16 5 17 2 18 3 19 93 20 4 21 92 22 1 23
REMARK SMILES IDX 15 26 16 27 17 28 18 29 25 30 26 31 27 32 28 33 29 34 90 35
REMARK SMILES IDX 30 36 89 37 31 38 32 39 33 40 83 41 34 42 88 43 82 44 84 45
REMARK SMILES IDX 35 46 87 47 81 48 80 49 36 51 68 52 48 53 67 54 49 55 52 56
REMARK SMILES IDX 66 57 85 58 50 59 51 60 65 62 86 63 53 64 37 65 38 66 46 67
REMARK SMILES IDX 39 68 45 69 47 70 44 71 40 72 41 73 42 74 43 75 69 76 70 77
REMARK SMILES IDX 78 78 71 79 77 80 79 81 76 82 72 83 73 84 74 85 75 86 54 87
REMARK SMILES IDX 55 88 63 89 56 90 62 91 64 92 61 93 57 94 58 95 59 96 60 97
REMARK H PARENT 1 24 1 25 84 50 52 61
REMARK Flexibility Score: inf
ROOT
ATOM      1  C   UNL     1      -7.152  -2.609   6.939  1.00  0.00     0.275 C 
ENDROOT
BRANCH   1   2
ATOM      2  C   UNL     1      -6.164  -3.481   6.164  1.00  0.00     0.275 C 
BRANCH   2   3
ATOM      3  O   UNL     1      -5.484  -2.724   5.138  1.00  0.00    -0.459 OA
BRANCH   3   4
ATOM      4  C   UNL     1      -5.880  -2.968   3.867  1.00  0.00     0.338 C 
ATOM      5  O   UNL     1      -6.724  -3.775   3.510  1.00  0.00    -0.246 OA
BRANCH   4   6
ATOM      6  C   UNL     1      -5.153  -2.096   2.924  1.00  0.00     0.087 C 
ATOM      7  C   UNL     1      -3.044   0.033  -0.013  1.00  0.00     0.026 A 
ATOM      8  C   UNL     1      -3.776   0.674  -1.030  1.00  0.00     0.033 A 
ATOM      9  C   UNL     1      -3.749  -0.632   1.011  1.00  0.00     0.135 A 
ATOM     10  C   UNL     1      -5.169   0.655  -1.025  1.00  0.00     0.042 A 
ATOM     11  C   UNL     1      -5.143  -0.677   0.985  1.00  0.00     0.019 A 
ATOM     12  O   UNL     1      -3.017  -1.187   2.030  1.00  0.00    -0.475 OA
ATOM     13  Cl  UNL     1      -6.039   1.445  -2.279  1.00  0.00    -0.084 Cl
ATOM     14  C   UNL     1      -5.856  -0.020  -0.024  1.00  0.00     0.032 A 
ATOM     15  C   UNL     1      -5.852  -1.446   1.986  1.00  0.00     0.027 C 
ATOM     16  C   UNL     1      -3.656  -2.084   2.973  1.00  0.00     0.316 C 
BRANCH   7  17
ATOM     17  C   UNL     1      -1.575   0.041  -0.052  1.00  0.00    -0.014 A 
ATOM     18  C   UNL     1       1.252   0.038  -0.064  1.00  0.00     0.031 A 
ATOM     19  C   UNL     1       0.542  -1.162  -0.077  1.00  0.00     0.026 A 
ATOM     20  C   UNL     1       0.540   1.238  -0.018  1.00  0.00     0.026 A 
ATOM     21  C   UNL     1      -0.854  -1.162  -0.090  1.00  0.00     0.011 A 
ATOM     22  C   UNL     1      -0.858   1.243  -0.025  1.00  0.00     0.011 A 
BRANCH  18  23
ATOM     23  N   UNL     1       2.634   0.035   0.036  1.00  0.00    -0.399 N 
ATOM     24  H   UNL     1       3.127  -0.816   0.004  1.00  0.00     0.156 HD
ATOM     25  H   UNL     1       3.122   0.883   0.141  1.00  0.00     0.156 HD
ENDBRANCH  18  23
ENDBRANCH   7  17
BRANCH  16  26
ATOM     26  C   UNL     1      -3.081  -3.496   2.772  1.00  0.00     0.430 C 
ATOM     27  F   UNL     1      -1.726  -3.488   2.793  1.00  0.00    -0.167 F 
ATOM     28  F   UNL     1      -3.473  -4.342   3.756  1.00  0.00    -0.167 F 
ATOM     29  F   UNL     1      -3.461  -4.041   1.594  1.00  0.00    -0.167 F 
ENDBRANCH  16  26
ENDBRANCH   4   6
ENDBRANCH   3   4
ENDBRANCH   2   3
ENDBRANCH   1   2
BRANCH   1  30
ATOM     30  O   UNL     1      -8.261  -2.239   6.102  1.00  0.00    -0.458 OA
BRANCH  30  31
ATOM     31  C   UNL     1      -8.223  -0.976   5.619  1.00  0.00     0.338 C 
ATOM     32  O   UNL     1      -7.389  -0.119   5.852  1.00  0.00    -0.246 OA
BRANCH  31  33
ATOM     33  C   UNL     1      -9.301  -0.804   4.636  1.00  0.00     0.060 A 
ATOM     34  C   UNL     1     -10.423  -0.030   4.899  1.00  0.00     0.016 A 
ATOM     35  C   UNL     1      -9.103  -1.330   3.367  1.00  0.00     0.016 A 
ATOM     36  C   UNL     1     -11.351   0.184   3.871  1.00  0.00     0.010 A 
ATOM     37  C   UNL     1      -9.930  -0.972   2.310  1.00  0.00     0.010 A 
ATOM     38  C   UNL     1     -11.101  -0.253   2.551  1.00  0.00    -0.014 A 
BRANCH  38  39
ATOM     39  C   UNL     1     -12.053   0.021   1.434  1.00  0.00     0.031 A 
ATOM     40  C   UNL     1     -12.584  -1.101   0.565  1.00  0.00     0.074 A 
ATOM     41  C   UNL     1     -12.414   1.293   1.167  1.00  0.00     0.049 A 
ATOM     42  N   UNL     1     -13.442  -1.041  -0.422  1.00  0.00    -0.248 NA
ATOM     43  C   UNL     1     -12.053  -2.456   0.796  1.00  0.00     0.031 C 
ATOM     44  C   UNL     1     -11.878   2.475   1.844  1.00  0.00     0.029 A 
ATOM     45  N   UNL     1     -13.323   1.810   0.275  1.00  0.00    -0.354 N 
ATOM     46  C   UNL     1     -13.531  -2.333  -0.933  1.00  0.00     0.074 A 
ATOM     47  C   UNL     1     -12.572  -3.136  -0.215  1.00  0.00     0.031 C 
ATOM     48  C   UNL     1     -12.527   3.564   1.410  1.00  0.00     0.029 A 
ATOM     49  C   UNL     1     -13.491   3.173   0.384  1.00  0.00     0.049 A 
ATOM     50  H   UNL     1     -13.808   1.258  -0.380  1.00  0.00     0.167 HD
ATOM     51  C   UNL     1     -14.376  -2.824  -1.872  1.00  0.00     0.034 A 
ATOM     52  C   UNL     1     -14.337   4.012  -0.249  1.00  0.00     0.034 A 
ATOM     53  C   UNL     1     -15.376  -2.025  -2.529  1.00  0.00     0.049 A 
ATOM     54  C   UNL     1     -15.321   3.438  -1.237  1.00  0.00     0.074 A 
ATOM     55  C   UNL     1     -16.346  -2.439  -3.423  1.00  0.00     0.029 A 
ATOM     56  N   UNL     1     -15.545  -0.659  -2.356  1.00  0.00    -0.354 N 
ATOM     57  N   UNL     1     -15.479   2.189  -1.611  1.00  0.00    -0.248 NA
ATOM     58  C   UNL     1     -16.253   4.375  -1.880  1.00  0.00     0.031 C 
ATOM     59  C   UNL     1     -17.063  -1.317  -3.835  1.00  0.00     0.029 A 
ATOM     60  C   UNL     1     -16.593  -0.212  -3.142  1.00  0.00     0.049 A 
ATOM     61  H   UNL     1     -15.002  -0.093  -1.762  1.00  0.00     0.167 HD
ATOM     62  C   UNL     1     -16.538   2.188  -2.514  1.00  0.00     0.074 A 
ATOM     63  C   UNL     1     -17.004   3.555  -2.606  1.00  0.00     0.031 C 
ATOM     64  C   UNL     1     -17.068   1.150  -3.209  1.00  0.00     0.034 A 
BRANCH  51  65
ATOM     65  C   UNL     1     -14.321  -4.298  -2.208  1.00  0.00     0.023 A 
ATOM     66  C   UNL     1     -14.073  -4.716  -3.530  1.00  0.00     0.031 A 
ATOM     67  C   UNL     1     -14.651  -5.281  -1.256  1.00  0.00     0.131 A 
ATOM     68  C   UNL     1     -14.193  -6.072  -3.867  1.00  0.00     0.055 A 
ATOM     69  C   UNL     1     -14.715  -6.636  -1.585  1.00  0.00     0.041 A 
ATOM     70  F   UNL     1     -14.910  -4.939   0.017  1.00  0.00    -0.206 F 
ATOM     71  C   UNL     1     -14.499  -7.034  -2.900  1.00  0.00     0.022 A 
BRANCH  68  72
ATOM     72  S   UNL     1     -14.033  -6.633  -5.585  1.00  0.00     0.124 S 
ATOM     73  O   UNL     1     -12.941  -7.599  -5.485  1.00  0.00    -0.237 OA
ATOM     74  O   UNL     1     -15.351  -7.207  -5.841  1.00  0.00    -0.237 OA
ATOM     75  O   UNL     1     -13.719  -5.416  -6.325  1.00  0.00    -0.744 OA
ENDBRANCH  68  72
ENDBRANCH  51  65
BRANCH  52  76
ATOM     76  C   UNL     1     -14.347   5.457   0.133  1.00  0.00     0.023 A 
ATOM     77  C   UNL     1     -13.205   6.262  -0.035  1.00  0.00     0.031 A 
ATOM     78  C   UNL     1     -15.454   6.016   0.794  1.00  0.00     0.131 A 
ATOM     79  C   UNL     1     -13.170   7.549   0.519  1.00  0.00     0.055 A 
ATOM     80  C   UNL     1     -15.443   7.327   1.276  1.00  0.00     0.041 A 
ATOM     81  F   UNL     1     -16.561   5.285   0.996  1.00  0.00    -0.206 F 
ATOM     82  C   UNL     1     -14.289   8.093   1.157  1.00  0.00     0.022 A 
BRANCH  79  83
ATOM     83  S   UNL     1     -11.625   8.500   0.568  1.00  0.00     0.124 S 
ATOM     84  O   UNL     1     -11.977   9.694  -0.192  1.00  0.00    -0.237 OA
ATOM     85  O   UNL     1     -11.442   8.697   2.005  1.00  0.00    -0.237 OA
ATOM     86  O   UNL     1     -10.654   7.611  -0.062  1.00  0.00    -0.744 OA
ENDBRANCH  79  83
ENDBRANCH  52  76
BRANCH  64  87
ATOM     87  C   UNL     1     -18.224   1.412  -4.143  1.00  0.00     0.023 A 
ATOM     88  C   UNL     1     -19.459   0.768  -3.926  1.00  0.00     0.031 A 
ATOM     89  C   UNL     1     -18.051   2.136  -5.334  1.00  0.00     0.131 A 
ATOM     90  C   UNL     1     -20.451   0.815  -4.912  1.00  0.00     0.055 A 
ATOM     91  C   UNL     1     -19.064   2.225  -6.289  1.00  0.00     0.041 A 
ATOM     92  F   UNL     1     -16.888   2.754  -5.593  1.00  0.00    -0.206 F 
ATOM     93  C   UNL     1     -20.264   1.548  -6.089  1.00  0.00     0.022 A 
BRANCH  90  94
ATOM     94  S   UNL     1     -21.973  -0.161  -4.755  1.00  0.00     0.124 S 
ATOM     95  O   UNL     1     -23.001   0.877  -4.783  1.00  0.00    -0.237 OA
ATOM     96  O   UNL     1     -21.915  -1.013  -5.939  1.00  0.00    -0.237 OA
ATOM     97  O   UNL     1     -21.821  -0.849  -3.478  1.00  0.00    -0.744 OA
ENDBRANCH  90  94
ENDBRANCH  64  87
ENDBRANCH  38  39
ENDBRANCH  31  33
ENDBRANCH  30  31
ENDBRANCH   1  30
TORSDOF 17
