REMARK SMILES CCCc1cc2c(cc1Cl)C=C(C(=O)OCCOC(=O)c1ccc(-c3c4nc(c(-c5cc(S(=O)(=O)[O-])ccc5F)c5ccc([nH]5)c(-c5cc(S(=O)(=O)[O-])ccc5F)c5nc(c(-c6cc(S(=O)(=O)[O-])ccc6F)c6ccc3[nH]6)C=C5)C=C4)cc1)[C@H](C(F)(F)F)O2
REMARK SMILES IDX 17 1 16 2 15 3 13 4 14 5 12 6 4 7 5 8 9 9 6 10 8 11 10 12
REMARK SMILES IDX 7 13 89 14 11 15 84 16 3 17 2 18 1 19 85 20 86 21 87 22
REMARK SMILES IDX 88 23 18 24 19 25 20 26 21 27 22 28 83 29 23 30 82 31 24 32
REMARK SMILES IDX 25 33 26 34 76 35 27 36 81 37 75 38 77 39 28 40 80 41 74 42
REMARK SMILES IDX 73 43 29 45 61 46 41 47 60 48 42 49 45 50 59 51 78 52 43 53
REMARK SMILES IDX 44 54 58 56 79 57 46 58 30 59 31 60 39 61 32 62 38 63 40 64
REMARK SMILES IDX 37 65 33 66 34 67 35 68 36 69 62 70 63 71 71 72 64 73 70 74
REMARK SMILES IDX 72 75 69 76 65 77 66 78 67 79 68 80 47 81 48 82 56 83 49 84
REMARK SMILES IDX 55 85 57 86 54 87 50 88 51 89 52 90 53 91
REMARK H PARENT 77 44 45 55
REMARK Flexibility Score: inf
ROOT
ATOM      1  C   UNL     1      -2.971  -0.823  -9.728  1.00  0.00     0.275 C 
ENDROOT
BRANCH   1   2
ATOM      2  C   UNL     1      -1.538  -1.305  -9.485  1.00  0.00     0.275 C 
BRANCH   2   3
ATOM      3  O   UNL     1      -1.170  -1.157  -8.097  1.00  0.00    -0.459 OA
BRANCH   3   4
ATOM      4  C   UNL     1      -0.386  -0.097  -7.795  1.00  0.00     0.338 C 
ATOM      5  O   UNL     1       0.138   0.652  -8.596  1.00  0.00    -0.246 OA
BRANCH   4   6
ATOM      6  C   UNL     1      -0.297   0.083  -6.330  1.00  0.00     0.087 C 
ATOM      7  C   UNL     1       0.709   1.960  -1.771  1.00  0.00    -0.026 A 
ATOM      8  C   UNL     1       0.874   0.698  -2.383  1.00  0.00     0.052 A 
ATOM      9  C   UNL     1       0.139   2.997  -2.533  1.00  0.00     0.045 A 
ATOM     10  C   UNL     1       0.472   0.470  -3.696  1.00  0.00     0.128 A 
ATOM     11  C   UNL     1      -0.205   2.786  -3.869  1.00  0.00     0.032 A 
ATOM     12  Cl  UNL     1      -0.120   4.587  -1.907  1.00  0.00    -0.084 Cl
ATOM     13  C   UNL     1      -0.013   1.531  -4.449  1.00  0.00     0.019 A 
ATOM     14  O   UNL     1       0.648  -0.788  -4.219  1.00  0.00    -0.475 OA
ATOM     15  C   UNL     1      -0.189   1.336  -5.871  1.00  0.00     0.027 C 
ATOM     16  C   UNL     1      -0.147  -1.101  -5.415  1.00  0.00     0.316 C 
BRANCH   7  17
ATOM     17  C   UNL     1       1.224   2.175  -0.364  1.00  0.00     0.037 C 
BRANCH  17  18
ATOM     18  C   UNL     1       0.535   1.359   0.736  1.00  0.00     0.001 C 
ATOM     19  C   UNL     1       0.945  -0.106   0.781  1.00  0.00     0.004 C 
ENDBRANCH  17  18
ENDBRANCH   7  17
BRANCH  16  20
ATOM     20  C   UNL     1      -1.444  -1.826  -5.009  1.00  0.00     0.430 C 
ATOM     21  F   UNL     1      -2.088  -1.220  -3.989  1.00  0.00    -0.167 F 
ATOM     22  F   UNL     1      -2.327  -1.961  -6.021  1.00  0.00    -0.167 F 
ATOM     23  F   UNL     1      -1.150  -3.091  -4.598  1.00  0.00    -0.167 F 
ENDBRANCH  16  20
ENDBRANCH   4   6
ENDBRANCH   3   4
ENDBRANCH   2   3
ENDBRANCH   1   2
BRANCH   1  24
ATOM     24  O   UNL     1      -3.042   0.615  -9.671  1.00  0.00    -0.458 OA
BRANCH  24  25
ATOM     25  C   UNL     1      -3.620   1.127  -8.561  1.00  0.00     0.338 C 
ATOM     26  O   UNL     1      -4.100   0.509  -7.624  1.00  0.00    -0.246 OA
BRANCH  25  27
ATOM     27  C   UNL     1      -3.461   2.588  -8.554  1.00  0.00     0.060 A 
ATOM     28  C   UNL     1      -4.497   3.459  -8.860  1.00  0.00     0.016 A 
ATOM     29  C   UNL     1      -2.257   3.089  -8.078  1.00  0.00     0.016 A 
ATOM     30  C   UNL     1      -4.291   4.838  -8.704  1.00  0.00     0.010 A 
ATOM     31  C   UNL     1      -2.107   4.437  -7.777  1.00  0.00     0.010 A 
ATOM     32  C   UNL     1      -3.104   5.347  -8.129  1.00  0.00    -0.014 A 
BRANCH  32  33
ATOM     33  C   UNL     1      -2.900   6.809  -7.894  1.00  0.00     0.031 A 
ATOM     34  C   UNL     1      -1.680   7.531  -8.427  1.00  0.00     0.074 A 
ATOM     35  C   UNL     1      -3.796   7.493  -7.151  1.00  0.00     0.049 A 
ATOM     36  N   UNL     1      -1.372   8.802  -8.344  1.00  0.00    -0.248 NA
ATOM     37  C   UNL     1      -0.647   6.723  -9.100  1.00  0.00     0.031 C 
ATOM     38  C   UNL     1      -4.944   6.897  -6.467  1.00  0.00     0.029 A 
ATOM     39  N   UNL     1      -3.897   8.832  -6.857  1.00  0.00    -0.354 N 
ATOM     40  C   UNL     1      -0.116   8.934  -8.931  1.00  0.00     0.074 A 
ATOM     41  C   UNL     1       0.325   7.605  -9.279  1.00  0.00     0.031 C 
ATOM     42  C   UNL     1      -5.679   7.870  -5.910  1.00  0.00     0.029 A 
ATOM     43  C   UNL     1      -5.032   9.158  -6.149  1.00  0.00     0.049 A 
ATOM     44  H   UNL     1      -3.222   9.495  -7.127  1.00  0.00     0.167 HD
ATOM     45  C   UNL     1       0.585  10.060  -9.208  1.00  0.00     0.034 A 
ATOM     46  C   UNL     1      -5.515  10.355  -5.753  1.00  0.00     0.034 A 
ATOM     47  C   UNL     1       0.105  11.386  -8.913  1.00  0.00     0.049 A 
ATOM     48  C   UNL     1      -4.761  11.604  -6.136  1.00  0.00     0.074 A 
ATOM     49  C   UNL     1       0.687  12.597  -9.240  1.00  0.00     0.029 A 
ATOM     50  N   UNL     1      -1.071  11.677  -8.237  1.00  0.00    -0.354 N 
ATOM     51  N   UNL     1      -3.641  11.716  -6.812  1.00  0.00    -0.248 NA
ATOM     52  C   UNL     1      -5.339  12.890  -5.722  1.00  0.00     0.031 C 
ATOM     53  C   UNL     1      -0.103  13.617  -8.710  1.00  0.00     0.029 A 
ATOM     54  C   UNL     1      -1.221  13.048  -8.119  1.00  0.00     0.049 A 
ATOM     55  H   UNL     1      -1.706  11.007  -7.893  1.00  0.00     0.167 HD
ATOM     56  C   UNL     1      -3.389  13.081  -6.917  1.00  0.00     0.074 A 
ATOM     57  C   UNL     1      -4.495  13.756  -6.269  1.00  0.00     0.031 C 
ATOM     58  C   UNL     1      -2.333  13.716  -7.485  1.00  0.00     0.034 A 
BRANCH  45  59
ATOM     59  C   UNL     1       1.913   9.940  -9.925  1.00  0.00     0.023 A 
ATOM     60  C   UNL     1       3.087  10.455  -9.342  1.00  0.00     0.031 A 
ATOM     61  C   UNL     1       1.994   9.443 -11.240  1.00  0.00     0.131 A 
ATOM     62  C   UNL     1       4.277  10.491 -10.082  1.00  0.00     0.055 A 
ATOM     63  C   UNL     1       3.193   9.431 -11.953  1.00  0.00     0.041 A 
ATOM     64  F   UNL     1       0.904   8.951 -11.853  1.00  0.00    -0.206 F 
ATOM     65  C   UNL     1       4.339   9.970 -11.379  1.00  0.00     0.022 A 
BRANCH  62  66
ATOM     66  S   UNL     1       5.771  11.283  -9.427  1.00  0.00     0.124 S 
ATOM     67  O   UNL     1       6.739  10.189  -9.479  1.00  0.00    -0.237 OA
ATOM     68  O   UNL     1       5.993  12.357 -10.391  1.00  0.00    -0.237 OA
ATOM     69  O   UNL     1       5.386  11.706  -8.085  1.00  0.00    -0.744 OA
ENDBRANCH  62  66
ENDBRANCH  45  59
BRANCH  46  70
ATOM     70  C   UNL     1      -6.832  10.410  -5.048  1.00  0.00     0.023 A 
ATOM     71  C   UNL     1      -7.022   9.770  -3.809  1.00  0.00     0.031 A 
ATOM     72  C   UNL     1      -7.952  10.993  -5.666  1.00  0.00     0.131 A 
ATOM     73  C   UNL     1      -8.312   9.664  -3.270  1.00  0.00     0.055 A 
ATOM     74  C   UNL     1      -9.221  10.954  -5.086  1.00  0.00     0.041 A 
ATOM     75  F   UNL     1      -7.828  11.600  -6.857  1.00  0.00    -0.206 F 
ATOM     76  C   UNL     1      -9.409  10.268  -3.891  1.00  0.00     0.022 A 
BRANCH  73  77
ATOM     77  S   UNL     1      -8.633   8.608  -1.829  1.00  0.00     0.124 S 
ATOM     78  O   UNL     1      -9.171   9.563  -0.866  1.00  0.00    -0.237 OA
ATOM     79  O   UNL     1      -9.593   7.650  -2.371  1.00  0.00    -0.237 OA
ATOM     80  O   UNL     1      -7.321   8.057  -1.507  1.00  0.00    -0.744 OA
ENDBRANCH  73  77
ENDBRANCH  46  70
BRANCH  58  81
ATOM     81  C   UNL     1      -2.286  15.226  -7.444  1.00  0.00     0.023 A 
ATOM     82  C   UNL     1      -2.256  15.962  -8.645  1.00  0.00     0.031 A 
ATOM     83  C   UNL     1      -2.107  15.919  -6.235  1.00  0.00     0.131 A 
ATOM     84  C   UNL     1      -2.004  17.340  -8.612  1.00  0.00     0.055 A 
ATOM     85  C   UNL     1      -1.913  17.300  -6.204  1.00  0.00     0.041 A 
ATOM     86  F   UNL     1      -2.111  15.261  -5.065  1.00  0.00    -0.206 F 
ATOM     87  C   UNL     1      -1.843  18.014  -7.397  1.00  0.00     0.022 A 
BRANCH  84  88
ATOM     88  S   UNL     1      -1.772  18.287 -10.142  1.00  0.00     0.124 S 
ATOM     89  O   UNL     1      -2.867  19.251 -10.069  1.00  0.00    -0.237 OA
ATOM     90  O   UNL     1      -0.435  18.846  -9.957  1.00  0.00    -0.237 OA
ATOM     91  O   UNL     1      -1.892  17.287 -11.197  1.00  0.00    -0.744 OA
ENDBRANCH  84  88
ENDBRANCH  58  81
ENDBRANCH  32  33
ENDBRANCH  25  27
ENDBRANCH  24  25
ENDBRANCH   1  24
TORSDOF 17
