REMARK SMILES Cc1cc(C)n2nc(SCC(=O)N3CCC(C(=O)OCCOC(=O)c4ccc(-c5c6nc(c(-c7cc(S(=O)(=O)[O-])ccc7F)c7ccc([nH]7)c(-c7cc(S(=O)(=O)[O-])ccc7F)c7nc(c(-c8cc(S(=O)(=O)[O-])ccc8F)c8ccc5[nH]8)C=C7)C=C6)cc4)CC3)nc2n1
REMARK SMILES IDX 20 1 19 2 17 3 18 4 16 5 11 6 12 7 13 8 14 9 89 10 15 11
REMARK SMILES IDX 88 12 10 13 9 14 8 15 1 16 2 17 3 18 92 19 4 20 91 21 5 22
REMARK SMILES IDX 6 23 90 24 7 25 21 26 22 27 23 28 24 29 25 30 26 31 87 32
REMARK SMILES IDX 27 33 86 34 28 35 29 36 30 37 80 38 31 39 85 40 79 41 81 42
REMARK SMILES IDX 32 43 84 44 78 45 77 46 33 48 65 49 45 50 64 51 46 52 49 53
REMARK SMILES IDX 63 54 82 55 47 56 48 57 62 59 83 60 50 61 34 62 35 63 43 64
REMARK SMILES IDX 36 65 42 66 44 67 41 68 37 69 38 70 39 71 40 72 66 73 67 74
REMARK SMILES IDX 75 75 68 76 74 77 76 78 73 79 69 80 70 81 71 82 72 83 51 84
REMARK SMILES IDX 52 85 60 86 53 87 59 88 61 89 58 90 54 91 55 92 56 93 57 94
REMARK H PARENT 81 47 49 58
REMARK Flexibility Score: inf
ROOT
ATOM      1  C   UNL     1       5.551  -0.298  -6.242  1.00  0.00     0.274 C 
ENDROOT
BRANCH   1   2
ATOM      2  O   UNL     1       4.484   0.428  -6.884  1.00  0.00    -0.462 OA
BRANCH   2   3
ATOM      3  C   UNL     1       4.796   1.665  -7.355  1.00  0.00     0.309 C 
ATOM      4  O   UNL     1       5.855   2.246  -7.134  1.00  0.00    -0.252 OA
BRANCH   3   5
ATOM      5  C   UNL     1       3.666   2.317  -8.133  1.00  0.00     0.103 C 
ATOM      6  C   UNL     1      -0.298   2.271  -7.989  1.00  0.00     0.233 C 
ATOM      7  O   UNL     1      -0.580   1.080  -8.165  1.00  0.00    -0.274 OA
ATOM      8  N   UNL     1       0.863   2.817  -8.530  1.00  0.00    -0.342 N 
ATOM      9  C   UNL     1       1.577   2.052  -9.544  1.00  0.00     0.120 C 
ATOM     10  C   UNL     1       1.681   3.850  -7.908  1.00  0.00     0.120 C 
ATOM     11  C   UNL     1       2.783   1.349  -8.938  1.00  0.00     0.037 C 
ATOM     12  C   UNL     1       2.837   3.177  -7.168  1.00  0.00     0.037 C 
BRANCH   6  13
ATOM     13  C   UNL     1      -1.355   3.199  -7.417  1.00  0.00     0.178 C 
BRANCH  13  14
ATOM     14  S   UNL     1      -1.024   4.037  -5.868  1.00  0.00    -0.074 SA
BRANCH  14  15
ATOM     15  C   UNL     1      -0.594   2.775  -4.762  1.00  0.00     0.211 A 
ATOM     16  C   UNL     1       1.035   0.064   0.029  1.00  0.00     0.067 C 
ATOM     17  C   UNL     1       0.546   0.397  -1.358  1.00  0.00     0.043 A 
ATOM     18  C   UNL     1       0.100  -0.745  -2.220  1.00  0.00     0.047 A 
ATOM     19  N   UNL     1       0.555   1.646  -1.716  1.00  0.00    -0.216 NA
ATOM     20  C   UNL     1      -0.356  -0.429  -3.447  1.00  0.00     0.045 A 
ATOM     21  C   UNL     1       0.088   1.921  -2.968  1.00  0.00     0.253 A 
ATOM     22  C   UNL     1      -0.842  -1.451  -4.426  1.00  0.00     0.067 C 
ATOM     23  N   UNL     1      -0.378   0.918  -3.829  1.00  0.00    -0.200 N 
ATOM     24  N   UNL     1      -0.035   3.085  -3.561  1.00  0.00    -0.183 NA
ATOM     25  N   UNL     1      -0.835   1.485  -4.971  1.00  0.00    -0.138 NA
ENDBRANCH  14  15
ENDBRANCH  13  14
ENDBRANCH   6  13
ENDBRANCH   3   5
ENDBRANCH   2   3
ENDBRANCH   1   2
BRANCH   1  26
ATOM     26  C   UNL     1       6.318  -1.192  -7.215  1.00  0.00     0.275 C 
BRANCH  26  27
ATOM     27  O   UNL     1       7.057  -0.428  -8.170  1.00  0.00    -0.458 OA
BRANCH  27  28
ATOM     28  C   UNL     1       6.354  -0.173  -9.296  1.00  0.00     0.338 C 
ATOM     29  O   UNL     1       5.164  -0.370  -9.460  1.00  0.00    -0.246 OA
BRANCH  28  30
ATOM     30  C   UNL     1       7.231   0.226 -10.397  1.00  0.00     0.060 A 
ATOM     31  C   UNL     1       6.608   0.690 -11.561  1.00  0.00     0.016 A 
ATOM     32  C   UNL     1       8.576  -0.160 -10.376  1.00  0.00     0.016 A 
ATOM     33  C   UNL     1       7.287   0.590 -12.755  1.00  0.00     0.010 A 
ATOM     34  C   UNL     1       9.248  -0.268 -11.573  1.00  0.00     0.010 A 
ATOM     35  C   UNL     1       8.568   0.033 -12.753  1.00  0.00    -0.014 A 
BRANCH  35  36
ATOM     36  C   UNL     1       9.197  -0.207 -14.036  1.00  0.00     0.031 A 
ATOM     37  C   UNL     1       9.679   1.010 -14.722  1.00  0.00     0.074 A 
ATOM     38  C   UNL     1       9.421  -1.448 -14.504  1.00  0.00     0.049 A 
ATOM     39  N   UNL     1       9.322   1.472 -15.873  1.00  0.00    -0.248 NA
ATOM     40  C   UNL     1      10.592   1.888 -13.976  1.00  0.00     0.031 C 
ATOM     41  C   UNL     1       9.240  -2.724 -13.807  1.00  0.00     0.029 A 
ATOM     42  N   UNL     1       9.982  -1.815 -15.686  1.00  0.00    -0.354 N 
ATOM     43  C   UNL     1      10.103   2.601 -16.087  1.00  0.00     0.074 A 
ATOM     44  C   UNL     1      10.746   2.895 -14.833  1.00  0.00     0.031 C 
ATOM     45  C   UNL     1       9.892  -3.693 -14.489  1.00  0.00     0.029 A 
ATOM     46  C   UNL     1      10.422  -3.131 -15.721  1.00  0.00     0.049 A 
ATOM     47  H   UNL     1      10.068  -1.201 -16.451  1.00  0.00     0.167 HD
ATOM     48  C   UNL     1      10.318   3.100 -17.333  1.00  0.00     0.034 A 
ATOM     49  C   UNL     1      11.238  -3.679 -16.658  1.00  0.00     0.034 A 
ATOM     50  C   UNL     1       9.328   2.637 -18.271  1.00  0.00     0.049 A 
ATOM     51  C   UNL     1      11.114  -2.837 -17.877  1.00  0.00     0.074 A 
ATOM     52  C   UNL     1       7.953   2.757 -18.358  1.00  0.00     0.029 A 
ATOM     53  N   UNL     1       9.661   1.609 -19.121  1.00  0.00    -0.354 N 
ATOM     54  N   UNL     1      10.010  -2.714 -18.562  1.00  0.00    -0.248 NA
ATOM     55  C   UNL     1      12.092  -1.780 -18.086  1.00  0.00     0.031 C 
ATOM     56  C   UNL     1       7.502   1.499 -18.854  1.00  0.00     0.029 A 
ATOM     57  C   UNL     1       8.626   0.704 -19.087  1.00  0.00     0.049 A 
ATOM     58  H   UNL     1      10.486   1.534 -19.654  1.00  0.00     0.167 HD
ATOM     59  C   UNL     1       9.973  -1.383 -18.950  1.00  0.00     0.074 A 
ATOM     60  C   UNL     1      11.328  -0.886 -18.721  1.00  0.00     0.031 C 
ATOM     61  C   UNL     1       8.790  -0.735 -19.163  1.00  0.00     0.034 A 
BRANCH  48  62
ATOM     62  C   UNL     1      11.596   3.777 -17.755  1.00  0.00     0.023 A 
ATOM     63  C   UNL     1      11.641   4.383 -19.023  1.00  0.00     0.031 A 
ATOM     64  C   UNL     1      12.838   3.631 -17.093  1.00  0.00     0.131 A 
ATOM     65  C   UNL     1      12.868   4.766 -19.593  1.00  0.00     0.055 A 
ATOM     66  C   UNL     1      14.045   4.077 -17.633  1.00  0.00     0.041 A 
ATOM     67  F   UNL     1      12.965   2.962 -15.940  1.00  0.00    -0.206 F 
ATOM     68  C   UNL     1      14.069   4.627 -18.902  1.00  0.00     0.022 A 
BRANCH  65  69
ATOM     69  S   UNL     1      12.887   5.304 -21.322  1.00  0.00     0.124 S 
ATOM     70  O   UNL     1      12.254   4.175 -21.994  1.00  0.00    -0.237 OA
ATOM     71  O   UNL     1      12.110   6.538 -21.262  1.00  0.00    -0.237 OA
ATOM     72  O   UNL     1      14.310   5.479 -21.607  1.00  0.00    -0.744 OA
ENDBRANCH  65  69
ENDBRANCH  48  62
BRANCH  49  73
ATOM     73  C   UNL     1      12.341  -4.653 -16.436  1.00  0.00     0.023 A 
ATOM     74  C   UNL     1      12.974  -5.312 -17.510  1.00  0.00     0.031 A 
ATOM     75  C   UNL     1      12.965  -4.767 -15.172  1.00  0.00     0.131 A 
ATOM     76  C   UNL     1      14.171  -6.034 -17.300  1.00  0.00     0.055 A 
ATOM     77  C   UNL     1      14.140  -5.494 -14.967  1.00  0.00     0.041 A 
ATOM     78  F   UNL     1      12.509  -4.099 -14.101  1.00  0.00    -0.206 F 
ATOM     79  C   UNL     1      14.756  -6.122 -16.036  1.00  0.00     0.022 A 
BRANCH  76  80
ATOM     80  S   UNL     1      15.066  -6.760 -18.709  1.00  0.00     0.124 S 
ATOM     81  O   UNL     1      14.320  -7.992 -18.941  1.00  0.00    -0.237 OA
ATOM     82  O   UNL     1      14.945  -5.728 -19.732  1.00  0.00    -0.237 OA
ATOM     83  O   UNL     1      16.420  -6.947 -18.187  1.00  0.00    -0.744 OA
ENDBRANCH  76  80
ENDBRANCH  49  73
BRANCH  61  84
ATOM     84  C   UNL     1       7.522  -1.560 -19.248  1.00  0.00     0.023 A 
ATOM     85  C   UNL     1       7.002  -2.343 -18.192  1.00  0.00     0.031 A 
ATOM     86  C   UNL     1       6.736  -1.418 -20.405  1.00  0.00     0.131 A 
ATOM     87  C   UNL     1       5.739  -2.955 -18.325  1.00  0.00     0.055 A 
ATOM     88  C   UNL     1       5.479  -2.010 -20.524  1.00  0.00     0.041 A 
ATOM     89  F   UNL     1       7.161  -0.657 -21.427  1.00  0.00    -0.206 F 
ATOM     90  C   UNL     1       4.976  -2.783 -19.484  1.00  0.00     0.022 A 
BRANCH  87  91
ATOM     91  S   UNL     1       5.052  -3.963 -16.970  1.00  0.00     0.124 S 
ATOM     92  O   UNL     1       6.066  -4.993 -16.772  1.00  0.00    -0.237 OA
ATOM     93  O   UNL     1       4.903  -2.992 -15.890  1.00  0.00    -0.237 OA
ATOM     94  O   UNL     1       3.786  -4.456 -17.518  1.00  0.00    -0.744 OA
ENDBRANCH  87  91
ENDBRANCH  61  84
ENDBRANCH  35  36
ENDBRANCH  28  30
ENDBRANCH  27  28
ENDBRANCH  26  27
ENDBRANCH   1  26
TORSDOF 17
