REMARK SMILES O=C(NCc1ccc(C(=O)OCCOC(=O)c2ccc(-c3c4nc(c(-c5cc(S(=O)(=O)[O-])ccc5F)c5ccc([nH]5)c(-c5cc(S(=O)(=O)[O-])ccc5F)c5nc(c(-c6cc(S(=O)(=O)[O-])ccc6F)c6ccc3[nH]6)C=C5)C=C4)cc2)o1)Nc1ccc(F)c(Cl)c1
REMARK SMILES IDX 12 1 11 2 9 3 10 4 8 5 5 6 6 7 80 8 7 9 4 10 3 11 1 12 2 13
REMARK SMILES IDX 81 14 82 17 83 18 89 19 84 20 87 21 85 22 88 23 86 24 13 25
REMARK SMILES IDX 14 26 15 27 16 28 17 29 18 30 79 31 19 32 78 33 20 34 21 35
REMARK SMILES IDX 22 36 72 37 23 38 77 39 71 40 73 41 24 42 76 43 70 44 69 45
REMARK SMILES IDX 25 47 57 48 37 49 56 50 38 51 41 52 55 53 74 54 39 55 40 56
REMARK SMILES IDX 54 58 75 59 42 60 26 61 27 62 35 63 28 64 34 65 36 66 33 67
REMARK SMILES IDX 29 68 30 69 31 70 32 71 58 72 59 73 67 74 60 75 66 76 68 77
REMARK SMILES IDX 65 78 61 79 62 80 63 81 64 82 43 83 44 84 52 85 45 86 51 87
REMARK SMILES IDX 53 88 50 89 46 90 47 91 48 92 49 93
REMARK H PARENT 3 15 81 16 73 46 41 57
REMARK Flexibility Score: inf
ROOT
ATOM      1  C   UNL     1       6.409  -4.581   6.418  1.00  0.00     0.275 C 
ENDROOT
BRANCH   1   2
ATOM      2  O   UNL     1       6.314  -3.364   5.655  1.00  0.00    -0.456 OA
BRANCH   2   3
ATOM      3  C   UNL     1       6.490  -3.493   4.305  1.00  0.00     0.374 C 
ATOM      4  O   UNL     1       6.876  -4.516   3.756  1.00  0.00    -0.242 OA
BRANCH   3   5
ATOM      5  C   UNL     1       6.067  -2.285   3.634  1.00  0.00     0.211 A 
ATOM      6  C   UNL     1       5.258  -1.180   1.903  1.00  0.00     0.124 A 
ATOM      7  C   UNL     1       5.248  -0.298   2.963  1.00  0.00     0.048 A 
ATOM      8  O   UNL     1       5.818  -2.359   2.287  1.00  0.00    -0.452 OA
ATOM      9  C   UNL     1       5.758  -1.012   4.078  1.00  0.00     0.058 A 
BRANCH   6  10
ATOM     10  C   UNL     1       4.715  -1.123   0.520  1.00  0.00     0.193 C 
BRANCH  10  11
ATOM     11  N   UNL     1       3.271  -1.069   0.631  1.00  0.00    -0.331 N 
ATOM     12  O   UNL     1       1.304  -0.090   0.917  1.00  0.00    -0.248 OA
ATOM     13  C   UNL     1       2.411  -0.045   0.392  1.00  0.00     0.319 C 
ATOM     14  N   UNL     1       2.874   0.952  -0.420  1.00  0.00    -0.308 N 
ATOM     15  H   UNL     1       2.846  -1.907   0.926  1.00  0.00     0.165 HD
ATOM     16  H   UNL     1       3.731   0.785  -0.876  1.00  0.00     0.171 HD
BRANCH  14  17
ATOM     17  C   UNL     1       2.257   2.194  -0.678  1.00  0.00     0.044 A 
ATOM     18  C   UNL     1       2.812   2.984  -1.696  1.00  0.00     0.029 A 
ATOM     19  C   UNL     1       1.154   2.679   0.036  1.00  0.00     0.049 A 
ATOM     20  C   UNL     1       2.266   4.232  -2.004  1.00  0.00     0.043 A 
ATOM     21  C   UNL     1       0.614   3.931  -0.270  1.00  0.00     0.078 A 
ATOM     22  C   UNL     1       1.170   4.699  -1.288  1.00  0.00     0.141 A 
ATOM     23  Cl  UNL     1      -0.727   4.526   0.634  1.00  0.00    -0.081 Cl
ATOM     24  F   UNL     1       0.673   5.908  -1.590  1.00  0.00    -0.205 F 
ENDBRANCH  14  17
ENDBRANCH  10  11
ENDBRANCH   6  10
ENDBRANCH   3   5
ENDBRANCH   2   3
ENDBRANCH   1   2
BRANCH   1  25
ATOM     25  C   UNL     1       5.024  -5.177   6.697  1.00  0.00     0.275 C 
BRANCH  25  26
ATOM     26  O   UNL     1       4.456  -5.799   5.529  1.00  0.00    -0.458 OA
BRANCH  26  27
ATOM     27  C   UNL     1       3.688  -4.993   4.756  1.00  0.00     0.338 C 
ATOM     28  O   UNL     1       3.431  -3.819   4.961  1.00  0.00    -0.246 OA
BRANCH  27  29
ATOM     29  C   UNL     1       3.302  -5.709   3.527  1.00  0.00     0.060 A 
ATOM     30  C   UNL     1       3.635  -5.136   2.297  1.00  0.00     0.016 A 
ATOM     31  C   UNL     1       2.577  -6.902   3.578  1.00  0.00     0.016 A 
ATOM     32  C   UNL     1       3.249  -5.751   1.108  1.00  0.00     0.010 A 
ATOM     33  C   UNL     1       2.185  -7.516   2.384  1.00  0.00     0.010 A 
ATOM     34  C   UNL     1       2.514  -6.941   1.143  1.00  0.00    -0.014 A 
BRANCH  34  35
ATOM     35  C   UNL     1       2.041  -7.561  -0.117  1.00  0.00     0.031 A 
ATOM     36  C   UNL     1       0.607  -7.396  -0.529  1.00  0.00     0.074 A 
ATOM     37  C   UNL     1       2.893  -8.266  -0.883  1.00  0.00     0.049 A 
ATOM     38  N   UNL     1      -0.040  -7.952  -1.519  1.00  0.00    -0.248 NA
ATOM     39  C   UNL     1      -0.205  -6.483   0.289  1.00  0.00     0.031 C 
ATOM     40  C   UNL     1       4.320  -8.443  -0.611  1.00  0.00     0.029 A 
ATOM     41  N   UNL     1       2.682  -8.975  -2.038  1.00  0.00    -0.354 N 
ATOM     42  C   UNL     1      -1.342  -7.472  -1.438  1.00  0.00     0.074 A 
ATOM     43  C   UNL     1      -1.393  -6.590  -0.289  1.00  0.00     0.031 C 
ATOM     44  C   UNL     1       4.852  -9.225  -1.565  1.00  0.00     0.029 A 
ATOM     45  C   UNL     1       3.797  -9.644  -2.485  1.00  0.00     0.049 A 
ATOM     46  H   UNL     1       1.814  -9.003  -2.502  1.00  0.00     0.167 HD
ATOM     47  C   UNL     1      -2.396  -7.746  -2.246  1.00  0.00     0.034 A 
ATOM     48  C   UNL     1       3.941 -10.525  -3.494  1.00  0.00     0.034 A 
ATOM     49  C   UNL     1      -2.326  -8.631  -3.383  1.00  0.00     0.049 A 
ATOM     50  C   UNL     1       2.737 -10.880  -4.330  1.00  0.00     0.074 A 
ATOM     51  C   UNL     1      -3.330  -8.979  -4.271  1.00  0.00     0.029 A 
ATOM     52  N   UNL     1      -1.187  -9.318  -3.784  1.00  0.00    -0.354 N 
ATOM     53  N   UNL     1       1.504 -10.442  -4.226  1.00  0.00    -0.248 NA
ATOM     54  C   UNL     1       2.942 -11.851  -5.414  1.00  0.00     0.031 C 
ATOM     55  C   UNL     1      -2.813  -9.915  -5.174  1.00  0.00     0.029 A 
ATOM     56  C   UNL     1      -1.470 -10.106  -4.889  1.00  0.00     0.049 A 
ATOM     57  H   UNL     1      -0.307  -9.253  -3.348  1.00  0.00     0.167 HD
ATOM     58  C   UNL     1       0.793 -11.064  -5.248  1.00  0.00     0.074 A 
ATOM     59  C   UNL     1       1.734 -11.908  -5.956  1.00  0.00     0.031 C 
ATOM     60  C   UNL     1      -0.517 -10.943  -5.577  1.00  0.00     0.034 A 
BRANCH  47  61
ATOM     61  C   UNL     1      -3.722  -7.129  -1.883  1.00  0.00     0.023 A 
ATOM     62  C   UNL     1      -3.940  -5.742  -1.957  1.00  0.00     0.031 A 
ATOM     63  C   UNL     1      -4.774  -7.941  -1.423  1.00  0.00     0.131 A 
ATOM     64  C   UNL     1      -5.159  -5.204  -1.516  1.00  0.00     0.055 A 
ATOM     65  C   UNL     1      -6.007  -7.405  -1.049  1.00  0.00     0.041 A 
ATOM     66  F   UNL     1      -4.613  -9.269  -1.312  1.00  0.00    -0.206 F 
ATOM     67  C   UNL     1      -6.201  -6.027  -1.082  1.00  0.00     0.022 A 
BRANCH  64  68
ATOM     68  S   UNL     1      -5.322  -3.402  -1.400  1.00  0.00     0.124 S 
ATOM     69  O   UNL     1      -4.266  -3.074  -0.447  1.00  0.00    -0.237 OA
ATOM     70  O   UNL     1      -5.098  -2.976  -2.777  1.00  0.00    -0.237 OA
ATOM     71  O   UNL     1      -6.683  -3.212  -0.902  1.00  0.00    -0.744 OA
ENDBRANCH  64  68
ENDBRANCH  47  61
BRANCH  48  72
ATOM     72  C   UNL     1       5.255 -11.185  -3.733  1.00  0.00     0.023 A 
ATOM     73  C   UNL     1       5.987 -10.946  -4.906  1.00  0.00     0.031 A 
ATOM     74  C   UNL     1       5.780 -12.095  -2.798  1.00  0.00     0.131 A 
ATOM     75  C   UNL     1       7.191 -11.633  -5.128  1.00  0.00     0.055 A 
ATOM     76  C   UNL     1       6.999 -12.742  -3.004  1.00  0.00     0.041 A 
ATOM     77  F   UNL     1       5.117 -12.358  -1.661  1.00  0.00    -0.206 F 
ATOM     78  C   UNL     1       7.707 -12.520  -4.180  1.00  0.00     0.022 A 
BRANCH  75  79
ATOM     79  S   UNL     1       8.048 -11.398  -6.710  1.00  0.00     0.124 S 
ATOM     80  O   UNL     1       7.032 -11.826  -7.665  1.00  0.00    -0.237 OA
ATOM     81  O   UNL     1       8.344  -9.969  -6.685  1.00  0.00    -0.237 OA
ATOM     82  O   UNL     1       9.212 -12.275  -6.600  1.00  0.00    -0.744 OA
ENDBRANCH  75  79
ENDBRANCH  48  72
BRANCH  60  83
ATOM     83  C   UNL     1      -0.991 -11.698  -6.790  1.00  0.00     0.023 A 
ATOM     84  C   UNL     1      -1.167 -13.092  -6.771  1.00  0.00     0.031 A 
ATOM     85  C   UNL     1      -1.281 -11.004  -7.978  1.00  0.00     0.131 A 
ATOM     86  C   UNL     1      -1.590 -13.754  -7.934  1.00  0.00     0.055 A 
ATOM     87  C   UNL     1      -1.741 -11.662  -9.117  1.00  0.00     0.041 A 
ATOM     88  F   UNL     1      -1.128  -9.671  -8.043  1.00  0.00    -0.206 F 
ATOM     89  C   UNL     1      -1.892 -13.046  -9.102  1.00  0.00     0.022 A 
BRANCH  86  90
ATOM     90  S   UNL     1      -1.708 -15.564  -7.917  1.00  0.00     0.124 S 
ATOM     91  O   UNL     1      -0.317 -15.956  -7.713  1.00  0.00    -0.237 OA
ATOM     92  O   UNL     1      -2.611 -15.811  -6.797  1.00  0.00    -0.237 OA
ATOM     93  O   UNL     1      -2.256 -15.885  -9.234  1.00  0.00    -0.744 OA
ENDBRANCH  86  90
ENDBRANCH  60  83
ENDBRANCH  34  35
ENDBRANCH  27  29
ENDBRANCH  26  27
ENDBRANCH  25  26
ENDBRANCH   1  25
TORSDOF 17
