REMARK SMILES CCCN1C(=O)C[C@H](C(=O)OCCOC(=O)c2ccc(-c3c4nc(c(-c5cc(S(=O)(=O)[O-])ccc5F)c5ccc([nH]5)c(-c5cc(S(=O)(=O)[O-])ccc5F)c5nc(c(-c6cc(S(=O)(=O)[O-])ccc6F)c6ccc3[nH]6)C=C5)C=C4)cc2)[C@@H]1c1cncn1C1CC1
REMARK SMILES IDX 13 1 12 2 11 3 9 4 10 5 8 6 4 7 5 8 80 9 6 10 7 11 3 12 2 13
REMARK SMILES IDX 1 14 81 15 82 16 85 17 83 18 84 19 86 20 87 21 88 22 14 23
REMARK SMILES IDX 15 24 16 25 17 26 18 27 79 28 19 29 78 30 20 31 21 32 22 33
REMARK SMILES IDX 72 34 23 35 77 36 71 37 73 38 24 39 76 40 70 41 69 42 25 44
REMARK SMILES IDX 57 45 37 46 56 47 38 48 41 49 55 50 74 51 39 52 40 53 54 55
REMARK SMILES IDX 75 56 42 57 26 58 27 59 35 60 28 61 34 62 36 63 33 64 29 65
REMARK SMILES IDX 30 66 31 67 32 68 58 69 59 70 67 71 60 72 66 73 68 74 65 75
REMARK SMILES IDX 61 76 62 77 63 78 64 79 43 80 44 81 52 82 45 83 51 84 53 85
REMARK SMILES IDX 50 86 46 87 47 88 48 89 49 90
REMARK H PARENT 73 43 41 54
REMARK Flexibility Score: inf
ROOT
ATOM      1  C   UNL     1      -3.344   6.924   0.979  1.00  0.00     0.275 C 
ENDROOT
BRANCH   1   2
ATOM      2  C   UNL     1      -3.589   5.471   1.399  1.00  0.00     0.274 C 
BRANCH   2   3
ATOM      3  O   UNL     1      -2.359   4.776   1.690  1.00  0.00    -0.462 OA
BRANCH   3   4
ATOM      4  C   UNL     1      -1.916   3.953   0.710  1.00  0.00     0.312 C 
ATOM      5  O   UNL     1      -2.505   3.739  -0.345  1.00  0.00    -0.252 OA
BRANCH   4   6
ATOM      6  C   UNL     1      -0.617   3.272   1.022  1.00  0.00     0.137 C 
ATOM      7  N   UNL     1       0.571   1.515   1.905  1.00  0.00    -0.333 N 
ATOM      8  C   UNL     1       1.245   2.681   2.289  1.00  0.00     0.224 C 
ATOM      9  C   UNL     1      -0.746   1.810   1.422  1.00  0.00     0.148 C 
ATOM     10  O   UNL     1       2.360   2.745   2.768  1.00  0.00    -0.275 OA
ATOM     11  C   UNL     1       0.327   3.862   2.049  1.00  0.00     0.118 C 
BRANCH   7  12
ATOM     12  C   UNL     1       1.184   0.188   1.881  1.00  0.00     0.120 C 
BRANCH  12  13
ATOM     13  C   UNL     1       0.840  -0.695   0.678  1.00  0.00     0.018 C 
ATOM     14  C   UNL     1       1.377  -0.168  -0.643  1.00  0.00     0.006 C 
ENDBRANCH  12  13
ENDBRANCH   7  12
BRANCH   9  15
ATOM     15  C   UNL     1      -1.896   1.451   2.311  1.00  0.00     0.061 A 
ATOM     16  C   UNL     1      -3.178   1.268   1.783  1.00  0.00     0.136 A 
ATOM     17  N   UNL     1      -2.069   1.142   3.652  1.00  0.00    -0.330 N 
ATOM     18  N   UNL     1      -4.096   0.914   2.716  1.00  0.00    -0.245 NA
ATOM     19  C   UNL     1      -3.404   0.838   3.821  1.00  0.00     0.199 A 
BRANCH  17  20
ATOM     20  C   UNL     1      -1.248   1.085   4.851  1.00  0.00     0.088 C 
ATOM     21  C   UNL     1       0.234   1.133   5.079  1.00  0.00     0.027 C 
ATOM     22  C   UNL     1      -0.593   2.325   5.423  1.00  0.00     0.027 C 
ENDBRANCH  17  20
ENDBRANCH   9  15
ENDBRANCH   4   6
ENDBRANCH   3   4
ENDBRANCH   2   3
ENDBRANCH   1   2
BRANCH   1  23
ATOM     23  O   UNL     1      -2.571   7.028  -0.232  1.00  0.00    -0.458 OA
BRANCH  23  24
ATOM     24  C   UNL     1      -1.232   7.086  -0.039  1.00  0.00     0.338 C 
ATOM     25  O   UNL     1      -0.646   7.061   1.033  1.00  0.00    -0.246 OA
BRANCH  24  26
ATOM     26  C   UNL     1      -0.526   7.013  -1.326  1.00  0.00     0.060 A 
ATOM     27  C   UNL     1       0.254   5.880  -1.563  1.00  0.00     0.016 A 
ATOM     28  C   UNL     1      -0.525   8.071  -2.233  1.00  0.00     0.016 A 
ATOM     29  C   UNL     1       1.047   5.791  -2.699  1.00  0.00     0.010 A 
ATOM     30  C   UNL     1       0.273   7.983  -3.380  1.00  0.00     0.010 A 
ATOM     31  C   UNL     1       1.073   6.848  -3.612  1.00  0.00    -0.014 A 
BRANCH  31  32
ATOM     32  C   UNL     1       2.009   6.783  -4.761  1.00  0.00     0.031 A 
ATOM     33  C   UNL     1       3.229   7.657  -4.770  1.00  0.00     0.074 A 
ATOM     34  C   UNL     1       1.783   5.913  -5.762  1.00  0.00     0.049 A 
ATOM     35  N   UNL     1       4.109   7.843  -5.718  1.00  0.00    -0.248 NA
ATOM     36  C   UNL     1       3.484   8.432  -3.547  1.00  0.00     0.031 C 
ATOM     37  C   UNL     1       0.667   4.967  -5.820  1.00  0.00     0.029 A 
ATOM     38  N   UNL     1       2.475   5.686  -6.924  1.00  0.00    -0.354 N 
ATOM     39  C   UNL     1       5.004   8.786  -5.223  1.00  0.00     0.074 A 
ATOM     40  C   UNL     1       4.547   9.140  -3.895  1.00  0.00     0.031 C 
ATOM     41  C   UNL     1       0.745   4.269  -6.964  1.00  0.00     0.029 A 
ATOM     42  C   UNL     1       1.875   4.760  -7.746  1.00  0.00     0.049 A 
ATOM     43  H   UNL     1       3.318   6.141  -7.148  1.00  0.00     0.167 HD
ATOM     44  C   UNL     1       6.100   9.307  -5.830  1.00  0.00     0.034 A 
ATOM     45  C   UNL     1       2.174   4.388  -9.006  1.00  0.00     0.034 A 
ATOM     46  C   UNL     1       6.539   8.922  -7.150  1.00  0.00     0.049 A 
ATOM     47  C   UNL     1       3.360   5.022  -9.685  1.00  0.00     0.074 A 
ATOM     48  C   UNL     1       7.644   9.363  -7.857  1.00  0.00     0.029 A 
ATOM     49  N   UNL     1       5.888   8.006  -7.969  1.00  0.00    -0.354 N 
ATOM     50  N   UNL     1       4.184   5.934  -9.223  1.00  0.00    -0.248 NA
ATOM     51  C   UNL     1       3.654   4.580 -11.053  1.00  0.00     0.031 C 
ATOM     52  C   UNL     1       7.621   8.769  -9.124  1.00  0.00     0.029 A 
ATOM     53  C   UNL     1       6.546   7.896  -9.185  1.00  0.00     0.049 A 
ATOM     54  H   UNL     1       5.076   7.507  -7.722  1.00  0.00     0.167 HD
ATOM     55  C   UNL     1       5.105   6.164 -10.240  1.00  0.00     0.074 A 
ATOM     56  C   UNL     1       4.744   5.281 -11.331  1.00  0.00     0.031 C 
ATOM     57  C   UNL     1       6.156   7.025 -10.270  1.00  0.00     0.034 A 
BRANCH  44  58
ATOM     58  C   UNL     1       6.840  10.403  -5.098  1.00  0.00     0.023 A 
ATOM     59  C   UNL     1       7.481  10.184  -3.866  1.00  0.00     0.031 A 
ATOM     60  C   UNL     1       6.855  11.709  -5.622  1.00  0.00     0.131 A 
ATOM     61  C   UNL     1       8.034  11.266  -3.162  1.00  0.00     0.055 A 
ATOM     62  C   UNL     1       7.479  12.765  -4.956  1.00  0.00     0.041 A 
ATOM     63  F   UNL     1       6.240  11.986  -6.783  1.00  0.00    -0.206 F 
ATOM     64  C   UNL     1       8.058  12.550  -3.709  1.00  0.00     0.022 A 
BRANCH  61  65
ATOM     65  S   UNL     1       8.575  11.003  -1.450  1.00  0.00     0.124 S 
ATOM     66  O   UNL     1       7.354  10.495  -0.829  1.00  0.00    -0.237 OA
ATOM     67  O   UNL     1       9.661  10.042  -1.607  1.00  0.00    -0.237 OA
ATOM     68  O   UNL     1       8.980  12.336  -1.009  1.00  0.00    -0.744 OA
ENDBRANCH  61  65
ENDBRANCH  44  58
BRANCH  45  69
ATOM     69  C   UNL     1       1.292   3.428  -9.728  1.00  0.00     0.023 A 
ATOM     70  C   UNL     1       1.751   2.161 -10.119  1.00  0.00     0.031 A 
ATOM     71  C   UNL     1      -0.033   3.779 -10.050  1.00  0.00     0.131 A 
ATOM     72  C   UNL     1       0.900   1.300 -10.832  1.00  0.00     0.055 A 
ATOM     73  C   UNL     1      -0.889   2.902 -10.715  1.00  0.00     0.041 A 
ATOM     74  F   UNL     1      -0.521   4.979  -9.698  1.00  0.00    -0.206 F 
ATOM     75  C   UNL     1      -0.420   1.657 -11.119  1.00  0.00     0.022 A 
BRANCH  72  76
ATOM     76  S   UNL     1       1.562  -0.278 -11.432  1.00  0.00     0.124 S 
ATOM     77  O   UNL     1       2.654   0.164 -12.291  1.00  0.00    -0.237 OA
ATOM     78  O   UNL     1       1.949  -0.937 -10.189  1.00  0.00    -0.237 OA
ATOM     79  O   UNL     1       0.426  -0.882 -12.126  1.00  0.00    -0.744 OA
ENDBRANCH  72  76
ENDBRANCH  45  69
BRANCH  57  80
ATOM     80  C   UNL     1       7.003   7.018 -11.518  1.00  0.00     0.023 A 
ATOM     81  C   UNL     1       6.508   7.480 -12.751  1.00  0.00     0.031 A 
ATOM     82  C   UNL     1       8.321   6.529 -11.475  1.00  0.00     0.131 A 
ATOM     83  C   UNL     1       7.308   7.394 -13.900  1.00  0.00     0.055 A 
ATOM     84  C   UNL     1       9.131   6.499 -12.610  1.00  0.00     0.041 A 
ATOM     85  F   UNL     1       8.842   6.072 -10.325  1.00  0.00    -0.206 F 
ATOM     86  C   UNL     1       8.621   6.922 -13.835  1.00  0.00     0.022 A 
BRANCH  83  87
ATOM     87  S   UNL     1       6.578   7.823 -15.504  1.00  0.00     0.124 S 
ATOM     88  O   UNL     1       5.460   6.888 -15.588  1.00  0.00    -0.237 OA
ATOM     89  O   UNL     1       6.223   9.227 -15.321  1.00  0.00    -0.237 OA
ATOM     90  O   UNL     1       7.663   7.577 -16.452  1.00  0.00    -0.744 OA
ENDBRANCH  83  87
ENDBRANCH  57  80
ENDBRANCH  31  32
ENDBRANCH  24  26
ENDBRANCH  23  24
ENDBRANCH   1  23
TORSDOF 18
