REMARK SMILES Cc1ccc(C(=O)OCCOC(=O)c2ccc(-c3c4nc(c(-c5cc(S(=O)(=O)[O-])ccc5F)c5ccc([nH]5)c(-c5cc(S(=O)(=O)[O-])ccc5F)c5nc(c(-c6cc(S(=O)(=O)[O-])ccc6F)c6ccc3[nH]6)C=C5)C=C4)cc2)cc1N1C(=O)/C(=C/c2ccc([N+](=O)[O-])cc2)SC1=S
REMARK SMILES IDX 9 1 8 2 6 3 7 4 5 5 1 6 2 7 3 8 78 9 4 10 77 11 79 12 80 13
REMARK SMILES IDX 94 14 81 15 82 16 93 17 95 18 83 19 84 20 85 21 92 22 86 23
REMARK SMILES IDX 91 24 87 25 88 26 89 27 90 28 10 29 11 30 12 31 13 32 14 33
REMARK SMILES IDX 15 34 76 35 16 36 75 37 17 38 18 39 19 40 69 41 20 42 74 43
REMARK SMILES IDX 68 44 70 45 21 46 73 47 67 48 66 49 22 51 54 52 34 53 53 54
REMARK SMILES IDX 35 55 38 56 52 57 71 58 36 59 37 60 51 62 72 63 39 64 23 65
REMARK SMILES IDX 24 66 32 67 25 68 31 69 33 70 30 71 26 72 27 73 28 74 29 75
REMARK SMILES IDX 55 76 56 77 64 78 57 79 63 80 65 81 62 82 58 83 59 84 60 85
REMARK SMILES IDX 61 86 40 87 41 88 49 89 42 90 48 91 50 92 47 93 43 94 44 95
REMARK SMILES IDX 45 96 46 97
REMARK H PARENT 70 50 38 61
REMARK Flexibility Score: inf
ROOT
ATOM      1  C   UNL     1      -4.588   1.652  -2.575  1.00  0.00     0.275 C 
ENDROOT
BRANCH   1   2
ATOM      2  O   UNL     1      -3.299   1.075  -2.310  1.00  0.00    -0.458 OA
BRANCH   2   3
ATOM      3  C   UNL     1      -2.685   1.613  -1.230  1.00  0.00     0.338 C 
ATOM      4  O   UNL     1      -3.104   2.544  -0.556  1.00  0.00    -0.246 OA
BRANCH   3   5
ATOM      5  C   UNL     1      -1.323   1.071  -1.048  1.00  0.00     0.062 A 
ATOM      6  C   UNL     1       2.769  -0.186  -0.416  1.00  0.00     0.046 C 
ATOM      7  C   UNL     1       1.369   0.287  -0.683  1.00  0.00    -0.027 A 
ATOM      8  C   UNL     1       0.376  -0.656  -0.995  1.00  0.00     0.006 A 
ATOM      9  C   UNL     1       0.990   1.635  -0.610  1.00  0.00     0.054 A 
ATOM     10  C   UNL     1      -0.945  -0.256  -1.247  1.00  0.00     0.016 A 
ATOM     11  C   UNL     1      -0.356   2.004  -0.697  1.00  0.00     0.042 A 
BRANCH   9  12
ATOM     12  N   UNL     1       1.921   2.692  -0.703  1.00  0.00    -0.261 N 
ATOM     13  C   UNL     1       2.570   3.156   0.435  1.00  0.00     0.270 C 
ATOM     14  C   UNL     1       2.066   3.429  -1.872  1.00  0.00     0.152 C 
ATOM     15  O   UNL     1       2.645   2.634   1.524  1.00  0.00    -0.268 OA
ATOM     16  C   UNL     1       3.166   4.486   0.118  1.00  0.00     0.081 C 
ATOM     17  S   UNL     1       3.145   4.779  -1.578  1.00  0.00    -0.054 SA
ATOM     18  S   UNL     1       1.393   3.186  -3.387  1.00  0.00    -0.051 S 
ATOM     19  C   UNL     1       3.544   5.351   1.066  1.00  0.00     0.029 C 
BRANCH  19  20
ATOM     20  C   UNL     1       4.049   6.688   0.752  1.00  0.00    -0.024 A 
ATOM     21  C   UNL     1       3.167   7.768   0.602  1.00  0.00     0.015 A 
ATOM     22  C   UNL     1       5.414   6.859   0.502  1.00  0.00     0.015 A 
ATOM     23  C   UNL     1       3.651   9.020   0.212  1.00  0.00     0.086 A 
ATOM     24  C   UNL     1       5.906   8.105   0.112  1.00  0.00     0.086 A 
ATOM     25  C   UNL     1       5.022   9.184  -0.027  1.00  0.00     0.269 A 
BRANCH  25  26
ATOM     26  N   UNL     1       5.542  10.495  -0.431  1.00  0.00     0.062 N 
ATOM     27  O   UNL     1       4.734  11.427  -0.554  1.00  0.00    -0.258 OA
ATOM     28  O   UNL     1       6.763  10.596  -0.625  1.00  0.00    -0.258 OA
ENDBRANCH  25  26
ENDBRANCH  19  20
ENDBRANCH   9  12
ENDBRANCH   3   5
ENDBRANCH   2   3
ENDBRANCH   1   2
BRANCH   1  29
ATOM     29  C   UNL     1      -5.420   0.790  -3.540  1.00  0.00     0.275 C 
BRANCH  29  30
ATOM     30  O   UNL     1      -5.805  -0.532  -3.106  1.00  0.00    -0.458 OA
BRANCH  30  31
ATOM     31  C   UNL     1      -4.852  -1.289  -2.498  1.00  0.00     0.338 C 
ATOM     32  O   UNL     1      -3.889  -1.775  -3.068  1.00  0.00    -0.246 OA
BRANCH  31  33
ATOM     33  C   UNL     1      -4.982  -1.118  -1.024  1.00  0.00     0.060 A 
ATOM     34  C   UNL     1      -3.913  -1.483  -0.194  1.00  0.00     0.016 A 
ATOM     35  C   UNL     1      -6.014  -0.315  -0.534  1.00  0.00     0.016 A 
ATOM     36  C   UNL     1      -3.805  -0.935   1.083  1.00  0.00     0.010 A 
ATOM     37  C   UNL     1      -5.869   0.300   0.685  1.00  0.00     0.010 A 
ATOM     38  C   UNL     1      -4.779  -0.023   1.502  1.00  0.00    -0.014 A 
BRANCH  38  39
ATOM     39  C   UNL     1      -5.000   0.310   2.899  1.00  0.00     0.031 A 
ATOM     40  C   UNL     1      -4.344   1.420   3.602  1.00  0.00     0.074 A 
ATOM     41  C   UNL     1      -5.975  -0.446   3.449  1.00  0.00     0.049 A 
ATOM     42  N   UNL     1      -4.168   1.455   4.880  1.00  0.00    -0.248 NA
ATOM     43  C   UNL     1      -3.809   2.595   2.921  1.00  0.00     0.031 C 
ATOM     44  C   UNL     1      -6.676  -0.301   4.708  1.00  0.00     0.029 A 
ATOM     45  N   UNL     1      -6.400  -1.693   2.974  1.00  0.00    -0.354 N 
ATOM     46  C   UNL     1      -3.846   2.755   5.210  1.00  0.00     0.074 A 
ATOM     47  C   UNL     1      -3.505   3.388   3.957  1.00  0.00     0.031 C 
ATOM     48  C   UNL     1      -7.143  -1.516   5.059  1.00  0.00     0.029 A 
ATOM     49  C   UNL     1      -6.596  -2.476   4.100  1.00  0.00     0.049 A 
ATOM     50  H   UNL     1      -6.532  -1.958   2.035  1.00  0.00     0.167 HD
ATOM     51  C   UNL     1      -4.113   3.214   6.468  1.00  0.00     0.034 A 
ATOM     52  C   UNL     1      -5.768  -3.523   4.393  1.00  0.00     0.034 A 
ATOM     53  C   UNL     1      -4.709   2.161   7.286  1.00  0.00     0.049 A 
ATOM     54  C   UNL     1      -5.164  -3.326   5.762  1.00  0.00     0.074 A 
ATOM     55  C   UNL     1      -6.032   1.875   7.580  1.00  0.00     0.029 A 
ATOM     56  N   UNL     1      -3.972   1.033   7.628  1.00  0.00    -0.354 N 
ATOM     57  N   UNL     1      -4.842  -2.162   6.259  1.00  0.00    -0.248 NA
ATOM     58  C   UNL     1      -4.947  -4.428   6.687  1.00  0.00     0.031 C 
ATOM     59  C   UNL     1      -6.101   0.528   8.006  1.00  0.00     0.029 A 
ATOM     60  C   UNL     1      -4.817   0.009   8.007  1.00  0.00     0.049 A 
ATOM     61  H   UNL     1      -2.989   0.973   7.604  1.00  0.00     0.167 HD
ATOM     62  C   UNL     1      -4.513  -2.326   7.581  1.00  0.00     0.074 A 
ATOM     63  C   UNL     1      -4.551  -3.767   7.787  1.00  0.00     0.031 C 
ATOM     64  C   UNL     1      -4.300  -1.278   8.432  1.00  0.00     0.034 A 
BRANCH  51  65
ATOM     65  C   UNL     1      -4.224   4.684   6.816  1.00  0.00     0.023 A 
ATOM     66  C   UNL     1      -5.222   5.100   7.725  1.00  0.00     0.031 A 
ATOM     67  C   UNL     1      -3.439   5.713   6.268  1.00  0.00     0.131 A 
ATOM     68  C   UNL     1      -5.491   6.459   7.963  1.00  0.00     0.055 A 
ATOM     69  C   UNL     1      -3.722   7.073   6.481  1.00  0.00     0.041 A 
ATOM     70  F   UNL     1      -2.354   5.442   5.527  1.00  0.00    -0.206 F 
ATOM     71  C   UNL     1      -4.766   7.453   7.316  1.00  0.00     0.022 A 
BRANCH  68  72
ATOM     72  S   UNL     1      -6.821   6.897   9.118  1.00  0.00     0.124 S 
ATOM     73  O   UNL     1      -7.987   6.278   8.498  1.00  0.00    -0.237 OA
ATOM     74  O   UNL     1      -6.359   6.296  10.365  1.00  0.00    -0.237 OA
ATOM     75  O   UNL     1      -6.817   8.359   9.101  1.00  0.00    -0.744 OA
ENDBRANCH  68  72
ENDBRANCH  51  65
BRANCH  52  76
ATOM     76  C   UNL     1      -5.063  -4.193   3.248  1.00  0.00     0.023 A 
ATOM     77  C   UNL     1      -5.807  -4.570   2.105  1.00  0.00     0.031 A 
ATOM     78  C   UNL     1      -3.665  -4.266   3.147  1.00  0.00     0.131 A 
ATOM     79  C   UNL     1      -5.164  -4.890   0.896  1.00  0.00     0.055 A 
ATOM     80  C   UNL     1      -3.026  -4.636   1.952  1.00  0.00     0.041 A 
ATOM     81  F   UNL     1      -2.883  -3.909   4.174  1.00  0.00    -0.206 F 
ATOM     82  C   UNL     1      -3.774  -4.928   0.813  1.00  0.00     0.022 A 
BRANCH  79  83
ATOM     83  S   UNL     1      -6.167  -5.038  -0.615  1.00  0.00     0.124 S 
ATOM     84  O   UNL     1      -6.775  -6.353  -0.448  1.00  0.00    -0.237 OA
ATOM     85  O   UNL     1      -7.067  -3.894  -0.502  1.00  0.00    -0.237 OA
ATOM     86  O   UNL     1      -5.179  -4.933  -1.684  1.00  0.00    -0.744 OA
ENDBRANCH  79  83
ENDBRANCH  52  76
BRANCH  64  87
ATOM     87  C   UNL     1      -3.729  -1.394   9.822  1.00  0.00     0.023 A 
ATOM     88  C   UNL     1      -2.962  -2.491  10.228  1.00  0.00     0.031 A 
ATOM     89  C   UNL     1      -3.856  -0.343  10.764  1.00  0.00     0.131 A 
ATOM     90  C   UNL     1      -2.452  -2.573  11.532  1.00  0.00     0.055 A 
ATOM     91  C   UNL     1      -3.268  -0.385  12.029  1.00  0.00     0.041 A 
ATOM     92  F   UNL     1      -4.545   0.775  10.493  1.00  0.00    -0.206 F 
ATOM     93  C   UNL     1      -2.576  -1.516  12.430  1.00  0.00     0.022 A 
BRANCH  90  94
ATOM     94  S   UNL     1      -1.694  -4.132  12.044  1.00  0.00     0.124 S 
ATOM     95  O   UNL     1      -2.812  -5.063  11.914  1.00  0.00    -0.237 OA
ATOM     96  O   UNL     1      -0.619  -4.294  11.071  1.00  0.00    -0.237 OA
ATOM     97  O   UNL     1      -1.261  -3.870  13.415  1.00  0.00    -0.744 OA
ENDBRANCH  90  94
ENDBRANCH  64  87
ENDBRANCH  38  39
ENDBRANCH  31  33
ENDBRANCH  30  31
ENDBRANCH  29  30
ENDBRANCH   1  29
TORSDOF 17
