REMARK SMILES O=C(OCCOC(=O)c1ccc(CN2CC(=O)N3CCCC[C@@H]3C2=O)o1)c1ccc(-c2c3nc(c(-c4cc(S(=O)(=O)[O-])ccc4F)c4ccc([nH]4)c(-c4cc(S(=O)(=O)[O-])ccc4F)c4nc(c(-c5cc(S(=O)(=O)[O-])ccc5F)c5ccc2[nH]5)C=C4)C=C3)cc1
REMARK SMILES IDX 4 1 3 2 2 3 1 4 27 5 28 6 89 7 29 8 88 9 30 10 31 11 32 12
REMARK SMILES IDX 82 13 33 14 87 15 81 16 83 17 34 18 86 19 80 20 79 21 35 23
REMARK SMILES IDX 67 24 47 25 66 26 48 27 51 28 65 29 84 30 49 31 50 32 64 34
REMARK SMILES IDX 85 35 52 36 36 37 37 38 45 39 38 40 44 41 46 42 43 43 39 44
REMARK SMILES IDX 40 45 41 46 42 47 68 48 69 49 77 50 70 51 76 52 78 53 75 54
REMARK SMILES IDX 71 55 72 56 73 57 74 58 53 59 54 60 62 61 55 62 61 63 63 64
REMARK SMILES IDX 60 65 56 66 57 67 58 68 59 69 5 70 6 71 7 72 8 73 9 74 10 75
REMARK SMILES IDX 26 76 11 77 12 78 13 79 14 80 15 81 24 82 16 83 23 84 25 85
REMARK SMILES IDX 17 86 18 87 22 88 19 89 21 90 20 91
REMARK H PARENT 83 22 51 33
REMARK Flexibility Score: inf
ROOT
ATOM      1  C   UNL     1       4.035  -0.822  -1.497  1.00  0.00     0.275 C 
ENDROOT
BRANCH   1   2
ATOM      2  O   UNL     1       2.923  -0.938  -0.594  1.00  0.00    -0.458 OA
BRANCH   2   3
ATOM      3  C   UNL     1       2.946  -0.696   0.742  1.00  0.00     0.338 C 
ATOM      4  O   UNL     1       2.239  -1.353   1.499  1.00  0.00    -0.246 OA
BRANCH   3   5
ATOM      5  C   UNL     1       3.636   0.512   1.275  1.00  0.00     0.060 A 
ATOM      6  C   UNL     1       4.995   0.783   1.102  1.00  0.00     0.016 A 
ATOM      7  C   UNL     1       2.884   1.358   2.108  1.00  0.00     0.016 A 
ATOM      8  C   UNL     1       5.581   1.906   1.695  1.00  0.00     0.010 A 
ATOM      9  C   UNL     1       3.473   2.473   2.719  1.00  0.00     0.010 A 
ATOM     10  C   UNL     1       4.830   2.750   2.520  1.00  0.00    -0.014 A 
BRANCH  10  11
ATOM     11  C   UNL     1       5.529   3.806   3.292  1.00  0.00     0.031 A 
ATOM     12  C   UNL     1       5.958   3.504   4.699  1.00  0.00     0.074 A 
ATOM     13  C   UNL     1       5.844   4.985   2.727  1.00  0.00     0.049 A 
ATOM     14  N   UNL     1       6.722   4.202   5.497  1.00  0.00    -0.248 NA
ATOM     15  C   UNL     1       5.475   2.239   5.270  1.00  0.00     0.031 C 
ATOM     16  C   UNL     1       5.511   5.376   1.360  1.00  0.00     0.029 A 
ATOM     17  N   UNL     1       6.524   6.067   3.224  1.00  0.00    -0.354 N 
ATOM     18  C   UNL     1       6.857   3.435   6.648  1.00  0.00     0.074 A 
ATOM     19  C   UNL     1       6.029   2.260   6.472  1.00  0.00     0.031 C 
ATOM     20  C   UNL     1       5.961   6.622   1.133  1.00  0.00     0.029 A 
ATOM     21  C   UNL     1       6.638   7.107   2.332  1.00  0.00     0.049 A 
ATOM     22  H   UNL     1       6.896   6.097   4.135  1.00  0.00     0.167 HD
ATOM     23  C   UNL     1       7.627   3.671   7.739  1.00  0.00     0.034 A 
ATOM     24  C   UNL     1       7.240   8.306   2.461  1.00  0.00     0.034 A 
ATOM     25  C   UNL     1       8.399   4.873   7.928  1.00  0.00     0.049 A 
ATOM     26  C   UNL     1       8.005   8.599   3.726  1.00  0.00     0.074 A 
ATOM     27  C   UNL     1       9.191   5.237   9.002  1.00  0.00     0.029 A 
ATOM     28  N   UNL     1       8.452   5.925   7.021  1.00  0.00    -0.354 N 
ATOM     29  N   UNL     1       8.176   7.836   4.782  1.00  0.00    -0.248 NA
ATOM     30  C   UNL     1       8.687   9.897   3.801  1.00  0.00     0.031 C 
ATOM     31  C   UNL     1       9.680   6.529   8.768  1.00  0.00     0.029 A 
ATOM     32  C   UNL     1       9.239   6.950   7.523  1.00  0.00     0.049 A 
ATOM     33  H   UNL     1       7.997   5.940   6.149  1.00  0.00     0.167 HD
ATOM     34  C   UNL     1       9.024   8.544   5.627  1.00  0.00     0.074 A 
ATOM     35  C   UNL     1       9.326   9.795   4.958  1.00  0.00     0.031 C 
ATOM     36  C   UNL     1       9.523   8.189   6.839  1.00  0.00     0.034 A 
BRANCH  23  37
ATOM     37  C   UNL     1       7.616   2.607   8.806  1.00  0.00     0.023 A 
ATOM     38  C   UNL     1       8.127   1.320   8.553  1.00  0.00     0.031 A 
ATOM     39  C   UNL     1       7.005   2.843  10.047  1.00  0.00     0.131 A 
ATOM     40  C   UNL     1       7.939   0.295   9.491  1.00  0.00     0.055 A 
ATOM     41  C   UNL     1       6.885   1.836  11.008  1.00  0.00     0.041 A 
ATOM     42  F   UNL     1       6.479   4.044  10.333  1.00  0.00    -0.206 F 
ATOM     43  C   UNL     1       7.336   0.549  10.725  1.00  0.00     0.022 A 
BRANCH  40  44
ATOM     44  S   UNL     1       8.346  -1.406   9.008  1.00  0.00     0.124 S 
ATOM     45  O   UNL     1       7.510  -1.587   7.824  1.00  0.00    -0.237 OA
ATOM     46  O   UNL     1       9.783  -1.331   8.771  1.00  0.00    -0.237 OA
ATOM     47  O   UNL     1       7.946  -2.197  10.171  1.00  0.00    -0.744 OA
ENDBRANCH  40  44
ENDBRANCH  23  37
BRANCH  24  48
ATOM     48  C   UNL     1       7.161   9.312   1.365  1.00  0.00     0.023 A 
ATOM     49  C   UNL     1       8.297   9.688   0.633  1.00  0.00     0.031 A 
ATOM     50  C   UNL     1       5.940   9.942   1.062  1.00  0.00     0.131 A 
ATOM     51  C   UNL     1       8.199  10.694  -0.342  1.00  0.00     0.055 A 
ATOM     52  C   UNL     1       5.840  10.918   0.069  1.00  0.00     0.041 A 
ATOM     53  F   UNL     1       4.822   9.609   1.726  1.00  0.00    -0.206 F 
ATOM     54  C   UNL     1       6.977  11.308  -0.632  1.00  0.00     0.022 A 
BRANCH  51  55
ATOM     55  S   UNL     1       9.709  11.236  -1.190  1.00  0.00     0.124 S 
ATOM     56  O   UNL     1      10.552  11.641  -0.072  1.00  0.00    -0.237 OA
ATOM     57  O   UNL     1      10.110  10.020  -1.891  1.00  0.00    -0.237 OA
ATOM     58  O   UNL     1       9.245  12.323  -2.050  1.00  0.00    -0.744 OA
ENDBRANCH  51  55
ENDBRANCH  24  48
BRANCH  36  59
ATOM     59  C   UNL     1      10.487   9.152   7.483  1.00  0.00     0.023 A 
ATOM     60  C   UNL     1      10.065  10.396   7.980  1.00  0.00     0.031 A 
ATOM     61  C   UNL     1      11.850   8.823   7.578  1.00  0.00     0.131 A 
ATOM     62  C   UNL     1      11.009  11.293   8.502  1.00  0.00     0.055 A 
ATOM     63  C   UNL     1      12.777   9.699   8.145  1.00  0.00     0.041 A 
ATOM     64  F   UNL     1      12.303   7.646   7.117  1.00  0.00    -0.206 F 
ATOM     65  C   UNL     1      12.360  10.947   8.599  1.00  0.00     0.022 A 
BRANCH  62  66
ATOM     66  S   UNL     1      10.460  12.956   8.975  1.00  0.00     0.124 S 
ATOM     67  O   UNL     1       9.894  13.455   7.726  1.00  0.00    -0.237 OA
ATOM     68  O   UNL     1       9.504  12.676  10.041  1.00  0.00    -0.237 OA
ATOM     69  O   UNL     1      11.692  13.615   9.404  1.00  0.00    -0.744 OA
ENDBRANCH  62  66
ENDBRANCH  36  59
ENDBRANCH  10  11
ENDBRANCH   3   5
ENDBRANCH   2   3
ENDBRANCH   1   2
BRANCH   1  70
ATOM     70  C   UNL     1       3.874   0.322  -2.497  1.00  0.00     0.275 C 
BRANCH  70  71
ATOM     71  O   UNL     1       3.573   1.572  -1.860  1.00  0.00    -0.456 OA
BRANCH  71  72
ATOM     72  C   UNL     1       2.239   1.847  -1.738  1.00  0.00     0.374 C 
ATOM     73  O   UNL     1       1.337   1.163  -2.210  1.00  0.00    -0.242 OA
BRANCH  72  74
ATOM     74  C   UNL     1       2.054   3.015  -0.919  1.00  0.00     0.211 A 
ATOM     75  C   UNL     1       2.704   4.229  -0.813  1.00  0.00     0.058 A 
ATOM     76  O   UNL     1       1.057   2.967   0.008  1.00  0.00    -0.452 OA
ATOM     77  C   UNL     1       2.075   4.943   0.246  1.00  0.00     0.048 A 
ATOM     78  C   UNL     1       1.094   4.115   0.745  1.00  0.00     0.124 A 
BRANCH  78  79
ATOM     79  C   UNL     1       0.126   4.185   1.884  1.00  0.00     0.195 C 
BRANCH  79  80
ATOM     80  N   UNL     1      -1.195   3.902   1.353  1.00  0.00    -0.324 N 
ATOM     81  C   UNL     1      -2.145   4.967   1.128  1.00  0.00     0.220 C 
ATOM     82  C   UNL     1      -1.565   2.591   1.083  1.00  0.00     0.246 C 
ATOM     83  C   UNL     1      -2.927   4.855  -0.181  1.00  0.00     0.242 C 
ATOM     84  C   UNL     1      -2.179   2.490  -0.331  1.00  0.00     0.174 C 
ATOM     85  O   UNL     1      -1.133   1.630   1.711  1.00  0.00    -0.272 OA
ATOM     86  O   UNL     1      -3.501   5.839  -0.651  1.00  0.00    -0.273 OA
ATOM     87  N   UNL     1      -3.139   3.559  -0.660  1.00  0.00    -0.329 N 
ATOM     88  C   UNL     1      -2.752   1.093  -0.574  1.00  0.00     0.035 C 
ATOM     89  C   UNL     1      -3.854   3.439  -1.925  1.00  0.00     0.120 C 
ATOM     90  C   UNL     1      -3.325   0.980  -1.982  1.00  0.00     0.004 C 
ATOM     91  C   UNL     1      -4.397   2.041  -2.187  1.00  0.00     0.022 C 
ENDBRANCH  79  80
ENDBRANCH  78  79
ENDBRANCH  72  74
ENDBRANCH  71  72
ENDBRANCH  70  71
ENDBRANCH   1  70
TORSDOF 16
