REMARK SMILES O=C(OCCOC(=O)c1ccc(-c2c3nc(c(-c4cc(S(=O)(=O)[O-])ccc4F)c4ccc([nH]4)c(-c4cc(S(=O)(=O)[O-])ccc4F)c4nc(c(-c5cc(S(=O)(=O)[O-])ccc5F)c5ccc2[nH]5)C=C4)C=C3)cc1)C1=Cc2cc(Cl)cc(-c3ccc(Cl)cc3)c2O[C@@H]1C(F)(F)F
REMARK SMILES IDX 5 1 4 2 3 3 2 4 1 5 72 6 73 7 89 8 74 9 88 10 75 11 87 12
REMARK SMILES IDX 76 13 79 14 77 15 78 16 90 17 91 18 92 19 93 20 80 21 81 22
REMARK SMILES IDX 86 23 82 24 85 25 83 26 84 27 6 28 7 29 8 30 9 31 10 32
REMARK SMILES IDX 71 33 11 34 70 35 12 36 13 37 14 38 64 39 15 40 69 41 63 42
REMARK SMILES IDX 65 43 16 44 68 45 62 46 61 47 17 49 49 50 29 51 48 52 30 53
REMARK SMILES IDX 33 54 47 55 66 56 31 57 32 58 46 60 67 61 34 62 18 63 19 64
REMARK SMILES IDX 27 65 20 66 26 67 28 68 25 69 21 70 22 71 23 72 24 73 50 74
REMARK SMILES IDX 51 75 59 76 52 77 58 78 60 79 57 80 53 81 54 82 55 83 56 84
REMARK SMILES IDX 35 85 36 86 44 87 37 88 43 89 45 90 42 91 38 92 39 93 40 94
REMARK SMILES IDX 41 95
REMARK H PARENT 65 48 33 59
REMARK Flexibility Score: inf
ROOT
ATOM      1  C   UNL     1       4.725  -0.367   0.883  1.00  0.00     0.275 C 
ENDROOT
BRANCH   1   2
ATOM      2  C   UNL     1       3.901  -0.493  -1.130  1.00  0.00     0.275 C 
BRANCH   2   3
ATOM      3  O   UNL     1       3.047  -1.653  -1.701  1.00  0.00    -0.459 OA
BRANCH   3   4
ATOM      4  C   UNL     1       3.264  -2.823  -1.090  1.00  0.00     0.338 C 
ATOM      5  O   UNL     1       2.721  -3.886  -1.231  1.00  0.00    -0.246 OA
BRANCH   4   6
ATOM      6  C   UNL     1       4.093  -2.274  -0.044  1.00  0.00     0.087 C 
ATOM      7  C   UNL     1       5.457  -2.019  -0.507  1.00  0.00     0.027 C 
ATOM      8  C   UNL     1       2.834  -0.931   0.535  1.00  0.00     0.316 C 
ATOM      9  C   UNL     1       6.103  -0.364  -0.805  1.00  0.00     0.019 A 
ATOM     10  O   UNL     1       3.488   0.856   0.174  1.00  0.00    -0.475 OA
ATOM     11  C   UNL     1       7.291  -0.299  -1.482  1.00  0.00     0.032 A 
ATOM     12  C   UNL     1       5.141   1.078  -0.580  1.00  0.00     0.135 A 
ATOM     13  C   UNL     1       7.620   0.968  -1.960  1.00  0.00     0.042 A 
ATOM     14  C   UNL     1       5.542   2.281  -1.116  1.00  0.00     0.026 A 
ATOM     15  Cl  UNL     1       9.069   1.101  -2.902  1.00  0.00    -0.084 Cl
ATOM     16  C   UNL     1       6.810   2.158  -1.788  1.00  0.00     0.033 A 
BRANCH   8  17
ATOM     17  C   UNL     1       2.382  -1.725   1.835  1.00  0.00     0.430 C 
ATOM     18  F   UNL     1       1.128  -1.429   2.192  1.00  0.00    -0.167 F 
ATOM     19  F   UNL     1       2.319  -3.059   1.523  1.00  0.00    -0.167 F 
ATOM     20  F   UNL     1       3.215  -1.721   2.888  1.00  0.00    -0.167 F 
ENDBRANCH   8  17
BRANCH  14  21
ATOM     21  C   UNL     1       4.878   3.574  -1.191  1.00  0.00    -0.015 A 
ATOM     22  C   UNL     1       4.495   4.077  -2.453  1.00  0.00     0.010 A 
ATOM     23  C   UNL     1       4.841   4.439  -0.092  1.00  0.00     0.010 A 
ATOM     24  C   UNL     1       4.106   5.409  -2.615  1.00  0.00     0.021 A 
ATOM     25  C   UNL     1       4.453   5.776  -0.253  1.00  0.00     0.021 A 
ATOM     26  C   UNL     1       4.094   6.255  -1.512  1.00  0.00     0.041 A 
ATOM     27  Cl  UNL     1       3.668   7.910  -1.717  1.00  0.00    -0.084 Cl
ENDBRANCH  14  21
ENDBRANCH   4   6
ENDBRANCH   3   4
ENDBRANCH   2   3
ENDBRANCH   1   2
BRANCH   1  28
ATOM     28  O   UNL     1       3.919   0.293   2.243  1.00  0.00    -0.458 OA
BRANCH  28  29
ATOM     29  C   UNL     1       3.086   1.302   2.656  1.00  0.00     0.338 C 
ATOM     30  O   UNL     1       2.739   2.308   2.070  1.00  0.00    -0.246 OA
BRANCH  29  31
ATOM     31  C   UNL     1       2.366   0.740   3.845  1.00  0.00     0.060 A 
ATOM     32  C   UNL     1       0.984   0.494   3.752  1.00  0.00     0.016 A 
ATOM     33  C   UNL     1       3.110   0.128   4.857  1.00  0.00     0.016 A 
ATOM     34  C   UNL     1       0.397  -0.512   4.545  1.00  0.00     0.010 A 
ATOM     35  C   UNL     1       2.525  -0.875   5.638  1.00  0.00     0.010 A 
ATOM     36  C   UNL     1       1.177  -1.240   5.457  1.00  0.00    -0.014 A 
BRANCH  36  37
ATOM     37  C   UNL     1       0.529  -2.128   6.462  1.00  0.00     0.031 A 
ATOM     38  C   UNL     1       0.125  -1.435   7.732  1.00  0.00     0.074 A 
ATOM     39  C   UNL     1       0.342  -3.458   6.311  1.00  0.00     0.049 A 
ATOM     40  N   UNL     1      -0.440  -1.907   8.809  1.00  0.00    -0.248 NA
ATOM     41  C   UNL     1       0.444   0.003   7.796  1.00  0.00     0.031 C 
ATOM     42  C   UNL     1       0.708  -4.255   5.139  1.00  0.00     0.029 A 
ATOM     43  N   UNL     1      -0.210  -4.385   7.171  1.00  0.00    -0.354 N 
ATOM     44  C   UNL     1      -0.552  -0.819   9.665  1.00  0.00     0.074 A 
ATOM     45  C   UNL     1       0.097   0.302   9.030  1.00  0.00     0.031 C 
ATOM     46  C   UNL     1       0.362  -5.542   5.351  1.00  0.00     0.029 A 
ATOM     47  C   UNL     1      -0.242  -5.674   6.677  1.00  0.00     0.049 A 
ATOM     48  H   UNL     1      -0.553  -4.147   8.062  1.00  0.00     0.167 HD
ATOM     49  C   UNL     1      -1.178  -0.740  10.861  1.00  0.00     0.034 A 
ATOM     50  C   UNL     1      -0.716  -6.812   7.237  1.00  0.00     0.034 A 
ATOM     51  C   UNL     1      -1.777  -1.875  11.501  1.00  0.00     0.049 A 
ATOM     52  C   UNL     1      -1.338  -6.724   8.622  1.00  0.00     0.074 A 
ATOM     53  C   UNL     1      -2.421  -1.939  12.720  1.00  0.00     0.029 A 
ATOM     54  N   UNL     1      -1.780  -3.161  10.972  1.00  0.00    -0.354 N 
ATOM     55  N   UNL     1      -1.502  -5.672   9.396  1.00  0.00    -0.248 NA
ATOM     56  C   UNL     1      -1.857  -7.973   9.201  1.00  0.00     0.031 C 
ATOM     57  C   UNL     1      -2.750  -3.277  12.962  1.00  0.00     0.029 A 
ATOM     58  C   UNL     1      -2.395  -4.031  11.853  1.00  0.00     0.049 A 
ATOM     59  H   UNL     1      -1.401  -3.414  10.100  1.00  0.00     0.167 HD
ATOM     60  C   UNL     1      -2.196  -6.125  10.519  1.00  0.00     0.074 A 
ATOM     61  C   UNL     1      -2.421  -7.542  10.319  1.00  0.00     0.031 C 
ATOM     62  C   UNL     1      -2.619  -5.438  11.613  1.00  0.00     0.034 A 
BRANCH  49  63
ATOM     63  C   UNL     1      -1.168   0.611  11.528  1.00  0.00     0.023 A 
ATOM     64  C   UNL     1      -1.752   1.734  10.908  1.00  0.00     0.031 A 
ATOM     65  C   UNL     1      -0.444   0.814  12.713  1.00  0.00     0.131 A 
ATOM     66  C   UNL     1      -1.496   3.018  11.408  1.00  0.00     0.055 A 
ATOM     67  C   UNL     1      -0.284   2.086  13.264  1.00  0.00     0.041 A 
ATOM     68  F   UNL     1       0.165  -0.213  13.326  1.00  0.00    -0.206 F 
ATOM     69  C   UNL     1      -0.790   3.200  12.598  1.00  0.00     0.022 A 
BRANCH  66  70
ATOM     70  S   UNL     1      -1.913   4.448  10.370  1.00  0.00     0.124 S 
ATOM     71  O   UNL     1      -1.079   4.209   9.194  1.00  0.00    -0.237 OA
ATOM     72  O   UNL     1      -3.350   4.293  10.176  1.00  0.00    -0.237 OA
ATOM     73  O   UNL     1      -1.512   5.592  11.187  1.00  0.00    -0.744 OA
ENDBRANCH  66  70
ENDBRANCH  49  63
BRANCH  50  74
ATOM     74  C   UNL     1      -0.653  -8.140   6.537  1.00  0.00     0.023 A 
ATOM     75  C   UNL     1      -1.823  -8.866   6.233  1.00  0.00     0.031 A 
ATOM     76  C   UNL     1       0.579  -8.763   6.266  1.00  0.00     0.131 A 
ATOM     77  C   UNL     1      -1.738 -10.183   5.742  1.00  0.00     0.055 A 
ATOM     78  C   UNL     1       0.658 -10.053   5.725  1.00  0.00     0.041 A 
ATOM     79  F   UNL     1       1.732  -8.136   6.543  1.00  0.00    -0.206 F 
ATOM     80  C   UNL     1      -0.504 -10.776   5.475  1.00  0.00     0.022 A 
BRANCH  77  81
ATOM     81  S   UNL     1      -3.263 -11.157   5.563  1.00  0.00     0.124 S 
ATOM     82  O   UNL     1      -3.785 -11.143   6.924  1.00  0.00    -0.237 OA
ATOM     83  O   UNL     1      -4.008 -10.377   4.580  1.00  0.00    -0.237 OA
ATOM     84  O   UNL     1      -2.786 -12.456   5.091  1.00  0.00    -0.744 OA
ENDBRANCH  77  81
ENDBRANCH  50  74
BRANCH  62  85
ATOM     85  C   UNL     1      -3.440  -6.190  12.634  1.00  0.00     0.023 A 
ATOM     86  C   UNL     1      -2.908  -7.245  13.392  1.00  0.00     0.031 A 
ATOM     87  C   UNL     1      -4.780  -5.822  12.859  1.00  0.00     0.131 A 
ATOM     88  C   UNL     1      -3.729  -7.936  14.295  1.00  0.00     0.055 A 
ATOM     89  C   UNL     1      -5.569  -6.464  13.812  1.00  0.00     0.041 A 
ATOM     90  F   UNL     1      -5.341  -4.820  12.162  1.00  0.00    -0.206 F 
ATOM     91  C   UNL     1      -5.048  -7.538  14.526  1.00  0.00     0.022 A 
BRANCH  88  92
ATOM     92  S   UNL     1      -3.083  -9.437  15.082  1.00  0.00     0.124 S 
ATOM     93  O   UNL     1      -2.698 -10.243  13.929  1.00  0.00    -0.237 OA
ATOM     94  O   UNL     1      -1.985  -8.916  15.891  1.00  0.00    -0.237 OA
ATOM     95  O   UNL     1      -4.225  -9.944  15.842  1.00  0.00    -0.744 OA
ENDBRANCH  88  92
ENDBRANCH  62  85
ENDBRANCH  36  37
ENDBRANCH  29  31
ENDBRANCH  28  29
ENDBRANCH   1  28
TORSDOF 16
