REMARK SMILES C[C@@H]1[NH2+]CC[C@@H]1C(=O)N1CCC[N@H+](CC(=O)OCCOC(=O)c2ccc(-c3c4nc(c(-c5cc(S(=O)(=O)[O-])ccc5F)c5ccc([nH]5)c(-c5cc(S(=O)(=O)[O-])ccc5F)c5nc(c(-c6cc(S(=O)(=O)[O-])ccc6F)c6ccc3[nH]6)C=C5)C=C4)cc2)CC1
REMARK SMILES IDX 17 1 15 2 16 3 14 4 13 5 86 7 87 8 9 9 7 10 8 11 6 12 1 13
REMARK SMILES IDX 2 14 3 15 4 16 5 19 10 20 11 21 12 23 18 25 19 26 20 27
REMARK SMILES IDX 21 28 22 29 23 30 24 31 85 32 25 33 84 34 26 35 27 36 28 37
REMARK SMILES IDX 78 38 29 39 83 40 77 41 79 42 30 43 82 44 76 45 75 46 31 48
REMARK SMILES IDX 63 49 43 50 62 51 44 52 47 53 61 54 80 55 45 56 46 57 60 59
REMARK SMILES IDX 81 60 48 61 32 62 33 63 41 64 34 65 40 66 42 67 39 68 35 69
REMARK SMILES IDX 36 70 37 71 38 72 64 73 65 74 73 75 66 76 72 77 74 78 71 79
REMARK SMILES IDX 67 80 68 81 69 82 70 83 49 84 50 85 58 86 51 87 57 88 59 89
REMARK SMILES IDX 56 90 52 91 53 92 54 93 55 94
REMARK H PARENT 13 6 3 17 3 18 79 47 47 58
REMARK Flexibility Score: 90.00
ROOT
ATOM      1  O   UNL     1       3.734   1.833  -1.069  1.00  0.00    -0.458 OA
ENDROOT
BRANCH   1   2
ATOM      2  C   UNL     1       4.845   1.825  -1.842  1.00  0.00     0.361 C 
ATOM      3  O   UNL     1       5.884   1.243  -1.549  1.00  0.00    -0.245 OA
BRANCH   2   4
ATOM      4  C   UNL     1       4.714   2.693  -3.087  1.00  0.00     0.386 C 
BRANCH   4   5
ATOM      5  N   UNL     1       3.360   2.893  -3.590  1.00  0.00    -0.324 N 
ATOM      6  H   UNL     1       3.855   3.484  -4.257  1.00  0.00     0.348 HD
BRANCH   5   7
ATOM      7  C   UNL     1       2.542   4.001  -3.160  1.00  0.00     0.284 C 
BRANCH   7   8
ATOM      8  C   UNL     1       1.644   3.815  -1.915  1.00  0.00     0.180 C 
BRANCH   8   9
ATOM      9  N   UNL     1       0.834   2.595  -1.661  1.00  0.00    -0.336 N 
BRANCH   9  10
ATOM     10  C   UNL     1       0.465   2.404  -0.306  1.00  0.00     0.232 C 
ATOM     11  O   UNL     1       0.974   3.120   0.574  1.00  0.00    -0.274 OA
BRANCH  10  12
ATOM     12  C   UNL     1      -0.689   1.485   0.189  1.00  0.00     0.142 C 
ATOM     13  C   UNL     1       0.772  -0.044   1.907  1.00  0.00     0.076 C 
ATOM     14  C   UNL     1      -0.539   0.580   1.455  1.00  0.00     0.192 C 
ATOM     15  N   UNL     1      -1.509  -0.523   1.250  1.00  0.00    -0.343 N 
ATOM     16  C   UNL     1      -1.670  -0.665  -0.196  1.00  0.00     0.261 C 
ATOM     17  H   UNL     1      -2.403  -0.292   1.684  1.00  0.00     0.346 HD
ATOM     18  H   UNL     1      -1.179  -1.391   1.673  1.00  0.00     0.346 HD
ATOM     19  C   UNL     1      -1.719   0.769  -0.671  1.00  0.00     0.081 C 
ENDBRANCH  10  12
ENDBRANCH   9  10
BRANCH   9  20
ATOM     20  C   UNL     1       0.892   1.478  -2.604  1.00  0.00     0.125 C 
BRANCH  20  21
ATOM     21  C   UNL     1       1.242   1.692  -4.080  1.00  0.00     0.083 CG0
ATOM     22  G   UNL     1       2.735   1.861  -4.375  1.00  0.00     0.000 G0
ENDBRANCH  20  21
ENDBRANCH   9  20
ENDBRANCH   8   9
ENDBRANCH   7   8
ENDBRANCH   5   7
BRANCH   5  23
ATOM     23  C   UNL     1       2.735   1.861  -4.375  1.00  0.00     0.264 CG0
ATOM     24  G   UNL     1       1.242   1.692  -4.080  1.00  0.00     0.000 G0
ENDBRANCH   5  23
ENDBRANCH   4   5
ENDBRANCH   2   4
ENDBRANCH   1   2
BRANCH   1  25
ATOM     25  C   UNL     1       3.796   1.100   0.161  1.00  0.00     0.274 C 
BRANCH  25  26
ATOM     26  C   UNL     1       3.270  -0.317  -0.010  1.00  0.00     0.275 C 
BRANCH  26  27
ATOM     27  O   UNL     1       4.120  -1.096  -0.846  1.00  0.00    -0.458 OA
BRANCH  27  28
ATOM     28  C   UNL     1       3.652  -1.281  -2.085  1.00  0.00     0.338 C 
ATOM     29  O   UNL     1       2.610  -0.898  -2.607  1.00  0.00    -0.246 OA
BRANCH  28  30
ATOM     30  C   UNL     1       4.493  -2.187  -2.798  1.00  0.00     0.060 A 
ATOM     31  C   UNL     1       5.475  -1.674  -3.640  1.00  0.00     0.016 A 
ATOM     32  C   UNL     1       4.103  -3.527  -2.765  1.00  0.00     0.016 A 
ATOM     33  C   UNL     1       6.082  -2.551  -4.505  1.00  0.00     0.010 A 
ATOM     34  C   UNL     1       4.744  -4.409  -3.598  1.00  0.00     0.010 A 
ATOM     35  C   UNL     1       5.726  -3.912  -4.462  1.00  0.00    -0.014 A 
BRANCH  35  36
ATOM     36  C   UNL     1       6.514  -4.849  -5.250  1.00  0.00     0.031 A 
ATOM     37  C   UNL     1       5.950  -5.412  -6.502  1.00  0.00     0.074 A 
ATOM     38  C   UNL     1       7.743  -5.094  -4.771  1.00  0.00     0.049 A 
ATOM     39  N   UNL     1       6.521  -6.199  -7.367  1.00  0.00    -0.248 NA
ATOM     40  C   UNL     1       4.557  -5.059  -6.823  1.00  0.00     0.031 C 
ATOM     41  C   UNL     1       8.275  -4.533  -3.519  1.00  0.00     0.029 A 
ATOM     42  N   UNL     1       8.775  -5.816  -5.276  1.00  0.00    -0.354 N 
ATOM     43  C   UNL     1       5.559  -6.448  -8.336  1.00  0.00     0.074 A 
ATOM     44  C   UNL     1       4.357  -5.750  -7.936  1.00  0.00     0.031 C 
ATOM     45  C   UNL     1       9.564  -4.869  -3.401  1.00  0.00     0.029 A 
ATOM     46  C   UNL     1       9.919  -5.723  -4.522  1.00  0.00     0.049 A 
ATOM     47  H   UNL     1       8.710  -6.353  -6.100  1.00  0.00     0.167 HD
ATOM     48  C   UNL     1       5.703  -7.207  -9.448  1.00  0.00     0.034 A 
ATOM     49  C   UNL     1      11.120  -6.282  -4.734  1.00  0.00     0.034 A 
ATOM     50  C   UNL     1       6.940  -7.894  -9.742  1.00  0.00     0.049 A 
ATOM     51  C   UNL     1      11.250  -7.099  -5.986  1.00  0.00     0.074 A 
ATOM     52  C   UNL     1       7.244  -8.734 -10.795  1.00  0.00     0.029 A 
ATOM     53  N   UNL     1       8.090  -7.815  -8.953  1.00  0.00    -0.354 N 
ATOM     54  N   UNL     1      10.336  -7.346  -6.903  1.00  0.00    -0.248 NA
ATOM     55  C   UNL     1      12.553  -7.705  -6.240  1.00  0.00     0.031 C 
ATOM     56  C   UNL     1       8.552  -9.204 -10.611  1.00  0.00     0.029 A 
ATOM     57  C   UNL     1       9.096  -8.604  -9.483  1.00  0.00     0.049 A 
ATOM     58  H   UNL     1       8.172  -7.274  -8.134  1.00  0.00     0.167 HD
ATOM     59  C   UNL     1      10.954  -8.148  -7.848  1.00  0.00     0.074 A 
ATOM     60  C   UNL     1      12.335  -8.293  -7.408  1.00  0.00     0.031 C 
ATOM     61  C   UNL     1      10.442  -8.732  -8.964  1.00  0.00     0.034 A 
BRANCH  48  62
ATOM     62  C   UNL     1       4.488  -7.377 -10.329  1.00  0.00     0.023 A 
ATOM     63  C   UNL     1       3.872  -6.285 -10.971  1.00  0.00     0.031 A 
ATOM     64  C   UNL     1       3.883  -8.639 -10.465  1.00  0.00     0.131 A 
ATOM     65  C   UNL     1       2.655  -6.463 -11.650  1.00  0.00     0.055 A 
ATOM     66  C   UNL     1       2.713  -8.823 -11.207  1.00  0.00     0.041 A 
ATOM     67  F   UNL     1       4.399  -9.714  -9.849  1.00  0.00    -0.206 F 
ATOM     68  C   UNL     1       2.083  -7.729 -11.793  1.00  0.00     0.022 A 
BRANCH  65  69
ATOM     69  S   UNL     1       1.749  -4.995 -12.218  1.00  0.00     0.124 S 
ATOM     70  O   UNL     1       1.509  -4.291 -10.960  1.00  0.00    -0.237 OA
ATOM     71  O   UNL     1       2.700  -4.368 -13.129  1.00  0.00    -0.237 OA
ATOM     72  O   UNL     1       0.554  -5.551 -12.850  1.00  0.00    -0.744 OA
ENDBRANCH  65  69
ENDBRANCH  48  62
BRANCH  49  73
ATOM     73  C   UNL     1      12.225  -6.082  -3.758  1.00  0.00     0.023 A 
ATOM     74  C   UNL     1      13.413  -5.432  -4.122  1.00  0.00     0.031 A 
ATOM     75  C   UNL     1      12.093  -6.509  -2.422  1.00  0.00     0.131 A 
ATOM     76  C   UNL     1      14.431  -5.253  -3.172  1.00  0.00     0.055 A 
ATOM     77  C   UNL     1      13.084  -6.278  -1.468  1.00  0.00     0.041 A 
ATOM     78  F   UNL     1      10.972  -7.125  -2.012  1.00  0.00    -0.206 F 
ATOM     79  C   UNL     1      14.268  -5.656  -1.845  1.00  0.00     0.022 A 
BRANCH  76  80
ATOM     80  S   UNL     1      16.011  -4.546  -3.714  1.00  0.00     0.124 S 
ATOM     81  O   UNL     1      16.366  -5.421  -4.825  1.00  0.00    -0.237 OA
ATOM     82  O   UNL     1      15.627  -3.183  -4.067  1.00  0.00    -0.237 OA
ATOM     83  O   UNL     1      16.860  -4.666  -2.530  1.00  0.00    -0.744 OA
ENDBRANCH  76  80
ENDBRANCH  49  73
BRANCH  61  84
ATOM     84  C   UNL     1      11.414  -9.573  -9.744  1.00  0.00     0.023 A 
ATOM     85  C   UNL     1      11.945 -10.754  -9.199  1.00  0.00     0.031 A 
ATOM     86  C   UNL     1      11.863  -9.153 -11.006  1.00  0.00     0.131 A 
ATOM     87  C   UNL     1      12.970 -11.425  -9.873  1.00  0.00     0.055 A 
ATOM     88  C   UNL     1      12.829  -9.870 -11.708  1.00  0.00     0.041 A 
ATOM     89  F   UNL     1      11.384  -8.029 -11.564  1.00  0.00    -0.206 F 
ATOM     90  C   UNL     1      13.403 -11.002 -11.133  1.00  0.00     0.022 A 
BRANCH  87  91
ATOM     91  S   UNL     1      13.828 -12.768  -9.012  1.00  0.00     0.124 S 
ATOM     92  O   UNL     1      14.308 -12.096  -7.808  1.00  0.00    -0.237 OA
ATOM     93  O   UNL     1      12.761 -13.744  -8.815  1.00  0.00    -0.237 OA
ATOM     94  O   UNL     1      14.870 -13.169  -9.956  1.00  0.00    -0.744 OA
ENDBRANCH  87  91
ENDBRANCH  61  84
ENDBRANCH  35  36
ENDBRANCH  28  30
ENDBRANCH  27  28
ENDBRANCH  26  27
ENDBRANCH  25  26
ENDBRANCH   1  25
TORSDOF 17
