REMARK SMILES COc1c(N)cc(-c2ccccc2)cc1C(=O)OCCOC(=O)c1ccc(-c2c3nc(c(-c4cc(S(=O)(=O)[O-])ccc4F)c4ccc([nH]4)c(-c4cc(S(=O)(=O)[O-])ccc4F)c4nc(c(-c5cc(S(=O)(=O)[O-])ccc5F)c5ccc2[nH]5)C=C4)C=C3)cc1
REMARK SMILES IDX 20 1 19 2 18 3 16 4 17 5 15 6 3 7 4 8 6 9 14 10 7 11 2 12
REMARK SMILES IDX 1 13 5 14 8 17 9 18 13 19 10 20 12 21 11 22 21 23 22 24
REMARK SMILES IDX 23 25 24 26 25 27 86 28 26 29 85 30 27 31 28 32 29 33 79 34
REMARK SMILES IDX 30 35 84 36 78 37 80 38 31 39 83 40 77 41 76 42 32 44 64 45
REMARK SMILES IDX 44 46 63 47 45 48 48 49 62 50 81 51 46 52 47 53 61 55 82 56
REMARK SMILES IDX 49 57 33 58 34 59 42 60 35 61 41 62 43 63 40 64 36 65 37 66
REMARK SMILES IDX 38 67 39 68 65 69 66 70 74 71 67 72 73 73 75 74 72 75 68 76
REMARK SMILES IDX 69 77 70 78 71 79 50 80 51 81 59 82 52 83 58 84 60 85 57 86
REMARK SMILES IDX 53 87 54 88 55 89 56 90
REMARK H PARENT 5 15 5 16 80 43 48 54
REMARK Flexibility Score: inf
ROOT
ATOM      1  C   UNL     1      -3.778   2.130   0.806  1.00  0.00     0.275 C 
ENDROOT
BRANCH   1   2
ATOM      2  C   UNL     1      -2.702   2.261  -0.269  1.00  0.00     0.275 C 
BRANCH   2   3
ATOM      3  O   UNL     1      -1.388   2.117   0.308  1.00  0.00    -0.458 OA
BRANCH   3   4
ATOM      4  C   UNL     1      -0.636   3.248   0.367  1.00  0.00     0.342 C 
ATOM      5  O   UNL     1      -0.982   4.364   0.031  1.00  0.00    -0.246 OA
BRANCH   4   6
ATOM      6  C   UNL     1       0.658   2.982   1.032  1.00  0.00     0.104 A 
ATOM      7  C   UNL     1       1.513   1.947   0.646  1.00  0.00     0.156 A 
ATOM      8  C   UNL     1       2.779   1.820   1.252  1.00  0.00     0.076 A 
ATOM      9  C   UNL     1       3.092   2.630   2.354  1.00  0.00     0.038 A 
ATOM     10  C   UNL     1       1.047   3.853   2.059  1.00  0.00     0.028 A 
ATOM     11  C   UNL     1       2.238   3.660   2.769  1.00  0.00    -0.015 A 
BRANCH   7  12
ATOM     12  O   UNL     1       1.175   1.133  -0.410  1.00  0.00    -0.494 OA
ATOM     13  C   UNL     1       0.786  -0.160   0.061  1.00  0.00     0.278 C 
ENDBRANCH   7  12
BRANCH   8  14
ATOM     14  N   UNL     1       3.679   0.830   0.852  1.00  0.00    -0.396 N 
ATOM     15  H   UNL     1       3.468   0.257   0.080  1.00  0.00     0.156 HD
ATOM     16  H   UNL     1       4.524   0.706   1.342  1.00  0.00     0.156 HD
ENDBRANCH   8  14
BRANCH  11  17
ATOM     17  C   UNL     1       2.577   4.539   3.896  1.00  0.00    -0.018 A 
ATOM     18  C   UNL     1       3.632   5.459   3.798  1.00  0.00     0.009 A 
ATOM     19  C   UNL     1       1.832   4.504   5.088  1.00  0.00     0.009 A 
ATOM     20  C   UNL     1       3.928   6.324   4.855  1.00  0.00     0.001 A 
ATOM     21  C   UNL     1       2.130   5.367   6.146  1.00  0.00     0.001 A 
ATOM     22  C   UNL     1       3.176   6.278   6.027  1.00  0.00     0.000 A 
ENDBRANCH  11  17
ENDBRANCH   4   6
ENDBRANCH   3   4
ENDBRANCH   2   3
ENDBRANCH   1   2
BRANCH   1  23
ATOM     23  O   UNL     1      -3.662   3.233   1.719  1.00  0.00    -0.458 OA
BRANCH  23  24
ATOM     24  C   UNL     1      -3.628   2.910   3.032  1.00  0.00     0.338 C 
ATOM     25  O   UNL     1      -3.803   1.807   3.525  1.00  0.00    -0.246 OA
BRANCH  24  26
ATOM     26  C   UNL     1      -3.305   4.110   3.825  1.00  0.00     0.060 A 
ATOM     27  C   UNL     1      -2.171   4.852   3.507  1.00  0.00     0.016 A 
ATOM     28  C   UNL     1      -4.035   4.415   4.971  1.00  0.00     0.016 A 
ATOM     29  C   UNL     1      -1.680   5.801   4.402  1.00  0.00     0.010 A 
ATOM     30  C   UNL     1      -3.607   5.456   5.806  1.00  0.00     0.010 A 
ATOM     31  C   UNL     1      -2.385   6.116   5.574  1.00  0.00    -0.014 A 
BRANCH  31  32
ATOM     32  C   UNL     1      -1.800   7.048   6.591  1.00  0.00     0.031 A 
ATOM     33  C   UNL     1      -1.626   6.593   8.023  1.00  0.00     0.074 A 
ATOM     34  C   UNL     1      -1.387   8.286   6.252  1.00  0.00     0.049 A 
ATOM     35  N   UNL     1      -1.300   7.285   9.087  1.00  0.00    -0.248 NA
ATOM     36  C   UNL     1      -1.888   5.173   8.295  1.00  0.00     0.031 C 
ATOM     37  C   UNL     1      -1.459   8.867   4.910  1.00  0.00     0.029 A 
ATOM     38  N   UNL     1      -0.812   9.280   7.009  1.00  0.00    -0.354 N 
ATOM     39  C   UNL     1      -1.394   6.403  10.163  1.00  0.00     0.074 A 
ATOM     40  C   UNL     1      -1.832   5.135   9.617  1.00  0.00     0.031 C 
ATOM     41  C   UNL     1      -0.902  10.087   4.927  1.00  0.00     0.029 A 
ATOM     42  C   UNL     1      -0.517  10.418   6.295  1.00  0.00     0.049 A 
ATOM     43  H   UNL     1      -0.629   9.185   7.971  1.00  0.00     0.167 HD
ATOM     44  C   UNL     1      -1.135   6.625  11.478  1.00  0.00     0.034 A 
ATOM     45  C   UNL     1      -0.027  11.610   6.690  1.00  0.00     0.034 A 
ATOM     46  C   UNL     1      -0.639   7.878  12.003  1.00  0.00     0.049 A 
ATOM     47  C   UNL     1       0.282  11.831   8.146  1.00  0.00     0.074 A 
ATOM     48  C   UNL     1      -0.336   8.207  13.314  1.00  0.00     0.029 A 
ATOM     49  N   UNL     1      -0.353   9.004  11.240  1.00  0.00    -0.354 N 
ATOM     50  N   UNL     1       0.116  11.014   9.160  1.00  0.00    -0.248 NA
ATOM     51  C   UNL     1       0.842  13.139   8.509  1.00  0.00     0.031 C 
ATOM     52  C   UNL     1       0.086   9.543  13.350  1.00  0.00     0.029 A 
ATOM     53  C   UNL     1       0.116  10.028  12.053  1.00  0.00     0.049 A 
ATOM     54  H   UNL     1      -0.467   9.067  10.264  1.00  0.00     0.167 HD
ATOM     55  C   UNL     1       0.553  11.711  10.283  1.00  0.00     0.074 A 
ATOM     56  C   UNL     1       1.023  12.999   9.814  1.00  0.00     0.031 C 
ATOM     57  C   UNL     1       0.558  11.322  11.584  1.00  0.00     0.034 A 
BRANCH  44  58
ATOM     58  C   UNL     1      -1.445   5.498  12.442  1.00  0.00     0.023 A 
ATOM     59  C   UNL     1      -0.803   4.250  12.365  1.00  0.00     0.031 A 
ATOM     60  C   UNL     1      -2.454   5.654  13.411  1.00  0.00     0.131 A 
ATOM     61  C   UNL     1      -1.247   3.182  13.161  1.00  0.00     0.055 A 
ATOM     62  C   UNL     1      -2.824   4.614  14.268  1.00  0.00     0.041 A 
ATOM     63  F   UNL     1      -3.119   6.814  13.526  1.00  0.00    -0.206 F 
ATOM     64  C   UNL     1      -2.236   3.362  14.130  1.00  0.00     0.022 A 
BRANCH  61  65
ATOM     65  S   UNL     1      -0.652   1.511  12.773  1.00  0.00     0.124 S 
ATOM     66  O   UNL     1      -1.021   1.386  11.365  1.00  0.00    -0.237 OA
ATOM     67  O   UNL     1       0.775   1.613  13.053  1.00  0.00    -0.237 OA
ATOM     68  O   UNL     1      -1.409   0.657  13.686  1.00  0.00    -0.744 OA
ENDBRANCH  61  65
ENDBRANCH  44  58
BRANCH  45  69
ATOM     69  C   UNL     1       0.144  12.708   5.697  1.00  0.00     0.023 A 
ATOM     70  C   UNL     1       1.416  13.191   5.351  1.00  0.00     0.031 A 
ATOM     71  C   UNL     1      -0.976  13.295   5.080  1.00  0.00     0.131 A 
ATOM     72  C   UNL     1       1.536  14.245   4.432  1.00  0.00     0.055 A 
ATOM     73  C   UNL     1      -0.849  14.307   4.129  1.00  0.00     0.041 A 
ATOM     74  F   UNL     1      -2.214  12.867   5.375  1.00  0.00    -0.206 F 
ATOM     75  C   UNL     1       0.413  14.794   3.806  1.00  0.00     0.022 A 
BRANCH  72  76
ATOM     76  S   UNL     1       3.183  14.927   4.096  1.00  0.00     0.124 S 
ATOM     77  O   UNL     1       3.568  15.437   5.407  1.00  0.00    -0.237 OA
ATOM     78  O   UNL     1       3.910  13.753   3.625  1.00  0.00    -0.237 OA
ATOM     79  O   UNL     1       2.928  15.946   3.079  1.00  0.00    -0.744 OA
ENDBRANCH  72  76
ENDBRANCH  45  69
BRANCH  57  80
ATOM     80  C   UNL     1       1.125  12.303  12.583  1.00  0.00     0.023 A 
ATOM     81  C   UNL     1       0.498  13.534  12.848  1.00  0.00     0.031 A 
ATOM     82  C   UNL     1       2.335  12.023  13.242  1.00  0.00     0.131 A 
ATOM     83  C   UNL     1       1.120  14.469  13.690  1.00  0.00     0.055 A 
ATOM     84  C   UNL     1       2.918  12.933  14.126  1.00  0.00     0.041 A 
ATOM     85  F   UNL     1       2.980  10.865  13.026  1.00  0.00    -0.206 F 
ATOM     86  C   UNL     1       2.320  14.171  14.340  1.00  0.00     0.022 A 
BRANCH  83  87
ATOM     87  S   UNL     1       0.404  16.132  13.825  1.00  0.00     0.124 S 
ATOM     88  O   UNL     1       0.327  16.546  12.428  1.00  0.00    -0.237 OA
ATOM     89  O   UNL     1      -0.871  15.868  14.484  1.00  0.00    -0.237 OA
ATOM     90  O   UNL     1       1.381  16.860  14.633  1.00  0.00    -0.744 OA
ENDBRANCH  83  87
ENDBRANCH  57  80
ENDBRANCH  31  32
ENDBRANCH  24  26
ENDBRANCH  23  24
ENDBRANCH   1  23
TORSDOF 17
