REMARK SMILES CC(=O)c1nnn(-c2ccc(C(=O)OCCOC(=O)c3ccc(-c4c5nc(c(-c6cc(S(=O)(=O)[O-])ccc6F)c6ccc([nH]6)c(-c6cc(S(=O)(=O)[O-])ccc6F)c6nc(c(-c7cc(S(=O)(=O)[O-])ccc7F)c7ccc4[nH]7)C=C6)C=C5)cc3)cc2)c1C
REMARK SMILES IDX 16 1 15 2 14 3 12 4 13 5 11 6 8 7 9 8 84 9 10 10 83 11 7 12
REMARK SMILES IDX 4 13 5 14 85 15 6 16 86 17 2 18 1 19 3 20 17 21 18 22 19 23
REMARK SMILES IDX 20 24 21 25 82 26 22 27 81 28 23 29 24 30 25 31 75 32 26 33
REMARK SMILES IDX 80 34 74 35 76 36 27 37 79 38 73 39 72 40 28 42 60 43 40 44
REMARK SMILES IDX 59 45 41 46 44 47 58 48 77 49 42 50 43 51 57 53 78 54 45 55
REMARK SMILES IDX 29 56 30 57 38 58 31 59 37 60 39 61 36 62 32 63 33 64 34 65
REMARK SMILES IDX 35 66 61 67 62 68 70 69 63 70 69 71 71 72 68 73 64 74 65 75
REMARK SMILES IDX 66 76 67 77 46 78 47 79 55 80 48 81 54 82 56 83 53 84 49 85
REMARK SMILES IDX 50 86 51 87 52 88
REMARK H PARENT 76 41 44 52
REMARK Flexibility Score: inf
ROOT
ATOM      1  C   UNL     1       9.107   8.856   0.860  1.00  0.00     0.275 C 
ENDROOT
BRANCH   1   2
ATOM      2  C   UNL     1       9.278   7.346   0.957  1.00  0.00     0.275 C 
BRANCH   2   3
ATOM      3  O   UNL     1       8.053   6.662   0.643  1.00  0.00    -0.458 OA
BRANCH   3   4
ATOM      4  C   UNL     1       7.196   6.454   1.675  1.00  0.00     0.338 C 
ATOM      5  O   UNL     1       7.448   6.588   2.865  1.00  0.00    -0.246 OA
BRANCH   4   6
ATOM      6  C   UNL     1       5.849   6.086   1.166  1.00  0.00     0.060 A 
ATOM      7  C   UNL     1       3.379   5.097   0.370  1.00  0.00     0.067 A 
ATOM      8  C   UNL     1       3.485   5.717   1.616  1.00  0.00     0.029 A 
ATOM      9  C   UNL     1       4.445   5.122  -0.537  1.00  0.00     0.029 A 
ATOM     10  C   UNL     1       4.737   6.190   2.021  1.00  0.00     0.018 A 
ATOM     11  C   UNL     1       5.679   5.621  -0.141  1.00  0.00     0.018 A 
BRANCH   7  12
ATOM     12  N   UNL     1       2.266   4.282   0.085  1.00  0.00    -0.217 N 
ATOM     13  C   UNL     1       0.969   2.610  -0.447  1.00  0.00     0.151 A 
ATOM     14  N   UNL     1       0.196   3.682  -0.080  1.00  0.00    -0.126 NA
ATOM     15  C   UNL     1       2.304   2.945  -0.298  1.00  0.00     0.073 A 
ATOM     16  N   UNL     1       0.998   4.645   0.356  1.00  0.00    -0.061 NA
ATOM     17  C   UNL     1       3.557   2.151  -0.379  1.00  0.00     0.069 C 
BRANCH  13  18
ATOM     18  C   UNL     1       0.382   1.336  -0.833  1.00  0.00     0.181 C 
ATOM     19  C   UNL     1       0.762   0.113  -0.033  1.00  0.00     0.095 C 
ATOM     20  O   UNL     1      -0.415   1.243  -1.766  1.00  0.00    -0.293 OA
ENDBRANCH  13  18
ENDBRANCH   7  12
ENDBRANCH   4   6
ENDBRANCH   3   4
ENDBRANCH   2   3
ENDBRANCH   1   2
BRANCH   1  21
ATOM     21  O   UNL     1       8.266   9.329   1.907  1.00  0.00    -0.458 OA
BRANCH  21  22
ATOM     22  C   UNL     1       6.954   9.410   1.589  1.00  0.00     0.338 C 
ATOM     23  O   UNL     1       6.408   8.961   0.595  1.00  0.00    -0.246 OA
BRANCH  22  24
ATOM     24  C   UNL     1       6.284  10.293   2.543  1.00  0.00     0.060 A 
ATOM     25  C   UNL     1       4.899  10.441   2.405  1.00  0.00     0.016 A 
ATOM     26  C   UNL     1       7.071  11.201   3.262  1.00  0.00     0.016 A 
ATOM     27  C   UNL     1       4.334  11.636   2.789  1.00  0.00     0.010 A 
ATOM     28  C   UNL     1       6.514  12.400   3.610  1.00  0.00     0.010 A 
ATOM     29  C   UNL     1       5.179  12.631   3.283  1.00  0.00    -0.014 A 
BRANCH  29  30
ATOM     30  C   UNL     1       4.647  13.958   3.495  1.00  0.00     0.031 A 
ATOM     31  C   UNL     1       3.899  14.080   4.764  1.00  0.00     0.074 A 
ATOM     32  C   UNL     1       5.014  14.977   2.694  1.00  0.00     0.049 A 
ATOM     33  N   UNL     1       2.648  14.343   4.933  1.00  0.00    -0.248 NA
ATOM     34  C   UNL     1       4.592  13.658   5.996  1.00  0.00     0.031 C 
ATOM     35  C   UNL     1       6.008  14.957   1.616  1.00  0.00     0.029 A 
ATOM     36  N   UNL     1       4.688  16.291   2.778  1.00  0.00    -0.354 N 
ATOM     37  C   UNL     1       2.462  14.359   6.311  1.00  0.00     0.074 A 
ATOM     38  C   UNL     1       3.593  13.681   6.875  1.00  0.00     0.031 C 
ATOM     39  C   UNL     1       6.388  16.226   1.341  1.00  0.00     0.029 A 
ATOM     40  C   UNL     1       5.586  17.140   2.140  1.00  0.00     0.049 A 
ATOM     41  H   UNL     1       3.887  16.615   3.250  1.00  0.00     0.167 HD
ATOM     42  C   UNL     1       1.553  15.188   6.890  1.00  0.00     0.034 A 
ATOM     43  C   UNL     1       5.731  18.476   2.357  1.00  0.00     0.034 A 
ATOM     44  C   UNL     1       0.594  15.661   5.918  1.00  0.00     0.049 A 
ATOM     45  C   UNL     1       4.488  18.937   3.036  1.00  0.00     0.074 A 
ATOM     46  C   UNL     1      -0.295  15.037   5.063  1.00  0.00     0.029 A 
ATOM     47  N   UNL     1       0.739  16.942   5.430  1.00  0.00    -0.354 N 
ATOM     48  N   UNL     1       3.311  18.918   2.471  1.00  0.00    -0.248 NA
ATOM     49  C   UNL     1       4.464  18.932   4.494  1.00  0.00     0.031 C 
ATOM     50  C   UNL     1      -0.237  15.793   3.856  1.00  0.00     0.029 A 
ATOM     51  C   UNL     1       0.617  16.879   4.063  1.00  0.00     0.049 A 
ATOM     52  H   UNL     1       0.900  17.753   5.964  1.00  0.00     0.167 HD
ATOM     53  C   UNL     1       2.441  18.465   3.454  1.00  0.00     0.074 A 
ATOM     54  C   UNL     1       3.190  18.585   4.704  1.00  0.00     0.031 C 
ATOM     55  C   UNL     1       1.315  17.755   3.137  1.00  0.00     0.034 A 
BRANCH  42  56
ATOM     56  C   UNL     1       1.758  15.866   8.228  1.00  0.00     0.023 A 
ATOM     57  C   UNL     1       0.717  16.697   8.678  1.00  0.00     0.031 A 
ATOM     58  C   UNL     1       2.980  15.980   8.935  1.00  0.00     0.131 A 
ATOM     59  C   UNL     1       0.940  17.654   9.682  1.00  0.00     0.055 A 
ATOM     60  C   UNL     1       3.173  16.882   9.984  1.00  0.00     0.041 A 
ATOM     61  F   UNL     1       4.086  15.306   8.605  1.00  0.00    -0.206 F 
ATOM     62  C   UNL     1       2.162  17.753  10.339  1.00  0.00     0.022 A 
BRANCH  59  63
ATOM     63  S   UNL     1      -0.342  18.897   9.970  1.00  0.00     0.124 S 
ATOM     64  O   UNL     1      -0.575  19.398   8.620  1.00  0.00    -0.237 OA
ATOM     65  O   UNL     1      -1.409  18.093  10.555  1.00  0.00    -0.237 OA
ATOM     66  O   UNL     1       0.303  19.839  10.883  1.00  0.00    -0.744 OA
ENDBRANCH  59  63
ENDBRANCH  42  56
BRANCH  43  67
ATOM     67  C   UNL     1       7.020  19.229   2.368  1.00  0.00     0.023 A 
ATOM     68  C   UNL     1       7.103  20.625   2.187  1.00  0.00     0.031 A 
ATOM     69  C   UNL     1       8.209  18.576   2.774  1.00  0.00     0.131 A 
ATOM     70  C   UNL     1       8.333  21.300   2.392  1.00  0.00     0.055 A 
ATOM     71  C   UNL     1       9.421  19.243   2.962  1.00  0.00     0.041 A 
ATOM     72  F   UNL     1       8.216  17.269   3.083  1.00  0.00    -0.206 F 
ATOM     73  C   UNL     1       9.487  20.613   2.778  1.00  0.00     0.022 A 
BRANCH  70  74
ATOM     74  S   UNL     1       8.435  23.114   2.238  1.00  0.00     0.124 S 
ATOM     75  O   UNL     1       8.199  23.319   0.814  1.00  0.00    -0.237 OA
ATOM     76  O   UNL     1       7.384  23.564   3.143  1.00  0.00    -0.237 OA
ATOM     77  O   UNL     1       9.796  23.419   2.683  1.00  0.00    -0.744 OA
ENDBRANCH  70  74
ENDBRANCH  43  67
BRANCH  55  78
ATOM     78  C   UNL     1       0.887  17.687   1.683  1.00  0.00     0.023 A 
ATOM     79  C   UNL     1       1.680  17.171   0.631  1.00  0.00     0.031 A 
ATOM     80  C   UNL     1      -0.442  18.036   1.384  1.00  0.00     0.131 A 
ATOM     81  C   UNL     1       1.134  17.029  -0.661  1.00  0.00     0.055 A 
ATOM     82  C   UNL     1      -0.984  17.875   0.109  1.00  0.00     0.041 A 
ATOM     83  F   UNL     1      -1.255  18.503   2.345  1.00  0.00    -0.206 F 
ATOM     84  C   UNL     1      -0.196  17.375  -0.920  1.00  0.00     0.022 A 
BRANCH  81  85
ATOM     85  S   UNL     1       2.151  16.403  -2.039  1.00  0.00     0.124 S 
ATOM     86  O   UNL     1       3.387  17.168  -1.928  1.00  0.00    -0.237 OA
ATOM     87  O   UNL     1       2.249  14.978  -1.738  1.00  0.00    -0.237 OA
ATOM     88  O   UNL     1       1.347  16.718  -3.223  1.00  0.00    -0.744 OA
ENDBRANCH  81  85
ENDBRANCH  55  78
ENDBRANCH  29  30
ENDBRANCH  22  24
ENDBRANCH  21  22
ENDBRANCH   1  21
TORSDOF 16
