REMARK SMILES Cc1ccc(NC(=O)C[C@@H](C(=O)OCCOC(=O)c2ccc(-c3c4nc(c(-c5cc(S(=O)(=O)[O-])ccc5F)c5ccc([nH]5)c(-c5cc(S(=O)(=O)[O-])ccc5F)c5nc(c(-c6cc(S(=O)(=O)[O-])ccc6F)c6ccc3[nH]6)C=C5)C=C4)cc2)[NH+]2CCOCC2)cc1
REMARK SMILES IDX 14 1 13 2 11 3 12 4 10 5 9 6 7 7 6 8 8 10 5 11 1 12 2 13
REMARK SMILES IDX 3 14 89 15 4 16 88 17 82 18 83 19 87 20 84 22 86 23 85 24
REMARK SMILES IDX 15 25 16 26 17 27 18 28 19 29 20 30 81 31 21 32 80 33 22 34
REMARK SMILES IDX 23 35 24 36 74 37 25 38 79 39 73 40 75 41 26 42 78 43 72 44
REMARK SMILES IDX 71 45 27 47 59 48 39 49 58 50 40 51 43 52 57 53 76 54 41 55
REMARK SMILES IDX 42 56 56 58 77 59 44 60 28 61 29 62 37 63 30 64 36 65 38 66
REMARK SMILES IDX 35 67 31 68 32 69 33 70 34 71 60 72 61 73 69 74 62 75 68 76
REMARK SMILES IDX 70 77 67 78 63 79 64 80 65 81 66 82 45 83 46 84 54 85 47 86
REMARK SMILES IDX 53 87 55 88 52 89 48 90 49 91 50 92 51 93
REMARK H PARENT 6 9 82 21 75 46 43 57
REMARK Flexibility Score: inf
ROOT
ATOM      1  C   UNL     1      -2.174   0.905  -0.040  1.00  0.00     0.274 C 
ENDROOT
BRANCH   1   2
ATOM      2  O   UNL     1      -3.200  -0.263  -0.878  1.00  0.00    -0.458 OA
BRANCH   2   3
ATOM      3  C   UNL     1      -2.966  -1.579  -1.268  1.00  0.00     0.365 C 
ATOM      4  O   UNL     1      -1.867  -2.087  -1.312  1.00  0.00    -0.245 OA
BRANCH   3   5
ATOM      5  C   UNL     1      -4.159  -2.521  -1.266  1.00  0.00     0.304 C 
BRANCH   5   6
ATOM      6  C   UNL     1      -4.584  -2.564   0.215  1.00  0.00     0.177 C 
BRANCH   6   7
ATOM      7  C   UNL     1      -5.176  -1.279   0.741  1.00  0.00     0.231 C 
ATOM      8  N   UNL     1      -4.496  -0.370   1.502  1.00  0.00    -0.326 N 
ATOM      9  H   UNL     1      -5.072   0.131   2.124  1.00  0.00     0.169 HD
ATOM     10  O   UNL     1      -6.363  -1.021   0.502  1.00  0.00    -0.274 OA
BRANCH   8  11
ATOM     11  C   UNL     1      -3.132  -0.003   1.576  1.00  0.00     0.041 A 
ATOM     12  C   UNL     1       1.039   2.610   0.131  1.00  0.00     0.044 C 
ATOM     13  C   UNL     1      -0.300   1.936   0.349  1.00  0.00    -0.051 A 
ATOM     14  C   UNL     1      -0.370   0.176   0.110  1.00  0.00     0.005 A 
ATOM     15  C   UNL     1      -1.575   2.663   1.220  1.00  0.00     0.005 A 
ATOM     16  C   UNL     1      -1.789  -0.872   0.771  1.00  0.00     0.026 A 
ATOM     17  C   UNL     1      -2.937   1.742   1.835  1.00  0.00     0.026 A 
ENDBRANCH   8  11
ENDBRANCH   6   7
ENDBRANCH   5   6
BRANCH   5  18
ATOM     18  N   UNL     1      -3.889  -3.967  -1.804  1.00  0.00    -0.319 N 
ATOM     19  C   UNL     1      -3.052  -4.038  -3.038  1.00  0.00     0.291 C 
ATOM     20  C   UNL     1      -3.288  -4.938  -0.845  1.00  0.00     0.291 C 
ATOM     21  H   UNL     1      -4.852  -4.241  -2.000  1.00  0.00     0.348 HD
ATOM     22  C   UNL     1      -2.868  -5.469  -3.604  1.00  0.00     0.221 C 
ATOM     23  C   UNL     1      -3.118  -6.358  -1.450  1.00  0.00     0.221 C 
ATOM     24  O   UNL     1      -2.306  -6.351  -2.623  1.00  0.00    -0.370 OA
ENDBRANCH   5  18
ENDBRANCH   3   5
ENDBRANCH   2   3
ENDBRANCH   1   2
BRANCH   1  25
ATOM     25  C   UNL     1      -1.075   0.559   1.848  1.00  0.00     0.275 C 
BRANCH  25  26
ATOM     26  O   UNL     1       0.071  -0.918   1.987  1.00  0.00    -0.458 OA
BRANCH  26  27
ATOM     27  C   UNL     1       0.696  -2.049   1.149  1.00  0.00     0.338 C 
ATOM     28  O   UNL     1       0.843  -3.132   1.723  1.00  0.00    -0.246 OA
BRANCH  27  29
ATOM     29  C   UNL     1       1.021  -2.028  -0.476  1.00  0.00     0.060 A 
ATOM     30  C   UNL     1       0.456  -2.843  -1.477  1.00  0.00     0.016 A 
ATOM     31  C   UNL     1       1.670  -0.945  -1.026  1.00  0.00     0.016 A 
ATOM     32  C   UNL     1       0.122  -2.289  -2.795  1.00  0.00     0.010 A 
ATOM     33  C   UNL     1       1.011  -0.297  -2.072  1.00  0.00     0.010 A 
ATOM     34  C   UNL     1       0.184  -0.915  -3.000  1.00  0.00    -0.014 A 
BRANCH  34  35
ATOM     35  C   UNL     1      -0.215  -0.048  -4.166  1.00  0.00     0.031 A 
ATOM     36  C   UNL     1      -1.560   0.043  -4.852  1.00  0.00     0.074 A 
ATOM     37  C   UNL     1       0.870   0.614  -4.664  1.00  0.00     0.049 A 
ATOM     38  N   UNL     1      -1.743  -0.158  -6.120  1.00  0.00    -0.248 NA
ATOM     39  C   UNL     1      -2.820   0.482  -4.218  1.00  0.00     0.031 C 
ATOM     40  C   UNL     1       1.123   1.302  -5.914  1.00  0.00     0.029 A 
ATOM     41  N   UNL     1       2.179   0.472  -4.151  1.00  0.00    -0.354 N 
ATOM     42  C   UNL     1      -2.973   0.387  -6.495  1.00  0.00     0.074 A 
ATOM     43  C   UNL     1      -3.668   0.627  -5.258  1.00  0.00     0.031 C 
ATOM     44  C   UNL     1       2.416   1.037  -6.242  1.00  0.00     0.029 A 
ATOM     45  C   UNL     1       2.991   0.160  -5.208  1.00  0.00     0.049 A 
ATOM     46  H   UNL     1       2.455   0.578  -3.212  1.00  0.00     0.167 HD
ATOM     47  C   UNL     1      -3.186   0.787  -7.790  1.00  0.00     0.034 A 
ATOM     48  C   UNL     1       3.405  -1.140  -5.291  1.00  0.00     0.034 A 
ATOM     49  C   UNL     1      -1.950   0.633  -8.535  1.00  0.00     0.049 A 
ATOM     50  C   UNL     1       2.876  -1.743  -6.559  1.00  0.00     0.074 A 
ATOM     51  C   UNL     1      -0.949   1.545  -8.819  1.00  0.00     0.029 A 
ATOM     52  N   UNL     1      -1.432  -0.629  -8.754  1.00  0.00    -0.354 N 
ATOM     53  N   UNL     1       1.751  -1.405  -7.128  1.00  0.00    -0.248 NA
ATOM     54  C   UNL     1       3.642  -2.714  -7.318  1.00  0.00     0.031 C 
ATOM     55  C   UNL     1       0.223   0.809  -9.106  1.00  0.00     0.029 A 
ATOM     56  C   UNL     1      -0.083  -0.538  -9.020  1.00  0.00     0.049 A 
ATOM     57  H   UNL     1      -1.948  -1.467  -8.724  1.00  0.00     0.167 HD
ATOM     58  C   UNL     1       1.688  -1.999  -8.363  1.00  0.00     0.074 A 
ATOM     59  C   UNL     1       2.892  -2.815  -8.424  1.00  0.00     0.031 C 
ATOM     60  C   UNL     1       0.691  -1.735  -9.262  1.00  0.00     0.034 A 
BRANCH  47  61
ATOM     61  C   UNL     1      -4.329   1.607  -8.380  1.00  0.00     0.023 A 
ATOM     62  C   UNL     1      -4.041   2.541  -9.411  1.00  0.00     0.031 A 
ATOM     63  C   UNL     1      -5.689   1.490  -8.051  1.00  0.00     0.131 A 
ATOM     64  C   UNL     1      -5.028   3.340 -10.018  1.00  0.00     0.055 A 
ATOM     65  C   UNL     1      -6.687   2.281  -8.668  1.00  0.00     0.041 A 
ATOM     66  F   UNL     1      -6.103   0.591  -7.145  1.00  0.00    -0.206 F 
ATOM     67  C   UNL     1      -6.359   3.220  -9.647  1.00  0.00     0.022 A 
BRANCH  64  68
ATOM     68  S   UNL     1      -4.519   4.553 -11.277  1.00  0.00     0.124 S 
ATOM     69  O   UNL     1      -3.602   5.406 -10.526  1.00  0.00    -0.237 OA
ATOM     70  O   UNL     1      -3.917   3.711 -12.304  1.00  0.00    -0.237 OA
ATOM     71  O   UNL     1      -5.775   5.194 -11.663  1.00  0.00    -0.744 OA
ENDBRANCH  64  68
ENDBRANCH  47  61
BRANCH  48  72
ATOM     72  C   UNL     1       3.695  -1.932  -4.018  1.00  0.00     0.023 A 
ATOM     73  C   UNL     1       4.395  -1.334  -2.931  1.00  0.00     0.031 A 
ATOM     74  C   UNL     1       3.182  -3.219  -3.774  1.00  0.00     0.131 A 
ATOM     75  C   UNL     1       4.497  -1.966  -1.665  1.00  0.00     0.055 A 
ATOM     76  C   UNL     1       3.315  -3.865  -2.525  1.00  0.00     0.041 A 
ATOM     77  F   UNL     1       2.457  -3.856  -4.707  1.00  0.00    -0.206 F 
ATOM     78  C   UNL     1       3.953  -3.233  -1.457  1.00  0.00     0.022 A 
BRANCH  75  79
ATOM     79  S   UNL     1       5.080  -1.028  -0.196  1.00  0.00     0.124 S 
ATOM     80  O   UNL     1       6.359  -1.662   0.099  1.00  0.00    -0.237 OA
ATOM     81  O   UNL     1       5.145   0.349  -0.683  1.00  0.00    -0.237 OA
ATOM     82  O   UNL     1       4.033  -1.256   0.799  1.00  0.00    -0.744 OA
ENDBRANCH  75  79
ENDBRANCH  48  72
BRANCH  60  83
ATOM     83  C   UNL     1       0.442  -2.487 -10.544  1.00  0.00     0.023 A 
ATOM     84  C   UNL     1       1.065  -3.701 -10.822  1.00  0.00     0.031 A 
ATOM     85  C   UNL     1      -0.471  -2.027 -11.526  1.00  0.00     0.131 A 
ATOM     86  C   UNL     1       0.933  -4.312 -12.072  1.00  0.00     0.055 A 
ATOM     87  C   UNL     1      -0.707  -2.711 -12.719  1.00  0.00     0.041 A 
ATOM     88  F   UNL     1      -1.183  -0.901 -11.374  1.00  0.00    -0.206 F 
ATOM     89  C   UNL     1       0.029  -3.845 -13.018  1.00  0.00     0.022 A 
BRANCH  86  90
ATOM     90  S   UNL     1       2.090  -5.644 -12.455  1.00  0.00     0.124 S 
ATOM     91  O   UNL     1       3.373  -4.947 -12.394  1.00  0.00    -0.237 OA
ATOM     92  O   UNL     1       1.839  -6.597 -11.379  1.00  0.00    -0.237 OA
ATOM     93  O   UNL     1       1.680  -6.080 -13.787  1.00  0.00    -0.744 OA
ENDBRANCH  86  90
ENDBRANCH  60  83
ENDBRANCH  34  35
ENDBRANCH  27  29
ENDBRANCH  26  27
ENDBRANCH  25  26
ENDBRANCH   1  25
TORSDOF 18
