REMARK SMILES CC[C@@H]1SC[C@@H](C(=O)OCCOC(=O)c2ccc(-c3c4nc(c(-c5cc(S(=O)(=O)[O-])ccc5F)c5ccc([nH]5)c(-c5cc(S(=O)(=O)[O-])ccc5F)c5nc(c(-c6cc(S(=O)(=O)[O-])ccc6F)c6ccc3[nH]6)C=C5)C=C4)cc2)N1C(=O)c1nc(C(C)(C)C)n[nH]1
REMARK SMILES IDX 10 1 9 2 7 3 8 4 6 5 3 6 4 7 78 8 5 9 2 10 1 11 79 12 80 13
REMARK SMILES IDX 81 14 82 15 89 16 83 17 88 18 84 20 85 21 86 22 87 23 11 24
REMARK SMILES IDX 12 25 13 26 14 27 15 28 16 29 77 30 17 31 76 32 18 33 19 34
REMARK SMILES IDX 20 35 70 36 21 37 75 38 69 39 71 40 22 41 74 42 68 43 67 44
REMARK SMILES IDX 23 46 55 47 35 48 54 49 36 50 39 51 53 52 72 53 37 54 38 55
REMARK SMILES IDX 52 57 73 58 40 59 24 60 25 61 33 62 26 63 32 64 34 65 31 66
REMARK SMILES IDX 27 67 28 68 29 69 30 70 56 71 57 72 65 73 58 74 64 75 66 76
REMARK SMILES IDX 63 77 59 78 60 79 61 80 62 81 41 82 42 83 50 84 43 85 49 86
REMARK SMILES IDX 51 87 48 88 44 89 45 90 46 91 47 92
REMARK H PARENT 89 19 71 45 39 56
REMARK Flexibility Score: inf
ROOT
ATOM      1  C   UNL     1      -3.296   1.031   0.785  1.00  0.00     0.274 C 
ENDROOT
BRANCH   1   2
ATOM      2  O   UNL     1      -1.998   1.231   1.378  1.00  0.00    -0.461 OA
BRANCH   2   3
ATOM      3  C   UNL     1      -1.353   2.381   1.036  1.00  0.00     0.329 C 
ATOM      4  O   UNL     1      -1.807   3.229   0.273  1.00  0.00    -0.250 OA
BRANCH   3   5
ATOM      5  C   UNL     1       0.067   2.482   1.623  1.00  0.00     0.206 C 
ATOM      6  C   UNL     1       0.976   0.247   2.139  1.00  0.00     0.144 C 
ATOM      7  S   UNL     1       1.327   0.570   0.353  1.00  0.00    -0.134 SA
ATOM      8  N   UNL     1       0.424   1.497   2.658  1.00  0.00    -0.309 N 
ATOM      9  C   UNL     1       1.067   2.355   0.490  1.00  0.00     0.109 C 
BRANCH   6  10
ATOM     10  C   UNL     1       2.275  -0.280   2.780  1.00  0.00     0.033 C 
ATOM     11  C   UNL     1       3.349   0.754   3.092  1.00  0.00     0.007 C 
ENDBRANCH   6  10
BRANCH   8  12
ATOM     12  C   UNL     1       0.165   1.827   3.986  1.00  0.00     0.292 C 
ATOM     13  O   UNL     1      -0.133   2.990   4.269  1.00  0.00    -0.265 OA
BRANCH  12  14
ATOM     14  C   UNL     1       0.371   0.867   5.041  1.00  0.00     0.214 A 
ATOM     15  N   UNL     1       0.126  -0.432   5.050  1.00  0.00    -0.207 NA
ATOM     16  N   UNL     1       0.850   1.235   6.266  1.00  0.00    -0.255 N 
ATOM     17  C   UNL     1       0.483  -0.807   6.329  1.00  0.00     0.156 A 
ATOM     18  N   UNL     1       1.021   0.174   7.063  1.00  0.00    -0.158 NA
ATOM     19  H   UNL     1       1.045   2.163   6.528  1.00  0.00     0.192 HD
BRANCH  17  20
ATOM     20  C   UNL     1       0.250  -2.182   6.906  1.00  0.00     0.024 C 
ATOM     21  C   UNL     1      -0.655  -2.069   8.151  1.00  0.00     0.019 C 
ATOM     22  C   UNL     1      -0.442  -3.109   5.890  1.00  0.00     0.019 C 
ATOM     23  C   UNL     1       1.587  -2.828   7.321  1.00  0.00     0.019 C 
ENDBRANCH  17  20
ENDBRANCH  12  14
ENDBRANCH   8  12
ENDBRANCH   3   5
ENDBRANCH   2   3
ENDBRANCH   1   2
BRANCH   1  24
ATOM     24  C   UNL     1      -4.411   1.200   1.815  1.00  0.00     0.275 C 
BRANCH  24  25
ATOM     25  O   UNL     1      -4.401   2.526   2.366  1.00  0.00    -0.458 OA
BRANCH  25  26
ATOM     26  C   UNL     1      -3.776   2.634   3.563  1.00  0.00     0.338 C 
ATOM     27  O   UNL     1      -3.276   1.740   4.220  1.00  0.00    -0.246 OA
BRANCH  26  28
ATOM     28  C   UNL     1      -3.730   4.048   3.950  1.00  0.00     0.060 A 
ATOM     29  C   UNL     1      -2.598   4.794   3.622  1.00  0.00     0.016 A 
ATOM     30  C   UNL     1      -4.747   4.600   4.728  1.00  0.00     0.016 A 
ATOM     31  C   UNL     1      -2.448   6.085   4.118  1.00  0.00     0.010 A 
ATOM     32  C   UNL     1      -4.615   5.914   5.187  1.00  0.00     0.010 A 
ATOM     33  C   UNL     1      -3.453   6.656   4.908  1.00  0.00    -0.014 A 
BRANCH  33  34
ATOM     34  C   UNL     1      -3.259   8.008   5.489  1.00  0.00     0.031 A 
ATOM     35  C   UNL     1      -3.078   8.165   6.973  1.00  0.00     0.074 A 
ATOM     36  C   UNL     1      -3.231   9.086   4.684  1.00  0.00     0.049 A 
ATOM     37  N   UNL     1      -3.014   9.257   7.690  1.00  0.00    -0.248 NA
ATOM     38  C   UNL     1      -2.963   6.923   7.752  1.00  0.00     0.031 C 
ATOM     39  C   UNL     1      -3.341   9.053   3.224  1.00  0.00     0.029 A 
ATOM     40  N   UNL     1      -3.102  10.420   4.978  1.00  0.00    -0.354 N 
ATOM     41  C   UNL     1      -2.885   8.837   9.010  1.00  0.00     0.074 A 
ATOM     42  C   UNL     1      -2.901   7.388   8.991  1.00  0.00     0.031 C 
ATOM     43  C   UNL     1      -3.264  10.307   2.751  1.00  0.00     0.029 A 
ATOM     44  C   UNL     1      -3.165  11.235   3.873  1.00  0.00     0.049 A 
ATOM     45  H   UNL     1      -2.976  10.760   5.893  1.00  0.00     0.167 HD
ATOM     46  C   UNL     1      -2.766   9.593  10.130  1.00  0.00     0.034 A 
ATOM     47  C   UNL     1      -3.180  12.578   3.778  1.00  0.00     0.034 A 
ATOM     48  C   UNL     1      -2.735  11.037  10.125  1.00  0.00     0.049 A 
ATOM     49  C   UNL     1      -3.118  13.397   5.040  1.00  0.00     0.074 A 
ATOM     50  C   UNL     1      -2.590  11.902  11.195  1.00  0.00     0.029 A 
ATOM     51  N   UNL     1      -2.858  11.830   8.990  1.00  0.00    -0.354 N 
ATOM     52  N   UNL     1      -3.028  12.990   6.285  1.00  0.00    -0.248 NA
ATOM     53  C   UNL     1      -3.169  14.856   4.883  1.00  0.00     0.031 C 
ATOM     54  C   UNL     1      -2.687  13.215  10.716  1.00  0.00     0.029 A 
ATOM     55  C   UNL     1      -2.825  13.172   9.338  1.00  0.00     0.049 A 
ATOM     56  H   UNL     1      -2.954  11.489   8.072  1.00  0.00     0.167 HD
ATOM     57  C   UNL     1      -2.995  14.146   7.059  1.00  0.00     0.074 A 
ATOM     58  C   UNL     1      -3.058  15.264   6.138  1.00  0.00     0.031 C 
ATOM     59  C   UNL     1      -2.916  14.274   8.409  1.00  0.00     0.034 A 
BRANCH  46  60
ATOM     60  C   UNL     1      -2.729   8.866  11.453  1.00  0.00     0.023 A 
ATOM     61  C   UNL     1      -1.677   8.001  11.801  1.00  0.00     0.031 A 
ATOM     62  C   UNL     1      -3.792   9.007  12.363  1.00  0.00     0.131 A 
ATOM     63  C   UNL     1      -1.748   7.254  12.987  1.00  0.00     0.055 A 
ATOM     64  C   UNL     1      -3.820   8.319  13.578  1.00  0.00     0.041 A 
ATOM     65  F   UNL     1      -4.835   9.803  12.078  1.00  0.00    -0.206 F 
ATOM     66  C   UNL     1      -2.802   7.423  13.889  1.00  0.00     0.022 A 
BRANCH  63  67
ATOM     67  S   UNL     1      -0.521   5.946  13.264  1.00  0.00     0.124 S 
ATOM     68  O   UNL     1      -0.689   5.124  12.069  1.00  0.00    -0.237 OA
ATOM     69  O   UNL     1       0.725   6.698  13.352  1.00  0.00    -0.237 OA
ATOM     70  O   UNL     1      -0.962   5.320  14.509  1.00  0.00    -0.744 OA
ENDBRANCH  63  67
ENDBRANCH  46  60
BRANCH  47  71
ATOM     71  C   UNL     1      -3.315  13.235   2.448  1.00  0.00     0.023 A 
ATOM     72  C   UNL     1      -2.277  14.015   1.917  1.00  0.00     0.031 A 
ATOM     73  C   UNL     1      -4.500  13.112   1.700  1.00  0.00     0.131 A 
ATOM     74  C   UNL     1      -2.455  14.669   0.688  1.00  0.00     0.055 A 
ATOM     75  C   UNL     1      -4.655  13.726   0.457  1.00  0.00     0.041 A 
ATOM     76  F   UNL     1      -5.522  12.375   2.164  1.00  0.00    -0.206 F 
ATOM     77  C   UNL     1      -3.631  14.519  -0.051  1.00  0.00     0.022 A 
BRANCH  74  78
ATOM     78  S   UNL     1      -1.144  15.772   0.093  1.00  0.00     0.124 S 
ATOM     79  O   UNL     1      -1.073  16.757   1.166  1.00  0.00    -0.237 OA
ATOM     80  O   UNL     1      -0.009  14.862  -0.020  1.00  0.00    -0.237 OA
ATOM     81  O   UNL     1      -1.669  16.269  -1.178  1.00  0.00    -0.744 OA
ENDBRANCH  74  78
ENDBRANCH  47  71
BRANCH  59  82
ATOM     82  C   UNL     1      -2.860  15.679   8.952  1.00  0.00     0.023 A 
ATOM     83  C   UNL     1      -3.970  16.540   8.884  1.00  0.00     0.031 A 
ATOM     84  C   UNL     1      -1.672  16.172   9.519  1.00  0.00     0.131 A 
ATOM     85  C   UNL     1      -3.852  17.867   9.325  1.00  0.00     0.055 A 
ATOM     86  C   UNL     1      -1.577  17.476  10.006  1.00  0.00     0.041 A 
ATOM     87  F   UNL     1      -0.582  15.392   9.606  1.00  0.00    -0.206 F 
ATOM     88  C   UNL     1      -2.667  18.336   9.898  1.00  0.00     0.022 A 
BRANCH  85  89
ATOM     89  S   UNL     1      -5.242  19.002   9.058  1.00  0.00     0.124 S 
ATOM     90  O   UNL     1      -5.393  18.961   7.607  1.00  0.00    -0.237 OA
ATOM     91  O   UNL     1      -6.310  18.374   9.828  1.00  0.00    -0.237 OA
ATOM     92  O   UNL     1      -4.756  20.272   9.595  1.00  0.00    -0.744 OA
ENDBRANCH  85  89
ENDBRANCH  59  82
ENDBRANCH  33  34
ENDBRANCH  26  28
ENDBRANCH  25  26
ENDBRANCH  24  25
ENDBRANCH   1  24
TORSDOF 18
