REMARK SMILES Cc1nn(C(C)C)cc1-c1cnccc1C(=O)OCCOC(=O)c1ccc(-c2c3nc(c(-c4cc(S(=O)(=O)[O-])ccc4F)c4ccc([nH]4)c(-c4cc(S(=O)(=O)[O-])ccc4F)c4nc(c(-c5cc(S(=O)(=O)[O-])ccc5F)c5ccc2[nH]5)C=C4)C=C3)cc1
REMARK SMILES IDX 20 1 19 2 18 3 16 4 17 5 15 6 10 7 11 8 12 9 14 10 13 11
REMARK SMILES IDX 9 12 1 13 2 14 3 15 4 16 8 17 5 18 6 19 7 20 21 21 22 22
REMARK SMILES IDX 23 23 24 24 25 25 86 26 26 27 85 28 27 29 28 30 29 31 79 32
REMARK SMILES IDX 30 33 84 34 78 35 80 36 31 37 83 38 77 39 76 40 32 42 64 43
REMARK SMILES IDX 44 44 63 45 45 46 48 47 62 48 81 49 46 50 47 51 61 53 82 54
REMARK SMILES IDX 49 55 33 56 34 57 42 58 35 59 41 60 43 61 40 62 36 63 37 64
REMARK SMILES IDX 38 65 39 66 65 67 66 68 74 69 67 70 73 71 75 72 72 73 68 74
REMARK SMILES IDX 69 75 70 76 71 77 50 78 51 79 59 80 52 81 58 82 60 83 57 84
REMARK SMILES IDX 53 85 54 86 55 87 56 88
REMARK H PARENT 80 41 48 52
REMARK Flexibility Score: inf
ROOT
ATOM      1  C   UNL     1       1.662  -2.913   4.903  1.00  0.00     0.275 C 
ENDROOT
BRANCH   1   2
ATOM      2  C   UNL     1       0.413  -3.590   4.372  1.00  0.00     0.275 C 
BRANCH   2   3
ATOM      3  O   UNL     1      -0.288  -2.689   3.504  1.00  0.00    -0.458 OA
BRANCH   3   4
ATOM      4  C   UNL     1      -1.335  -1.996   3.996  1.00  0.00     0.338 C 
ATOM      5  O   UNL     1      -1.846  -2.181   5.095  1.00  0.00    -0.246 OA
BRANCH   4   6
ATOM      6  C   UNL     1      -1.778  -0.900   3.080  1.00  0.00     0.071 A 
ATOM      7  C   UNL     1      -1.513  -0.806   1.703  1.00  0.00     0.018 A 
ATOM      8  C   UNL     1      -2.062   0.289   1.033  1.00  0.00     0.120 A 
ATOM      9  N   UNL     1      -2.791   1.274   1.611  1.00  0.00    -0.264 NA
ATOM     10  C   UNL     1      -2.493   0.138   3.705  1.00  0.00     0.036 A 
ATOM     11  C   UNL     1      -2.959   1.193   2.943  1.00  0.00     0.112 A 
BRANCH   7  12
ATOM     12  C   UNL     1      -0.659  -1.701   0.944  1.00  0.00     0.025 A 
ATOM     13  C   UNL     1       1.140  -0.117  -0.132  1.00  0.00     0.069 C 
ATOM     14  C   UNL     1       0.507  -1.427   0.172  1.00  0.00     0.067 A 
ATOM     15  N   UNL     1       1.059  -2.554  -0.299  1.00  0.00    -0.177 NA
ATOM     16  N   UNL     1       0.319  -3.530   0.254  1.00  0.00    -0.269 N 
ATOM     17  C   UNL     1      -0.806  -3.070   0.875  1.00  0.00     0.118 A 
BRANCH  16  18
ATOM     18  C   UNL     1       0.756  -4.919   0.177  1.00  0.00     0.101 C 
ATOM     19  C   UNL     1       0.582  -5.458  -1.238  1.00  0.00     0.033 C 
ATOM     20  C   UNL     1       2.192  -5.102   0.677  1.00  0.00     0.033 C 
ENDBRANCH  16  18
ENDBRANCH   7  12
ENDBRANCH   4   6
ENDBRANCH   3   4
ENDBRANCH   2   3
ENDBRANCH   1   2
BRANCH   1  21
ATOM     21  O   UNL     1       1.304  -1.926   5.865  1.00  0.00    -0.458 OA
BRANCH  21  22
ATOM     22  C   UNL     1       1.121  -0.681   5.369  1.00  0.00     0.338 C 
ATOM     23  O   UNL     1       0.970  -0.357   4.205  1.00  0.00    -0.246 OA
BRANCH  22  24
ATOM     24  C   UNL     1       1.351   0.284   6.442  1.00  0.00     0.060 A 
ATOM     25  C   UNL     1       1.218   1.636   6.114  1.00  0.00     0.016 A 
ATOM     26  C   UNL     1       1.972  -0.144   7.624  1.00  0.00     0.016 A 
ATOM     27  C   UNL     1       1.878   2.562   6.889  1.00  0.00     0.010 A 
ATOM     28  C   UNL     1       2.644   0.777   8.383  1.00  0.00     0.010 A 
ATOM     29  C   UNL     1       2.648   2.105   7.962  1.00  0.00    -0.014 A 
BRANCH  29  30
ATOM     30  C   UNL     1       3.384   3.081   8.737  1.00  0.00     0.031 A 
ATOM     31  C   UNL     1       2.497   3.900   9.597  1.00  0.00     0.074 A 
ATOM     32  C   UNL     1       4.730   3.077   8.764  1.00  0.00     0.049 A 
ATOM     33  N   UNL     1       2.328   5.179   9.597  1.00  0.00    -0.248 NA
ATOM     34  C   UNL     1       1.531   3.173  10.445  1.00  0.00     0.031 C 
ATOM     35  C   UNL     1       5.621   2.070   8.173  1.00  0.00     0.029 A 
ATOM     36  N   UNL     1       5.586   3.881   9.446  1.00  0.00    -0.354 N 
ATOM     37  C   UNL     1       1.415   5.428  10.618  1.00  0.00     0.074 A 
ATOM     38  C   UNL     1       0.797   4.172  10.925  1.00  0.00     0.031 C 
ATOM     39  C   UNL     1       6.847   2.183   8.730  1.00  0.00     0.029 A 
ATOM     40  C   UNL     1       6.857   3.341   9.610  1.00  0.00     0.049 A 
ATOM     41  H   UNL     1       5.330   4.766   9.794  1.00  0.00     0.167 HD
ATOM     42  C   UNL     1       1.463   6.584  11.331  1.00  0.00     0.034 A 
ATOM     43  C   UNL     1       7.809   3.748  10.491  1.00  0.00     0.034 A 
ATOM     44  C   UNL     1       2.159   7.610  10.590  1.00  0.00     0.049 A 
ATOM     45  C   UNL     1       7.444   5.126  10.910  1.00  0.00     0.074 A 
ATOM     46  C   UNL     1       1.947   8.242   9.381  1.00  0.00     0.029 A 
ATOM     47  N   UNL     1       3.473   7.850  10.922  1.00  0.00    -0.354 N 
ATOM     48  N   UNL     1       7.402   6.147  10.095  1.00  0.00    -0.248 NA
ATOM     49  C   UNL     1       6.685   5.292  12.141  1.00  0.00     0.031 C 
ATOM     50  C   UNL     1       3.247   8.456   8.839  1.00  0.00     0.029 A 
ATOM     51  C   UNL     1       4.193   8.009   9.765  1.00  0.00     0.049 A 
ATOM     52  H   UNL     1       3.835   7.900  11.836  1.00  0.00     0.167 HD
ATOM     53  C   UNL     1       6.304   6.892  10.502  1.00  0.00     0.074 A 
ATOM     54  C   UNL     1       5.978   6.383  11.830  1.00  0.00     0.031 C 
ATOM     55  C   UNL     1       5.595   7.651   9.614  1.00  0.00     0.034 A 
BRANCH  42  56
ATOM     56  C   UNL     1       1.275   6.649  12.835  1.00  0.00     0.023 A 
ATOM     57  C   UNL     1       1.454   7.907  13.439  1.00  0.00     0.031 A 
ATOM     58  C   UNL     1       1.237   5.547  13.724  1.00  0.00     0.131 A 
ATOM     59  C   UNL     1       1.709   8.019  14.817  1.00  0.00     0.055 A 
ATOM     60  C   UNL     1       1.427   5.671  15.103  1.00  0.00     0.041 A 
ATOM     61  F   UNL     1       1.103   4.280  13.321  1.00  0.00    -0.206 F 
ATOM     62  C   UNL     1       1.702   6.908  15.654  1.00  0.00     0.022 A 
BRANCH  59  63
ATOM     63  S   UNL     1       2.239   9.624  15.459  1.00  0.00     0.124 S 
ATOM     64  O   UNL     1       3.363   9.933  14.583  1.00  0.00    -0.237 OA
ATOM     65  O   UNL     1       1.036  10.429  15.277  1.00  0.00    -0.237 OA
ATOM     66  O   UNL     1       2.590   9.333  16.847  1.00  0.00    -0.744 OA
ENDBRANCH  59  63
ENDBRANCH  42  56
BRANCH  43  67
ATOM     67  C   UNL     1       8.717   2.849  11.262  1.00  0.00     0.023 A 
ATOM     68  C   UNL     1       9.949   3.271  11.802  1.00  0.00     0.031 A 
ATOM     69  C   UNL     1       8.260   1.569  11.656  1.00  0.00     0.131 A 
ATOM     70  C   UNL     1      10.669   2.422  12.678  1.00  0.00     0.055 A 
ATOM     71  C   UNL     1       8.981   0.731  12.509  1.00  0.00     0.041 A 
ATOM     72  F   UNL     1       7.053   1.116  11.282  1.00  0.00    -0.206 F 
ATOM     73  C   UNL     1      10.190   1.158  13.030  1.00  0.00     0.022 A 
BRANCH  70  74
ATOM     74  S   UNL     1      12.233   2.982  13.431  1.00  0.00     0.124 S 
ATOM     75  O   UNL     1      13.073   3.224  12.265  1.00  0.00    -0.237 OA
ATOM     76  O   UNL     1      11.809   4.157  14.184  1.00  0.00    -0.237 OA
ATOM     77  O   UNL     1      12.643   1.843  14.255  1.00  0.00    -0.744 OA
ENDBRANCH  70  74
ENDBRANCH  43  67
BRANCH  55  78
ATOM     78  C   UNL     1       6.237   8.007   8.290  1.00  0.00     0.023 A 
ATOM     79  C   UNL     1       6.607   7.088   7.282  1.00  0.00     0.031 A 
ATOM     80  C   UNL     1       6.337   9.379   7.995  1.00  0.00     0.131 A 
ATOM     81  C   UNL     1       7.051   7.566   6.030  1.00  0.00     0.055 A 
ATOM     82  C   UNL     1       6.755   9.845   6.751  1.00  0.00     0.041 A 
ATOM     83  F   UNL     1       5.976  10.298   8.907  1.00  0.00    -0.206 F 
ATOM     84  C   UNL     1       7.115   8.939   5.763  1.00  0.00     0.022 A 
BRANCH  81  85
ATOM     85  S   UNL     1       7.553   6.410   4.712  1.00  0.00     0.124 S 
ATOM     86  O   UNL     1       8.511   5.535   5.378  1.00  0.00    -0.237 OA
ATOM     87  O   UNL     1       6.285   5.798   4.325  1.00  0.00    -0.237 OA
ATOM     88  O   UNL     1       8.137   7.286   3.694  1.00  0.00    -0.744 OA
ENDBRANCH  81  85
ENDBRANCH  55  78
ENDBRANCH  29  30
ENDBRANCH  22  24
ENDBRANCH  21  22
ENDBRANCH   1  21
TORSDOF 16
