REMARK SMILES CC(C)OCCS(=O)(=O)Nc1ccc(O)c(C(=O)OCCOC(=O)c2ccc(-c3c4nc(c(-c5cc(S(=O)(=O)[O-])ccc5F)c5ccc([nH]5)c(-c5cc(S(=O)(=O)[O-])ccc5F)c5nc(c(-c6cc(S(=O)(=O)[O-])ccc6F)c6ccc3[nH]6)C=C5)C=C4)cc2)c1
REMARK SMILES IDX 19 1 17 2 18 3 16 4 11 5 12 6 88 7 13 8 14 9 10 10 7 12 8 13
REMARK SMILES IDX 9 14 6 15 5 16 4 17 2 18 1 19 3 20 15 21 20 23 21 24 22 25
REMARK SMILES IDX 23 26 24 27 25 28 26 29 87 30 27 31 86 32 28 33 29 34 30 35
REMARK SMILES IDX 80 36 31 37 85 38 79 39 81 40 32 41 84 42 78 43 77 44 33 46
REMARK SMILES IDX 65 47 45 48 64 49 46 50 49 51 63 52 82 53 47 54 48 55 62 57
REMARK SMILES IDX 83 58 50 59 34 60 35 61 43 62 36 63 42 64 44 65 41 66 37 67
REMARK SMILES IDX 38 68 39 69 40 70 66 71 67 72 75 73 68 74 74 75 76 76 73 77
REMARK SMILES IDX 69 78 70 79 71 80 72 81 51 82 52 83 60 84 53 85 59 86 61 87
REMARK SMILES IDX 58 88 54 89 55 90 56 91 57 92
REMARK H PARENT 10 11 15 22 81 45 49 56
REMARK Flexibility Score: inf
ROOT
ATOM      1  O   UNL     1      -0.799  -5.399   5.473  1.00  0.00    -0.458 OA
ENDROOT
BRANCH   1   2
ATOM      2  C   UNL     1      -1.042  -4.132   5.886  1.00  0.00     0.342 C 
ATOM      3  O   UNL     1      -1.016  -3.720   7.034  1.00  0.00    -0.246 OA
BRANCH   2   4
ATOM      4  C   UNL     1      -1.091  -3.271   4.680  1.00  0.00     0.103 A 
ATOM      5  C   UNL     1      -0.004  -1.463   3.527  1.00  0.00     0.050 A 
ATOM      6  C   UNL     1      -0.400  -2.022   2.314  1.00  0.00     0.030 A 
ATOM      7  C   UNL     1      -0.380  -2.062   4.723  1.00  0.00     0.046 A 
ATOM      8  C   UNL     1      -1.253  -3.118   2.276  1.00  0.00     0.049 A 
ATOM      9  C   UNL     1      -1.611  -3.736   3.465  1.00  0.00     0.130 A 
BRANCH   5  10
ATOM     10  N   UNL     1       0.887  -0.367   3.510  1.00  0.00    -0.283 N 
ATOM     11  H   UNL     1       1.846  -0.537   3.369  1.00  0.00     0.180 HD
BRANCH  10  12
ATOM     12  S   UNL     1       0.374   1.201   3.721  1.00  0.00     0.235 S 
ATOM     13  O   UNL     1       1.458   2.036   3.252  1.00  0.00    -0.207 OA
ATOM     14  O   UNL     1      -0.108   1.311   5.082  1.00  0.00    -0.207 OA
BRANCH  12  15
ATOM     15  C   UNL     1      -1.034   1.440   2.637  1.00  0.00     0.188 C 
BRANCH  15  16
ATOM     16  C   UNL     1      -0.695   1.727   1.181  1.00  0.00     0.178 C 
BRANCH  16  17
ATOM     17  O   UNL     1      -0.722   0.517   0.421  1.00  0.00    -0.378 OA
BRANCH  17  18
ATOM     18  C   UNL     1       0.349   0.282  -0.501  1.00  0.00     0.112 C 
ATOM     19  C   UNL     1       0.279   1.153  -1.745  1.00  0.00     0.038 C 
ATOM     20  C   UNL     1       1.724   0.345   0.149  1.00  0.00     0.038 C 
ENDBRANCH  17  18
ENDBRANCH  16  17
ENDBRANCH  15  16
ENDBRANCH  12  15
ENDBRANCH  10  12
ENDBRANCH   5  10
BRANCH   9  21
ATOM     21  O   UNL     1      -2.468  -4.800   3.432  1.00  0.00    -0.507 OA
ATOM     22  H   UNL     1      -2.809  -5.101   2.612  1.00  0.00     0.293 HD
ENDBRANCH   9  21
ENDBRANCH   2   4
ENDBRANCH   1   2
BRANCH   1  23
ATOM     23  C   UNL     1      -0.376  -6.372   6.438  1.00  0.00     0.275 C 
BRANCH  23  24
ATOM     24  C   UNL     1       0.940  -6.994   5.965  1.00  0.00     0.275 C 
BRANCH  24  25
ATOM     25  O   UNL     1       2.017  -6.037   6.054  1.00  0.00    -0.458 OA
BRANCH  25  26
ATOM     26  C   UNL     1       2.431  -5.512   4.877  1.00  0.00     0.338 C 
ATOM     27  O   UNL     1       2.023  -5.778   3.759  1.00  0.00    -0.246 OA
BRANCH  26  28
ATOM     28  C   UNL     1       3.422  -4.451   5.125  1.00  0.00     0.060 A 
ATOM     29  C   UNL     1       2.970  -3.136   5.123  1.00  0.00     0.016 A 
ATOM     30  C   UNL     1       4.786  -4.716   5.221  1.00  0.00     0.016 A 
ATOM     31  C   UNL     1       3.870  -2.073   5.157  1.00  0.00     0.010 A 
ATOM     32  C   UNL     1       5.690  -3.644   5.324  1.00  0.00     0.010 A 
ATOM     33  C   UNL     1       5.247  -2.307   5.269  1.00  0.00    -0.014 A 
BRANCH  33  34
ATOM     34  C   UNL     1       6.209  -1.159   5.282  1.00  0.00     0.031 A 
ATOM     35  C   UNL     1       7.290  -1.058   4.232  1.00  0.00     0.074 A 
ATOM     36  C   UNL     1       6.101  -0.179   6.205  1.00  0.00     0.049 A 
ATOM     37  N   UNL     1       8.313  -0.243   4.165  1.00  0.00    -0.248 NA
ATOM     38  C   UNL     1       7.213  -2.009   3.112  1.00  0.00     0.031 C 
ATOM     39  C   UNL     1       5.067  -0.099   7.240  1.00  0.00     0.029 A 
ATOM     40  N   UNL     1       6.862   0.948   6.419  1.00  0.00    -0.354 N 
ATOM     41  C   UNL     1       9.024  -0.607   3.025  1.00  0.00     0.074 A 
ATOM     42  C   UNL     1       8.323  -1.733   2.443  1.00  0.00     0.031 C 
ATOM     43  C   UNL     1       5.231   1.032   7.944  1.00  0.00     0.029 A 
ATOM     44  C   UNL     1       6.441   1.707   7.490  1.00  0.00     0.049 A 
ATOM     45  H   UNL     1       7.635   1.190   5.859  1.00  0.00     0.167 HD
ATOM     46  C   UNL     1      10.152  -0.053   2.511  1.00  0.00     0.034 A 
ATOM     47  C   UNL     1       6.988   2.791   8.079  1.00  0.00     0.034 A 
ATOM     48  C   UNL     1      10.822   1.093   3.080  1.00  0.00     0.049 A 
ATOM     49  C   UNL     1       8.288   3.335   7.539  1.00  0.00     0.074 A 
ATOM     50  C   UNL     1      11.975   1.724   2.641  1.00  0.00     0.029 A 
ATOM     51  N   UNL     1      10.395   1.793   4.201  1.00  0.00    -0.354 N 
ATOM     52  N   UNL     1       8.990   2.928   6.506  1.00  0.00    -0.248 NA
ATOM     53  C   UNL     1       8.876   4.477   8.252  1.00  0.00     0.031 C 
ATOM     54  C   UNL     1      12.279   2.760   3.530  1.00  0.00     0.029 A 
ATOM     55  C   UNL     1      11.274   2.830   4.479  1.00  0.00     0.049 A 
ATOM     56  H   UNL     1       9.587   1.583   4.723  1.00  0.00     0.167 HD
ATOM     57  C   UNL     1      10.085   3.785   6.433  1.00  0.00     0.074 A 
ATOM     58  C   UNL     1       9.940   4.742   7.509  1.00  0.00     0.031 C 
ATOM     59  C   UNL     1      11.121   3.779   5.556  1.00  0.00     0.034 A 
BRANCH  46  60
ATOM     60  C   UNL     1      10.768  -0.713   1.299  1.00  0.00     0.023 A 
ATOM     61  C   UNL     1      10.120  -0.741   0.052  1.00  0.00     0.031 A 
ATOM     62  C   UNL     1      12.033  -1.323   1.395  1.00  0.00     0.131 A 
ATOM     63  C   UNL     1      10.709  -1.416  -1.029  1.00  0.00     0.055 A 
ATOM     64  C   UNL     1      12.649  -1.924   0.296  1.00  0.00     0.041 A 
ATOM     65  F   UNL     1      12.693  -1.347   2.564  1.00  0.00    -0.206 F 
ATOM     66  C   UNL     1      11.981  -1.984  -0.923  1.00  0.00     0.022 A 
BRANCH  63  67
ATOM     67  S   UNL     1       9.736  -1.651  -2.541  1.00  0.00     0.124 S 
ATOM     68  O   UNL     1       8.585  -2.398  -2.039  1.00  0.00    -0.237 OA
ATOM     69  O   UNL     1       9.471  -0.281  -2.964  1.00  0.00    -0.237 OA
ATOM     70  O   UNL     1      10.631  -2.411  -3.411  1.00  0.00    -0.744 OA
ENDBRANCH  63  67
ENDBRANCH  46  60
BRANCH  47  71
ATOM     71  C   UNL     1       6.368   3.395   9.299  1.00  0.00     0.023 A 
ATOM     72  C   UNL     1       5.965   4.740   9.321  1.00  0.00     0.031 A 
ATOM     73  C   UNL     1       6.248   2.656  10.491  1.00  0.00     0.131 A 
ATOM     74  C   UNL     1       5.520   5.319  10.521  1.00  0.00     0.055 A 
ATOM     75  C   UNL     1       5.732   3.216  11.661  1.00  0.00     0.041 A 
ATOM     76  F   UNL     1       6.634   1.371  10.538  1.00  0.00    -0.206 F 
ATOM     77  C   UNL     1       5.381   4.561  11.685  1.00  0.00     0.022 A 
BRANCH  74  78
ATOM     78  S   UNL     1       5.256   7.114  10.576  1.00  0.00     0.124 S 
ATOM     79  O   UNL     1       6.553   7.617  10.135  1.00  0.00    -0.237 OA
ATOM     80  O   UNL     1       4.149   7.289   9.643  1.00  0.00    -0.237 OA
ATOM     81  O   UNL     1       4.934   7.368  11.979  1.00  0.00    -0.744 OA
ENDBRANCH  74  78
ENDBRANCH  47  71
BRANCH  59  82
ATOM     82  C   UNL     1      12.143   4.882   5.696  1.00  0.00     0.023 A 
ATOM     83  C   UNL     1      12.988   4.974   6.817  1.00  0.00     0.031 A 
ATOM     84  C   UNL     1      12.256   5.869   4.700  1.00  0.00     0.131 A 
ATOM     85  C   UNL     1      13.863   6.064   6.944  1.00  0.00     0.055 A 
ATOM     86  C   UNL     1      13.173   6.916   4.803  1.00  0.00     0.041 A 
ATOM     87  F   UNL     1      11.474   5.832   3.609  1.00  0.00    -0.206 F 
ATOM     88  C   UNL     1      13.973   7.026   5.937  1.00  0.00     0.022 A 
BRANCH  85  89
ATOM     89  S   UNL     1      14.792   6.260   8.490  1.00  0.00     0.124 S 
ATOM     90  O   UNL     1      13.723   6.341   9.479  1.00  0.00    -0.237 OA
ATOM     91  O   UNL     1      15.602   5.046   8.524  1.00  0.00    -0.237 OA
ATOM     92  O   UNL     1      15.543   7.497   8.284  1.00  0.00    -0.744 OA
ENDBRANCH  85  89
ENDBRANCH  59  82
ENDBRANCH  33  34
ENDBRANCH  26  28
ENDBRANCH  25  26
ENDBRANCH  24  25
ENDBRANCH  23  24
ENDBRANCH   1  23
TORSDOF 21
