REMARK SMILES Cc1cc(C)c(S(=O)(=O)Nc2ccc(N3CCN(c4ccccn4)CC3)c(C(=O)OCCOC(=O)c3ccc(-c4c5nc(c(-c6cc(S(=O)(=O)[O-])ccc6F)c6ccc([nH]6)c(-c6cc(S(=O)(=O)[O-])ccc6F)c6nc(c(-c7cc(S(=O)(=O)[O-])ccc7F)c7ccc4[nH]7)C=C6)C=C5)cc3)c2)c(C)c1
REMARK SMILES IDX 31 1 30 2 28 3 29 4 27 5 11 6 12 7 99 8 13 9 14 10 10 11
REMARK SMILES IDX 7 13 8 14 9 15 6 16 1 17 2 18 3 19 102 20 4 21 100 22 5 23
REMARK SMILES IDX 101 24 15 25 16 26 26 27 17 28 25 29 18 30 19 31 20 32 24 33
REMARK SMILES IDX 21 34 23 35 22 36 32 37 33 38 34 39 35 40 36 41 37 42 98 43
REMARK SMILES IDX 38 44 97 45 39 46 40 47 41 48 91 49 42 50 96 51 90 52 92 53
REMARK SMILES IDX 43 54 95 55 89 56 88 57 44 59 76 60 56 61 75 62 57 63 60 64
REMARK SMILES IDX 74 65 93 66 58 67 59 68 73 70 94 71 61 72 45 73 46 74 54 75
REMARK SMILES IDX 47 76 53 77 55 78 52 79 48 80 49 81 50 82 51 83 77 84 78 85
REMARK SMILES IDX 86 86 79 87 85 88 87 89 84 90 80 91 81 92 82 93 83 94 62 95
REMARK SMILES IDX 63 96 71 97 64 98 70 99 72 100 69 101 65 102 66 103 67 104
REMARK SMILES IDX 68 105
REMARK H PARENT 10 12 92 58 60 69
REMARK Flexibility Score: inf
ROOT
ATOM      1  C   UNL     1       2.333  -1.074   3.730  1.00  0.00     0.275 C 
ENDROOT
BRANCH   1   2
ATOM      2  O   UNL     1       1.685  -2.196   3.103  1.00  0.00    -0.458 OA
BRANCH   2   3
ATOM      3  C   UNL     1       2.062  -2.420   1.819  1.00  0.00     0.340 C 
ATOM      4  O   UNL     1       2.771  -1.684   1.154  1.00  0.00    -0.246 OA
BRANCH   3   5
ATOM      5  C   UNL     1       1.371  -3.614   1.289  1.00  0.00     0.085 A 
ATOM      6  C   UNL     1      -0.772  -4.194   0.388  1.00  0.00     0.050 A 
ATOM      7  C   UNL     1      -0.217  -5.342  -0.186  1.00  0.00     0.029 A 
ATOM      8  C   UNL     1      -0.022  -3.453   1.280  1.00  0.00     0.044 A 
ATOM      9  C   UNL     1       1.159  -5.583  -0.072  1.00  0.00     0.029 A 
ATOM     10  C   UNL     1       1.998  -4.661   0.572  1.00  0.00     0.052 A 
BRANCH   6  11
ATOM     11  N   UNL     1      -1.901  -3.630  -0.272  1.00  0.00    -0.280 N 
ATOM     12  H   UNL     1      -2.388  -4.216  -0.894  1.00  0.00     0.180 HD
BRANCH  11  13
ATOM     13  S   UNL     1      -2.483  -2.072  -0.098  1.00  0.00     0.262 S 
ATOM     14  O   UNL     1      -2.854  -1.930   1.299  1.00  0.00    -0.201 OA
ATOM     15  O   UNL     1      -3.481  -1.923  -1.138  1.00  0.00    -0.201 OA
BRANCH  13  16
ATOM     16  C   UNL     1      -1.227  -0.804  -0.422  1.00  0.00     0.093 A 
ATOM     17  C   UNL     1       1.945   2.121   0.043  1.00  0.00     0.044 C 
ATOM     18  C   UNL     1       0.835   1.131  -0.152  1.00  0.00    -0.051 A 
ATOM     19  C   UNL     1      -0.469   1.440   0.216  1.00  0.00     0.008 A 
ATOM     20  C   UNL     1       1.059  -0.079  -0.808  1.00  0.00     0.008 A 
ATOM     21  C   UNL     1      -1.507   0.497   0.081  1.00  0.00    -0.030 A 
ATOM     22  C   UNL     1       0.037  -1.039  -1.000  1.00  0.00    -0.030 A 
ATOM     23  C   UNL     1      -2.898   1.019   0.346  1.00  0.00     0.046 C 
ATOM     24  C   UNL     1       0.368  -2.159  -1.944  1.00  0.00     0.046 C 
ENDBRANCH  13  16
ENDBRANCH  11  13
ENDBRANCH   6  11
BRANCH  10  25
ATOM     25  N   UNL     1       3.368  -4.795   0.354  1.00  0.00    -0.367 N 
ATOM     26  C   UNL     1       4.148  -3.563  -0.637  1.00  0.00     0.138 C 
ATOM     27  C   UNL     1       4.360  -5.809   1.579  1.00  0.00     0.138 C 
ATOM     28  C   UNL     1       5.883  -2.936  -0.298  1.00  0.00     0.139 C 
ATOM     29  C   UNL     1       6.405  -5.056   1.934  1.00  0.00     0.139 C 
ATOM     30  N   UNL     1       6.985  -3.740   0.781  1.00  0.00    -0.353 N 
BRANCH  30  31
ATOM     31  C   UNL     1       8.357  -3.597   0.590  1.00  0.00     0.128 A 
ATOM     32  C   UNL     1       9.258  -4.610   0.957  1.00  0.00     0.047 A 
ATOM     33  N   UNL     1       8.825  -2.486  -0.016  1.00  0.00    -0.239 NA
ATOM     34  C   UNL     1      10.628  -4.485   0.762  1.00  0.00     0.005 A 
ATOM     35  C   UNL     1      10.169  -2.386  -0.207  1.00  0.00     0.113 A 
ATOM     36  C   UNL     1      11.102  -3.333   0.182  1.00  0.00     0.020 A 
ENDBRANCH  30  31
ENDBRANCH  10  25
ENDBRANCH   3   5
ENDBRANCH   2   3
ENDBRANCH   1   2
BRANCH   1  37
ATOM     37  C   UNL     1       3.301  -1.598   4.782  1.00  0.00     0.275 C 
BRANCH  37  38
ATOM     38  O   UNL     1       4.256  -2.452   4.127  1.00  0.00    -0.458 OA
BRANCH  38  39
ATOM     39  C   UNL     1       4.028  -3.773   4.271  1.00  0.00     0.338 C 
ATOM     40  O   UNL     1       3.278  -4.328   5.054  1.00  0.00    -0.246 OA
BRANCH  39  41
ATOM     41  C   UNL     1       4.775  -4.518   3.257  1.00  0.00     0.060 A 
ATOM     42  C   UNL     1       4.897  -3.974   1.596  1.00  0.00     0.016 A 
ATOM     43  C   UNL     1       5.327  -6.121   3.585  1.00  0.00     0.016 A 
ATOM     44  C   UNL     1       5.545  -5.226   0.234  1.00  0.00     0.010 A 
ATOM     45  C   UNL     1       5.974  -7.194   2.369  1.00  0.00     0.010 A 
ATOM     46  C   UNL     1       6.146  -6.800   0.668  1.00  0.00    -0.014 A 
BRANCH  46  47
ATOM     47  C   UNL     1       6.978  -7.623  -0.319  1.00  0.00     0.031 A 
ATOM     48  C   UNL     1       7.088  -9.117  -0.117  1.00  0.00     0.074 A 
ATOM     49  C   UNL     1       7.728  -7.089  -1.329  1.00  0.00     0.049 A 
ATOM     50  N   UNL     1       7.970  -9.964  -0.587  1.00  0.00    -0.248 NA
ATOM     51  C   UNL     1       6.079  -9.736   0.749  1.00  0.00     0.031 C 
ATOM     52  C   UNL     1       7.734  -5.708  -1.792  1.00  0.00     0.029 A 
ATOM     53  N   UNL     1       8.708  -7.646  -2.144  1.00  0.00    -0.354 N 
ATOM     54  C   UNL     1       7.639 -11.201  -0.041  1.00  0.00     0.074 A 
ATOM     55  C   UNL     1       6.551 -10.966   0.883  1.00  0.00     0.031 C 
ATOM     56  C   UNL     1       8.679  -5.486  -2.705  1.00  0.00     0.029 A 
ATOM     57  C   UNL     1       9.402  -6.711  -2.903  1.00  0.00     0.049 A 
ATOM     58  H   UNL     1       8.893  -8.612  -2.179  1.00  0.00     0.167 HD
ATOM     59  C   UNL     1       8.148 -12.427  -0.327  1.00  0.00     0.034 A 
ATOM     60  C   UNL     1      10.520  -6.756  -3.654  1.00  0.00     0.034 A 
ATOM     61  C   UNL     1       9.176 -12.656  -1.316  1.00  0.00     0.049 A 
ATOM     62  C   UNL     1      11.161  -8.077  -3.859  1.00  0.00     0.074 A 
ATOM     63  C   UNL     1       9.688 -13.863  -1.760  1.00  0.00     0.029 A 
ATOM     64  N   UNL     1       9.852 -11.662  -2.014  1.00  0.00    -0.354 N 
ATOM     65  N   UNL     1      10.824  -9.226  -3.331  1.00  0.00    -0.248 NA
ATOM     66  C   UNL     1      12.287  -8.122  -4.792  1.00  0.00     0.031 C 
ATOM     67  C   UNL     1      10.728 -13.597  -2.658  1.00  0.00     0.029 A 
ATOM     68  C   UNL     1      10.815 -12.227  -2.840  1.00  0.00     0.049 A 
ATOM     69  H   UNL     1       9.673 -10.697  -1.935  1.00  0.00     0.167 HD
ATOM     70  C   UNL     1      11.675 -10.154  -3.903  1.00  0.00     0.074 A 
ATOM     71  C   UNL     1      12.541  -9.422  -4.812  1.00  0.00     0.031 C 
ATOM     72  C   UNL     1      11.709 -11.494  -3.705  1.00  0.00     0.034 A 
BRANCH  59  73
ATOM     73  C   UNL     1       7.607 -13.606   0.456  1.00  0.00     0.023 A 
ATOM     74  C   UNL     1       6.244 -13.955   0.441  1.00  0.00     0.031 A 
ATOM     75  C   UNL     1       8.461 -14.357   1.283  1.00  0.00     0.131 A 
ATOM     76  C   UNL     1       5.760 -14.940   1.316  1.00  0.00     0.055 A 
ATOM     77  C   UNL     1       7.989 -15.407   2.075  1.00  0.00     0.041 A 
ATOM     78  F   UNL     1       9.770 -14.068   1.357  1.00  0.00    -0.206 F 
ATOM     79  C   UNL     1       6.627 -15.688   2.114  1.00  0.00     0.022 A 
BRANCH  76  80
ATOM     80  S   UNL     1       3.964 -15.085   1.544  1.00  0.00     0.124 S 
ATOM     81  O   UNL     1       3.609 -13.726   1.948  1.00  0.00    -0.237 OA
ATOM     82  O   UNL     1       3.511 -15.496   0.221  1.00  0.00    -0.237 OA
ATOM     83  O   UNL     1       3.832 -16.093   2.594  1.00  0.00    -0.744 OA
ENDBRANCH  76  80
ENDBRANCH  59  73
BRANCH  60  84
ATOM     84  C   UNL     1      11.111  -5.497  -4.207  1.00  0.00     0.023 A 
ATOM     85  C   UNL     1      11.010  -5.141  -5.560  1.00  0.00     0.031 A 
ATOM     86  C   UNL     1      11.762  -4.599  -3.341  1.00  0.00     0.131 A 
ATOM     87  C   UNL     1      11.539  -3.912  -6.000  1.00  0.00     0.055 A 
ATOM     88  C   UNL     1      12.231  -3.355  -3.769  1.00  0.00     0.041 A 
ATOM     89  F   UNL     1      11.948  -4.928  -2.055  1.00  0.00    -0.206 F 
ATOM     90  C   UNL     1      12.119  -3.005  -5.109  1.00  0.00     0.022 A 
BRANCH  87  91
ATOM     91  S   UNL     1      11.523  -3.532  -7.776  1.00  0.00     0.124 S 
ATOM     92  O   UNL     1      12.266  -4.658  -8.329  1.00  0.00    -0.237 OA
ATOM     93  O   UNL     1      10.094  -3.499  -8.068  1.00  0.00    -0.237 OA
ATOM     94  O   UNL     1      12.201  -2.239  -7.855  1.00  0.00    -0.744 OA
ENDBRANCH  87  91
ENDBRANCH  60  84
BRANCH  72  95
ATOM     95  C   UNL     1      12.720 -12.247  -4.518  1.00  0.00     0.023 A 
ATOM     96  C   UNL     1      14.096 -12.057  -4.315  1.00  0.00     0.031 A 
ATOM     97  C   UNL     1      12.306 -13.105  -5.549  1.00  0.00     0.131 A 
ATOM     98  C   UNL     1      15.012 -12.660  -5.185  1.00  0.00     0.055 A 
ATOM     99  C   UNL     1      13.226 -13.765  -6.362  1.00  0.00     0.041 A 
ATOM    100  F   UNL     1      11.000 -13.302  -5.793  1.00  0.00    -0.206 F 
ATOM    101  C   UNL     1      14.588 -13.531  -6.192  1.00  0.00     0.022 A 
BRANCH  98 102
ATOM    102  S   UNL     1      16.756 -12.184  -5.058  1.00  0.00     0.124 S 
ATOM    103  O   UNL     1      16.697 -10.756  -5.357  1.00  0.00    -0.237 OA
ATOM    104  O   UNL     1      17.077 -12.533  -3.679  1.00  0.00    -0.237 OA
ATOM    105  O   UNL     1      17.408 -13.006  -6.075  1.00  0.00    -0.744 OA
ENDBRANCH  98 102
ENDBRANCH  72  95
ENDBRANCH  46  47
ENDBRANCH  39  41
ENDBRANCH  38  39
ENDBRANCH  37  38
ENDBRANCH   1  37
TORSDOF 19
