REMARK SMILES C[C@@]1(C(=O)OCCOC(=O)c2ccc(-c3c4nc(c(-c5cc(S(=O)(=O)[O-])ccc5F)c5ccc([nH]5)c(-c5cc(S(=O)(=O)[O-])ccc5F)c5nc(c(-c6cc(S(=O)(=O)[O-])ccc6F)c6ccc3[nH]6)C=C5)C=C4)cc2)COC[C@H]1NC(=O)C[C@@H]1C[NH2+]CCO1
REMARK SMILES IDX 6 1 5 2 3 3 4 4 2 5 1 6 74 7 77 8 75 9 76 10 78 11 79 12
REMARK SMILES IDX 80 14 81 15 82 16 83 17 87 18 84 19 86 20 85 21 7 24 8 25
REMARK SMILES IDX 9 26 10 27 11 28 12 29 73 30 13 31 72 32 14 33 15 34 16 35
REMARK SMILES IDX 66 36 17 37 71 38 65 39 67 40 18 41 70 42 64 43 63 44 19 46
REMARK SMILES IDX 51 47 31 48 50 49 32 50 35 51 49 52 68 53 33 54 34 55 48 57
REMARK SMILES IDX 69 58 36 59 20 60 21 61 29 62 22 63 28 64 30 65 27 66 23 67
REMARK SMILES IDX 24 68 25 69 26 70 52 71 53 72 61 73 54 74 60 75 62 76 59 77
REMARK SMILES IDX 55 78 56 79 57 80 58 81 37 82 38 83 46 84 39 85 45 86 47 87
REMARK SMILES IDX 44 88 40 89 41 90 42 91 43 92
REMARK H PARENT 78 13 84 22 84 23 67 45 35 56
REMARK Flexibility Score: inf
ROOT
ATOM      1  C   UNL     1       1.052  -0.526  -4.449  1.00  0.00     0.274 C 
ENDROOT
BRANCH   1   2
ATOM      2  O   UNL     1       0.884   0.417  -3.369  1.00  0.00    -0.462 OA
BRANCH   2   3
ATOM      3  C   UNL     1       0.157  -0.029  -2.309  1.00  0.00     0.316 C 
ATOM      4  O   UNL     1      -0.248  -1.182  -2.203  1.00  0.00    -0.251 OA
BRANCH   3   5
ATOM      5  C   UNL     1      -0.177   1.057  -1.283  1.00  0.00     0.111 C 
ATOM      6  C   UNL     1      -0.063   0.446   0.123  1.00  0.00     0.028 C 
ATOM      7  C   UNL     1      -1.609   1.488  -1.570  1.00  0.00     0.181 C 
ATOM      8  C   UNL     1       0.610   2.361  -1.464  1.00  0.00     0.127 C 
ATOM      9  O   UNL     1      -1.545   2.553  -2.526  1.00  0.00    -0.378 OA
ATOM     10  C   UNL     1      -0.252   3.168  -2.442  1.00  0.00     0.186 C 
BRANCH   8  11
ATOM     11  N   UNL     1       0.789   3.098  -0.208  1.00  0.00    -0.350 N 
ATOM     12  C   UNL     1       1.812   3.878   0.227  1.00  0.00     0.223 C 
ATOM     13  H   UNL     1       0.041   3.011   0.426  1.00  0.00     0.163 HD
ATOM     14  O   UNL     1       1.673   4.428   1.320  1.00  0.00    -0.275 OA
BRANCH  12  15
ATOM     15  C   UNL     1       3.046   4.106  -0.613  1.00  0.00     0.138 C 
BRANCH  15  16
ATOM     16  C   UNL     1       3.991   2.919  -0.788  1.00  0.00     0.182 C 
ATOM     17  C   UNL     1       4.102   2.013   0.455  1.00  0.00     0.293 C 
ATOM     18  O   UNL     1       5.283   3.463  -1.143  1.00  0.00    -0.366 OA
ATOM     19  N   UNL     1       5.048   0.911   0.202  1.00  0.00    -0.342 N 
ATOM     20  C   UNL     1       6.266   2.434  -1.327  1.00  0.00     0.222 C 
ATOM     21  C   UNL     1       6.360   1.498  -0.117  1.00  0.00     0.289 C 
ATOM     22  H   UNL     1       4.721   0.349  -0.584  1.00  0.00     0.346 HD
ATOM     23  H   UNL     1       5.120   0.312   1.024  1.00  0.00     0.346 HD
ENDBRANCH  15  16
ENDBRANCH  12  15
ENDBRANCH   8  11
ENDBRANCH   3   5
ENDBRANCH   2   3
ENDBRANCH   1   2
BRANCH   1  24
ATOM     24  C   UNL     1       2.445  -1.151  -4.462  1.00  0.00     0.275 C 
BRANCH  24  25
ATOM     25  O   UNL     1       2.715  -1.849  -3.233  1.00  0.00    -0.458 OA
BRANCH  25  26
ATOM     26  C   UNL     1       3.674  -1.285  -2.467  1.00  0.00     0.338 C 
ATOM     27  O   UNL     1       4.313  -0.273  -2.710  1.00  0.00    -0.246 OA
BRANCH  26  28
ATOM     28  C   UNL     1       3.835  -1.981  -1.183  1.00  0.00     0.060 A 
ATOM     29  C   UNL     1       2.852  -1.796  -0.215  1.00  0.00     0.016 A 
ATOM     30  C   UNL     1       5.086  -2.496  -0.832  1.00  0.00     0.016 A 
ATOM     31  C   UNL     1       3.163  -2.003   1.127  1.00  0.00     0.010 A 
ATOM     32  C   UNL     1       5.363  -2.791   0.508  1.00  0.00     0.010 A 
ATOM     33  C   UNL     1       4.425  -2.494   1.510  1.00  0.00    -0.014 A 
BRANCH  33  34
ATOM     34  C   UNL     1       4.733  -2.702   2.954  1.00  0.00     0.031 A 
ATOM     35  C   UNL     1       5.808  -1.911   3.661  1.00  0.00     0.074 A 
ATOM     36  C   UNL     1       4.003  -3.595   3.649  1.00  0.00     0.049 A 
ATOM     37  N   UNL     1       6.205  -1.983   4.909  1.00  0.00    -0.248 NA
ATOM     38  C   UNL     1       6.527  -0.905   2.870  1.00  0.00     0.031 C 
ATOM     39  C   UNL     1       2.915  -4.404   3.095  1.00  0.00     0.029 A 
ATOM     40  N   UNL     1       4.059  -3.970   4.966  1.00  0.00    -0.354 N 
ATOM     41  C   UNL     1       7.208  -1.027   5.053  1.00  0.00     0.074 A 
ATOM     42  C   UNL     1       7.381  -0.408   3.756  1.00  0.00     0.031 C 
ATOM     43  C   UNL     1       2.392  -5.161   4.069  1.00  0.00     0.029 A 
ATOM     44  C   UNL     1       3.156  -4.953   5.293  1.00  0.00     0.049 A 
ATOM     45  H   UNL     1       4.684  -3.573   5.615  1.00  0.00     0.167 HD
ATOM     46  C   UNL     1       7.919  -0.696   6.161  1.00  0.00     0.034 A 
ATOM     47  C   UNL     1       2.985  -5.649   6.432  1.00  0.00     0.034 A 
ATOM     48  C   UNL     1       7.759  -1.338   7.446  1.00  0.00     0.049 A 
ATOM     49  C   UNL     1       3.864  -5.349   7.611  1.00  0.00     0.074 A 
ATOM     50  C   UNL     1       8.412  -1.060   8.636  1.00  0.00     0.029 A 
ATOM     51  N   UNL     1       6.904  -2.400   7.706  1.00  0.00    -0.354 N 
ATOM     52  N   UNL     1       4.813  -4.451   7.725  1.00  0.00    -0.248 NA
ATOM     53  C   UNL     1       3.649  -6.163   8.812  1.00  0.00     0.031 C 
ATOM     54  C   UNL     1       8.010  -2.003   9.591  1.00  0.00     0.029 A 
ATOM     55  C   UNL     1       7.050  -2.823   9.021  1.00  0.00     0.049 A 
ATOM     56  H   UNL     1       6.283  -2.796   7.053  1.00  0.00     0.167 HD
ATOM     57  C   UNL     1       5.310  -4.590   9.016  1.00  0.00     0.074 A 
ATOM     58  C   UNL     1       4.535  -5.641   9.647  1.00  0.00     0.031 C 
ATOM     59  C   UNL     1       6.314  -3.909   9.625  1.00  0.00     0.034 A 
BRANCH  46  60
ATOM     60  C   UNL     1       8.984   0.368   6.027  1.00  0.00     0.023 A 
ATOM     61  C   UNL     1       8.669   1.723   5.821  1.00  0.00     0.031 A 
ATOM     62  C   UNL     1      10.341   0.016   6.142  1.00  0.00     0.131 A 
ATOM     63  C   UNL     1       9.701   2.672   5.711  1.00  0.00     0.055 A 
ATOM     64  C   UNL     1      11.359   0.970   6.083  1.00  0.00     0.041 A 
ATOM     65  F   UNL     1      10.701  -1.265   6.319  1.00  0.00    -0.206 F 
ATOM     66  C   UNL     1      11.042   2.306   5.861  1.00  0.00     0.022 A 
BRANCH  63  67
ATOM     67  S   UNL     1       9.282   4.387   5.289  1.00  0.00     0.124 S 
ATOM     68  O   UNL     1       8.598   4.220   4.010  1.00  0.00    -0.237 OA
ATOM     69  O   UNL     1       8.450   4.794   6.416  1.00  0.00    -0.237 OA
ATOM     70  O   UNL     1      10.583   5.048   5.207  1.00  0.00    -0.744 OA
ENDBRANCH  63  67
ENDBRANCH  46  60
BRANCH  47  71
ATOM     71  C   UNL     1       1.988  -6.753   6.470  1.00  0.00     0.023 A 
ATOM     72  C   UNL     1       0.840  -6.672   7.269  1.00  0.00     0.031 A 
ATOM     73  C   UNL     1       2.174  -7.905   5.683  1.00  0.00     0.131 A 
ATOM     74  C   UNL     1      -0.077  -7.735   7.273  1.00  0.00     0.055 A 
ATOM     75  C   UNL     1       1.238  -8.937   5.656  1.00  0.00     0.041 A 
ATOM     76  F   UNL     1       3.258  -8.024   4.899  1.00  0.00    -0.206 F 
ATOM     77  C   UNL     1       0.106  -8.857   6.460  1.00  0.00     0.022 A 
BRANCH  74  78
ATOM     78  S   UNL     1      -1.502  -7.650   8.390  1.00  0.00     0.124 S 
ATOM     79  O   UNL     1      -0.855  -7.545   9.693  1.00  0.00    -0.237 OA
ATOM     80  O   UNL     1      -2.189  -6.453   7.915  1.00  0.00    -0.237 OA
ATOM     81  O   UNL     1      -2.205  -8.907   8.141  1.00  0.00    -0.744 OA
ENDBRANCH  74  78
ENDBRANCH  47  71
BRANCH  59  82
ATOM     82  C   UNL     1       6.615  -4.295  11.051  1.00  0.00     0.023 A 
ATOM     83  C   UNL     1       7.146  -5.558  11.368  1.00  0.00     0.031 A 
ATOM     84  C   UNL     1       6.304  -3.423  12.108  1.00  0.00     0.131 A 
ATOM     85  C   UNL     1       7.281  -5.943  12.710  1.00  0.00     0.055 A 
ATOM     86  C   UNL     1       6.498  -3.788  13.441  1.00  0.00     0.041 A 
ATOM     87  F   UNL     1       5.790  -2.207  11.863  1.00  0.00    -0.206 F 
ATOM     88  C   UNL     1       6.971  -5.061  13.749  1.00  0.00     0.022 A 
BRANCH  85  89
ATOM     89  S   UNL     1       7.745  -7.657  13.081  1.00  0.00     0.124 S 
ATOM     90  O   UNL     1       6.721  -8.412  12.364  1.00  0.00    -0.237 OA
ATOM     91  O   UNL     1       9.096  -7.739  12.536  1.00  0.00    -0.237 OA
ATOM     92  O   UNL     1       7.658  -7.729  14.538  1.00  0.00    -0.744 OA
ENDBRANCH  85  89
ENDBRANCH  59  82
ENDBRANCH  33  34
ENDBRANCH  26  28
ENDBRANCH  25  26
ENDBRANCH  24  25
ENDBRANCH   1  24
TORSDOF 17
