REMARK SMILES CC(C)N(c1cc2c(cc1Cl)C=C(C(=O)OCCOC(=O)c1ccc(-c3c4nc(c(-c5cc(S(=O)(=O)[O-])ccc5F)c5ccc([nH]5)c(-c5cc(S(=O)(=O)[O-])ccc5F)c5nc(c(-c6cc(S(=O)(=O)[O-])ccc6F)c6ccc3[nH]6)C=C5)C=C4)cc1)[C@@H](C(F)(F)F)O2)C(C)C
REMARK SMILES IDX 18 1 17 2 16 3 14 4 15 5 13 6 5 7 6 8 10 9 7 10 9 11 11 12
REMARK SMILES IDX 8 13 90 14 12 15 85 16 4 17 2 18 1 19 3 20 91 21 92 22 93 23
REMARK SMILES IDX 86 24 87 25 88 26 89 27 19 28 20 29 21 30 22 31 23 32 84 33
REMARK SMILES IDX 24 34 83 35 25 36 26 37 27 38 77 39 28 40 82 41 76 42 78 43
REMARK SMILES IDX 29 44 81 45 75 46 74 47 30 49 62 50 42 51 61 52 43 53 46 54
REMARK SMILES IDX 60 55 79 56 44 57 45 58 59 60 80 61 47 62 31 63 32 64 40 65
REMARK SMILES IDX 33 66 39 67 41 68 38 69 34 70 35 71 36 72 37 73 63 74 64 75
REMARK SMILES IDX 72 76 65 77 71 78 73 79 70 80 66 81 67 82 68 83 69 84 48 85
REMARK SMILES IDX 49 86 57 87 50 88 56 89 58 90 55 91 51 92 52 93 53 94 54 95
REMARK H PARENT 78 48 46 59
REMARK Flexibility Score: inf
ROOT
ATOM      1  C   UNL     1      -6.305   9.546   1.188  1.00  0.00     0.275 C 
ENDROOT
BRANCH   1   2
ATOM      2  C   UNL     1      -7.110   8.276   0.906  1.00  0.00     0.275 C 
BRANCH   2   3
ATOM      3  O   UNL     1      -6.278   7.095   0.956  1.00  0.00    -0.459 OA
BRANCH   3   4
ATOM      4  C   UNL     1      -5.955   6.567  -0.247  1.00  0.00     0.338 C 
ATOM      5  O   UNL     1      -6.317   6.979  -1.339  1.00  0.00    -0.246 OA
BRANCH   4   6
ATOM      6  C   UNL     1      -5.049   5.414  -0.093  1.00  0.00     0.087 C 
ATOM      7  C   UNL     1      -1.573   1.865  -1.044  1.00  0.00     0.060 A 
ATOM      8  C   UNL     1      -2.630   2.004  -0.107  1.00  0.00     0.074 A 
ATOM      9  C   UNL     1      -1.321   2.969  -1.890  1.00  0.00     0.065 A 
ATOM     10  C   UNL     1      -3.423   3.154  -0.043  1.00  0.00     0.130 A 
ATOM     11  C   UNL     1      -2.076   4.138  -1.786  1.00  0.00     0.034 A 
ATOM     12  Cl  UNL     1      -0.185   2.952  -3.196  1.00  0.00    -0.082 Cl
ATOM     13  C   UNL     1      -3.135   4.216  -0.885  1.00  0.00     0.019 A 
ATOM     14  O   UNL     1      -4.456   3.172   0.857  1.00  0.00    -0.475 OA
ATOM     15  C   UNL     1      -3.970   5.392  -0.880  1.00  0.00     0.027 C 
ATOM     16  C   UNL     1      -5.434   4.260   0.785  1.00  0.00     0.316 C 
BRANCH   7  17
ATOM     17  N   UNL     1      -0.863   0.646  -1.106  1.00  0.00    -0.365 N 
BRANCH  17  18
ATOM     18  C   UNL     1       0.617   0.711  -1.044  1.00  0.00     0.076 C 
ATOM     19  C   UNL     1       1.175   0.138   0.258  1.00  0.00     0.030 C 
ATOM     20  C   UNL     1       1.315   0.081  -2.248  1.00  0.00     0.030 C 
ENDBRANCH  17  18
BRANCH  17  21
ATOM     21  C   UNL     1      -1.682  -0.578  -1.226  1.00  0.00     0.076 C 
ATOM     22  C   UNL     1      -1.475  -1.312  -2.547  1.00  0.00     0.030 C 
ATOM     23  C   UNL     1      -1.531  -1.514  -0.032  1.00  0.00     0.030 C 
ENDBRANCH  17  21
ENDBRANCH   7  17
BRANCH  16  24
ATOM     24  C   UNL     1      -6.798   3.684   0.366  1.00  0.00     0.430 C 
ATOM     25  F   UNL     1      -7.154   2.635   1.147  1.00  0.00    -0.167 F 
ATOM     26  F   UNL     1      -7.786   4.605   0.495  1.00  0.00    -0.167 F 
ATOM     27  F   UNL     1      -6.809   3.257  -0.916  1.00  0.00    -0.167 F 
ENDBRANCH  16  24
ENDBRANCH   4   6
ENDBRANCH   3   4
ENDBRANCH   2   3
ENDBRANCH   1   2
BRANCH   1  28
ATOM     28  O   UNL     1      -5.398   9.822   0.106  1.00  0.00    -0.458 OA
BRANCH  28  29
ATOM     29  C   UNL     1      -4.096   9.560   0.362  1.00  0.00     0.338 C 
ATOM     30  O   UNL     1      -3.617   9.149   1.404  1.00  0.00    -0.246 OA
BRANCH  29  31
ATOM     31  C   UNL     1      -3.305   9.755  -0.862  1.00  0.00     0.060 A 
ATOM     32  C   UNL     1      -2.384  10.788  -0.980  1.00  0.00     0.016 A 
ATOM     33  C   UNL     1      -3.382   8.780  -1.848  1.00  0.00     0.016 A 
ATOM     34  C   UNL     1      -1.552  10.831  -2.107  1.00  0.00     0.010 A 
ATOM     35  C   UNL     1      -2.439   8.728  -2.869  1.00  0.00     0.010 A 
ATOM     36  C   UNL     1      -1.533   9.777  -3.046  1.00  0.00    -0.014 A 
BRANCH  36  37
ATOM     37  C   UNL     1      -0.586   9.770  -4.205  1.00  0.00     0.031 A 
ATOM     38  C   UNL     1      -1.083   9.584  -5.624  1.00  0.00     0.074 A 
ATOM     39  C   UNL     1       0.740   9.890  -3.983  1.00  0.00     0.049 A 
ATOM     40  N   UNL     1      -0.399   9.577  -6.741  1.00  0.00    -0.248 NA
ATOM     41  C   UNL     1      -2.520   9.325  -5.817  1.00  0.00     0.031 C 
ATOM     42  C   UNL     1       1.367   9.951  -2.661  1.00  0.00     0.029 A 
ATOM     43  N   UNL     1       1.800   9.998  -4.852  1.00  0.00    -0.354 N 
ATOM     44  C   UNL     1      -1.315   9.289  -7.751  1.00  0.00     0.074 A 
ATOM     45  C   UNL     1      -2.581   9.037  -7.108  1.00  0.00     0.031 C 
ATOM     46  C   UNL     1       2.682  10.171  -2.805  1.00  0.00     0.029 A 
ATOM     47  C   UNL     1       3.009  10.215  -4.228  1.00  0.00     0.049 A 
ATOM     48  H   UNL     1       1.704   9.927  -5.829  1.00  0.00     0.167 HD
ATOM     49  C   UNL     1      -1.135   9.288  -9.094  1.00  0.00     0.034 A 
ATOM     50  C   UNL     1       4.239  10.446  -4.735  1.00  0.00     0.034 A 
ATOM     51  C   UNL     1       0.116   9.614  -9.726  1.00  0.00     0.049 A 
ATOM     52  C   UNL     1       4.405  10.523  -6.232  1.00  0.00     0.074 A 
ATOM     53  C   UNL     1       0.380   9.742 -11.078  1.00  0.00     0.029 A 
ATOM     54  N   UNL     1       1.301   9.882  -9.059  1.00  0.00    -0.354 N 
ATOM     55  N   UNL     1       3.498  10.374  -7.169  1.00  0.00    -0.248 NA
ATOM     56  C   UNL     1       5.751  10.814  -6.747  1.00  0.00     0.031 C 
ATOM     57  C   UNL     1       1.735  10.033 -11.231  1.00  0.00     0.029 A 
ATOM     58  C   UNL     1       2.303  10.159  -9.973  1.00  0.00     0.049 A 
ATOM     59  H   UNL     1       1.414   9.876  -8.081  1.00  0.00     0.167 HD
ATOM     60  C   UNL     1       4.157  10.574  -8.379  1.00  0.00     0.074 A 
ATOM     61  C   UNL     1       5.534  10.885  -8.054  1.00  0.00     0.031 C 
ATOM     62  C   UNL     1       3.667  10.497  -9.641  1.00  0.00     0.034 A 
BRANCH  49  63
ATOM     63  C   UNL     1      -2.318   8.997  -9.991  1.00  0.00     0.023 A 
ATOM     64  C   UNL     1      -2.276   7.920 -10.897  1.00  0.00     0.031 A 
ATOM     65  C   UNL     1      -3.425   9.865 -10.046  1.00  0.00     0.131 A 
ATOM     66  C   UNL     1      -3.303   7.759 -11.837  1.00  0.00     0.055 A 
ATOM     67  C   UNL     1      -4.471   9.669 -10.949  1.00  0.00     0.041 A 
ATOM     68  F   UNL     1      -3.512  10.915  -9.214  1.00  0.00    -0.206 F 
ATOM     69  C   UNL     1      -4.405   8.620 -11.860  1.00  0.00     0.022 A 
BRANCH  66  70
ATOM     70  S   UNL     1      -3.217   6.476 -13.117  1.00  0.00     0.124 S 
ATOM     71  O   UNL     1      -4.444   5.721 -12.868  1.00  0.00    -0.237 OA
ATOM     72  O   UNL     1      -3.213   7.270 -14.343  1.00  0.00    -0.237 OA
ATOM     73  O   UNL     1      -1.979   5.765 -12.820  1.00  0.00    -0.744 OA
ENDBRANCH  66  70
ENDBRANCH  49  63
BRANCH  50  74
ATOM     74  C   UNL     1       5.371  10.726  -3.799  1.00  0.00     0.023 A 
ATOM     75  C   UNL     1       5.798   9.767  -2.862  1.00  0.00     0.031 A 
ATOM     76  C   UNL     1       5.955  12.004  -3.746  1.00  0.00     0.131 A 
ATOM     77  C   UNL     1       6.724  10.124  -1.871  1.00  0.00     0.055 A 
ATOM     78  C   UNL     1       6.933  12.332  -2.804  1.00  0.00     0.041 A 
ATOM     79  F   UNL     1       5.570  12.959  -4.606  1.00  0.00    -0.206 F 
ATOM     80  C   UNL     1       7.307  11.395  -1.847  1.00  0.00     0.022 A 
BRANCH  77  81
ATOM     81  S   UNL     1       7.089   9.003  -0.491  1.00  0.00     0.124 S 
ATOM     82  O   UNL     1       8.522   8.779  -0.652  1.00  0.00    -0.237 OA
ATOM     83  O   UNL     1       6.703   9.814   0.662  1.00  0.00    -0.237 OA
ATOM     84  O   UNL     1       6.235   7.849  -0.749  1.00  0.00    -0.744 OA
ENDBRANCH  77  81
ENDBRANCH  50  74
BRANCH  62  85
ATOM     85  C   UNL     1       4.595  10.756 -10.803  1.00  0.00     0.023 A 
ATOM     86  C   UNL     1       4.332  11.823 -11.685  1.00  0.00     0.031 A 
ATOM     87  C   UNL     1       5.612   9.848 -11.141  1.00  0.00     0.131 A 
ATOM     88  C   UNL     1       5.041  11.922 -12.889  1.00  0.00     0.055 A 
ATOM     89  C   UNL     1       6.351   9.982 -12.317  1.00  0.00     0.041 A 
ATOM     90  F   UNL     1       5.891   8.807 -10.340  1.00  0.00    -0.206 F 
ATOM     91  C   UNL     1       6.054  11.012 -13.206  1.00  0.00     0.022 A 
BRANCH  88  92
ATOM     92  S   UNL     1       4.603  13.169 -14.132  1.00  0.00     0.124 S 
ATOM     93  O   UNL     1       5.846  13.928 -14.249  1.00  0.00    -0.237 OA
ATOM     94  O   UNL     1       4.266  12.344 -15.289  1.00  0.00    -0.237 OA
ATOM     95  O   UNL     1       3.488  13.892 -13.530  1.00  0.00    -0.744 OA
ENDBRANCH  88  92
ENDBRANCH  62  85
ENDBRANCH  36  37
ENDBRANCH  29  31
ENDBRANCH  28  29
ENDBRANCH   1  28
TORSDOF 18
