REMARK SMILES O=C(NCC(=O)OCCOC(=O)c1ccc(-c2c3nc(c(-c4cc(S(=O)(=O)[O-])ccc4F)c4ccc([nH]4)c(-c4cc(S(=O)(=O)[O-])ccc4F)c4nc(c(-c5cc(S(=O)(=O)[O-])ccc5F)c5ccc2[nH]5)C=C4)C=C3)cc1)Nc1cccc2c1CCCC2
REMARK SMILES IDX 9 1 8 2 7 3 5 4 6 5 4 6 3 7 1 8 2 9 76 10 77 13 78 14 82 15
REMARK SMILES IDX 79 16 81 17 83 18 80 19 86 20 84 21 85 22 10 23 11 24 12 25
REMARK SMILES IDX 13 26 14 27 75 28 15 29 74 30 16 31 17 32 18 33 68 34 19 35
REMARK SMILES IDX 73 36 67 37 69 38 20 39 72 40 66 41 65 42 21 44 53 45 33 46
REMARK SMILES IDX 52 47 34 48 37 49 51 50 70 51 35 52 36 53 50 55 71 56 38 57
REMARK SMILES IDX 22 58 23 59 31 60 24 61 30 62 32 63 29 64 25 65 26 66 27 67
REMARK SMILES IDX 28 68 54 69 55 70 63 71 56 72 62 73 64 74 61 75 57 76 58 77
REMARK SMILES IDX 59 78 60 79 39 80 40 81 48 82 41 83 47 84 49 85 46 86 42 87
REMARK SMILES IDX 43 88 44 89 45 90
REMARK H PARENT 3 11 76 12 69 43 37 54
REMARK Flexibility Score: inf
ROOT
ATOM      1  C   UNL     1       4.502  -0.134   5.053  1.00  0.00     0.275 C 
ENDROOT
BRANCH   1   2
ATOM      2  C   UNL     1       5.007   0.955   4.100  1.00  0.00     0.274 C 
BRANCH   2   3
ATOM      3  O   UNL     1       4.380   0.863   2.809  1.00  0.00    -0.461 OA
BRANCH   3   4
ATOM      4  C   UNL     1       5.117   0.295   1.815  1.00  0.00     0.325 C 
ATOM      5  O   UNL     1       6.279  -0.077   1.931  1.00  0.00    -0.250 OA
BRANCH   4   6
ATOM      6  C   UNL     1       4.322   0.106   0.524  1.00  0.00     0.240 C 
BRANCH   6   7
ATOM      7  N   UNL     1       2.984   0.672   0.556  1.00  0.00    -0.327 N 
ATOM      8  O   UNL     1       1.253   1.971   0.105  1.00  0.00    -0.248 OA
ATOM      9  C   UNL     1       2.366   1.584  -0.242  1.00  0.00     0.319 C 
ATOM     10  N   UNL     1       3.023   1.916  -1.411  1.00  0.00    -0.308 N 
ATOM     11  H   UNL     1       2.422   0.334   1.290  1.00  0.00     0.166 HD
ATOM     12  H   UNL     1       3.984   1.717  -1.490  1.00  0.00     0.171 HD
BRANCH  10  13
ATOM     13  C   UNL     1       2.355   2.536  -2.507  1.00  0.00     0.046 A 
ATOM     14  C   UNL     1       2.258   1.720  -3.629  1.00  0.00     0.026 A 
ATOM     15  C   UNL     1       1.358   3.491  -2.312  1.00  0.00    -0.021 A 
ATOM     16  C   UNL     1       1.005   1.566  -4.224  1.00  0.00     0.002 A 
ATOM     17  C   UNL     1       0.052   3.179  -2.699  1.00  0.00    -0.043 A 
ATOM     18  C   UNL     1       1.688   4.961  -2.596  1.00  0.00     0.038 C 
ATOM     19  C   UNL     1      -0.118   2.204  -3.679  1.00  0.00     0.004 A 
ATOM     20  C   UNL     1      -1.072   3.995  -2.122  1.00  0.00     0.036 C 
ATOM     21  C   UNL     1       0.567   5.937  -2.210  1.00  0.00     0.005 C 
ATOM     22  C   UNL     1      -0.563   5.271  -1.428  1.00  0.00     0.005 C 
ENDBRANCH  10  13
ENDBRANCH   6   7
ENDBRANCH   4   6
ENDBRANCH   3   4
ENDBRANCH   2   3
ENDBRANCH   1   2
BRANCH   1  23
ATOM     23  O   UNL     1       4.990  -1.444   4.708  1.00  0.00    -0.458 OA
BRANCH  23  24
ATOM     24  C   UNL     1       4.248  -2.111   3.790  1.00  0.00     0.338 C 
ATOM     25  O   UNL     1       3.240  -1.712   3.234  1.00  0.00    -0.246 OA
BRANCH  24  26
ATOM     26  C   UNL     1       4.915  -3.373   3.425  1.00  0.00     0.060 A 
ATOM     27  C   UNL     1       5.244  -3.565   2.082  1.00  0.00     0.016 A 
ATOM     28  C   UNL     1       5.147  -4.381   4.363  1.00  0.00     0.016 A 
ATOM     29  C   UNL     1       5.794  -4.773   1.664  1.00  0.00     0.010 A 
ATOM     30  C   UNL     1       5.719  -5.589   3.944  1.00  0.00     0.010 A 
ATOM     31  C   UNL     1       6.042  -5.795   2.591  1.00  0.00    -0.014 A 
BRANCH  31  32
ATOM     32  C   UNL     1       6.653  -7.069   2.129  1.00  0.00     0.031 A 
ATOM     33  C   UNL     1       5.844  -8.334   2.093  1.00  0.00     0.074 A 
ATOM     34  C   UNL     1       7.936  -7.072   1.721  1.00  0.00     0.049 A 
ATOM     35  N   UNL     1       6.219  -9.546   1.771  1.00  0.00    -0.248 NA
ATOM     36  C   UNL     1       4.429  -8.221   2.473  1.00  0.00     0.031 C 
ATOM     37  C   UNL     1       8.806  -5.895   1.677  1.00  0.00     0.029 A 
ATOM     38  N   UNL     1       8.733  -8.091   1.265  1.00  0.00    -0.354 N 
ATOM     39  C   UNL     1       5.090 -10.346   1.917  1.00  0.00     0.074 A 
ATOM     40  C   UNL     1       4.027  -9.482   2.389  1.00  0.00     0.031 C 
ATOM     41  C   UNL     1      10.011  -6.257   1.211  1.00  0.00     0.029 A 
ATOM     42  C   UNL     1      10.022  -7.699   0.984  1.00  0.00     0.049 A 
ATOM     43  H   UNL     1       8.414  -9.015   1.150  1.00  0.00     0.167 HD
ATOM     44  C   UNL     1       4.958 -11.675   1.674  1.00  0.00     0.034 A 
ATOM     45  C   UNL     1      11.100  -8.422   0.622  1.00  0.00     0.034 A 
ATOM     46  C   UNL     1       6.036 -12.518   1.210  1.00  0.00     0.049 A 
ATOM     47  C   UNL     1      10.949  -9.912   0.448  1.00  0.00     0.074 A 
ATOM     48  C   UNL     1       6.004 -13.869   0.909  1.00  0.00     0.029 A 
ATOM     49  N   UNL     1       7.344 -12.099   0.995  1.00  0.00    -0.354 N 
ATOM     50  N   UNL     1       9.874 -10.654   0.582  1.00  0.00    -0.248 NA
ATOM     51  C   UNL     1      12.155 -10.659   0.075  1.00  0.00     0.031 C 
ATOM     52  C   UNL     1       7.304 -14.282   0.595  1.00  0.00     0.029 A 
ATOM     53  C   UNL     1       8.134 -13.173   0.611  1.00  0.00     0.049 A 
ATOM     54  H   UNL     1       7.663 -11.174   1.101  1.00  0.00     0.167 HD
ATOM     55  C   UNL     1      10.273 -11.955   0.286  1.00  0.00     0.074 A 
ATOM     56  C   UNL     1      11.679 -11.889  -0.056  1.00  0.00     0.031 C 
ATOM     57  C   UNL     1       9.543 -13.100   0.295  1.00  0.00     0.034 A 
BRANCH  44  58
ATOM     58  C   UNL     1       3.616 -12.308   1.960  1.00  0.00     0.023 A 
ATOM     59  C   UNL     1       2.456 -11.945   1.254  1.00  0.00     0.031 A 
ATOM     60  C   UNL     1       3.494 -13.283   2.967  1.00  0.00     0.131 A 
ATOM     61  C   UNL     1       1.217 -12.503   1.608  1.00  0.00     0.055 A 
ATOM     62  C   UNL     1       2.272 -13.893   3.260  1.00  0.00     0.041 A 
ATOM     63  F   UNL     1       4.561 -13.656   3.691  1.00  0.00    -0.206 F 
ATOM     64  C   UNL     1       1.121 -13.493   2.589  1.00  0.00     0.022 A 
BRANCH  61  65
ATOM     65  S   UNL     1      -0.289 -11.813   0.868  1.00  0.00     0.124 S 
ATOM     66  O   UNL     1      -0.190 -10.407   1.253  1.00  0.00    -0.237 OA
ATOM     67  O   UNL     1      -0.105 -12.103  -0.549  1.00  0.00    -0.237 OA
ATOM     68  O   UNL     1      -1.364 -12.555   1.523  1.00  0.00    -0.744 OA
ENDBRANCH  61  65
ENDBRANCH  44  58
BRANCH  45  69
ATOM     69  C   UNL     1      12.427  -7.763   0.452  1.00  0.00     0.023 A 
ATOM     70  C   UNL     1      13.088  -7.767  -0.785  1.00  0.00     0.031 A 
ATOM     71  C   UNL     1      13.075  -7.156   1.544  1.00  0.00     0.131 A 
ATOM     72  C   UNL     1      14.375  -7.216  -0.891  1.00  0.00     0.055 A 
ATOM     73  C   UNL     1      14.328  -6.555   1.419  1.00  0.00     0.041 A 
ATOM     74  F   UNL     1      12.490  -7.127   2.752  1.00  0.00    -0.206 F 
ATOM     75  C   UNL     1      14.992  -6.595   0.198  1.00  0.00     0.022 A 
BRANCH  72  76
ATOM     76  S   UNL     1      15.274  -7.406  -2.455  1.00  0.00     0.124 S 
ATOM     77  O   UNL     1      15.298  -8.856  -2.609  1.00  0.00    -0.237 OA
ATOM     78  O   UNL     1      14.419  -6.675  -3.385  1.00  0.00    -0.237 OA
ATOM     79  O   UNL     1      16.568  -6.785  -2.181  1.00  0.00    -0.744 OA
ENDBRANCH  72  76
ENDBRANCH  45  69
BRANCH  57  80
ATOM     80  C   UNL     1      10.257 -14.368  -0.110  1.00  0.00     0.023 A 
ATOM     81  C   UNL     1      11.302 -14.907   0.661  1.00  0.00     0.031 A 
ATOM     82  C   UNL     1       9.900 -15.036  -1.296  1.00  0.00     0.131 A 
ATOM     83  C   UNL     1      11.994 -16.041   0.208  1.00  0.00     0.055 A 
ATOM     84  C   UNL     1      10.547 -16.202  -1.707  1.00  0.00     0.041 A 
ATOM     85  F   UNL     1       8.914 -14.565  -2.076  1.00  0.00    -0.206 F 
ATOM     86  C   UNL     1      11.611 -16.703  -0.961  1.00  0.00     0.022 A 
BRANCH  83  87
ATOM     87  S   UNL     1      13.471 -16.579   1.113  1.00  0.00     0.124 S 
ATOM     88  O   UNL     1      14.318 -15.393   1.042  1.00  0.00    -0.237 OA
ATOM     89  O   UNL     1      12.932 -16.899   2.430  1.00  0.00    -0.237 OA
ATOM     90  O   UNL     1      13.946 -17.727   0.342  1.00  0.00    -0.744 OA
ENDBRANCH  83  87
ENDBRANCH  57  80
ENDBRANCH  31  32
ENDBRANCH  24  26
ENDBRANCH  23  24
ENDBRANCH   1  23
TORSDOF 16
