REMARK SMILES CC[C@@](C)(NC(=O)N1CCC[C@H]1C1CCCC1)C(=O)OCCOC(=O)c1ccc(-c2c3nc(c(-c4cc(S(=O)(=O)[O-])ccc4F)c4ccc([nH]4)c(-c4cc(S(=O)(=O)[O-])ccc4F)c4nc(c(-c5cc(S(=O)(=O)[O-])ccc5F)c5ccc2[nH]5)C=C4)C=C3)cc1
REMARK SMILES IDX 21 1 20 2 18 3 19 4 3 5 4 6 2 7 1 8 5 9 6 10 7 12 8 13 9 14
REMARK SMILES IDX 12 15 10 16 11 17 13 18 14 19 17 20 15 21 16 22 22 23 23 24
REMARK SMILES IDX 24 25 25 26 26 27 27 28 88 29 28 30 87 31 29 32 30 33 31 34
REMARK SMILES IDX 81 35 32 36 86 37 80 38 82 39 33 40 85 41 79 42 78 43 34 45
REMARK SMILES IDX 66 46 46 47 65 48 47 49 50 50 64 51 83 52 48 53 49 54 63 56
REMARK SMILES IDX 84 57 51 58 35 59 36 60 44 61 37 62 43 63 45 64 42 65 38 66
REMARK SMILES IDX 39 67 40 68 41 69 67 70 68 71 76 72 69 73 75 74 77 75 74 76
REMARK SMILES IDX 70 77 71 78 72 79 73 80 52 81 53 82 61 83 54 84 60 85 62 86
REMARK SMILES IDX 59 87 55 88 56 89 57 90 58 91
REMARK H PARENT 5 11 82 44 50 55
REMARK Flexibility Score: inf
ROOT
ATOM      1  C   UNL     1       4.894  -0.995  -2.316  1.00  0.00     0.274 C 
ENDROOT
BRANCH   1   2
ATOM      2  O   UNL     1       3.630  -0.487  -2.826  1.00  0.00    -0.460 OA
BRANCH   2   3
ATOM      3  C   UNL     1       2.527  -0.638  -2.055  1.00  0.00     0.331 C 
ATOM      4  O   UNL     1       2.596  -1.277  -1.007  1.00  0.00    -0.249 OA
BRANCH   3   5
ATOM      5  C   UNL     1       1.130  -0.090  -2.645  1.00  0.00     0.136 C 
ATOM      6  C   UNL     1       0.481  -1.424  -3.118  1.00  0.00     0.047 C 
BRANCH   5   7
ATOM      7  C   UNL     1       0.274   0.489  -1.464  1.00  0.00     0.037 C 
ATOM      8  C   UNL     1       0.060  -0.396  -0.228  1.00  0.00     0.007 C 
ENDBRANCH   5   7
BRANCH   5   9
ATOM      9  N   UNL     1       0.876   0.822  -3.876  1.00  0.00    -0.322 N 
ATOM     10  C   UNL     1       1.155   2.135  -4.174  1.00  0.00     0.318 C 
ATOM     11  H   UNL     1       0.411   0.355  -4.607  1.00  0.00     0.166 HD
ATOM     12  O   UNL     1       0.260   2.971  -4.076  1.00  0.00    -0.249 OA
BRANCH  10  13
ATOM     13  N   UNL     1       2.371   2.407  -4.782  1.00  0.00    -0.322 N 
ATOM     14  C   UNL     1       3.419   1.447  -4.697  1.00  0.00     0.122 C 
ATOM     15  C   UNL     1       2.976   3.756  -4.749  1.00  0.00     0.090 C 
ATOM     16  C   UNL     1       4.155   2.046  -3.522  1.00  0.00     0.024 C 
ATOM     17  C   UNL     1       4.193   3.533  -3.822  1.00  0.00     0.027 C 
BRANCH  15  18
ATOM     18  C   UNL     1       3.529   4.326  -6.083  1.00  0.00     0.012 C 
ATOM     19  C   UNL     1       4.244   3.360  -7.032  1.00  0.00     0.006 C 
ATOM     20  C   UNL     1       2.506   4.982  -6.997  1.00  0.00     0.006 C 
ATOM     21  C   UNL     1       4.431   4.170  -8.299  1.00  0.00     0.000 C 
ATOM     22  C   UNL     1       3.201   5.071  -8.364  1.00  0.00     0.000 C 
ENDBRANCH  15  18
ENDBRANCH  10  13
ENDBRANCH   5   9
ENDBRANCH   3   5
ENDBRANCH   2   3
ENDBRANCH   1   2
BRANCH   1  23
ATOM     23  C   UNL     1       5.715   0.020  -1.491  1.00  0.00     0.275 C 
BRANCH  23  24
ATOM     24  O   UNL     1       4.873   0.738  -0.577  1.00  0.00    -0.458 OA
BRANCH  24  25
ATOM     25  C   UNL     1       5.119   2.063  -0.378  1.00  0.00     0.338 C 
ATOM     26  O   UNL     1       6.038   2.707  -0.842  1.00  0.00    -0.246 OA
BRANCH  25  27
ATOM     27  C   UNL     1       4.063   2.619   0.517  1.00  0.00     0.060 A 
ATOM     28  C   UNL     1       2.815   2.003   0.603  1.00  0.00     0.016 A 
ATOM     29  C   UNL     1       4.312   3.748   1.298  1.00  0.00     0.016 A 
ATOM     30  C   UNL     1       1.838   2.465   1.484  1.00  0.00     0.010 A 
ATOM     31  C   UNL     1       3.364   4.159   2.252  1.00  0.00     0.010 A 
ATOM     32  C   UNL     1       2.135   3.489   2.387  1.00  0.00    -0.014 A 
BRANCH  32  33
ATOM     33  C   UNL     1       1.230   3.757   3.544  1.00  0.00     0.031 A 
ATOM     34  C   UNL     1       0.638   5.120   3.767  1.00  0.00     0.074 A 
ATOM     35  C   UNL     1       0.991   2.771   4.438  1.00  0.00     0.049 A 
ATOM     36  N   UNL     1       0.044   5.602   4.829  1.00  0.00    -0.248 NA
ATOM     37  C   UNL     1       0.737   6.067   2.648  1.00  0.00     0.031 C 
ATOM     38  C   UNL     1       1.465   1.388   4.322  1.00  0.00     0.029 A 
ATOM     39  N   UNL     1       0.309   2.778   5.632  1.00  0.00    -0.354 N 
ATOM     40  C   UNL     1      -0.282   6.919   4.521  1.00  0.00     0.074 A 
ATOM     41  C   UNL     1       0.207   7.162   3.178  1.00  0.00     0.031 C 
ATOM     42  C   UNL     1       1.058   0.686   5.388  1.00  0.00     0.029 A 
ATOM     43  C   UNL     1       0.386   1.584   6.316  1.00  0.00     0.049 A 
ATOM     44  H   UNL     1      -0.186   3.561   5.966  1.00  0.00     0.167 HD
ATOM     45  C   UNL     1      -0.928   7.833   5.290  1.00  0.00     0.034 A 
ATOM     46  C   UNL     1       0.021   1.255   7.572  1.00  0.00     0.034 A 
ATOM     47  C   UNL     1      -1.401   7.568   6.631  1.00  0.00     0.049 A 
ATOM     48  C   UNL     1      -0.602   2.315   8.442  1.00  0.00     0.074 A 
ATOM     49  C   UNL     1      -2.048   8.426   7.506  1.00  0.00     0.029 A 
ATOM     50  N   UNL     1      -1.282   6.352   7.295  1.00  0.00    -0.354 N 
ATOM     51  N   UNL     1      -0.857   3.572   8.158  1.00  0.00    -0.248 NA
ATOM     52  C   UNL     1      -0.986   1.913   9.800  1.00  0.00     0.031 C 
ATOM     53  C   UNL     1      -2.255   7.753   8.716  1.00  0.00     0.029 A 
ATOM     54  C   UNL     1      -1.821   6.446   8.571  1.00  0.00     0.049 A 
ATOM     55  H   UNL     1      -0.874   5.540   6.915  1.00  0.00     0.167 HD
ATOM     56  C   UNL     1      -1.463   4.099   9.294  1.00  0.00     0.074 A 
ATOM     57  C   UNL     1      -1.555   3.019  10.254  1.00  0.00     0.031 C 
ATOM     58  C   UNL     1      -1.903   5.363   9.524  1.00  0.00     0.034 A 
BRANCH  45  59
ATOM     59  C   UNL     1      -1.112   9.222   4.719  1.00  0.00     0.023 A 
ATOM     60  C   UNL     1      -1.887   9.453   3.569  1.00  0.00     0.031 A 
ATOM     61  C   UNL     1      -0.489  10.330   5.322  1.00  0.00     0.131 A 
ATOM     62  C   UNL     1      -1.959  10.743   3.019  1.00  0.00     0.055 A 
ATOM     63  C   UNL     1      -0.635  11.625   4.818  1.00  0.00     0.041 A 
ATOM     64  F   UNL     1       0.280  10.174   6.411  1.00  0.00    -0.206 F 
ATOM     65  C   UNL     1      -1.361  11.835   3.651  1.00  0.00     0.022 A 
BRANCH  62  66
ATOM     66  S   UNL     1      -2.723  10.947   1.387  1.00  0.00     0.124 S 
ATOM     67  O   UNL     1      -1.894  10.070   0.563  1.00  0.00    -0.237 OA
ATOM     68  O   UNL     1      -4.092  10.501   1.620  1.00  0.00    -0.237 OA
ATOM     69  O   UNL     1      -2.570  12.375   1.112  1.00  0.00    -0.744 OA
ENDBRANCH  62  66
ENDBRANCH  45  59
BRANCH  46  70
ATOM     70  C   UNL     1       0.301  -0.109   8.115  1.00  0.00     0.023 A 
ATOM     71  C   UNL     1      -0.738  -0.940   8.560  1.00  0.00     0.031 A 
ATOM     72  C   UNL     1       1.621  -0.579   8.256  1.00  0.00     0.131 A 
ATOM     73  C   UNL     1      -0.441  -2.166   9.177  1.00  0.00     0.055 A 
ATOM     74  C   UNL     1       1.908  -1.831   8.803  1.00  0.00     0.041 A 
ATOM     75  F   UNL     1       2.659   0.174   7.855  1.00  0.00    -0.206 F 
ATOM     76  C   UNL     1       0.874  -2.625   9.284  1.00  0.00     0.022 A 
BRANCH  73  77
ATOM     77  S   UNL     1      -1.792  -3.097   9.950  1.00  0.00     0.124 S 
ATOM     78  O   UNL     1      -2.342  -2.110  10.872  1.00  0.00    -0.237 OA
ATOM     79  O   UNL     1      -2.623  -3.435   8.800  1.00  0.00    -0.237 OA
ATOM     80  O   UNL     1      -1.110  -4.227  10.578  1.00  0.00    -0.744 OA
ENDBRANCH  73  77
ENDBRANCH  46  70
BRANCH  58  81
ATOM     81  C   UNL     1      -2.581   5.616  10.851  1.00  0.00     0.023 A 
ATOM     82  C   UNL     1      -1.892   5.504  12.072  1.00  0.00     0.031 A 
ATOM     83  C   UNL     1      -3.951   5.929  10.893  1.00  0.00     0.131 A 
ATOM     84  C   UNL     1      -2.590   5.628  13.282  1.00  0.00     0.055 A 
ATOM     85  C   UNL     1      -4.624   6.126  12.100  1.00  0.00     0.041 A 
ATOM     86  F   UNL     1      -4.663   6.042   9.761  1.00  0.00    -0.206 F 
ATOM     87  C   UNL     1      -3.948   5.957  13.304  1.00  0.00     0.022 A 
BRANCH  84  88
ATOM     88  S   UNL     1      -1.729   5.224  14.828  1.00  0.00     0.124 S 
ATOM     89  O   UNL     1      -1.296   3.852  14.583  1.00  0.00    -0.237 OA
ATOM     90  O   UNL     1      -0.672   6.229  14.867  1.00  0.00    -0.237 OA
ATOM     91  O   UNL     1      -2.766   5.376  15.847  1.00  0.00    -0.744 OA
ENDBRANCH  84  88
ENDBRANCH  58  81
ENDBRANCH  32  33
ENDBRANCH  25  27
ENDBRANCH  24  25
ENDBRANCH  23  24
ENDBRANCH   1  23
TORSDOF 18
