REMARK SMILES C[C@H](CNC(=O)c1ccc(Br)nc1)C(=O)OCCOC(=O)c1ccc(-c2c3nc(c(-c4cc(S(=O)(=O)[O-])ccc4F)c4ccc([nH]4)c(-c4cc(S(=O)(=O)[O-])ccc4F)c4nc(c(-c5cc(S(=O)(=O)[O-])ccc5F)c5ccc2[nH]5)C=C4)C=C3)cc1
REMARK SMILES IDX 17 1 16 2 14 3 15 4 2 5 1 6 3 7 4 8 5 9 6 11 7 12 8 13 13 14
REMARK SMILES IDX 9 15 12 16 10 17 11 18 18 19 19 20 20 21 21 22 22 23 23 24
REMARK SMILES IDX 84 25 24 26 83 27 25 28 26 29 27 30 77 31 28 32 82 33 76 34
REMARK SMILES IDX 78 35 29 36 81 37 75 38 74 39 30 41 62 42 42 43 61 44 43 45
REMARK SMILES IDX 46 46 60 47 79 48 44 49 45 50 59 52 80 53 47 54 31 55 32 56
REMARK SMILES IDX 40 57 33 58 39 59 41 60 38 61 34 62 35 63 36 64 37 65 63 66
REMARK SMILES IDX 64 67 72 68 65 69 71 70 73 71 70 72 66 73 67 74 68 75 69 76
REMARK SMILES IDX 48 77 49 78 57 79 50 80 56 81 58 82 55 83 51 84 52 85 53 86
REMARK SMILES IDX 54 87
REMARK H PARENT 4 10 78 40 46 51
REMARK Flexibility Score: inf
ROOT
ATOM      1  C   UNL     1      -3.147  -0.678  -1.173  1.00  0.00     0.274 C 
ENDROOT
BRANCH   1   2
ATOM      2  O   UNL     1      -1.714  -0.763  -1.030  1.00  0.00    -0.462 OA
BRANCH   2   3
ATOM      3  C   UNL     1      -0.979  -0.180  -2.014  1.00  0.00     0.310 C 
ATOM      4  O   UNL     1      -1.450   0.344  -3.016  1.00  0.00    -0.252 OA
BRANCH   3   5
ATOM      5  C   UNL     1       0.516  -0.278  -1.780  1.00  0.00     0.115 C 
ATOM      6  C   UNL     1       1.100  -1.435  -2.581  1.00  0.00     0.022 C 
BRANCH   5   7
ATOM      7  C   UNL     1       0.931  -0.281  -0.306  1.00  0.00     0.131 C 
BRANCH   7   8
ATOM      8  N   UNL     1       0.691  -1.544   0.378  1.00  0.00    -0.351 N 
ATOM      9  C   UNL     1       1.583  -2.499   0.789  1.00  0.00     0.252 C 
ATOM     10  H   UNL     1      -0.253  -1.742   0.574  1.00  0.00     0.163 HD
ATOM     11  O   UNL     1       1.198  -3.595   1.185  1.00  0.00    -0.269 OA
BRANCH   9  12
ATOM     12  C   UNL     1       3.025  -2.224   0.722  1.00  0.00     0.058 A 
ATOM     13  C   UNL     1       3.611  -1.140   1.375  1.00  0.00     0.018 A 
ATOM     14  C   UNL     1       3.839  -3.087   0.006  1.00  0.00     0.126 A 
ATOM     15  C   UNL     1       4.981  -0.927   1.232  1.00  0.00     0.037 A 
ATOM     16  N   UNL     1       5.173  -2.905  -0.148  1.00  0.00    -0.249 NA
ATOM     17  C   UNL     1       5.713  -1.823   0.461  1.00  0.00     0.106 A 
ATOM     18  Br  UNL     1       7.572  -1.529   0.236  1.00  0.00    -0.029 Br
ENDBRANCH   9  12
ENDBRANCH   7   8
ENDBRANCH   5   7
ENDBRANCH   3   5
ENDBRANCH   2   3
ENDBRANCH   1   2
BRANCH   1  19
ATOM     19  C   UNL     1      -3.738   0.403  -0.264  1.00  0.00     0.275 C 
BRANCH  19  20
ATOM     20  O   UNL     1      -3.320   1.719  -0.667  1.00  0.00    -0.458 OA
BRANCH  20  21
ATOM     21  C   UNL     1      -2.242   2.201  -0.007  1.00  0.00     0.338 C 
ATOM     22  O   UNL     1      -1.624   1.656   0.890  1.00  0.00    -0.246 OA
BRANCH  21  23
ATOM     23  C   UNL     1      -1.821   3.474  -0.609  1.00  0.00     0.060 A 
ATOM     24  C   UNL     1      -0.619   3.510  -1.322  1.00  0.00     0.016 A 
ATOM     25  C   UNL     1      -2.550   4.640  -0.381  1.00  0.00     0.016 A 
ATOM     26  C   UNL     1      -0.129   4.722  -1.801  1.00  0.00     0.010 A 
ATOM     27  C   UNL     1      -2.060   5.855  -0.869  1.00  0.00     0.010 A 
ATOM     28  C   UNL     1      -0.839   5.905  -1.566  1.00  0.00    -0.014 A 
BRANCH  28  29
ATOM     29  C   UNL     1      -0.274   7.213  -1.975  1.00  0.00     0.031 A 
ATOM     30  C   UNL     1       0.279   8.136  -0.927  1.00  0.00     0.074 A 
ATOM     31  C   UNL     1      -0.268   7.574  -3.271  1.00  0.00     0.049 A 
ATOM     32  N   UNL     1       0.666   9.379  -1.035  1.00  0.00    -0.248 NA
ATOM     33  C   UNL     1       0.401   7.577   0.427  1.00  0.00     0.031 C 
ATOM     34  C   UNL     1      -0.723   6.737  -4.381  1.00  0.00     0.029 A 
ATOM     35  N   UNL     1       0.120   8.745  -3.869  1.00  0.00    -0.354 N 
ATOM     36  C   UNL     1       1.055   9.766   0.243  1.00  0.00     0.074 A 
ATOM     37  C   UNL     1       0.836   8.626   1.110  1.00  0.00     0.031 C 
ATOM     38  C   UNL     1      -0.605   7.430  -5.526  1.00  0.00     0.029 A 
ATOM     39  C   UNL     1      -0.121   8.774  -5.222  1.00  0.00     0.049 A 
ATOM     40  H   UNL     1       0.531   9.493  -3.377  1.00  0.00     0.167 HD
ATOM     41  C   UNL     1       1.547  10.963   0.652  1.00  0.00     0.034 A 
ATOM     42  C   UNL     1      -0.010   9.785  -6.106  1.00  0.00     0.034 A 
ATOM     43  C   UNL     1       1.752  12.086  -0.230  1.00  0.00     0.049 A 
ATOM     44  C   UNL     1       0.466  11.130  -5.621  1.00  0.00     0.074 A 
ATOM     45  C   UNL     1       2.238  13.347   0.071  1.00  0.00     0.029 A 
ATOM     46  N   UNL     1       1.475  12.086  -1.593  1.00  0.00    -0.354 N 
ATOM     47  N   UNL     1       0.794  11.500  -4.404  1.00  0.00    -0.248 NA
ATOM     48  C   UNL     1       0.583  12.193  -6.627  1.00  0.00     0.031 C 
ATOM     49  C   UNL     1       2.201  14.124  -1.093  1.00  0.00     0.029 A 
ATOM     50  C   UNL     1       1.757  13.329  -2.138  1.00  0.00     0.049 A 
ATOM     51  H   UNL     1       1.129  11.315  -2.097  1.00  0.00     0.167 HD
ATOM     52  C   UNL     1       1.179  12.834  -4.504  1.00  0.00     0.074 A 
ATOM     53  C   UNL     1       1.049  13.200  -5.901  1.00  0.00     0.031 C 
ATOM     54  C   UNL     1       1.609  13.678  -3.532  1.00  0.00     0.034 A 
BRANCH  41  55
ATOM     55  C   UNL     1       1.826  11.123   2.127  1.00  0.00     0.023 A 
ATOM     56  C   UNL     1       2.809  10.362   2.782  1.00  0.00     0.031 A 
ATOM     57  C   UNL     1       1.054  12.008   2.901  1.00  0.00     0.131 A 
ATOM     58  C   UNL     1       2.939  10.439   4.178  1.00  0.00     0.055 A 
ATOM     59  C   UNL     1       1.244  12.139   4.278  1.00  0.00     0.041 A 
ATOM     60  F   UNL     1       0.085  12.744   2.334  1.00  0.00    -0.206 F 
ATOM     61  C   UNL     1       2.179  11.339   4.927  1.00  0.00     0.022 A 
BRANCH  58  62
ATOM     62  S   UNL     1       4.001   9.230   5.017  1.00  0.00     0.124 S 
ATOM     63  O   UNL     1       3.414   7.965   4.579  1.00  0.00    -0.237 OA
ATOM     64  O   UNL     1       5.320   9.542   4.479  1.00  0.00    -0.237 OA
ATOM     65  O   UNL     1       3.816   9.535   6.434  1.00  0.00    -0.744 OA
ENDBRANCH  58  62
ENDBRANCH  41  55
BRANCH  42  66
ATOM     66  C   UNL     1      -0.414   9.584  -7.525  1.00  0.00     0.023 A 
ATOM     67  C   UNL     1       0.529   9.625  -8.563  1.00  0.00     0.031 A 
ATOM     68  C   UNL     1      -1.763   9.369  -7.863  1.00  0.00     0.131 A 
ATOM     69  C   UNL     1       0.106   9.483  -9.894  1.00  0.00     0.055 A 
ATOM     70  C   UNL     1      -2.171   9.184  -9.184  1.00  0.00     0.041 A 
ATOM     71  F   UNL     1      -2.703   9.319  -6.906  1.00  0.00    -0.206 F 
ATOM     72  C   UNL     1      -1.234   9.251 -10.210  1.00  0.00     0.022 A 
BRANCH  69  73
ATOM     73  S   UNL     1       1.333   9.664 -11.218  1.00  0.00     0.124 S 
ATOM     74  O   UNL     1       1.805  11.027 -11.002  1.00  0.00    -0.237 OA
ATOM     75  O   UNL     1       2.279   8.599 -10.903  1.00  0.00    -0.237 OA
ATOM     76  O   UNL     1       0.551   9.459 -12.436  1.00  0.00    -0.744 OA
ENDBRANCH  69  73
ENDBRANCH  42  66
BRANCH  54  77
ATOM     77  C   UNL     1       2.017  15.063  -3.965  1.00  0.00     0.023 A 
ATOM     78  C   UNL     1       1.076  16.012  -4.399  1.00  0.00     0.031 A 
ATOM     79  C   UNL     1       3.374  15.432  -3.948  1.00  0.00     0.131 A 
ATOM     80  C   UNL     1       1.510  17.271  -4.842  1.00  0.00     0.055 A 
ATOM     81  C   UNL     1       3.795  16.702  -4.344  1.00  0.00     0.041 A 
ATOM     82  F   UNL     1       4.313  14.562  -3.543  1.00  0.00    -0.206 F 
ATOM     83  C   UNL     1       2.861  17.626  -4.805  1.00  0.00     0.022 A 
BRANCH  80  84
ATOM     84  S   UNL     1       0.290  18.419  -5.539  1.00  0.00     0.124 S 
ATOM     85  O   UNL     1      -0.237  17.656  -6.665  1.00  0.00    -0.237 OA
ATOM     86  O   UNL     1      -0.625  18.620  -4.420  1.00  0.00    -0.237 OA
ATOM     87  O   UNL     1       1.088  19.589  -5.902  1.00  0.00    -0.744 OA
ENDBRANCH  80  84
ENDBRANCH  54  77
ENDBRANCH  28  29
ENDBRANCH  21  23
ENDBRANCH  20  21
ENDBRANCH  19  20
ENDBRANCH   1  19
TORSDOF 17
