REMARK SMILES C=Cc1cccc(-c2ccc([C@@H](C)C(=O)OCCOC(=O)c3ccc(-c4c5nc(c(-c6cc(S(=O)(=O)[O-])ccc6F)c6ccc([nH]6)c(-c6cc(S(=O)(=O)[O-])ccc6F)c6nc(c(-c7cc(S(=O)(=O)[O-])ccc7F)c7ccc4[nH]7)C=C6)C=C5)cc3)cc2)c1
REMARK SMILES IDX 17 1 16 2 14 3 15 4 12 5 13 6 11 7 8 8 9 9 86 10 10 11 85 12
REMARK SMILES IDX 7 13 3 14 4 15 87 16 5 17 6 18 2 19 1 20 18 21 19 22 20 23
REMARK SMILES IDX 21 24 22 25 23 26 84 27 24 28 83 29 25 30 26 31 27 32 77 33
REMARK SMILES IDX 28 34 82 35 76 36 78 37 29 38 81 39 75 40 74 41 30 43 62 44
REMARK SMILES IDX 42 45 61 46 43 47 46 48 60 49 79 50 44 51 45 52 59 54 80 55
REMARK SMILES IDX 47 56 31 57 32 58 40 59 33 60 39 61 41 62 38 63 34 64 35 65
REMARK SMILES IDX 36 66 37 67 63 68 64 69 72 70 65 71 71 72 73 73 70 74 66 75
REMARK SMILES IDX 67 76 68 77 69 78 48 79 49 80 57 81 50 82 56 83 58 84 55 85
REMARK SMILES IDX 51 86 52 87 53 88 54 89
REMARK H PARENT 78 42 46 53
REMARK Flexibility Score: inf
ROOT
ATOM      1  C   UNL     1      -5.856   6.688  -0.145  1.00  0.00     0.274 C 
ENDROOT
BRANCH   1   2
ATOM      2  O   UNL     1      -6.077   5.460  -0.864  1.00  0.00    -0.462 OA
BRANCH   2   3
ATOM      3  C   UNL     1      -6.480   5.570  -2.156  1.00  0.00     0.313 C 
ATOM      4  O   UNL     1      -6.769   6.633  -2.698  1.00  0.00    -0.252 OA
BRANCH   3   5
ATOM      5  C   UNL     1      -6.606   4.233  -2.878  1.00  0.00     0.126 C 
ATOM      6  C   UNL     1      -8.078   3.830  -2.959  1.00  0.00     0.025 C 
BRANCH   5   7
ATOM      7  C   UNL     1      -5.724   3.108  -2.357  1.00  0.00    -0.034 A 
ATOM      8  C   UNL     1      -4.065   0.991  -1.435  1.00  0.00    -0.018 A 
ATOM      9  C   UNL     1      -5.136   1.465  -0.662  1.00  0.00     0.009 A 
ATOM     10  C   UNL     1      -3.829   1.605  -2.672  1.00  0.00     0.009 A 
ATOM     11  C   UNL     1      -5.956   2.502  -1.116  1.00  0.00     0.005 A 
ATOM     12  C   UNL     1      -4.646   2.647  -3.127  1.00  0.00     0.005 A 
BRANCH   8  13
ATOM     13  C   UNL     1      -3.236  -0.131  -0.962  1.00  0.00    -0.018 A 
ATOM     14  C   UNL     1      -1.051  -1.099  -0.421  1.00  0.00    -0.026 A 
ATOM     15  C   UNL     1      -1.679  -2.295  -0.060  1.00  0.00     0.008 A 
ATOM     16  C   UNL     1      -1.835  -0.030  -0.883  1.00  0.00     0.016 A 
ATOM     17  C   UNL     1      -3.066  -2.417  -0.133  1.00  0.00     0.001 A 
ATOM     18  C   UNL     1      -3.835  -1.342  -0.579  1.00  0.00     0.009 A 
BRANCH  14  19
ATOM     19  C   UNL     1       0.414  -1.028  -0.358  1.00  0.00     0.000 C 
ATOM     20  C   UNL     1       1.100   0.050   0.044  1.00  0.00     0.009 C 
ENDBRANCH  14  19
ENDBRANCH   8  13
ENDBRANCH   5   7
ENDBRANCH   3   5
ENDBRANCH   2   3
ENDBRANCH   1   2
BRANCH   1  21
ATOM     21  C   UNL     1      -4.365   7.015  -0.068  1.00  0.00     0.275 C 
BRANCH  21  22
ATOM     22  O   UNL     1      -3.852   7.381  -1.360  1.00  0.00    -0.458 OA
BRANCH  22  23
ATOM     23  C   UNL     1      -3.215   6.391  -2.029  1.00  0.00     0.338 C 
ATOM     24  O   UNL     1      -2.987   5.260  -1.640  1.00  0.00    -0.246 OA
BRANCH  23  25
ATOM     25  C   UNL     1      -2.889   6.862  -3.381  1.00  0.00     0.060 A 
ATOM     26  C   UNL     1      -3.641   6.389  -4.458  1.00  0.00     0.016 A 
ATOM     27  C   UNL     1      -1.798   7.706  -3.588  1.00  0.00     0.016 A 
ATOM     28  C   UNL     1      -3.300   6.751  -5.759  1.00  0.00     0.010 A 
ATOM     29  C   UNL     1      -1.464   8.079  -4.892  1.00  0.00     0.010 A 
ATOM     30  C   UNL     1      -2.205   7.595  -5.985  1.00  0.00    -0.014 A 
BRANCH  30  31
ATOM     31  C   UNL     1      -1.792   7.937  -7.367  1.00  0.00     0.031 A 
ATOM     32  C   UNL     1      -0.542   7.330  -7.935  1.00  0.00     0.074 A 
ATOM     33  C   UNL     1      -2.525   8.799  -8.096  1.00  0.00     0.049 A 
ATOM     34  N   UNL     1       0.089   7.615  -9.044  1.00  0.00    -0.248 NA
ATOM     35  C   UNL     1       0.084   6.265  -7.138  1.00  0.00     0.031 C 
ATOM     36  C   UNL     1      -3.787   9.404  -7.668  1.00  0.00     0.029 A 
ATOM     37  N   UNL     1      -2.304   9.330  -9.341  1.00  0.00    -0.354 N 
ATOM     38  C   UNL     1       1.201   6.781  -9.071  1.00  0.00     0.074 A 
ATOM     39  C   UNL     1       1.165   5.995  -7.855  1.00  0.00     0.031 C 
ATOM     40  C   UNL     1      -4.222  10.234  -8.630  1.00  0.00     0.029 A 
ATOM     41  C   UNL     1      -3.241  10.267  -9.711  1.00  0.00     0.049 A 
ATOM     42  H   UNL     1      -1.548   9.066  -9.915  1.00  0.00     0.167 HD
ATOM     43  C   UNL     1       2.162   6.688 -10.023  1.00  0.00     0.034 A 
ATOM     44  C   UNL     1      -3.277  11.092 -10.777  1.00  0.00     0.034 A 
ATOM     45  C   UNL     1       2.176   7.484 -11.227  1.00  0.00     0.049 A 
ATOM     46  C   UNL     1      -2.154  11.032 -11.781  1.00  0.00     0.074 A 
ATOM     47  C   UNL     1       3.095   7.470 -12.262  1.00  0.00     0.029 A 
ATOM     48  N   UNL     1       1.228   8.446 -11.553  1.00  0.00    -0.354 N 
ATOM     49  N   UNL     1      -1.088  10.264 -11.782  1.00  0.00    -0.248 NA
ATOM     50  C   UNL     1      -2.233  11.953 -12.922  1.00  0.00     0.031 C 
ATOM     51  C   UNL     1       2.735   8.462 -13.182  1.00  0.00     0.029 A 
ATOM     52  C   UNL     1       1.554   9.050 -12.757  1.00  0.00     0.049 A 
ATOM     53  H   UNL     1       0.438   8.666 -11.007  1.00  0.00     0.167 HD
ATOM     54  C   UNL     1      -0.386  10.592 -12.938  1.00  0.00     0.074 A 
ATOM     55  C   UNL     1      -1.150  11.623 -13.610  1.00  0.00     0.031 C 
ATOM     56  C   UNL     1       0.782  10.082 -13.406  1.00  0.00     0.034 A 
BRANCH  43  57
ATOM     57  C   UNL     1       3.304   5.736  -9.762  1.00  0.00     0.023 A 
ATOM     58  C   UNL     1       3.111   4.346  -9.689  1.00  0.00     0.031 A 
ATOM     59  C   UNL     1       4.601   6.234  -9.548  1.00  0.00     0.131 A 
ATOM     60  C   UNL     1       4.182   3.508  -9.341  1.00  0.00     0.055 A 
ATOM     61  C   UNL     1       5.679   5.389  -9.275  1.00  0.00     0.041 A 
ATOM     62  F   UNL     1       4.841   7.554  -9.583  1.00  0.00    -0.206 F 
ATOM     63  C   UNL     1       5.469   4.018  -9.155  1.00  0.00     0.022 A 
BRANCH  60  64
ATOM     64  S   UNL     1       3.842   1.759  -9.000  1.00  0.00     0.124 S 
ATOM     65  O   UNL     1       2.872   1.854  -7.912  1.00  0.00    -0.237 OA
ATOM     66  O   UNL     1       3.326   1.283 -10.278  1.00  0.00    -0.237 OA
ATOM     67  O   UNL     1       5.147   1.225  -8.616  1.00  0.00    -0.744 OA
ENDBRANCH  60  64
ENDBRANCH  43  57
BRANCH  44  68
ATOM     68  C   UNL     1      -4.375  12.089 -10.918  1.00  0.00     0.023 A 
ATOM     69  C   UNL     1      -5.290  12.017 -11.979  1.00  0.00     0.031 A 
ATOM     70  C   UNL     1      -4.502  13.153 -10.007  1.00  0.00     0.131 A 
ATOM     71  C   UNL     1      -6.272  13.011 -12.123  1.00  0.00     0.055 A 
ATOM     72  C   UNL     1      -5.509  14.111 -10.126  1.00  0.00     0.041 A 
ATOM     73  F   UNL     1      -3.650  13.269  -8.975  1.00  0.00    -0.206 F 
ATOM     74  C   UNL     1      -6.395  14.049 -11.196  1.00  0.00     0.022 A 
BRANCH  71  75
ATOM     75  S   UNL     1      -7.344  12.969 -13.585  1.00  0.00     0.124 S 
ATOM     76  O   UNL     1      -6.371  13.036 -14.670  1.00  0.00    -0.237 OA
ATOM     77  O   UNL     1      -8.033  11.693 -13.419  1.00  0.00    -0.237 OA
ATOM     78  O   UNL     1      -8.184  14.154 -13.426  1.00  0.00    -0.744 OA
ENDBRANCH  71  75
ENDBRANCH  44  68
BRANCH  56  79
ATOM     79  C   UNL     1       1.269  10.600 -14.735  1.00  0.00     0.023 A 
ATOM     80  C   UNL     1       1.776  11.902 -14.881  1.00  0.00     0.031 A 
ATOM     81  C   UNL     1       1.227   9.770 -15.869  1.00  0.00     0.131 A 
ATOM     82  C   UNL     1       2.185  12.351 -16.146  1.00  0.00     0.055 A 
ATOM     83  C   UNL     1       1.679  10.206 -17.114  1.00  0.00     0.041 A 
ATOM     84  F   UNL     1       0.751   8.517 -15.780  1.00  0.00    -0.206 F 
ATOM     85  C   UNL     1       2.154  11.506 -17.260  1.00  0.00     0.022 A 
BRANCH  82  86
ATOM     86  S   UNL     1       2.708  14.078 -16.334  1.00  0.00     0.124 S 
ATOM     87  O   UNL     1       1.496  14.804 -15.972  1.00  0.00    -0.237 OA
ATOM     88  O   UNL     1       3.816  14.175 -15.389  1.00  0.00    -0.237 OA
ATOM     89  O   UNL     1       3.089  14.170 -17.743  1.00  0.00    -0.744 OA
ENDBRANCH  82  86
ENDBRANCH  56  79
ENDBRANCH  30  31
ENDBRANCH  23  25
ENDBRANCH  22  23
ENDBRANCH  21  22
ENDBRANCH   1  21
TORSDOF 17
