REMARK SMILES O=C1C[C@@H](C(=O)OCCOC(=O)c2ccc(-c3c4nc(c(-c5cc(S(=O)(=O)[O-])ccc5F)c5ccc([nH]5)c(-c5cc(S(=O)(=O)[O-])ccc5F)c5nc(c(-c6cc(S(=O)(=O)[O-])ccc6F)c6ccc3[nH]6)C=C5)C=C4)cc2)C2(CC[NH+](Cc3c[nH]nc3-c3ccc(Cl)cc3)CC2)N1
REMARK SMILES IDX 8 1 7 2 5 3 6 4 4 5 1 6 2 7 3 8 95 9 76 10 77 12 94 13 78 14
REMARK SMILES IDX 93 15 79 16 80 18 81 19 82 20 85 21 83 22 84 23 86 25 87 26
REMARK SMILES IDX 92 27 88 28 91 29 89 30 90 31 9 32 10 33 11 34 12 35 13 36
REMARK SMILES IDX 14 37 75 38 15 39 74 40 16 41 17 42 18 43 68 44 19 45 73 46
REMARK SMILES IDX 67 47 69 48 20 49 72 50 66 51 65 52 21 54 53 55 33 56 52 57
REMARK SMILES IDX 34 58 37 59 51 60 70 61 35 62 36 63 50 65 71 66 38 67 22 68
REMARK SMILES IDX 23 69 31 70 24 71 30 72 32 73 29 74 25 75 26 76 27 77 28 78
REMARK SMILES IDX 54 79 55 80 63 81 56 82 62 83 64 84 61 85 57 86 58 87 59 88
REMARK SMILES IDX 60 89 39 90 40 91 48 92 41 93 47 94 49 95 46 96 42 97 43 98
REMARK SMILES IDX 44 99 45 100
REMARK H PARENT 95 11 79 17 83 24 69 53 37 64
REMARK Flexibility Score: inf
ROOT
ATOM      1  C   UNL     1       2.768   2.602  -3.677  1.00  0.00     0.274 C 
ENDROOT
BRANCH   1   2
ATOM      2  O   UNL     1       3.103   1.929  -2.446  1.00  0.00    -0.462 OA
BRANCH   2   3
ATOM      3  C   UNL     1       3.636   0.695  -2.589  1.00  0.00     0.311 C 
ATOM      4  O   UNL     1       3.725   0.109  -3.665  1.00  0.00    -0.252 OA
BRANCH   3   5
ATOM      5  C   UNL     1       4.070   0.017  -1.301  1.00  0.00     0.134 C 
ATOM      6  O   UNL     1       1.077  -0.502   0.555  1.00  0.00    -0.275 OA
ATOM      7  C   UNL     1       2.180  -0.231   0.129  1.00  0.00     0.221 C 
ATOM      8  C   UNL     1       2.931  -0.963  -0.951  1.00  0.00     0.117 C 
ATOM      9  N   UNL     1       2.983   0.784   0.593  1.00  0.00    -0.349 N 
ATOM     10  C   UNL     1       4.323   0.788   0.017  1.00  0.00     0.064 C 
ATOM     11  H   UNL     1       2.681   1.447   1.254  1.00  0.00     0.164 HD
ATOM     12  C   UNL     1       4.828   2.237  -0.057  1.00  0.00     0.091 C 
ATOM     13  C   UNL     1       5.236  -0.072   0.953  1.00  0.00     0.091 C 
ATOM     14  C   UNL     1       6.340   2.385  -0.136  1.00  0.00     0.264 C 
ATOM     15  C   UNL     1       6.730   0.276   0.954  1.00  0.00     0.264 C 
ATOM     16  N   UNL     1       7.031   1.694   0.927  1.00  0.00    -0.331 N 
ATOM     17  H   UNL     1       8.019   1.707   0.671  1.00  0.00     0.348 HD
BRANCH  16  18
ATOM     18  C   UNL     1       7.228   2.416   2.189  1.00  0.00     0.303 C 
BRANCH  18  19
ATOM     19  C   UNL     1       6.003   2.535   3.041  1.00  0.00     0.052 A 
ATOM     20  C   UNL     1       5.477   1.543   3.849  1.00  0.00     0.115 A 
ATOM     21  C   UNL     1       5.186   3.680   3.337  1.00  0.00     0.101 A 
ATOM     22  N   UNL     1       4.355   2.050   4.414  1.00  0.00    -0.285 N 
ATOM     23  N   UNL     1       4.156   3.341   4.134  1.00  0.00    -0.175 NA
ATOM     24  H   UNL     1       3.746   1.519   4.976  1.00  0.00     0.189 HD
BRANCH  21  25
ATOM     25  C   UNL     1       5.344   5.086   2.956  1.00  0.00     0.003 A 
ATOM     26  C   UNL     1       5.419   6.054   3.970  1.00  0.00     0.012 A 
ATOM     27  C   UNL     1       5.365   5.511   1.625  1.00  0.00     0.012 A 
ATOM     28  C   UNL     1       5.524   7.412   3.658  1.00  0.00     0.021 A 
ATOM     29  C   UNL     1       5.474   6.870   1.307  1.00  0.00     0.021 A 
ATOM     30  C   UNL     1       5.552   7.814   2.326  1.00  0.00     0.041 A 
ATOM     31  Cl  UNL     1       5.660   9.487   1.937  1.00  0.00    -0.084 Cl
ENDBRANCH  21  25
ENDBRANCH  18  19
ENDBRANCH  16  18
ENDBRANCH   3   5
ENDBRANCH   2   3
ENDBRANCH   1   2
BRANCH   1  32
ATOM     32  C   UNL     1       3.938   3.446  -4.187  1.00  0.00     0.275 C 
BRANCH  32  33
ATOM     33  O   UNL     1       5.123   2.639  -4.327  1.00  0.00    -0.458 OA
BRANCH  33  34
ATOM     34  C   UNL     1       6.223   3.098  -3.686  1.00  0.00     0.338 C 
ATOM     35  O   UNL     1       6.320   4.142  -3.061  1.00  0.00    -0.246 OA
BRANCH  34  36
ATOM     36  C   UNL     1       7.337   2.132  -3.788  1.00  0.00     0.060 A 
ATOM     37  C   UNL     1       7.157   0.795  -3.428  1.00  0.00     0.016 A 
ATOM     38  C   UNL     1       8.615   2.603  -4.086  1.00  0.00     0.016 A 
ATOM     39  C   UNL     1       8.256  -0.050  -3.285  1.00  0.00     0.010 A 
ATOM     40  C   UNL     1       9.703   1.724  -4.050  1.00  0.00     0.010 A 
ATOM     41  C   UNL     1       9.540   0.393  -3.631  1.00  0.00    -0.014 A 
BRANCH  41  42
ATOM     42  C   UNL     1      10.703  -0.538  -3.610  1.00  0.00     0.031 A 
ATOM     43  C   UNL     1      11.922  -0.233  -2.781  1.00  0.00     0.074 A 
ATOM     44  C   UNL     1      10.688  -1.631  -4.397  1.00  0.00     0.049 A 
ATOM     45  N   UNL     1      13.104  -0.795  -2.807  1.00  0.00    -0.248 NA
ATOM     46  C   UNL     1      11.798   0.863  -1.810  1.00  0.00     0.031 C 
ATOM     47  C   UNL     1       9.564  -2.054  -5.236  1.00  0.00     0.029 A 
ATOM     48  N   UNL     1      11.656  -2.574  -4.644  1.00  0.00    -0.354 N 
ATOM     49  C   UNL     1      13.883  -0.092  -1.893  1.00  0.00     0.074 A 
ATOM     50  C   UNL     1      13.035   0.947  -1.341  1.00  0.00     0.031 C 
ATOM     51  C   UNL     1       9.903  -3.167  -5.901  1.00  0.00     0.029 A 
ATOM     52  C   UNL     1      11.296  -3.483  -5.611  1.00  0.00     0.049 A 
ATOM     53  H   UNL     1      12.522  -2.596  -4.175  1.00  0.00     0.167 HD
ATOM     54  C   UNL     1      15.183  -0.295  -1.555  1.00  0.00     0.034 A 
ATOM     55  C   UNL     1      12.014  -4.426  -6.250  1.00  0.00     0.034 A 
ATOM     56  C   UNL     1      16.003  -1.351  -2.107  1.00  0.00     0.049 A 
ATOM     57  C   UNL     1      13.463  -4.603  -5.901  1.00  0.00     0.074 A 
ATOM     58  C   UNL     1      17.311  -1.682  -1.791  1.00  0.00     0.029 A 
ATOM     59  N   UNL     1      15.603  -2.241  -3.097  1.00  0.00    -0.354 N 
ATOM     60  N   UNL     1      14.192  -3.927  -5.045  1.00  0.00    -0.248 NA
ATOM     61  C   UNL     1      14.184  -5.668  -6.606  1.00  0.00     0.031 C 
ATOM     62  C   UNL     1      17.723  -2.717  -2.640  1.00  0.00     0.029 A 
ATOM     63  C   UNL     1      16.649  -3.091  -3.432  1.00  0.00     0.049 A 
ATOM     64  H   UNL     1      14.706  -2.265  -3.503  1.00  0.00     0.167 HD
ATOM     65  C   UNL     1      15.461  -4.493  -5.101  1.00  0.00     0.074 A 
ATOM     66  C   UNL     1      15.389  -5.578  -6.060  1.00  0.00     0.031 C 
ATOM     67  C   UNL     1      16.581  -4.148  -4.416  1.00  0.00     0.034 A 
BRANCH  54  68
ATOM     68  C   UNL     1      15.815   0.687  -0.592  1.00  0.00     0.023 A 
ATOM     69  C   UNL     1      15.361   0.842   0.730  1.00  0.00     0.031 A 
ATOM     70  C   UNL     1      16.876   1.508  -1.019  1.00  0.00     0.131 A 
ATOM     71  C   UNL     1      15.906   1.845   1.547  1.00  0.00     0.055 A 
ATOM     72  C   UNL     1      17.471   2.447  -0.174  1.00  0.00     0.041 A 
ATOM     73  F   UNL     1      17.344   1.422  -2.274  1.00  0.00    -0.206 F 
ATOM     74  C   UNL     1      16.974   2.633   1.112  1.00  0.00     0.022 A 
BRANCH  71  75
ATOM     75  S   UNL     1      15.093   2.215   3.126  1.00  0.00     0.124 S 
ATOM     76  O   UNL     1      13.717   2.464   2.702  1.00  0.00    -0.237 OA
ATOM     77  O   UNL     1      15.315   0.992   3.888  1.00  0.00    -0.237 OA
ATOM     78  O   UNL     1      15.807   3.394   3.613  1.00  0.00    -0.744 OA
ENDBRANCH  71  75
ENDBRANCH  54  68
BRANCH  55  79
ATOM     79  C   UNL     1      11.377  -5.215  -7.340  1.00  0.00     0.023 A 
ATOM     80  C   UNL     1      11.123  -6.585  -7.190  1.00  0.00     0.031 A 
ATOM     81  C   UNL     1      10.986  -4.593  -8.541  1.00  0.00     0.131 A 
ATOM     82  C   UNL     1      10.507  -7.295  -8.232  1.00  0.00     0.055 A 
ATOM     83  C   UNL     1      10.332  -5.293  -9.554  1.00  0.00     0.041 A 
ATOM     84  F   UNL     1      11.200  -3.280  -8.726  1.00  0.00    -0.206 F 
ATOM     85  C   UNL     1      10.095  -6.655  -9.405  1.00  0.00     0.022 A 
BRANCH  82  86
ATOM     86  S   UNL     1      10.281  -9.084  -8.048  1.00  0.00     0.124 S 
ATOM     87  O   UNL     1      11.658  -9.547  -7.923  1.00  0.00    -0.237 OA
ATOM     88  O   UNL     1       9.465  -9.164  -6.840  1.00  0.00    -0.237 OA
ATOM     89  O   UNL     1       9.601  -9.470  -9.282  1.00  0.00    -0.744 OA
ENDBRANCH  82  86
ENDBRANCH  55  79
BRANCH  67  90
ATOM     90  C   UNL     1      17.813  -4.984  -4.668  1.00  0.00     0.023 A 
ATOM     91  C   UNL     1      18.473  -4.972  -5.910  1.00  0.00     0.031 A 
ATOM     92  C   UNL     1      18.311  -5.831  -3.662  1.00  0.00     0.131 A 
ATOM     93  C   UNL     1      19.558  -5.834  -6.133  1.00  0.00     0.055 A 
ATOM     94  C   UNL     1      19.428  -6.642  -3.870  1.00  0.00     0.041 A 
ATOM     95  F   UNL     1      17.716  -5.888  -2.460  1.00  0.00    -0.206 F 
ATOM     96  C   UNL     1      20.049  -6.657  -5.116  1.00  0.00     0.022 A 
BRANCH  93  97
ATOM     97  S   UNL     1      20.259  -5.941  -7.803  1.00  0.00     0.124 S 
ATOM     98  O   UNL     1      19.102  -6.355  -8.590  1.00  0.00    -0.237 OA
ATOM     99  O   UNL     1      20.733  -4.580  -8.031  1.00  0.00    -0.237 OA
ATOM    100  O   UNL     1      21.310  -6.949  -7.670  1.00  0.00    -0.744 OA
ENDBRANCH  93  97
ENDBRANCH  67  90
ENDBRANCH  41  42
ENDBRANCH  34  36
ENDBRANCH  33  34
ENDBRANCH  32  33
ENDBRANCH   1  32
TORSDOF 17
