REMARK SMILES O=C(OCCOC(=O)[C@@H](Cc1ccc(O)cc1)Nc1c2ccccc2nc2ccccc12)c1ccc(-c2c3nc(c(-c4cc(S(=O)(=O)[O-])ccc4F)c4ccc([nH]4)c(-c4cc(S(=O)(=O)[O-])ccc4F)c4nc(c(-c5cc(S(=O)(=O)[O-])ccc5F)c5ccc2[nH]5)C=C4)C=C3)cc1
REMARK SMILES IDX 4 1 3 2 2 3 1 4 33 5 34 6 95 7 35 8 94 9 36 10 37 11 38 12
REMARK SMILES IDX 88 13 39 14 93 15 87 16 89 17 40 18 92 19 86 20 85 21 41 23
REMARK SMILES IDX 73 24 53 25 72 26 54 27 57 28 71 29 90 30 55 31 56 32 70 34
REMARK SMILES IDX 91 35 58 36 42 37 43 38 51 39 44 40 50 41 52 42 49 43 45 44
REMARK SMILES IDX 46 45 47 46 48 47 74 48 75 49 83 50 76 51 82 52 84 53 81 54
REMARK SMILES IDX 77 55 78 56 79 57 80 58 59 59 60 60 68 61 61 62 67 63 69 64
REMARK SMILES IDX 66 65 62 66 63 67 64 68 65 69 5 70 6 71 7 72 8 73 9 74 10 75
REMARK SMILES IDX 11 76 12 77 17 78 13 79 16 80 14 81 15 82 18 84 19 86 20 87
REMARK SMILES IDX 32 88 21 89 25 90 27 91 31 92 22 93 24 94 26 95 28 96 30 97
REMARK SMILES IDX 23 98 29 99
REMARK H PARENT 89 22 57 33 15 83 18 85
REMARK Flexibility Score: inf
ROOT
ATOM      1  C   UNL     1       3.817  -1.781  -1.411  1.00  0.00     0.275 C 
ENDROOT
BRANCH   1   2
ATOM      2  O   UNL     1       2.710  -1.732  -0.502  1.00  0.00    -0.458 OA
BRANCH   2   3
ATOM      3  C   UNL     1       2.557  -0.918   0.566  1.00  0.00     0.338 C 
ATOM      4  O   UNL     1       1.476  -0.915   1.153  1.00  0.00    -0.246 OA
BRANCH   3   5
ATOM      5  C   UNL     1       3.562   0.097   1.005  1.00  0.00     0.060 A 
ATOM      6  C   UNL     1       5.036   0.441   0.127  1.00  0.00     0.016 A 
ATOM      7  C   UNL     1       2.926   1.177   2.282  1.00  0.00     0.016 A 
ATOM      8  C   UNL     1       5.888   1.968   0.443  1.00  0.00     0.010 A 
ATOM      9  C   UNL     1       3.628   2.750   2.664  1.00  0.00     0.010 A 
ATOM     10  C   UNL     1       5.147   3.267   1.814  1.00  0.00    -0.014 A 
BRANCH  10  11
ATOM     11  C   UNL     1       5.502   4.655   2.494  1.00  0.00     0.031 A 
ATOM     12  C   UNL     1       6.031   4.597   3.905  1.00  0.00     0.074 A 
ATOM     13  C   UNL     1       5.294   5.882   1.949  1.00  0.00     0.049 A 
ATOM     14  N   UNL     1       6.765   5.459   4.552  1.00  0.00    -0.248 NA
ATOM     15  C   UNL     1       5.639   3.434   4.719  1.00  0.00     0.031 C 
ATOM     16  C   UNL     1       4.460   6.185   0.794  1.00  0.00     0.029 A 
ATOM     17  N   UNL     1       5.966   7.072   2.153  1.00  0.00    -0.354 N 
ATOM     18  C   UNL     1       6.952   4.912   5.815  1.00  0.00     0.074 A 
ATOM     19  C   UNL     1       6.181   3.702   5.888  1.00  0.00     0.031 C 
ATOM     20  C   UNL     1       4.926   7.283   0.180  1.00  0.00     0.029 A 
ATOM     21  C   UNL     1       5.944   7.891   1.025  1.00  0.00     0.049 A 
ATOM     22  H   UNL     1       6.409   7.313   2.998  1.00  0.00     0.167 HD
ATOM     23  C   UNL     1       7.725   5.374   6.822  1.00  0.00     0.034 A 
ATOM     24  C   UNL     1       6.680   8.986   0.719  1.00  0.00     0.034 A 
ATOM     25  C   UNL     1       8.371   6.651   6.741  1.00  0.00     0.049 A 
ATOM     26  C   UNL     1       7.561   9.497   1.833  1.00  0.00     0.074 A 
ATOM     27  C   UNL     1       9.116   7.312   7.693  1.00  0.00     0.029 A 
ATOM     28  N   UNL     1       8.290   7.488   5.629  1.00  0.00    -0.354 N 
ATOM     29  N   UNL     1       7.825   8.934   2.993  1.00  0.00    -0.248 NA
ATOM     30  C   UNL     1       8.182  10.810   1.642  1.00  0.00     0.031 C 
ATOM     31  C   UNL     1       9.400   8.588   7.194  1.00  0.00     0.029 A 
ATOM     32  C   UNL     1       8.942   8.676   5.884  1.00  0.00     0.049 A 
ATOM     33  H   UNL     1       7.834   7.263   4.786  1.00  0.00     0.167 HD
ATOM     34  C   UNL     1       8.629   9.832   3.680  1.00  0.00     0.074 A 
ATOM     35  C   UNL     1       8.848  10.951   2.779  1.00  0.00     0.031 C 
ATOM     36  C   UNL     1       9.124   9.757   4.943  1.00  0.00     0.034 A 
BRANCH  23  37
ATOM     37  C   UNL     1       7.770   4.527   8.069  1.00  0.00     0.023 A 
ATOM     38  C   UNL     1       8.227   3.192   8.031  1.00  0.00     0.031 A 
ATOM     39  C   UNL     1       7.172   4.983   9.253  1.00  0.00     0.131 A 
ATOM     40  C   UNL     1       7.958   2.331   9.105  1.00  0.00     0.055 A 
ATOM     41  C   UNL     1       7.006   4.148  10.360  1.00  0.00     0.041 A 
ATOM     42  F   UNL     1       6.673   6.226   9.333  1.00  0.00    -0.206 F 
ATOM     43  C   UNL     1       7.377   2.808  10.282  1.00  0.00     0.022 A 
BRANCH  40  44
ATOM     44  S   UNL     1       8.152   0.542   8.852  1.00  0.00     0.124 S 
ATOM     45  O   UNL     1       7.199   0.292   7.772  1.00  0.00    -0.237 OA
ATOM     46  O   UNL     1       9.561   0.419   8.497  1.00  0.00    -0.237 OA
ATOM     47  O   UNL     1       7.781  -0.030  10.145  1.00  0.00    -0.744 OA
ENDBRANCH  40  44
ENDBRANCH  23  37
BRANCH  24  48
ATOM     48  C   UNL     1       6.590   9.708  -0.606  1.00  0.00     0.023 A 
ATOM     49  C   UNL     1       7.733  10.023  -1.378  1.00  0.00     0.031 A 
ATOM     50  C   UNL     1       5.354  10.160  -1.108  1.00  0.00     0.131 A 
ATOM     51  C   UNL     1       7.611  10.763  -2.575  1.00  0.00     0.055 A 
ATOM     52  C   UNL     1       5.229  10.821  -2.334  1.00  0.00     0.041 A 
ATOM     53  F   UNL     1       4.225   9.974  -0.405  1.00  0.00    -0.206 F 
ATOM     54  C   UNL     1       6.362  11.136  -3.071  1.00  0.00     0.022 A 
BRANCH  51  55
ATOM     55  S   UNL     1       9.107  11.350  -3.434  1.00  0.00     0.124 S 
ATOM     56  O   UNL     1       9.786  12.095  -2.380  1.00  0.00    -0.237 OA
ATOM     57  O   UNL     1       9.736  10.100  -3.847  1.00  0.00    -0.237 OA
ATOM     58  O   UNL     1       8.579  12.166  -4.526  1.00  0.00    -0.744 OA
ENDBRANCH  51  55
ENDBRANCH  24  48
BRANCH  36  59
ATOM     59  C   UNL     1      10.004  10.890   5.381  1.00  0.00     0.023 A 
ATOM     60  C   UNL     1       9.511  12.194   5.534  1.00  0.00     0.031 A 
ATOM     61  C   UNL     1      11.363  10.647   5.643  1.00  0.00     0.131 A 
ATOM     62  C   UNL     1      10.397  13.227   5.855  1.00  0.00     0.055 A 
ATOM     63  C   UNL     1      12.217  11.663   6.059  1.00  0.00     0.041 A 
ATOM     64  F   UNL     1      11.877   9.414   5.504  1.00  0.00    -0.206 F 
ATOM     65  C   UNL     1      11.739  12.967   6.148  1.00  0.00     0.022 A 
BRANCH  62  66
ATOM     66  S   UNL     1       9.805  14.934   5.724  1.00  0.00     0.124 S 
ATOM     67  O   UNL     1       9.357  14.989   4.336  1.00  0.00    -0.237 OA
ATOM     68  O   UNL     1       8.755  14.981   6.736  1.00  0.00    -0.237 OA
ATOM     69  O   UNL     1      10.994  15.730   6.024  1.00  0.00    -0.744 OA
ENDBRANCH  62  66
ENDBRANCH  36  59
ENDBRANCH  10  11
ENDBRANCH   3   5
ENDBRANCH   2   3
ENDBRANCH   1   2
BRANCH   1  70
ATOM     70  C   UNL     1       3.757  -0.704  -2.519  1.00  0.00     0.274 C 
BRANCH  70  71
ATOM     71  O   UNL     1       3.466   0.634  -2.046  1.00  0.00    -0.461 OA
BRANCH  71  72
ATOM     72  C   UNL     1       2.152   0.977  -1.943  1.00  0.00     0.329 C 
ATOM     73  O   UNL     1       1.244   0.282  -2.389  1.00  0.00    -0.250 OA
BRANCH  72  74
ATOM     74  C   UNL     1       1.914   2.325  -1.229  1.00  0.00     0.194 C 
BRANCH  74  75
ATOM     75  C   UNL     1       2.496   2.479   0.178  1.00  0.00     0.072 C 
BRANCH  75  76
ATOM     76  C   UNL     1       4.032   2.317   0.571  1.00  0.00    -0.045 A 
ATOM     77  C   UNL     1       5.092   1.374   2.024  1.00  0.00     0.007 A 
ATOM     78  C   UNL     1       4.920   3.627  -0.332  1.00  0.00     0.007 A 
ATOM     79  C   UNL     1       6.795   1.864   2.340  1.00  0.00     0.046 A 
ATOM     80  C   UNL     1       6.590   4.017   0.114  1.00  0.00     0.046 A 
ATOM     81  C   UNL     1       7.466   3.160   1.385  1.00  0.00     0.115 A 
BRANCH  81  82
ATOM     82  O   UNL     1       8.813   3.400   1.456  1.00  0.00    -0.508 OA
ATOM     83  H   UNL     1       9.331   2.974   2.111  1.00  0.00     0.293 HD
ENDBRANCH  81  82
ENDBRANCH  75  76
ENDBRANCH  74  75
BRANCH  74  84
ATOM     84  N   UNL     1       2.310   3.458  -2.034  1.00  0.00    -0.371 N 
ATOM     85  H   UNL     1       3.203   3.396  -2.443  1.00  0.00     0.161 HD
BRANCH  84  86
ATOM     86  C   UNL     1       1.601   4.628  -2.312  1.00  0.00     0.054 A 
ATOM     87  C   UNL     1       0.547   5.209  -1.500  1.00  0.00     0.024 A 
ATOM     88  C   UNL     1       1.910   5.220  -3.574  1.00  0.00     0.024 A 
ATOM     89  C   UNL     1       0.112   4.837  -0.185  1.00  0.00     0.012 A 
ATOM     90  C   UNL     1      -0.127   6.319  -2.053  1.00  0.00     0.073 A 
ATOM     91  C   UNL     1       1.117   6.291  -4.003  1.00  0.00     0.073 A 
ATOM     92  C   UNL     1       2.947   4.763  -4.437  1.00  0.00     0.012 A 
ATOM     93  C   UNL     1      -0.881   5.515   0.532  1.00  0.00     0.001 A 
ATOM     94  C   UNL     1      -1.136   6.965  -1.339  1.00  0.00     0.029 A 
ATOM     95  N   UNL     1       0.133   6.816  -3.266  1.00  0.00    -0.248 NA
ATOM     96  C   UNL     1       1.335   6.820  -5.269  1.00  0.00     0.029 A 
ATOM     97  C   UNL     1       3.155   5.311  -5.694  1.00  0.00     0.001 A 
ATOM     98  C   UNL     1      -1.518   6.585  -0.055  1.00  0.00     0.002 A 
ATOM     99  C   UNL     1       2.332   6.335  -6.120  1.00  0.00     0.002 A 
ENDBRANCH  84  86
ENDBRANCH  74  84
ENDBRANCH  72  74
ENDBRANCH  71  72
ENDBRANCH  70  71
ENDBRANCH   1  70
TORSDOF 19
