REMARK SMILES Cc1ccc(-c2nc(C)cc(N3CCCC[C@H]3C(=O)OCCOC(=O)c3ccc(-c4c5nc(c(-c6cc(S(=O)(=O)[O-])ccc6F)c6ccc([nH]6)c(-c6cc(S(=O)(=O)[O-])ccc6F)c6nc(c(-c7cc(S(=O)(=O)[O-])ccc7F)c7ccc4[nH]7)C=C6)C=C5)cc3)n2)cc1
REMARK SMILES IDX 22 1 21 2 20 3 18 4 19 5 17 6 12 7 13 8 14 9 16 10 15 11
REMARK SMILES IDX 11 12 6 13 7 14 89 15 8 16 9 17 10 18 5 19 1 20 2 21 3 22
REMARK SMILES IDX 91 23 4 24 90 25 23 26 24 27 25 28 26 29 27 30 88 31 28 32
REMARK SMILES IDX 87 33 29 34 30 35 31 36 81 37 32 38 86 39 80 40 82 41 33 42
REMARK SMILES IDX 85 43 79 44 78 45 34 47 66 48 46 49 65 50 47 51 50 52 64 53
REMARK SMILES IDX 83 54 48 55 49 56 63 58 84 59 51 60 35 61 36 62 44 63 37 64
REMARK SMILES IDX 43 65 45 66 42 67 38 68 39 69 40 70 41 71 67 72 68 73 76 74
REMARK SMILES IDX 69 75 75 76 77 77 74 78 70 79 71 80 72 81 73 82 52 83 53 84
REMARK SMILES IDX 61 85 54 86 60 87 62 88 59 89 55 90 56 91 57 92 58 93
REMARK H PARENT 82 46 50 57
REMARK Flexibility Score: inf
ROOT
ATOM      1  C   UNL     1     -10.540   0.596  -5.279  1.00  0.00     0.275 C 
ENDROOT
BRANCH   1   2
ATOM      2  C   UNL     1     -11.191   1.569  -4.285  1.00  0.00     0.274 C 
BRANCH   2   3
ATOM      3  O   UNL     1     -10.174   2.460  -3.789  1.00  0.00    -0.461 OA
BRANCH   3   4
ATOM      4  C   UNL     1      -9.251   1.890  -2.809  1.00  0.00     0.328 C 
ATOM      5  O   UNL     1      -9.953   1.020  -2.224  1.00  0.00    -0.250 OA
BRANCH   4   6
ATOM      6  C   UNL     1      -7.143   2.492  -2.567  1.00  0.00     0.193 C 
ATOM      7  N   UNL     1      -5.749   1.440  -2.321  1.00  0.00    -0.343 N 
ATOM      8  C   UNL     1      -4.999   1.023  -3.529  1.00  0.00     0.119 C 
ATOM      9  C   UNL     1      -4.493   2.146  -4.416  1.00  0.00     0.022 C 
ATOM     10  C   UNL     1      -6.145   3.733  -3.344  1.00  0.00     0.037 C 
ATOM     11  C   UNL     1      -5.406   3.333  -4.615  1.00  0.00     0.005 C 
BRANCH   7  12
ATOM     12  C   UNL     1      -5.081   1.064  -1.126  1.00  0.00     0.133 A 
ATOM     13  C   UNL     1      -3.097   0.260  -0.192  1.00  0.00     0.161 A 
ATOM     14  N   UNL     1      -3.681  -0.394   0.813  1.00  0.00    -0.233 NA
ATOM     15  N   UNL     1      -3.728   0.984  -1.148  1.00  0.00    -0.211 NA
ATOM     16  C   UNL     1      -4.998  -0.243   0.905  1.00  0.00     0.043 A 
ATOM     17  C   UNL     1      -5.627  -1.010   2.027  1.00  0.00     0.067 C 
ATOM     18  C   UNL     1      -5.717   0.529  -0.006  1.00  0.00     0.070 A 
BRANCH  13  19
ATOM     19  C   UNL     1      -1.639   0.176  -0.197  1.00  0.00     0.019 A 
ATOM     20  C   UNL     1       2.672  -0.035   0.008  1.00  0.00     0.044 C 
ATOM     21  C   UNL     1       1.177   0.040  -0.041  1.00  0.00    -0.051 A 
ATOM     22  C   UNL     1       0.415  -1.133  -0.036  1.00  0.00     0.004 A 
ATOM     23  C   UNL     1       0.525   1.276  -0.104  1.00  0.00     0.004 A 
ATOM     24  C   UNL     1      -0.979  -1.064  -0.103  1.00  0.00     0.012 A 
ATOM     25  C   UNL     1      -0.866   1.342  -0.188  1.00  0.00     0.012 A 
ENDBRANCH  13  19
ENDBRANCH   7  12
ENDBRANCH   4   6
ENDBRANCH   3   4
ENDBRANCH   2   3
ENDBRANCH   1   2
BRANCH   1  26
ATOM     26  O   UNL     1      -9.611  -0.375  -4.724  1.00  0.00    -0.458 OA
BRANCH  26  27
ATOM     27  C   UNL     1      -8.267  -0.192  -4.753  1.00  0.00     0.338 C 
ATOM     28  O   UNL     1      -7.459  -0.896  -5.335  1.00  0.00    -0.246 OA
BRANCH  27  29
ATOM     29  C   UNL     1      -7.828   0.892  -3.857  1.00  0.00     0.060 A 
ATOM     30  C   UNL     1      -7.883   0.548  -2.086  1.00  0.00     0.016 A 
ATOM     31  C   UNL     1      -8.110   2.548  -4.451  1.00  0.00     0.016 A 
ATOM     32  C   UNL     1      -8.368   1.868  -0.928  1.00  0.00     0.010 A 
ATOM     33  C   UNL     1      -8.614   3.843  -3.296  1.00  0.00     0.010 A 
ATOM     34  C   UNL     1      -8.813   3.474  -1.561  1.00  0.00    -0.014 A 
BRANCH  34  35
ATOM     35  C   UNL     1      -9.857   4.284  -0.963  1.00  0.00     0.031 A 
ATOM     36  C   UNL     1      -9.570   5.718  -0.877  1.00  0.00     0.074 A 
ATOM     37  C   UNL     1     -11.080   3.713  -0.810  1.00  0.00     0.049 A 
ATOM     38  N   UNL     1     -10.268   6.528  -0.181  1.00  0.00    -0.248 NA
ATOM     39  C   UNL     1      -8.412   6.379  -1.490  1.00  0.00     0.031 C 
ATOM     40  C   UNL     1     -12.409   4.315  -0.724  1.00  0.00     0.029 A 
ATOM     41  N   UNL     1     -11.357   2.374  -0.584  1.00  0.00    -0.354 N 
ATOM     42  C   UNL     1      -9.936   7.796  -0.591  1.00  0.00     0.074 A 
ATOM     43  C   UNL     1      -8.668   7.667  -1.242  1.00  0.00     0.031 C 
ATOM     44  C   UNL     1     -13.285   3.412  -0.232  1.00  0.00     0.029 A 
ATOM     45  C   UNL     1     -12.549   2.210   0.113  1.00  0.00     0.049 A 
ATOM     46  H   UNL     1     -10.782   1.632  -0.880  1.00  0.00     0.167 HD
ATOM     47  C   UNL     1     -10.895   8.749  -0.474  1.00  0.00     0.034 A 
ATOM     48  C   UNL     1     -12.495   1.645   1.355  1.00  0.00     0.034 A 
ATOM     49  C   UNL     1     -12.019   8.206   0.296  1.00  0.00     0.049 A 
ATOM     50  C   UNL     1     -12.534   2.741   2.415  1.00  0.00     0.074 A 
ATOM     51  C   UNL     1     -13.272   7.732  -0.045  1.00  0.00     0.029 A 
ATOM     52  N   UNL     1     -11.747   7.703   1.562  1.00  0.00    -0.354 N 
ATOM     53  N   UNL     1     -12.395   4.016   2.152  1.00  0.00    -0.248 NA
ATOM     54  C   UNL     1     -12.826   2.501   3.822  1.00  0.00     0.031 C 
ATOM     55  C   UNL     1     -13.687   6.838   0.995  1.00  0.00     0.029 A 
ATOM     56  C   UNL     1     -12.709   6.807   1.978  1.00  0.00     0.049 A 
ATOM     57  H   UNL     1     -10.961   7.957   2.099  1.00  0.00     0.167 HD
ATOM     58  C   UNL     1     -12.613   4.765   3.273  1.00  0.00     0.074 A 
ATOM     59  C   UNL     1     -12.893   3.760   4.291  1.00  0.00     0.031 C 
ATOM     60  C   UNL     1     -12.557   6.139   3.271  1.00  0.00     0.034 A 
BRANCH  47  61
ATOM     61  C   UNL     1     -10.937  10.070  -1.192  1.00  0.00     0.023 A 
ATOM     62  C   UNL     1     -12.020  10.919  -0.904  1.00  0.00     0.031 A 
ATOM     63  C   UNL     1     -10.063  10.525  -2.204  1.00  0.00     0.131 A 
ATOM     64  C   UNL     1     -12.209  12.131  -1.587  1.00  0.00     0.055 A 
ATOM     65  C   UNL     1     -10.227  11.756  -2.857  1.00  0.00     0.041 A 
ATOM     66  F   UNL     1      -9.037   9.796  -2.657  1.00  0.00    -0.206 F 
ATOM     67  C   UNL     1     -11.308  12.566  -2.554  1.00  0.00     0.022 A 
BRANCH  64  68
ATOM     68  S   UNL     1     -13.685  13.106  -1.211  1.00  0.00     0.124 S 
ATOM     69  O   UNL     1     -14.757  12.208  -1.629  1.00  0.00    -0.237 OA
ATOM     70  O   UNL     1     -13.547  13.330   0.223  1.00  0.00    -0.237 OA
ATOM     71  O   UNL     1     -13.521  14.299  -2.041  1.00  0.00    -0.744 OA
ENDBRANCH  64  68
ENDBRANCH  47  61
BRANCH  48  72
ATOM     72  C   UNL     1     -11.656   0.401   1.344  1.00  0.00     0.023 A 
ATOM     73  C   UNL     1     -12.024  -0.615   0.419  1.00  0.00     0.031 A 
ATOM     74  C   UNL     1     -10.343   0.395   1.808  1.00  0.00     0.131 A 
ATOM     75  C   UNL     1     -11.052  -1.442  -0.170  1.00  0.00     0.055 A 
ATOM     76  C   UNL     1      -9.401  -0.488   1.270  1.00  0.00     0.041 A 
ATOM     77  F   UNL     1      -9.888   1.353   2.629  1.00  0.00    -0.206 F 
ATOM     78  C   UNL     1      -9.729  -1.377   0.248  1.00  0.00     0.022 A 
BRANCH  75  79
ATOM     79  S   UNL     1     -11.467  -2.365  -1.688  1.00  0.00     0.124 S 
ATOM     80  O   UNL     1     -12.127  -3.548  -1.144  1.00  0.00    -0.237 OA
ATOM     81  O   UNL     1     -12.335  -1.439  -2.413  1.00  0.00    -0.237 OA
ATOM     82  O   UNL     1     -10.165  -2.610  -2.304  1.00  0.00    -0.744 OA
ENDBRANCH  75  79
ENDBRANCH  48  72
BRANCH  60  83
ATOM     83  C   UNL     1     -12.414   6.996   4.519  1.00  0.00     0.023 A 
ATOM     84  C   UNL     1     -12.224   6.440   5.784  1.00  0.00     0.031 A 
ATOM     85  C   UNL     1     -12.400   8.415   4.488  1.00  0.00     0.131 A 
ATOM     86  C   UNL     1     -12.206   7.230   6.941  1.00  0.00     0.055 A 
ATOM     87  C   UNL     1     -12.238   9.209   5.627  1.00  0.00     0.041 A 
ATOM     88  F   UNL     1     -12.529   9.118   3.356  1.00  0.00    -0.206 F 
ATOM     89  C   UNL     1     -12.184   8.616   6.875  1.00  0.00     0.022 A 
BRANCH  86  90
ATOM     90  S   UNL     1     -12.346   6.370   8.522  1.00  0.00     0.124 S 
ATOM     91  O   UNL     1     -13.640   5.707   8.384  1.00  0.00    -0.237 OA
ATOM     92  O   UNL     1     -11.182   5.489   8.502  1.00  0.00    -0.237 OA
ATOM     93  O   UNL     1     -12.299   7.449   9.504  1.00  0.00    -0.744 OA
ENDBRANCH  86  90
ENDBRANCH  60  83
ENDBRANCH  34  35
ENDBRANCH  27  29
ENDBRANCH  26  27
ENDBRANCH   1  26
TORSDOF 16
