REMARK SMILES COc1cc(/C=C2\SC(=S)N([C@H](C)C(=O)Nc3ccc(C(=O)OCCOC(=O)c4ccc(-c5c6nc(c(-c7cc(S(=O)(=O)[O-])ccc7F)c7ccc([nH]7)c(-c7cc(S(=O)(=O)[O-])ccc7F)c7nc(c(-c8cc(S(=O)(=O)[O-])ccc8F)c8ccc5[nH]8)C=C7)C=C6)cc4)cc3)C2=O)ccc1O
REMARK SMILES IDX 24 1 23 2 21 3 22 4 20 5 17 6 18 7 93 8 19 9 92 10 16 11
REMARK SMILES IDX 14 12 15 13 12 15 13 16 11 17 6 18 7 19 8 20 94 21 9 22
REMARK SMILES IDX 95 23 10 24 5 25 3 26 4 27 98 28 97 29 96 30 2 31 1 32 99 33
REMARK SMILES IDX 25 35 26 36 27 37 28 38 29 39 30 40 91 41 31 42 90 43 32 44
REMARK SMILES IDX 33 45 34 46 84 47 35 48 89 49 83 50 85 51 36 52 88 53 82 54
REMARK SMILES IDX 81 55 37 57 69 58 49 59 68 60 50 61 53 62 67 63 86 64 51 65
REMARK SMILES IDX 52 66 66 68 87 69 54 70 38 71 39 72 47 73 40 74 46 75 48 76
REMARK SMILES IDX 45 77 41 78 42 79 43 80 44 81 70 82 71 83 79 84 72 85 78 86
REMARK SMILES IDX 80 87 77 88 73 89 74 90 75 91 76 92 55 93 56 94 64 95 57 96
REMARK SMILES IDX 63 97 65 98 62 99 58 100 59 101 60 102 61 103
REMARK H PARENT 16 14 99 34 85 56 53 67
REMARK Flexibility Score: inf
ROOT
ATOM      1  C   UNL     1      -1.955   0.799   5.338  1.00  0.00     0.275 C 
ENDROOT
BRANCH   1   2
ATOM      2  O   UNL     1      -1.865  -0.622   5.559  1.00  0.00    -0.458 OA
BRANCH   2   3
ATOM      3  C   UNL     1      -2.187  -1.013   6.813  1.00  0.00     0.338 C 
ATOM      4  O   UNL     1      -2.462  -0.270   7.746  1.00  0.00    -0.246 OA
BRANCH   3   5
ATOM      5  C   UNL     1      -2.156  -2.485   6.980  1.00  0.00     0.060 A 
ATOM      6  C   UNL     1      -1.556  -5.003   7.972  1.00  0.00     0.041 A 
ATOM      7  C   UNL     1      -2.671  -4.338   8.460  1.00  0.00     0.027 A 
ATOM      8  C   UNL     1      -0.897  -4.532   6.838  1.00  0.00     0.027 A 
ATOM      9  C   UNL     1      -2.931  -3.054   8.000  1.00  0.00     0.018 A 
ATOM     10  C   UNL     1      -1.205  -3.269   6.324  1.00  0.00     0.018 A 
BRANCH   6  11
ATOM     11  N   UNL     1      -1.117  -6.109   8.690  1.00  0.00    -0.324 N 
ATOM     12  C   UNL     1       0.033  -6.256   9.417  1.00  0.00     0.247 C 
ATOM     13  O   UNL     1       0.119  -7.297  10.083  1.00  0.00    -0.272 OA
ATOM     14  H   UNL     1      -1.714  -6.892   8.674  1.00  0.00     0.170 HD
BRANCH  12  15
ATOM     15  C   UNL     1       1.186  -5.206   9.498  1.00  0.00     0.178 C 
ATOM     16  C   UNL     1       1.977  -5.088   8.201  1.00  0.00     0.042 C 
BRANCH  15  17
ATOM     17  N   UNL     1       0.830  -3.966  10.239  1.00  0.00    -0.280 N 
ATOM     18  C   UNL     1       0.546  -2.184  13.398  1.00  0.00     0.029 C 
ATOM     19  C   UNL     1       0.321  -2.711  12.185  1.00  0.00     0.081 C 
ATOM     20  S   UNL     1      -0.667  -2.032  10.951  1.00  0.00    -0.054 SA
ATOM     21  C   UNL     1       1.009  -3.917  11.619  1.00  0.00     0.266 C 
ATOM     22  C   UNL     1       0.395  -2.759   9.754  1.00  0.00     0.149 C 
ATOM     23  O   UNL     1       1.703  -4.670  12.287  1.00  0.00    -0.268 OA
ATOM     24  S   UNL     1       1.038  -1.845   8.514  1.00  0.00    -0.052 S 
BRANCH  18  25
ATOM     25  C   UNL     1      -0.199  -1.034  13.934  1.00  0.00    -0.020 A 
ATOM     26  C   UNL     1      -0.439   1.356  14.404  1.00  0.00     0.161 A 
ATOM     27  C   UNL     1       0.320   0.270  13.928  1.00  0.00     0.058 A 
ATOM     28  C   UNL     1      -1.735   1.111  14.868  1.00  0.00     0.157 A 
ATOM     29  C   UNL     1      -2.252  -0.182  14.897  1.00  0.00     0.051 A 
ATOM     30  C   UNL     1      -1.489  -1.250  14.429  1.00  0.00     0.012 A 
BRANCH  26  31
ATOM     31  O   UNL     1       0.206   2.563  14.330  1.00  0.00    -0.493 OA
ATOM     32  C   UNL     1      -0.327   3.652  15.077  1.00  0.00     0.278 C 
ENDBRANCH  26  31
BRANCH  28  33
ATOM     33  O   UNL     1      -2.585   2.096  15.277  1.00  0.00    -0.504 OA
ATOM     34  H   UNL     1      -2.300   2.989  15.283  1.00  0.00     0.293 HD
ENDBRANCH  28  33
ENDBRANCH  18  25
ENDBRANCH  15  17
ENDBRANCH  12  15
ENDBRANCH   6  11
ENDBRANCH   3   5
ENDBRANCH   2   3
ENDBRANCH   1   2
BRANCH   1  35
ATOM     35  C   UNL     1      -3.285   1.165   4.679  1.00  0.00     0.275 C 
BRANCH  35  36
ATOM     36  O   UNL     1      -4.391   0.931   5.573  1.00  0.00    -0.458 OA
BRANCH  36  37
ATOM     37  C   UNL     1      -5.052  -0.232   5.365  1.00  0.00     0.338 C 
ATOM     38  O   UNL     1      -4.833  -1.057   4.494  1.00  0.00    -0.246 OA
BRANCH  37  39
ATOM     39  C   UNL     1      -6.076  -0.441   6.400  1.00  0.00     0.060 A 
ATOM     40  C   UNL     1      -5.671  -0.833   7.669  1.00  0.00     0.016 A 
ATOM     41  C   UNL     1      -7.426  -0.463   6.068  1.00  0.00     0.016 A 
ATOM     42  C   UNL     1      -6.578  -1.400   8.556  1.00  0.00     0.010 A 
ATOM     43  C   UNL     1      -8.361  -0.885   7.024  1.00  0.00     0.010 A 
ATOM     44  C   UNL     1      -7.945  -1.405   8.265  1.00  0.00    -0.014 A 
BRANCH  44  45
ATOM     45  C   UNL     1      -8.926  -1.967   9.241  1.00  0.00     0.031 A 
ATOM     46  C   UNL     1      -9.910  -3.022   8.800  1.00  0.00     0.074 A 
ATOM     47  C   UNL     1      -8.941  -1.539  10.521  1.00  0.00     0.049 A 
ATOM     48  N   UNL     1     -10.985  -3.459   9.404  1.00  0.00    -0.248 NA
ATOM     49  C   UNL     1      -9.661  -3.651   7.494  1.00  0.00     0.031 C 
ATOM     50  C   UNL     1      -8.005  -0.576  11.109  1.00  0.00     0.029 A 
ATOM     51  N   UNL     1      -9.776  -1.854  11.566  1.00  0.00    -0.354 N 
ATOM     52  C   UNL     1     -11.575  -4.365   8.527  1.00  0.00     0.074 A 
ATOM     53  C   UNL     1     -10.743  -4.401   7.343  1.00  0.00     0.031 C 
ATOM     54  C   UNL     1      -8.290  -0.412  12.407  1.00  0.00     0.029 A 
ATOM     55  C   UNL     1      -9.507  -1.147  12.717  1.00  0.00     0.049 A 
ATOM     56  H   UNL     1     -10.497  -2.521  11.499  1.00  0.00     0.167 HD
ATOM     57  C   UNL     1     -12.708  -5.093   8.699  1.00  0.00     0.034 A 
ATOM     58  C   UNL     1     -10.195  -1.037  13.871  1.00  0.00     0.034 A 
ATOM     59  C   UNL     1     -13.498  -5.066   9.908  1.00  0.00     0.049 A 
ATOM     60  C   UNL     1     -11.492  -1.788  14.009  1.00  0.00     0.074 A 
ATOM     61  C   UNL     1     -14.655  -5.771  10.198  1.00  0.00     0.029 A 
ATOM     62  N   UNL     1     -13.213  -4.298  11.030  1.00  0.00    -0.354 N 
ATOM     63  N   UNL     1     -12.078  -2.587  13.147  1.00  0.00    -0.248 NA
ATOM     64  C   UNL     1     -12.226  -1.614  15.268  1.00  0.00     0.031 C 
ATOM     65  C   UNL     1     -15.108  -5.371  11.459  1.00  0.00     0.029 A 
ATOM     66  C   UNL     1     -14.188  -4.487  11.999  1.00  0.00     0.049 A 
ATOM     67  H   UNL     1     -12.432  -3.705  11.124  1.00  0.00     0.167 HD
ATOM     68  C   UNL     1     -13.237  -3.033  13.774  1.00  0.00     0.074 A 
ATOM     69  C   UNL     1     -13.257  -2.426  15.089  1.00  0.00     0.031 C 
ATOM     70  C   UNL     1     -14.197  -3.870  13.305  1.00  0.00     0.034 A 
BRANCH  57  71
ATOM     71  C   UNL     1     -13.194  -5.924   7.532  1.00  0.00     0.023 A 
ATOM     72  C   UNL     1     -12.446  -6.991   7.005  1.00  0.00     0.031 A 
ATOM     73  C   UNL     1     -14.424  -5.622   6.918  1.00  0.00     0.131 A 
ATOM     74  C   UNL     1     -12.896  -7.664   5.857  1.00  0.00     0.055 A 
ATOM     75  C   UNL     1     -14.908  -6.353   5.830  1.00  0.00     0.041 A 
ATOM     76  F   UNL     1     -15.175  -4.600   7.358  1.00  0.00    -0.206 F 
ATOM     77  C   UNL     1     -14.135  -7.371   5.283  1.00  0.00     0.022 A 
BRANCH  74  78
ATOM     78  S   UNL     1     -11.768  -8.822   5.033  1.00  0.00     0.124 S 
ATOM     79  O   UNL     1     -10.621  -7.963   4.748  1.00  0.00    -0.237 OA
ATOM     80  O   UNL     1     -11.563  -9.843   6.054  1.00  0.00    -0.237 OA
ATOM     81  O   UNL     1     -12.520  -9.255   3.857  1.00  0.00    -0.744 OA
ENDBRANCH  74  78
ENDBRANCH  57  71
BRANCH  58  82
ATOM     82  C   UNL     1      -9.717  -0.122  14.950  1.00  0.00     0.023 A 
ATOM     83  C   UNL     1      -9.383  -0.615  16.220  1.00  0.00     0.031 A 
ATOM     84  C   UNL     1      -9.620   1.266  14.737  1.00  0.00     0.131 A 
ATOM     85  C   UNL     1      -9.008   0.276  17.238  1.00  0.00     0.055 A 
ATOM     86  C   UNL     1      -9.180   2.139  15.732  1.00  0.00     0.041 A 
ATOM     87  F   UNL     1      -9.934   1.796  13.543  1.00  0.00    -0.206 F 
ATOM     88  C   UNL     1      -8.884   1.646  16.998  1.00  0.00     0.022 A 
BRANCH  85  89
ATOM     89  S   UNL     1      -8.780  -0.375  18.915  1.00  0.00     0.124 S 
ATOM     90  O   UNL     1     -10.081  -0.982  19.175  1.00  0.00    -0.237 OA
ATOM     91  O   UNL     1      -7.666  -1.298  18.732  1.00  0.00    -0.237 OA
ATOM     92  O   UNL     1      -8.479   0.818  19.704  1.00  0.00    -0.744 OA
ENDBRANCH  85  89
ENDBRANCH  58  82
BRANCH  70  93
ATOM     93  C   UNL     1     -15.317  -4.223  14.253  1.00  0.00     0.023 A 
ATOM     94  C   UNL     1     -16.248  -3.267  14.693  1.00  0.00     0.031 A 
ATOM     95  C   UNL     1     -15.442  -5.539  14.733  1.00  0.00     0.131 A 
ATOM     96  C   UNL     1     -17.227  -3.627  15.630  1.00  0.00     0.055 A 
ATOM     97  C   UNL     1     -16.459  -5.907  15.613  1.00  0.00     0.041 A 
ATOM     98  F   UNL     1     -14.575  -6.491  14.351  1.00  0.00    -0.206 F 
ATOM     99  C   UNL     1     -17.352  -4.946  16.078  1.00  0.00     0.022 A 
BRANCH  96 100
ATOM    100  S   UNL     1     -18.276  -2.327  16.338  1.00  0.00     0.124 S 
ATOM    101  O   UNL     1     -17.289  -1.436  16.938  1.00  0.00    -0.237 OA
ATOM    102  O   UNL     1     -18.970  -1.811  15.162  1.00  0.00    -0.237 OA
ATOM    103  O   UNL     1     -19.121  -3.048  17.288  1.00  0.00    -0.744 OA
ENDBRANCH  96 100
ENDBRANCH  70  93
ENDBRANCH  44  45
ENDBRANCH  37  39
ENDBRANCH  36  37
ENDBRANCH  35  36
ENDBRANCH   1  35
TORSDOF 20
