REMARK SMILES O=C(CSCc1ccc(C(=O)OCCOC(=O)c2ccc(-c3c4nc(c(-c5cc(S(=O)(=O)[O-])ccc5F)c5ccc([nH]5)c(-c5cc(S(=O)(=O)[O-])ccc5F)c5nc(c(-c6cc(S(=O)(=O)[O-])ccc6F)c6ccc3[nH]6)C=C5)C=C4)cc2)cc1)Nc1ccc(Cl)cc1
REMARK SMILES IDX 13 1 12 2 10 3 11 4 9 5 6 6 7 7 82 8 8 9 81 10 5 11 4 12
REMARK SMILES IDX 3 13 2 14 1 15 83 16 84 18 85 19 90 20 86 21 89 22 87 23
REMARK SMILES IDX 88 24 14 25 15 26 16 27 17 28 18 29 19 30 80 31 20 32 79 33
REMARK SMILES IDX 21 34 22 35 23 36 73 37 24 38 78 39 72 40 74 41 25 42 77 43
REMARK SMILES IDX 71 44 70 45 26 47 58 48 38 49 57 50 39 51 42 52 56 53 75 54
REMARK SMILES IDX 40 55 41 56 55 58 76 59 43 60 27 61 28 62 36 63 29 64 35 65
REMARK SMILES IDX 37 66 34 67 30 68 31 69 32 70 33 71 59 72 60 73 68 74 61 75
REMARK SMILES IDX 67 76 69 77 66 78 62 79 63 80 64 81 65 82 44 83 45 84 53 85
REMARK SMILES IDX 46 86 52 87 54 88 51 89 47 90 48 91 49 92 50 93
REMARK H PARENT 83 17 74 46 42 57
REMARK Flexibility Score: inf
ROOT
ATOM      1  C   UNL     1      -2.663   6.874  -1.072  1.00  0.00     0.275 C 
ENDROOT
BRANCH   1   2
ATOM      2  O   UNL     1      -1.848   5.865  -0.445  1.00  0.00    -0.458 OA
BRANCH   2   3
ATOM      3  C   UNL     1      -0.518   5.956  -0.695  1.00  0.00     0.338 C 
ATOM      4  O   UNL     1       0.030   6.790  -1.399  1.00  0.00    -0.246 OA
BRANCH   3   5
ATOM      5  C   UNL     1       0.238   4.930   0.061  1.00  0.00     0.060 A 
ATOM      6  C   UNL     1       1.799   3.020   1.405  1.00  0.00    -0.038 A 
ATOM      7  C   UNL     1       2.314   4.294   1.141  1.00  0.00     0.005 A 
ATOM      8  C   UNL     1       0.484   2.720   1.012  1.00  0.00     0.005 A 
ATOM      9  C   UNL     1       1.552   5.226   0.444  1.00  0.00     0.016 A 
ATOM     10  C   UNL     1      -0.299   3.674   0.353  1.00  0.00     0.016 A 
BRANCH   6  11
ATOM     11  C   UNL     1       2.674   1.980   2.051  1.00  0.00     0.105 C 
BRANCH  11  12
ATOM     12  S   UNL     1       4.078   1.466   0.990  1.00  0.00    -0.147 SA
BRANCH  12  13
ATOM     13  C   UNL     1       3.188   0.976  -0.535  1.00  0.00     0.170 C 
BRANCH  13  14
ATOM     14  C   UNL     1       2.226  -0.184  -0.308  1.00  0.00     0.234 C 
ATOM     15  O   UNL     1       1.171  -0.261  -0.932  1.00  0.00    -0.274 OA
ATOM     16  N   UNL     1       2.701  -1.113   0.601  1.00  0.00    -0.325 N 
ATOM     17  H   UNL     1       3.575  -0.909   1.006  1.00  0.00     0.169 HD
BRANCH  16  18
ATOM     18  C   UNL     1       2.097  -2.308   1.021  1.00  0.00     0.041 A 
ATOM     19  C   UNL     1       2.691  -2.973   2.101  1.00  0.00     0.027 A 
ATOM     20  C   UNL     1       0.959  -2.855   0.426  1.00  0.00     0.027 A 
ATOM     21  C   UNL     1       2.145  -4.163   2.590  1.00  0.00     0.022 A 
ATOM     22  C   UNL     1       0.417  -4.052   0.907  1.00  0.00     0.022 A 
ATOM     23  C   UNL     1       1.010  -4.699   1.988  1.00  0.00     0.041 A 
ATOM     24  Cl  UNL     1       0.339  -6.167   2.581  1.00  0.00    -0.084 Cl
ENDBRANCH  16  18
ENDBRANCH  13  14
ENDBRANCH  12  13
ENDBRANCH  11  12
ENDBRANCH   6  11
ENDBRANCH   3   5
ENDBRANCH   2   3
ENDBRANCH   1   2
BRANCH   1  25
ATOM     25  C   UNL     1      -3.022   7.989  -0.091  1.00  0.00     0.275 C 
BRANCH  25  26
ATOM     26  O   UNL     1      -1.836   8.695   0.317  1.00  0.00    -0.458 OA
BRANCH  26  27
ATOM     27  C   UNL     1      -1.554   8.645   1.640  1.00  0.00     0.338 C 
ATOM     28  O   UNL     1      -2.219   8.123   2.518  1.00  0.00    -0.246 OA
BRANCH  27  29
ATOM     29  C   UNL     1      -0.271   9.317   1.904  1.00  0.00     0.060 A 
ATOM     30  C   UNL     1       0.905   8.739   1.437  1.00  0.00     0.016 A 
ATOM     31  C   UNL     1      -0.217  10.425   2.746  1.00  0.00     0.016 A 
ATOM     32  C   UNL     1       2.142   9.196   1.889  1.00  0.00     0.010 A 
ATOM     33  C   UNL     1       1.029  10.947   3.119  1.00  0.00     0.010 A 
ATOM     34  C   UNL     1       2.226  10.310   2.737  1.00  0.00    -0.014 A 
BRANCH  34  35
ATOM     35  C   UNL     1       3.545  10.761   3.281  1.00  0.00     0.031 A 
ATOM     36  C   UNL     1       3.755  10.839   4.775  1.00  0.00     0.074 A 
ATOM     37  C   UNL     1       4.565  11.081   2.458  1.00  0.00     0.049 A 
ATOM     38  N   UNL     1       4.734  11.384   5.452  1.00  0.00    -0.248 NA
ATOM     39  C   UNL     1       2.710  10.239   5.617  1.00  0.00     0.031 C 
ATOM     40  C   UNL     1       4.534  11.002   0.997  1.00  0.00     0.029 A 
ATOM     41  N   UNL     1       5.834  11.533   2.734  1.00  0.00    -0.354 N 
ATOM     42  C   UNL     1       4.392  11.253   6.796  1.00  0.00     0.074 A 
ATOM     43  C   UNL     1       3.107  10.586   6.833  1.00  0.00     0.031 C 
ATOM     44  C   UNL     1       5.734  11.351   0.509  1.00  0.00     0.029 A 
ATOM     45  C   UNL     1       6.591  11.776   1.610  1.00  0.00     0.049 A 
ATOM     46  H   UNL     1       6.170  11.670   3.649  1.00  0.00     0.167 HD
ATOM     47  C   UNL     1       5.083  11.653   7.894  1.00  0.00     0.034 A 
ATOM     48  C   UNL     1       7.815  12.325   1.470  1.00  0.00     0.034 A 
ATOM     49  C   UNL     1       6.390  12.266   7.843  1.00  0.00     0.049 A 
ATOM     50  C   UNL     1       8.553  12.790   2.698  1.00  0.00     0.074 A 
ATOM     51  C   UNL     1       7.184  12.697   8.894  1.00  0.00     0.029 A 
ATOM     52  N   UNL     1       7.106  12.522   6.680  1.00  0.00    -0.354 N 
ATOM     53  N   UNL     1       8.180  12.735   3.955  1.00  0.00    -0.248 NA
ATOM     54  C   UNL     1       9.870  13.405   2.485  1.00  0.00     0.031 C 
ATOM     55  C   UNL     1       8.350  13.262   8.365  1.00  0.00     0.029 A 
ATOM     56  C   UNL     1       8.320  13.120   6.987  1.00  0.00     0.049 A 
ATOM     57  H   UNL     1       6.796  12.310   5.770  1.00  0.00     0.167 HD
ATOM     58  C   UNL     1       9.226  13.296   4.684  1.00  0.00     0.074 A 
ATOM     59  C   UNL     1      10.251  13.661   3.728  1.00  0.00     0.031 C 
ATOM     60  C   UNL     1       9.328  13.492   6.023  1.00  0.00     0.034 A 
BRANCH  47  61
ATOM     61  C   UNL     1       4.408  11.496   9.238  1.00  0.00     0.023 A 
ATOM     62  C   UNL     1       4.086  10.238   9.775  1.00  0.00     0.031 A 
ATOM     63  C   UNL     1       4.049  12.637   9.979  1.00  0.00     0.131 A 
ATOM     64  C   UNL     1       3.360  10.154  10.975  1.00  0.00     0.055 A 
ATOM     65  C   UNL     1       3.401  12.544  11.212  1.00  0.00     0.041 A 
ATOM     66  F   UNL     1       4.312  13.868   9.511  1.00  0.00    -0.206 F 
ATOM     67  C   UNL     1       3.037  11.297  11.709  1.00  0.00     0.022 A 
BRANCH  64  68
ATOM     68  S   UNL     1       2.714   8.537  11.487  1.00  0.00     0.124 S 
ATOM     69  O   UNL     1       1.893   8.169  10.335  1.00  0.00    -0.237 OA
ATOM     70  O   UNL     1       3.931   7.758  11.679  1.00  0.00    -0.237 OA
ATOM     71  O   UNL     1       1.965   8.837  12.706  1.00  0.00    -0.744 OA
ENDBRANCH  64  68
ENDBRANCH  47  61
BRANCH  48  72
ATOM     72  C   UNL     1       8.394  12.535   0.110  1.00  0.00     0.023 A 
ATOM     73  C   UNL     1       9.568  11.878  -0.291  1.00  0.00     0.031 A 
ATOM     74  C   UNL     1       7.794  13.425  -0.799  1.00  0.00     0.131 A 
ATOM     75  C   UNL     1      10.122  12.145  -1.553  1.00  0.00     0.055 A 
ATOM     76  C   UNL     1       8.317  13.645  -2.074  1.00  0.00     0.041 A 
ATOM     77  F   UNL     1       6.672  14.084  -0.466  1.00  0.00    -0.206 F 
ATOM     78  C   UNL     1       9.495  13.011  -2.453  1.00  0.00     0.022 A 
BRANCH  75  79
ATOM     79  S   UNL     1      11.721  11.401  -1.977  1.00  0.00     0.124 S 
ATOM     80  O   UNL     1      12.581  11.919  -0.919  1.00  0.00    -0.237 OA
ATOM     81  O   UNL     1      11.418   9.975  -1.917  1.00  0.00    -0.237 OA
ATOM     82  O   UNL     1      11.994  11.921  -3.315  1.00  0.00    -0.744 OA
ENDBRANCH  75  79
ENDBRANCH  48  72
BRANCH  60  83
ATOM     83  C   UNL     1      10.619  14.089   6.527  1.00  0.00     0.023 A 
ATOM     84  C   UNL     1      10.979  15.419   6.245  1.00  0.00     0.031 A 
ATOM     85  C   UNL     1      11.514  13.304   7.275  1.00  0.00     0.131 A 
ATOM     86  C   UNL     1      12.228  15.907   6.660  1.00  0.00     0.055 A 
ATOM     87  C   UNL     1      12.730  13.812   7.733  1.00  0.00     0.041 A 
ATOM     88  F   UNL     1      11.221  12.027   7.570  1.00  0.00    -0.206 F 
ATOM     89  C   UNL     1      13.099  15.116   7.414  1.00  0.00     0.022 A 
BRANCH  86  90
ATOM     90  S   UNL     1      12.741  17.561   6.121  1.00  0.00     0.124 S 
ATOM     91  O   UNL     1      12.684  17.439   4.668  1.00  0.00    -0.237 OA
ATOM     92  O   UNL     1      11.726  18.416   6.729  1.00  0.00    -0.237 OA
ATOM     93  O   UNL     1      14.085  17.703   6.679  1.00  0.00    -0.744 OA
ENDBRANCH  86  90
ENDBRANCH  60  83
ENDBRANCH  34  35
ENDBRANCH  27  29
ENDBRANCH  26  27
ENDBRANCH  25  26
ENDBRANCH   1  25
TORSDOF 19
