REMARK SMILES O=C(OCCOC(=O)[C@H](c1c[nH]c2cc(F)ccc12)[NH+]1CC[NH+](CC(=O)N2CCOCC2)CC1)c1ccc(-c2c3nc(c(-c4cc(S(=O)(=O)[O-])ccc4F)c4ccc([nH]4)c(-c4cc(S(=O)(=O)[O-])ccc4F)c4nc(c(-c5cc(S(=O)(=O)[O-])ccc5F)c5ccc2[nH]5)C=C4)C=C3)cc1
REMARK SMILES IDX 4 1 3 2 2 3 1 4 35 5 36 6 97 7 37 8 96 9 38 10 39 11 40 12
REMARK SMILES IDX 90 13 41 14 95 15 89 16 91 17 42 18 94 19 88 20 87 21 43 23
REMARK SMILES IDX 75 24 55 25 74 26 56 27 59 28 73 29 92 30 57 31 58 32 72 34
REMARK SMILES IDX 93 35 60 36 44 37 45 38 53 39 46 40 52 41 54 42 51 43 47 44
REMARK SMILES IDX 48 45 49 46 50 47 76 48 77 49 85 50 78 51 84 52 86 53 83 54
REMARK SMILES IDX 79 55 80 56 81 57 82 58 61 59 62 60 70 61 63 62 69 63 71 64
REMARK SMILES IDX 68 65 64 66 65 67 66 68 67 69 5 70 6 71 7 72 8 73 9 74 20 75
REMARK SMILES IDX 21 76 34 77 22 79 33 80 23 81 24 83 25 84 26 85 27 86 28 87
REMARK SMILES IDX 32 88 29 89 31 90 30 91 10 92 11 93 19 94 12 95 13 96 18 97
REMARK SMILES IDX 14 99 17 100 15 101 16 102
REMARK H PARENT 91 22 59 33 20 78 23 82 12 98
REMARK Flexibility Score: inf
ROOT
ATOM      1  C   UNL     1       1.863  -0.784  -5.423  1.00  0.00     0.275 C 
ENDROOT
BRANCH   1   2
ATOM      2  O   UNL     1       0.633  -0.206  -4.917  1.00  0.00    -0.458 OA
BRANCH   2   3
ATOM      3  C   UNL     1       0.333  -0.121  -3.597  1.00  0.00     0.338 C 
ATOM      4  O   UNL     1       0.256   0.968  -3.038  1.00  0.00    -0.246 OA
BRANCH   3   5
ATOM      5  C   UNL     1      -0.068  -1.383  -2.880  1.00  0.00     0.060 A 
ATOM      6  C   UNL     1       0.118  -2.674  -3.381  1.00  0.00     0.016 A 
ATOM      7  C   UNL     1      -0.623  -1.254  -1.596  1.00  0.00     0.016 A 
ATOM      8  C   UNL     1      -0.142  -3.801  -2.582  1.00  0.00     0.010 A 
ATOM      9  C   UNL     1      -0.934  -2.382  -0.815  1.00  0.00     0.010 A 
ATOM     10  C   UNL     1      -0.662  -3.668  -1.285  1.00  0.00    -0.014 A 
BRANCH  10  11
ATOM     11  C   UNL     1      -1.146  -4.880  -0.564  1.00  0.00     0.031 A 
ATOM     12  C   UNL     1      -2.513  -5.369  -0.916  1.00  0.00     0.074 A 
ATOM     13  C   UNL     1      -0.430  -5.531   0.375  1.00  0.00     0.049 A 
ATOM     14  N   UNL     1      -3.153  -6.415  -0.477  1.00  0.00    -0.248 NA
ATOM     15  C   UNL     1      -3.288  -4.510  -1.824  1.00  0.00     0.031 C 
ATOM     16  C   UNL     1       0.816  -5.049   0.941  1.00  0.00     0.029 A 
ATOM     17  N   UNL     1      -0.604  -6.754   0.985  1.00  0.00    -0.354 N 
ATOM     18  C   UNL     1      -4.445  -6.281  -0.961  1.00  0.00     0.074 A 
ATOM     19  C   UNL     1      -4.472  -5.094  -1.788  1.00  0.00     0.031 C 
ATOM     20  C   UNL     1       1.392  -6.035   1.655  1.00  0.00     0.029 A 
ATOM     21  C   UNL     1       0.518  -7.201   1.668  1.00  0.00     0.049 A 
ATOM     22  H   UNL     1      -1.445  -7.263   0.940  1.00  0.00     0.167 HD
ATOM     23  C   UNL     1      -5.526  -7.039  -0.667  1.00  0.00     0.034 A 
ATOM     24  C   UNL     1       0.790  -8.416   2.205  1.00  0.00     0.034 A 
ATOM     25  C   UNL     1      -5.473  -8.197   0.184  1.00  0.00     0.049 A 
ATOM     26  C   UNL     1      -0.377  -9.381   2.309  1.00  0.00     0.074 A 
ATOM     27  C   UNL     1      -6.508  -9.018   0.592  1.00  0.00     0.029 A 
ATOM     28  N   UNL     1      -4.314  -8.694   0.767  1.00  0.00    -0.354 N 
ATOM     29  N   UNL     1      -1.593  -9.256   1.825  1.00  0.00    -0.248 NA
ATOM     30  C   UNL     1      -0.172 -10.603   3.102  1.00  0.00     0.031 C 
ATOM     31  C   UNL     1      -5.980  -9.985   1.456  1.00  0.00     0.029 A 
ATOM     32  C   UNL     1      -4.609  -9.803   1.540  1.00  0.00     0.049 A 
ATOM     33  H   UNL     1      -3.414  -8.312   0.647  1.00  0.00     0.167 HD
ATOM     34  C   UNL     1      -2.309 -10.340   2.321  1.00  0.00     0.074 A 
ATOM     35  C   UNL     1      -1.365 -11.173   3.036  1.00  0.00     0.031 C 
ATOM     36  C   UNL     1      -3.640 -10.593   2.260  1.00  0.00     0.034 A 
BRANCH  23  37
ATOM     37  C   UNL     1      -6.847  -6.516  -1.155  1.00  0.00     0.023 A 
ATOM     38  C   UNL     1      -7.150  -6.433  -2.524  1.00  0.00     0.031 A 
ATOM     39  C   UNL     1      -7.749  -5.950  -0.236  1.00  0.00     0.131 A 
ATOM     40  C   UNL     1      -8.275  -5.706  -2.938  1.00  0.00     0.055 A 
ATOM     41  C   UNL     1      -8.915  -5.309  -0.654  1.00  0.00     0.041 A 
ATOM     42  F   UNL     1      -7.485  -5.967   1.080  1.00  0.00    -0.206 F 
ATOM     43  C   UNL     1      -9.173  -5.166  -2.014  1.00  0.00     0.022 A 
BRANCH  40  44
ATOM     44  S   UNL     1      -8.450  -5.330  -4.704  1.00  0.00     0.124 S 
ATOM     45  O   UNL     1      -7.323  -4.420  -4.918  1.00  0.00    -0.237 OA
ATOM     46  O   UNL     1      -8.343  -6.635  -5.324  1.00  0.00    -0.237 OA
ATOM     47  O   UNL     1      -9.772  -4.700  -4.787  1.00  0.00    -0.744 OA
ENDBRANCH  40  44
ENDBRANCH  23  37
BRANCH  24  48
ATOM     48  C   UNL     1       2.142  -8.824   2.737  1.00  0.00     0.023 A 
ATOM     49  C   UNL     1       2.733 -10.041   2.323  1.00  0.00     0.031 A 
ATOM     50  C   UNL     1       2.821  -8.105   3.735  1.00  0.00     0.131 A 
ATOM     51  C   UNL     1       3.902 -10.524   2.942  1.00  0.00     0.055 A 
ATOM     52  C   UNL     1       4.037  -8.541   4.279  1.00  0.00     0.041 A 
ATOM     53  F   UNL     1       2.302  -6.974   4.237  1.00  0.00    -0.206 F 
ATOM     54  C   UNL     1       4.574  -9.766   3.899  1.00  0.00     0.022 A 
BRANCH  51  55
ATOM     55  S   UNL     1       4.420 -12.244   2.639  1.00  0.00     0.124 S 
ATOM     56  O   UNL     1       3.190 -12.978   2.915  1.00  0.00    -0.237 OA
ATOM     57  O   UNL     1       4.841 -12.204   1.243  1.00  0.00    -0.237 OA
ATOM     58  O   UNL     1       5.495 -12.455   3.607  1.00  0.00    -0.744 OA
ENDBRANCH  51  55
ENDBRANCH  24  48
BRANCH  36  59
ATOM     59  C   UNL     1      -4.139 -11.781   3.038  1.00  0.00     0.023 A 
ATOM     60  C   UNL     1      -4.135 -11.771   4.445  1.00  0.00     0.031 A 
ATOM     61  C   UNL     1      -4.644 -12.912   2.379  1.00  0.00     0.131 A 
ATOM     62  C   UNL     1      -4.594 -12.891   5.151  1.00  0.00     0.055 A 
ATOM     63  C   UNL     1      -5.144 -14.005   3.087  1.00  0.00     0.041 A 
ATOM     64  F   UNL     1      -4.673 -12.964   1.037  1.00  0.00    -0.206 F 
ATOM     65  C   UNL     1      -5.113 -14.001   4.480  1.00  0.00     0.022 A 
BRANCH  62  66
ATOM     66  S   UNL     1      -4.469 -12.894   6.960  1.00  0.00     0.124 S 
ATOM     67  O   UNL     1      -3.026 -12.828   7.166  1.00  0.00    -0.237 OA
ATOM     68  O   UNL     1      -5.222 -11.699   7.330  1.00  0.00    -0.237 OA
ATOM     69  O   UNL     1      -5.093 -14.159   7.344  1.00  0.00    -0.744 OA
ENDBRANCH  62  66
ENDBRANCH  36  59
ENDBRANCH  10  11
ENDBRANCH   3   5
ENDBRANCH   2   3
ENDBRANCH   1   2
BRANCH   1  70
ATOM     70  C   UNL     1       3.103  -0.688  -4.536  1.00  0.00     0.274 C 
BRANCH  70  71
ATOM     71  O   UNL     1       2.797  -1.268  -3.271  1.00  0.00    -0.457 OA
BRANCH  71  72
ATOM     72  C   UNL     1       3.826  -1.366  -2.384  1.00  0.00     0.370 C 
ATOM     73  O   UNL     1       4.944  -0.908  -2.590  1.00  0.00    -0.245 OA
BRANCH  72  74
ATOM     74  C   UNL     1       3.384  -2.310  -1.217  1.00  0.00     0.328 C 
BRANCH  74  75
ATOM     75  N   UNL     1       3.936  -3.659  -1.503  1.00  0.00    -0.310 N 
ATOM     76  C   UNL     1       3.871  -4.655  -0.435  1.00  0.00     0.325 C 
ATOM     77  C   UNL     1       3.636  -4.137  -2.867  1.00  0.00     0.325 C 
ATOM     78  H   UNL     1       4.943  -3.501  -1.501  1.00  0.00     0.349 HD
ATOM     79  C   UNL     1       3.519  -6.116  -0.834  1.00  0.00     0.325 C 
ATOM     80  C   UNL     1       3.377  -5.627  -3.142  1.00  0.00     0.325 C 
ATOM     81  N   UNL     1       3.949  -6.534  -2.168  1.00  0.00    -0.318 N 
ATOM     82  H   UNL     1       3.575  -7.473  -2.303  1.00  0.00     0.348 HD
BRANCH  81  83
ATOM     83  C   UNL     1       5.370  -6.852  -2.374  1.00  0.00     0.364 C 
BRANCH  83  84
ATOM     84  C   UNL     1       6.315  -6.530  -1.212  1.00  0.00     0.277 C 
ATOM     85  O   UNL     1       6.334  -7.260  -0.215  1.00  0.00    -0.268 OA
ATOM     86  N   UNL     1       7.146  -5.415  -1.279  1.00  0.00    -0.333 N 
ATOM     87  C   UNL     1       7.036  -4.324  -2.248  1.00  0.00     0.148 C 
ATOM     88  C   UNL     1       7.883  -5.074  -0.062  1.00  0.00     0.148 C 
ATOM     89  C   UNL     1       8.331  -3.529  -2.421  1.00  0.00     0.181 C 
ATOM     90  C   UNL     1       9.157  -4.291  -0.359  1.00  0.00     0.181 C 
ATOM     91  O   UNL     1       8.884  -3.132  -1.159  1.00  0.00    -0.378 OA
ENDBRANCH  83  84
ENDBRANCH  81  83
ENDBRANCH  74  75
BRANCH  74  92
ATOM     92  C   UNL     1       3.810  -1.631   0.074  1.00  0.00     0.046 A 
ATOM     93  C   UNL     1       5.097  -1.398   0.526  1.00  0.00     0.094 A 
ATOM     94  C   UNL     1       2.946  -0.866   0.946  1.00  0.00     0.009 A 
ATOM     95  N   UNL     1       5.051  -0.430   1.496  1.00  0.00    -0.361 N 
ATOM     96  C   UNL     1       3.755  -0.032   1.718  1.00  0.00     0.049 A 
ATOM     97  C   UNL     1       1.550  -0.726   1.088  1.00  0.00     0.014 A 
ATOM     98  H   UNL     1       5.837  -0.071   1.968  1.00  0.00     0.166 HD
ATOM     99  C   UNL     1       3.236   1.000   2.517  1.00  0.00     0.065 A 
ATOM    100  C   UNL     1       1.005   0.282   1.891  1.00  0.00     0.040 A 
ATOM    101  C   UNL     1       1.849   1.147   2.565  1.00  0.00     0.125 A 
ATOM    102  F   UNL     1       1.320   2.145   3.288  1.00  0.00    -0.207 F 
ENDBRANCH  74  92
ENDBRANCH  72  74
ENDBRANCH  71  72
ENDBRANCH  70  71
ENDBRANCH   1  70
TORSDOF 18
