REMARK SMILES CC[C@@](O)(C(=O)OCCOC(=O)c1ccc(-c2c3nc(c(-c4cc(S(=O)(=O)[O-])ccc4F)c4ccc([nH]4)c(-c4cc(S(=O)(=O)[O-])ccc4F)c4nc(c(-c5cc(S(=O)(=O)[O-])ccc5F)c5ccc2[nH]5)C=C4)C=C3)cc1)[C@@H]1CCOc2ccccc21
REMARK SMILES IDX 9 1 8 2 7 3 5 4 6 5 3 6 2 7 1 8 4 9 76 11 77 12 85 13 78 14
REMARK SMILES IDX 80 15 84 16 79 17 81 18 83 19 82 20 10 21 11 22 12 23 13 24
REMARK SMILES IDX 14 25 75 26 15 27 74 28 16 29 17 30 18 31 68 32 19 33 73 34
REMARK SMILES IDX 67 35 69 36 20 37 72 38 66 39 65 40 21 42 53 43 33 44 52 45
REMARK SMILES IDX 34 46 37 47 51 48 70 49 35 50 36 51 50 53 71 54 38 55 22 56
REMARK SMILES IDX 23 57 31 58 24 59 30 60 32 61 29 62 25 63 26 64 27 65 28 66
REMARK SMILES IDX 54 67 55 68 63 69 56 70 62 71 64 72 61 73 57 74 58 75 59 76
REMARK SMILES IDX 60 77 39 78 40 79 48 80 41 81 47 82 49 83 46 84 42 85 43 86
REMARK SMILES IDX 44 87 45 88
REMARK H PARENT 4 10 69 41 37 52
REMARK Flexibility Score: inf
ROOT
ATOM      1  C   UNL     1      -0.694  -5.553  -0.866  1.00  0.00     0.275 C 
ENDROOT
BRANCH   1   2
ATOM      2  C   UNL     1      -1.206  -5.161   0.525  1.00  0.00     0.274 C 
BRANCH   2   3
ATOM      3  O   UNL     1      -0.921  -3.774   0.810  1.00  0.00    -0.460 OA
BRANCH   3   4
ATOM      4  C   UNL     1       0.310  -3.509   1.346  1.00  0.00     0.338 C 
ATOM      5  O   UNL     1       1.066  -4.391   1.732  1.00  0.00    -0.249 OA
BRANCH   4   6
ATOM      6  C   UNL     1       0.631  -1.962   1.364  1.00  0.00     0.168 C 
BRANCH   6   7
ATOM      7  C   UNL     1       0.299  -1.512  -0.102  1.00  0.00     0.044 C 
ATOM      8  C   UNL     1       0.425  -0.054  -0.504  1.00  0.00     0.007 C 
ENDBRANCH   6   7
BRANCH   6   9
ATOM      9  O   UNL     1      -0.243  -1.300   2.279  1.00  0.00    -0.378 OA
ATOM     10  H   UNL     1      -1.163  -1.447   2.011  1.00  0.00     0.212 HD
ENDBRANCH   6   9
BRANCH   6  11
ATOM     11  C   UNL     1       2.139  -1.746   1.766  1.00  0.00     0.070 C 
ATOM     12  C   UNL     1       2.632  -2.400   3.072  1.00  0.00     0.053 C 
ATOM     13  C   UNL     1       2.765  -0.368   1.910  1.00  0.00     0.001 A 
ATOM     14  C   UNL     1       4.163  -2.545   2.990  1.00  0.00     0.230 C 
ATOM     15  C   UNL     1       4.161  -0.363   2.074  1.00  0.00     0.122 A 
ATOM     16  C   UNL     1       2.099   0.854   1.957  1.00  0.00     0.008 A 
ATOM     17  O   UNL     1       4.858  -1.527   2.249  1.00  0.00    -0.493 OA
ATOM     18  C   UNL     1       4.891   0.821   2.070  1.00  0.00     0.047 A 
ATOM     19  C   UNL     1       2.823   2.052   1.977  1.00  0.00     0.001 A 
ATOM     20  C   UNL     1       4.218   2.035   2.002  1.00  0.00     0.004 A 
ENDBRANCH   6  11
ENDBRANCH   4   6
ENDBRANCH   3   4
ENDBRANCH   2   3
ENDBRANCH   1   2
BRANCH   1  21
ATOM     21  O   UNL     1       0.742  -5.541  -0.862  1.00  0.00    -0.458 OA
BRANCH  21  22
ATOM     22  C   UNL     1       1.348  -5.340  -2.054  1.00  0.00     0.338 C 
ATOM     23  O   UNL     1       0.805  -5.246  -3.146  1.00  0.00    -0.246 OA
BRANCH  22  24
ATOM     24  C   UNL     1       2.805  -5.245  -1.829  1.00  0.00     0.060 A 
ATOM     25  C   UNL     1       3.291  -4.351  -0.876  1.00  0.00     0.016 A 
ATOM     26  C   UNL     1       3.699  -5.998  -2.587  1.00  0.00     0.016 A 
ATOM     27  C   UNL     1       4.660  -4.185  -0.677  1.00  0.00     0.010 A 
ATOM     28  C   UNL     1       5.075  -5.873  -2.354  1.00  0.00     0.010 A 
ATOM     29  C   UNL     1       5.569  -4.958  -1.404  1.00  0.00    -0.014 A 
BRANCH  29  30
ATOM     30  C   UNL     1       7.032  -4.758  -1.221  1.00  0.00     0.031 A 
ATOM     31  C   UNL     1       7.836  -4.138  -2.329  1.00  0.00     0.074 A 
ATOM     32  C   UNL     1       7.636  -5.099  -0.066  1.00  0.00     0.049 A 
ATOM     33  N   UNL     1       9.133  -4.016  -2.448  1.00  0.00    -0.248 NA
ATOM     34  C   UNL     1       7.070  -3.580  -3.454  1.00  0.00     0.031 C 
ATOM     35  C   UNL     1       6.959  -5.622   1.122  1.00  0.00     0.029 A 
ATOM     36  N   UNL     1       8.960  -5.057   0.300  1.00  0.00    -0.354 N 
ATOM     37  C   UNL     1       9.343  -3.394  -3.674  1.00  0.00     0.074 A 
ATOM     38  C   UNL     1       8.038  -3.179  -4.264  1.00  0.00     0.031 C 
ATOM     39  C   UNL     1       7.870  -5.844   2.085  1.00  0.00     0.029 A 
ATOM     40  C   UNL     1       9.201  -5.551   1.562  1.00  0.00     0.049 A 
ATOM     41  H   UNL     1       9.669  -4.705  -0.285  1.00  0.00     0.167 HD
ATOM     42  C   UNL     1      10.518  -3.042  -4.254  1.00  0.00     0.034 A 
ATOM     43  C   UNL     1      10.364  -5.786   2.204  1.00  0.00     0.034 A 
ATOM     44  C   UNL     1      11.810  -3.257  -3.650  1.00  0.00     0.049 A 
ATOM     45  C   UNL     1      11.663  -5.487   1.495  1.00  0.00     0.074 A 
ATOM     46  C   UNL     1      13.063  -2.962  -4.161  1.00  0.00     0.029 A 
ATOM     47  N   UNL     1      12.018  -3.825  -2.399  1.00  0.00    -0.354 N 
ATOM     48  N   UNL     1      11.855  -4.968   0.304  1.00  0.00    -0.248 NA
ATOM     49  C   UNL     1      12.902  -5.822   2.211  1.00  0.00     0.031 C 
ATOM     50  C   UNL     1      14.027  -3.405  -3.248  1.00  0.00     0.029 A 
ATOM     51  C   UNL     1      13.377  -3.915  -2.136  1.00  0.00     0.049 A 
ATOM     52  H   UNL     1      11.305  -4.120  -1.789  1.00  0.00     0.167 HD
ATOM     53  C   UNL     1      13.236  -4.894   0.141  1.00  0.00     0.074 A 
ATOM     54  C   UNL     1      13.828  -5.407   1.359  1.00  0.00     0.031 C 
ATOM     55  C   UNL     1      13.952  -4.441  -0.920  1.00  0.00     0.034 A 
BRANCH  42  56
ATOM     56  C   UNL     1      10.449  -2.462  -5.645  1.00  0.00     0.023 A 
ATOM     57  C   UNL     1       9.860  -1.213  -5.906  1.00  0.00     0.031 A 
ATOM     58  C   UNL     1      10.941  -3.201  -6.736  1.00  0.00     0.131 A 
ATOM     59  C   UNL     1       9.716  -0.772  -7.231  1.00  0.00     0.055 A 
ATOM     60  C   UNL     1      10.860  -2.724  -8.045  1.00  0.00     0.041 A 
ATOM     61  F   UNL     1      11.491  -4.411  -6.549  1.00  0.00    -0.206 F 
ATOM     62  C   UNL     1      10.232  -1.509  -8.300  1.00  0.00     0.022 A 
BRANCH  59  63
ATOM     63  S   UNL     1       8.721   0.711  -7.552  1.00  0.00     0.124 S 
ATOM     64  O   UNL     1       7.431   0.332  -6.979  1.00  0.00    -0.237 OA
ATOM     65  O   UNL     1       9.459   1.746  -6.838  1.00  0.00    -0.237 OA
ATOM     66  O   UNL     1       8.737   0.826  -9.009  1.00  0.00    -0.744 OA
ENDBRANCH  59  63
ENDBRANCH  42  56
BRANCH  43  67
ATOM     67  C   UNL     1      10.373  -6.410   3.561  1.00  0.00     0.023 A 
ATOM     68  C   UNL     1      10.915  -5.738   4.668  1.00  0.00     0.031 A 
ATOM     69  C   UNL     1       9.903  -7.722   3.753  1.00  0.00     0.131 A 
ATOM     70  C   UNL     1      11.013  -6.394   5.906  1.00  0.00     0.055 A 
ATOM     71  C   UNL     1       9.952  -8.350   4.998  1.00  0.00     0.041 A 
ATOM     72  F   UNL     1       9.384  -8.416   2.727  1.00  0.00    -0.206 F 
ATOM     73  C   UNL     1      10.523  -7.690   6.082  1.00  0.00     0.022 A 
BRANCH  70  74
ATOM     74  S   UNL     1      11.880  -5.564   7.267  1.00  0.00     0.124 S 
ATOM     75  O   UNL     1      13.197  -5.335   6.685  1.00  0.00    -0.237 OA
ATOM     76  O   UNL     1      11.054  -4.379   7.474  1.00  0.00    -0.237 OA
ATOM     77  O   UNL     1      11.836  -6.547   8.348  1.00  0.00    -0.744 OA
ENDBRANCH  70  74
ENDBRANCH  43  67
BRANCH  55  78
ATOM     78  C   UNL     1      15.455  -4.444  -0.782  1.00  0.00     0.023 A 
ATOM     79  C   UNL     1      16.192  -5.640  -0.742  1.00  0.00     0.031 A 
ATOM     80  C   UNL     1      16.155  -3.229  -0.675  1.00  0.00     0.131 A 
ATOM     81  C   UNL     1      17.582  -5.597  -0.551  1.00  0.00     0.055 A 
ATOM     82  C   UNL     1      17.543  -3.191  -0.537  1.00  0.00     0.041 A 
ATOM     83  F   UNL     1      15.499  -2.058  -0.706  1.00  0.00    -0.206 F 
ATOM     84  C   UNL     1      18.263  -4.380  -0.463  1.00  0.00     0.022 A 
BRANCH  81  85
ATOM     85  S   UNL     1      18.484  -7.157  -0.342  1.00  0.00     0.124 S 
ATOM     86  O   UNL     1      17.837  -7.728   0.835  1.00  0.00    -0.237 OA
ATOM     87  O   UNL     1      18.226  -7.840  -1.605  1.00  0.00    -0.237 OA
ATOM     88  O   UNL     1      19.868  -6.730  -0.142  1.00  0.00    -0.744 OA
ENDBRANCH  81  85
ENDBRANCH  55  78
ENDBRANCH  29  30
ENDBRANCH  22  24
ENDBRANCH  21  22
ENDBRANCH   1  21
TORSDOF 17
