REMARK SMILES C[C@@H]1[NH2+]CC[C@@H]1C(=O)Nc1cc(F)ccc1C(=O)OCCOC(=O)c1ccc(-c2c3nc(c(-c4cc(S(=O)(=O)[O-])ccc4F)c4ccc([nH]4)c(-c4cc(S(=O)(=O)[O-])ccc4F)c4nc(c(-c5cc(S(=O)(=O)[O-])ccc5F)c5ccc2[nH]5)C=C4)C=C3)cc1
REMARK SMILES IDX 21 1 20 2 19 3 17 4 18 5 16 6 10 7 11 8 12 9 15 10 13 11
REMARK SMILES IDX 14 12 9 13 7 14 8 15 6 17 1 18 2 19 3 20 4 21 5 24 22 25
REMARK SMILES IDX 23 26 24 27 25 28 26 29 87 30 27 31 86 32 28 33 29 34 30 35
REMARK SMILES IDX 80 36 31 37 85 38 79 39 81 40 32 41 84 42 78 43 77 44 33 46
REMARK SMILES IDX 65 47 45 48 64 49 46 50 49 51 63 52 82 53 47 54 48 55 62 57
REMARK SMILES IDX 83 58 50 59 34 60 35 61 43 62 36 63 42 64 44 65 41 66 37 67
REMARK SMILES IDX 38 68 39 69 40 70 66 71 67 72 75 73 68 74 74 75 76 76 73 77
REMARK SMILES IDX 69 78 70 79 71 80 72 81 51 82 52 83 60 84 53 85 59 86 61 87
REMARK SMILES IDX 58 88 54 89 55 90 56 91 57 92
REMARK H PARENT 9 16 3 22 3 23 81 45 49 56
REMARK Flexibility Score: inf
ROOT
ATOM      1  C   UNL     1       4.552   5.707  -1.207  1.00  0.00     0.275 C 
ENDROOT
BRANCH   1   2
ATOM      2  C   UNL     1       4.125   4.657  -2.234  1.00  0.00     0.275 C 
BRANCH   2   3
ATOM      3  O   UNL     1       3.800   3.406  -1.588  1.00  0.00    -0.458 OA
BRANCH   3   4
ATOM      4  C   UNL     1       4.690   2.396  -1.757  1.00  0.00     0.340 C 
ATOM      5  O   UNL     1       5.700   2.445  -2.443  1.00  0.00    -0.246 OA
BRANCH   4   6
ATOM      6  C   UNL     1       4.356   1.217  -0.902  1.00  0.00     0.083 A 
ATOM      7  C   UNL     1       3.044   0.845  -0.511  1.00  0.00     0.058 A 
ATOM      8  C   UNL     1       2.922  -0.255   0.331  1.00  0.00     0.066 A 
ATOM      9  C   UNL     1       4.033  -1.002   0.730  1.00  0.00     0.125 A 
ATOM     10  C   UNL     1       5.467   0.445  -0.493  1.00  0.00     0.021 A 
ATOM     11  F   UNL     1       3.848  -2.089   1.489  1.00  0.00    -0.207 F 
ATOM     12  C   UNL     1       5.309  -0.658   0.335  1.00  0.00     0.040 A 
BRANCH   7  13
ATOM     13  N   UNL     1       1.941   1.541  -1.047  1.00  0.00    -0.325 N 
ATOM     14  C   UNL     1       0.585   1.517  -0.997  1.00  0.00     0.233 C 
ATOM     15  O   UNL     1       0.050   2.312  -1.786  1.00  0.00    -0.274 OA
ATOM     16  H   UNL     1       2.249   2.266  -1.639  1.00  0.00     0.169 HD
BRANCH  14  17
ATOM     17  C   UNL     1      -0.280   0.697  -0.032  1.00  0.00     0.142 C 
ATOM     18  C   UNL     1      -0.048  -1.366  -1.582  1.00  0.00     0.076 C 
ATOM     19  C   UNL     1      -0.358  -0.828  -0.191  1.00  0.00     0.192 C 
ATOM     20  N   UNL     1      -1.722  -1.206   0.236  1.00  0.00    -0.343 N 
ATOM     21  C   UNL     1      -2.583  -0.141  -0.262  1.00  0.00     0.261 C 
ATOM     22  H   UNL     1      -1.775  -1.263   1.254  1.00  0.00     0.346 HD
ATOM     23  H   UNL     1      -1.996  -2.120  -0.123  1.00  0.00     0.346 HD
ATOM     24  C   UNL     1      -1.768   1.130  -0.116  1.00  0.00     0.081 C 
ENDBRANCH  14  17
ENDBRANCH   7  13
ENDBRANCH   4   6
ENDBRANCH   3   4
ENDBRANCH   2   3
ENDBRANCH   1   2
BRANCH   1  25
ATOM     25  O   UNL     1       5.762   5.288  -0.550  1.00  0.00    -0.458 OA
BRANCH  25  26
ATOM     26  C   UNL     1       5.626   4.973   0.759  1.00  0.00     0.338 C 
ATOM     27  O   UNL     1       4.621   5.078   1.442  1.00  0.00    -0.246 OA
BRANCH  26  28
ATOM     28  C   UNL     1       6.867   4.370   1.275  1.00  0.00     0.060 A 
ATOM     29  C   UNL     1       7.264   3.144   0.758  1.00  0.00     0.016 A 
ATOM     30  C   UNL     1       7.494   4.881   2.408  1.00  0.00     0.016 A 
ATOM     31  C   UNL     1       8.161   2.346   1.466  1.00  0.00     0.010 A 
ATOM     32  C   UNL     1       8.507   4.138   3.030  1.00  0.00     0.010 A 
ATOM     33  C   UNL     1       8.810   2.826   2.612  1.00  0.00    -0.014 A 
BRANCH  33  34
ATOM     34  C   UNL     1       9.725   1.946   3.413  1.00  0.00     0.031 A 
ATOM     35  C   UNL     1       9.535   1.827   4.911  1.00  0.00     0.074 A 
ATOM     36  C   UNL     1      10.700   1.213   2.832  1.00  0.00     0.049 A 
ATOM     37  N   UNL     1      10.359   1.366   5.818  1.00  0.00    -0.248 NA
ATOM     38  C   UNL     1       8.259   2.311   5.462  1.00  0.00     0.031 C 
ATOM     39  C   UNL     1      10.973   1.135   1.395  1.00  0.00     0.029 A 
ATOM     40  N   UNL     1      11.641   0.371   3.382  1.00  0.00    -0.354 N 
ATOM     41  C   UNL     1       9.740   1.585   7.047  1.00  0.00     0.074 A 
ATOM     42  C   UNL     1       8.468   2.216   6.768  1.00  0.00     0.031 C 
ATOM     43  C   UNL     1      11.947   0.242   1.174  1.00  0.00     0.029 A 
ATOM     44  C   UNL     1      12.477  -0.209   2.454  1.00  0.00     0.049 A 
ATOM     45  H   UNL     1      11.710   0.200   4.349  1.00  0.00     0.167 HD
ATOM     46  C   UNL     1      10.195   1.291   8.290  1.00  0.00     0.034 A 
ATOM     47  C   UNL     1      13.590  -0.958   2.600  1.00  0.00     0.034 A 
ATOM     48  C   UNL     1      11.421   0.577   8.549  1.00  0.00     0.049 A 
ATOM     49  C   UNL     1      14.114  -1.223   3.984  1.00  0.00     0.074 A 
ATOM     50  C   UNL     1      11.967   0.219   9.771  1.00  0.00     0.029 A 
ATOM     51  N   UNL     1      12.275   0.084   7.574  1.00  0.00    -0.354 N 
ATOM     52  N   UNL     1      13.600  -0.872   5.139  1.00  0.00    -0.248 NA
ATOM     53  C   UNL     1      15.389  -1.946   4.085  1.00  0.00     0.031 C 
ATOM     54  C   UNL     1      13.175  -0.444   9.535  1.00  0.00     0.029 A 
ATOM     55  C   UNL     1      13.352  -0.557   8.166  1.00  0.00     0.049 A 
ATOM     56  H   UNL     1      12.137   0.175   6.603  1.00  0.00     0.167 HD
ATOM     57  C   UNL     1      14.491  -1.330   6.103  1.00  0.00     0.074 A 
ATOM     58  C   UNL     1      15.565  -1.998   5.398  1.00  0.00     0.031 C 
ATOM     59  C   UNL     1      14.424  -1.205   7.452  1.00  0.00     0.034 A 
BRANCH  46  60
ATOM     60  C   UNL     1       9.400   1.786   9.472  1.00  0.00     0.023 A 
ATOM     61  C   UNL     1       8.140   1.264   9.805  1.00  0.00     0.031 A 
ATOM     62  C   UNL     1       9.937   2.793  10.297  1.00  0.00     0.131 A 
ATOM     63  C   UNL     1       7.441   1.781  10.908  1.00  0.00     0.055 A 
ATOM     64  C   UNL     1       9.266   3.256  11.430  1.00  0.00     0.041 A 
ATOM     65  F   UNL     1      11.131   3.340  10.016  1.00  0.00    -0.206 F 
ATOM     66  C   UNL     1       8.006   2.755  11.736  1.00  0.00     0.022 A 
BRANCH  63  67
ATOM     67  S   UNL     1       5.741   1.222  11.203  1.00  0.00     0.124 S 
ATOM     68  O   UNL     1       5.057   1.726  10.014  1.00  0.00    -0.237 OA
ATOM     69  O   UNL     1       5.892  -0.226  11.286  1.00  0.00    -0.237 OA
ATOM     70  O   UNL     1       5.374   1.883  12.454  1.00  0.00    -0.744 OA
ENDBRANCH  63  67
ENDBRANCH  46  60
BRANCH  47  71
ATOM     71  C   UNL     1      14.340  -1.418   1.396  1.00  0.00     0.023 A 
ATOM     72  C   UNL     1      14.425  -2.780   1.071  1.00  0.00     0.031 A 
ATOM     73  C   UNL     1      14.973  -0.494   0.543  1.00  0.00     0.131 A 
ATOM     74  C   UNL     1      15.130  -3.180  -0.076  1.00  0.00     0.055 A 
ATOM     75  C   UNL     1      15.631  -0.893  -0.620  1.00  0.00     0.041 A 
ATOM     76  F   UNL     1      14.923   0.821   0.811  1.00  0.00    -0.206 F 
ATOM     77  C   UNL     1      15.715  -2.245  -0.934  1.00  0.00     0.022 A 
BRANCH  74  78
ATOM     78  S   UNL     1      15.293  -4.952  -0.429  1.00  0.00     0.124 S 
ATOM     79  O   UNL     1      16.101  -5.405   0.699  1.00  0.00    -0.237 OA
ATOM     80  O   UNL     1      13.902  -5.391  -0.440  1.00  0.00    -0.237 OA
ATOM     81  O   UNL     1      15.962  -4.980  -1.728  1.00  0.00    -0.744 OA
ENDBRANCH  74  78
ENDBRANCH  47  71
BRANCH  59  82
ATOM     82  C   UNL     1      15.532  -1.824   8.259  1.00  0.00     0.023 A 
ATOM     83  C   UNL     1      16.812  -1.248   8.306  1.00  0.00     0.031 A 
ATOM     84  C   UNL     1      15.289  -2.979   9.023  1.00  0.00     0.131 A 
ATOM     85  C   UNL     1      17.814  -1.846   9.085  1.00  0.00     0.055 A 
ATOM     86  C   UNL     1      16.276  -3.543   9.830  1.00  0.00     0.041 A 
ATOM     87  F   UNL     1      14.080  -3.563   9.010  1.00  0.00    -0.206 F 
ATOM     88  C   UNL     1      17.549  -2.979   9.860  1.00  0.00     0.022 A 
BRANCH  85  89
ATOM     89  S   UNL     1      19.483  -1.139   9.053  1.00  0.00     0.124 S 
ATOM     90  O   UNL     1      19.887  -1.383   7.673  1.00  0.00    -0.237 OA
ATOM     91  O   UNL     1      19.243   0.256   9.410  1.00  0.00    -0.237 OA
ATOM     92  O   UNL     1      20.204  -1.917  10.058  1.00  0.00    -0.744 OA
ENDBRANCH  85  89
ENDBRANCH  59  82
ENDBRANCH  33  34
ENDBRANCH  26  28
ENDBRANCH  25  26
ENDBRANCH   1  25
TORSDOF 16
