REMARK SMILES O=C(OCCOC(=O)c1ccc(-c2c3nc(c(-c4cc(S(=O)(=O)[O-])ccc4F)c4ccc([nH]4)c(-c4cc(S(=O)(=O)[O-])ccc4F)c4nc(c(-c5cc(S(=O)(=O)[O-])ccc5F)c5ccc2[nH]5)C=C4)C=C3)cc1)C1=Cc2c(ccc(Cl)c2Sc2ccccc2)O[C@H]1C(F)(F)F
REMARK SMILES IDX 5 1 4 2 3 3 2 4 1 5 72 6 73 7 89 8 74 9 88 10 75 11 80 12
REMARK SMILES IDX 76 13 78 14 77 15 79 16 90 17 91 18 92 19 93 20 81 21 82 22
REMARK SMILES IDX 83 23 87 24 84 25 86 26 85 27 6 28 7 29 8 30 9 31 10 32
REMARK SMILES IDX 71 33 11 34 70 35 12 36 13 37 14 38 64 39 15 40 69 41 63 42
REMARK SMILES IDX 65 43 16 44 68 45 62 46 61 47 17 49 49 50 29 51 48 52 30 53
REMARK SMILES IDX 33 54 47 55 66 56 31 57 32 58 46 60 67 61 34 62 18 63 19 64
REMARK SMILES IDX 27 65 20 66 26 67 28 68 25 69 21 70 22 71 23 72 24 73 50 74
REMARK SMILES IDX 51 75 59 76 52 77 58 78 60 79 57 80 53 81 54 82 55 83 56 84
REMARK SMILES IDX 35 85 36 86 44 87 37 88 43 89 45 90 42 91 38 92 39 93 40 94
REMARK SMILES IDX 41 95
REMARK H PARENT 65 48 33 59
REMARK Flexibility Score: inf
ROOT
ATOM      1  C   UNL     1       2.857  -1.478   0.110  1.00  0.00     0.275 C 
ENDROOT
BRANCH   1   2
ATOM      2  C   UNL     1       2.430  -0.026   0.436  1.00  0.00     0.275 C 
BRANCH   2   3
ATOM      3  O   UNL     1       2.316   0.871  -0.670  1.00  0.00    -0.459 OA
BRANCH   3   4
ATOM      4  C   UNL     1       3.364   1.357  -1.338  1.00  0.00     0.338 C 
ATOM      5  O   UNL     1       3.260   2.393  -1.985  1.00  0.00    -0.246 OA
BRANCH   4   6
ATOM      6  C   UNL     1       4.615   0.578  -1.356  1.00  0.00     0.087 C 
ATOM      7  C   UNL     1       4.999  -0.453  -0.576  1.00  0.00     0.028 C 
ATOM      8  C   UNL     1       5.758   1.314  -1.950  1.00  0.00     0.316 C 
ATOM      9  C   UNL     1       5.490  -0.013   0.737  1.00  0.00     0.033 A 
ATOM     10  O   UNL     1       6.873   1.273  -0.965  1.00  0.00    -0.475 OA
ATOM     11  C   UNL     1       6.562   0.901   0.369  1.00  0.00     0.129 A 
ATOM     12  C   UNL     1       5.171  -0.428   2.127  1.00  0.00     0.042 A 
ATOM     13  C   UNL     1       7.419   1.355   1.338  1.00  0.00     0.049 A 
ATOM     14  C   UNL     1       6.130   0.089   3.048  1.00  0.00     0.055 A 
ATOM     15  C   UNL     1       7.209   0.935   2.651  1.00  0.00     0.025 A 
ATOM     16  Cl  UNL     1       6.152  -0.288   4.750  1.00  0.00    -0.083 Cl
BRANCH   8  17
ATOM     17  C   UNL     1       6.014   0.693  -3.347  1.00  0.00     0.430 C 
ATOM     18  F   UNL     1       4.852   0.326  -3.953  1.00  0.00    -0.167 F 
ATOM     19  F   UNL     1       6.631   1.552  -4.187  1.00  0.00    -0.167 F 
ATOM     20  F   UNL     1       6.774  -0.425  -3.266  1.00  0.00    -0.167 F 
ENDBRANCH   8  17
BRANCH  12  21
ATOM     21  S   UNL     1       3.869  -1.617   3.107  1.00  0.00    -0.088 SA
BRANCH  21  22
ATOM     22  C   UNL     1       2.173  -2.264   2.639  1.00  0.00     0.012 A 
ATOM     23  C   UNL     1       0.976  -1.502   2.613  1.00  0.00     0.015 A 
ATOM     24  C   UNL     1       2.038  -3.601   2.153  1.00  0.00     0.015 A 
ATOM     25  C   UNL     1      -0.162  -1.924   1.849  1.00  0.00     0.001 A 
ATOM     26  C   UNL     1       0.900  -4.018   1.395  1.00  0.00     0.001 A 
ATOM     27  C   UNL     1      -0.172  -3.153   1.191  1.00  0.00     0.000 A 
ENDBRANCH  21  22
ENDBRANCH  12  21
ENDBRANCH   4   6
ENDBRANCH   3   4
ENDBRANCH   2   3
ENDBRANCH   1   2
BRANCH   1  28
ATOM     28  O   UNL     1       2.914  -1.761  -1.233  1.00  0.00    -0.458 OA
BRANCH  28  29
ATOM     29  C   UNL     1       1.634  -1.781  -1.609  1.00  0.00     0.338 C 
ATOM     30  O   UNL     1       0.631  -1.426  -1.057  1.00  0.00    -0.246 OA
BRANCH  29  31
ATOM     31  C   UNL     1       1.718  -2.305  -2.913  1.00  0.00     0.060 A 
ATOM     32  C   UNL     1       0.687  -1.787  -3.663  1.00  0.00     0.016 A 
ATOM     33  C   UNL     1       2.692  -3.255  -3.281  1.00  0.00     0.016 A 
ATOM     34  C   UNL     1       0.521  -2.359  -4.855  1.00  0.00     0.010 A 
ATOM     35  C   UNL     1       2.606  -3.728  -4.543  1.00  0.00     0.010 A 
ATOM     36  C   UNL     1       1.501  -3.280  -5.264  1.00  0.00    -0.014 A 
BRANCH  36  37
ATOM     37  C   UNL     1       1.276  -3.788  -6.569  1.00  0.00     0.031 A 
ATOM     38  C   UNL     1       0.651  -5.114  -6.625  1.00  0.00     0.074 A 
ATOM     39  C   UNL     1       1.506  -2.865  -7.504  1.00  0.00     0.049 A 
ATOM     40  N   UNL     1       0.281  -5.763  -7.676  1.00  0.00    -0.248 NA
ATOM     41  C   UNL     1       0.421  -5.819  -5.346  1.00  0.00     0.031 C 
ATOM     42  C   UNL     1       2.062  -1.515  -7.257  1.00  0.00     0.029 A 
ATOM     43  N   UNL     1       1.228  -2.879  -8.816  1.00  0.00    -0.354 N 
ATOM     44  C   UNL     1      -0.186  -6.973  -7.201  1.00  0.00     0.074 A 
ATOM     45  C   UNL     1      -0.041  -6.983  -5.767  1.00  0.00     0.031 C 
ATOM     46  C   UNL     1       2.028  -0.819  -8.396  1.00  0.00     0.029 A 
ATOM     47  C   UNL     1       1.580  -1.717  -9.442  1.00  0.00     0.049 A 
ATOM     48  H   UNL     1       0.815  -3.644  -9.277  1.00  0.00     0.167 HD
ATOM     49  C   UNL     1      -0.668  -7.966  -7.972  1.00  0.00     0.034 A 
ATOM     50  C   UNL     1       1.594  -1.484 -10.756  1.00  0.00     0.034 A 
ATOM     51  C   UNL     1      -0.713  -7.799  -9.403  1.00  0.00     0.049 A 
ATOM     52  C   UNL     1       1.100  -2.629 -11.587  1.00  0.00     0.074 A 
ATOM     53  C   UNL     1      -1.117  -8.685 -10.373  1.00  0.00     0.029 A 
ATOM     54  N   UNL     1      -0.307  -6.630 -10.065  1.00  0.00    -0.354 N 
ATOM     55  N   UNL     1       0.685  -3.814 -11.179  1.00  0.00    -0.248 NA
ATOM     56  C   UNL     1       1.067  -2.430 -13.027  1.00  0.00     0.031 C 
ATOM     57  C   UNL     1      -0.883  -8.082 -11.616  1.00  0.00     0.029 A 
ATOM     58  C   UNL     1      -0.421  -6.781 -11.430  1.00  0.00     0.049 A 
ATOM     59  H   UNL     1       0.015  -5.815  -9.617  1.00  0.00     0.167 HD
ATOM     60  C   UNL     1       0.329  -4.513 -12.313  1.00  0.00     0.074 A 
ATOM     61  C   UNL     1       0.564  -3.593 -13.423  1.00  0.00     0.031 C 
ATOM     62  C   UNL     1      -0.142  -5.783 -12.448  1.00  0.00     0.034 A 
BRANCH  49  63
ATOM     63  C   UNL     1      -1.005  -9.257  -7.279  1.00  0.00     0.023 A 
ATOM     64  C   UNL     1      -1.957  -9.327  -6.242  1.00  0.00     0.031 A 
ATOM     65  C   UNL     1      -0.251 -10.410  -7.552  1.00  0.00     0.131 A 
ATOM     66  C   UNL     1      -2.062 -10.490  -5.462  1.00  0.00     0.055 A 
ATOM     67  C   UNL     1      -0.428 -11.595  -6.834  1.00  0.00     0.041 A 
ATOM     68  F   UNL     1       0.714 -10.391  -8.485  1.00  0.00    -0.206 F 
ATOM     69  C   UNL     1      -1.326 -11.635  -5.771  1.00  0.00     0.022 A 
BRANCH  66  70
ATOM     70  S   UNL     1      -3.029 -10.425  -3.926  1.00  0.00     0.124 S 
ATOM     71  O   UNL     1      -2.324  -9.387  -3.177  1.00  0.00    -0.237 OA
ATOM     72  O   UNL     1      -4.361 -10.073  -4.405  1.00  0.00    -0.237 OA
ATOM     73  O   UNL     1      -2.899 -11.774  -3.380  1.00  0.00    -0.744 OA
ENDBRANCH  66  70
ENDBRANCH  49  63
BRANCH  50  74
ATOM     74  C   UNL     1       2.142  -0.207 -11.261  1.00  0.00     0.023 A 
ATOM     75  C   UNL     1       1.335   0.703 -11.949  1.00  0.00     0.031 A 
ATOM     76  C   UNL     1       3.474   0.167 -10.980  1.00  0.00     0.131 A 
ATOM     77  C   UNL     1       1.873   1.932 -12.359  1.00  0.00     0.055 A 
ATOM     78  C   UNL     1       3.986   1.413 -11.338  1.00  0.00     0.041 A 
ATOM     79  F   UNL     1       4.284  -0.659 -10.296  1.00  0.00    -0.206 F 
ATOM     80  C   UNL     1       3.185   2.300 -12.046  1.00  0.00     0.022 A 
BRANCH  77  81
ATOM     81  S   UNL     1       0.845   3.017 -13.381  1.00  0.00     0.124 S 
ATOM     82  O   UNL     1       0.452   2.121 -14.463  1.00  0.00    -0.237 OA
ATOM     83  O   UNL     1      -0.211   3.399 -12.449  1.00  0.00    -0.237 OA
ATOM     84  O   UNL     1       1.760   4.091 -13.761  1.00  0.00    -0.744 OA
ENDBRANCH  77  81
ENDBRANCH  50  74
BRANCH  62  85
ATOM     85  C   UNL     1      -0.458  -6.187 -13.853  1.00  0.00     0.023 A 
ATOM     86  C   UNL     1       0.560  -6.388 -14.794  1.00  0.00     0.031 A 
ATOM     87  C   UNL     1      -1.794  -6.393 -14.232  1.00  0.00     0.131 A 
ATOM     88  C   UNL     1       0.218  -6.735 -16.101  1.00  0.00     0.055 A 
ATOM     89  C   UNL     1      -2.121  -6.817 -15.513  1.00  0.00     0.041 A 
ATOM     90  F   UNL     1      -2.791  -6.205 -13.352  1.00  0.00    -0.206 F 
ATOM     91  C   UNL     1      -1.112  -6.978 -16.460  1.00  0.00     0.022 A 
BRANCH  88  92
ATOM     92  S   UNL     1       1.529  -6.769 -17.347  1.00  0.00     0.124 S 
ATOM     93  O   UNL     1       2.003  -5.389 -17.320  1.00  0.00    -0.237 OA
ATOM     94  O   UNL     1       2.446  -7.769 -16.810  1.00  0.00    -0.237 OA
ATOM     95  O   UNL     1       0.827  -7.161 -18.567  1.00  0.00    -0.744 OA
ENDBRANCH  88  92
ENDBRANCH  62  85
ENDBRANCH  36  37
ENDBRANCH  29  31
ENDBRANCH  28  29
ENDBRANCH   1  28
TORSDOF 17
