REMARK SMILES O=C(OCCOC(=O)[C@@H]1CCCC[C@@H]1NS(=O)(=O)c1ccc2ccccc2c1)c1ccc(-c2c3nc(c(-c4cc(S(=O)(=O)[O-])ccc4F)c4ccc([nH]4)c(-c4cc(S(=O)(=O)[O-])ccc4F)c4nc(c(-c5cc(S(=O)(=O)[O-])ccc5F)c5ccc2[nH]5)C=C4)C=C3)cc1
REMARK SMILES IDX 4 1 3 2 2 3 1 4 29 5 30 6 91 7 31 8 90 9 32 10 33 11 34 12
REMARK SMILES IDX 84 13 35 14 89 15 83 16 85 17 36 18 88 19 82 20 81 21 37 23
REMARK SMILES IDX 69 24 49 25 68 26 50 27 53 28 67 29 86 30 51 31 52 32 66 34
REMARK SMILES IDX 87 35 54 36 38 37 39 38 47 39 40 40 46 41 48 42 45 43 41 44
REMARK SMILES IDX 42 45 43 46 44 47 70 48 71 49 79 50 72 51 78 52 80 53 77 54
REMARK SMILES IDX 73 55 74 56 75 57 76 58 55 59 56 60 64 61 57 62 63 63 65 64
REMARK SMILES IDX 62 65 58 66 59 67 60 68 61 69 5 70 6 71 7 72 8 73 9 74 10 75
REMARK SMILES IDX 14 76 11 77 13 78 12 79 15 80 16 82 17 83 18 84 19 85 20 86
REMARK SMILES IDX 28 87 21 88 27 89 22 90 26 91 23 92 25 93 24 94
REMARK H PARENT 85 22 53 33 15 81
REMARK Flexibility Score: inf
ROOT
ATOM      1  C   UNL     1       5.201   1.438  -1.566  1.00  0.00     0.275 C 
ENDROOT
BRANCH   1   2
ATOM      2  O   UNL     1       3.688   0.412  -1.652  1.00  0.00    -0.458 OA
BRANCH   2   3
ATOM      3  C   UNL     1       2.602  -0.320  -0.660  1.00  0.00     0.338 C 
ATOM      4  O   UNL     1       1.582  -0.767  -1.187  1.00  0.00    -0.246 OA
BRANCH   3   5
ATOM      5  C   UNL     1       2.717  -0.435   1.108  1.00  0.00     0.060 A 
ATOM      6  C   UNL     1       4.207   0.098   2.152  1.00  0.00     0.016 A 
ATOM      7  C   UNL     1       2.157  -2.098   1.562  1.00  0.00     0.016 A 
ATOM      8  C   UNL     1       5.091  -0.944   3.251  1.00  0.00     0.010 A 
ATOM      9  C   UNL     1       3.091  -3.026   2.805  1.00  0.00     0.010 A 
ATOM     10  C   UNL     1       4.531  -2.389   3.664  1.00  0.00    -0.014 A 
BRANCH  10  11
ATOM     11  C   UNL     1       5.376  -2.741   4.915  1.00  0.00     0.031 A 
ATOM     12  C   UNL     1       6.101  -4.034   4.948  1.00  0.00     0.074 A 
ATOM     13  C   UNL     1       5.773  -1.780   5.837  1.00  0.00     0.049 A 
ATOM     14  N   UNL     1       6.937  -4.471   5.848  1.00  0.00    -0.248 NA
ATOM     15  C   UNL     1       5.927  -4.902   3.782  1.00  0.00     0.031 C 
ATOM     16  C   UNL     1       5.429  -0.350   5.781  1.00  0.00     0.029 A 
ATOM     17  N   UNL     1       6.591  -1.761   6.958  1.00  0.00    -0.354 N 
ATOM     18  C   UNL     1       7.418  -5.667   5.349  1.00  0.00     0.074 A 
ATOM     19  C   UNL     1       6.738  -5.901   4.088  1.00  0.00     0.031 C 
ATOM     20  C   UNL     1       5.978   0.382   6.742  1.00  0.00     0.029 A 
ATOM     21  C   UNL     1       6.680  -0.518   7.600  1.00  0.00     0.049 A 
ATOM     22  H   UNL     1       7.073  -2.558   7.277  1.00  0.00     0.167 HD
ATOM     23  C   UNL     1       8.356  -6.476   5.894  1.00  0.00     0.034 A 
ATOM     24  C   UNL     1       7.223  -0.087   8.758  1.00  0.00     0.034 A 
ATOM     25  C   UNL     1       8.982  -6.220   7.168  1.00  0.00     0.049 A 
ATOM     26  C   UNL     1       8.041  -1.103   9.468  1.00  0.00     0.074 A 
ATOM     27  C   UNL     1       9.781  -7.058   7.923  1.00  0.00     0.029 A 
ATOM     28  N   UNL     1       8.879  -5.025   7.882  1.00  0.00    -0.354 N 
ATOM     29  N   UNL     1       8.331  -2.314   9.056  1.00  0.00    -0.248 NA
ATOM     30  C   UNL     1       8.629  -0.721  10.749  1.00  0.00     0.031 C 
ATOM     31  C   UNL     1      10.106  -6.399   9.114  1.00  0.00     0.029 A 
ATOM     32  C   UNL     1       9.578  -5.117   9.077  1.00  0.00     0.049 A 
ATOM     33  H   UNL     1       8.381  -4.231   7.580  1.00  0.00     0.167 HD
ATOM     34  C   UNL     1       9.171  -2.837  10.015  1.00  0.00     0.074 A 
ATOM     35  C   UNL     1       9.358  -1.795  11.012  1.00  0.00     0.031 C 
ATOM     36  C   UNL     1       9.732  -4.069  10.060  1.00  0.00     0.034 A 
BRANCH  23  37
ATOM     37  C   UNL     1       8.607  -7.756   5.145  1.00  0.00     0.023 A 
ATOM     38  C   UNL     1       9.174  -7.752   3.857  1.00  0.00     0.031 A 
ATOM     39  C   UNL     1       8.079  -8.961   5.636  1.00  0.00     0.131 A 
ATOM     40  C   UNL     1       9.086  -8.903   3.061  1.00  0.00     0.055 A 
ATOM     41  C   UNL     1       8.082 -10.128   4.872  1.00  0.00     0.041 A 
ATOM     42  F   UNL     1       7.489  -9.007   6.841  1.00  0.00    -0.206 F 
ATOM     43  C   UNL     1       8.565 -10.097   3.567  1.00  0.00     0.022 A 
BRANCH  40  44
ATOM     44  S   UNL     1       9.455  -8.762   1.289  1.00  0.00     0.124 S 
ATOM     45  O   UNL     1       8.392  -7.864   0.844  1.00  0.00    -0.237 OA
ATOM     46  O   UNL     1      10.804  -8.208   1.287  1.00  0.00    -0.237 OA
ATOM     47  O   UNL     1       9.344 -10.137   0.806  1.00  0.00    -0.744 OA
ENDBRANCH  40  44
ENDBRANCH  23  37
BRANCH  24  48
ATOM     48  C   UNL     1       6.956   1.287   9.334  1.00  0.00     0.023 A 
ATOM     49  C   UNL     1       7.980   2.179   9.708  1.00  0.00     0.031 A 
ATOM     50  C   UNL     1       5.630   1.700   9.599  1.00  0.00     0.131 A 
ATOM     51  C   UNL     1       7.669   3.390  10.366  1.00  0.00     0.055 A 
ATOM     52  C   UNL     1       5.324   2.925  10.204  1.00  0.00     0.041 A 
ATOM     53  F   UNL     1       4.593   0.913   9.269  1.00  0.00    -0.206 F 
ATOM     54  C   UNL     1       6.348   3.770  10.610  1.00  0.00     0.022 A 
BRANCH  51  55
ATOM     55  S   UNL     1       9.018   4.427  11.012  1.00  0.00     0.124 S 
ATOM     56  O   UNL     1       9.810   3.458  11.760  1.00  0.00    -0.237 OA
ATOM     57  O   UNL     1       9.618   4.938   9.784  1.00  0.00    -0.237 OA
ATOM     58  O   UNL     1       8.324   5.424  11.825  1.00  0.00    -0.744 OA
ENDBRANCH  51  55
ENDBRANCH  24  48
BRANCH  36  59
ATOM     59  C   UNL     1      10.628  -4.314  11.235  1.00  0.00     0.023 A 
ATOM     60  C   UNL     1      10.119  -4.339  12.543  1.00  0.00     0.031 A 
ATOM     61  C   UNL     1      12.012  -4.452  11.046  1.00  0.00     0.131 A 
ATOM     62  C   UNL     1      11.002  -4.416  13.623  1.00  0.00     0.055 A 
ATOM     63  C   UNL     1      12.877  -4.615  12.123  1.00  0.00     0.041 A 
ATOM     64  F   UNL     1      12.541  -4.413   9.812  1.00  0.00    -0.206 F 
ATOM     65  C   UNL     1      12.375  -4.580  13.423  1.00  0.00     0.022 A 
BRANCH  62  66
ATOM     66  S   UNL     1      10.339  -4.162  15.289  1.00  0.00     0.124 S 
ATOM     67  O   UNL     1       9.802  -2.808  15.193  1.00  0.00    -0.237 OA
ATOM     68  O   UNL     1       9.352  -5.231  15.400  1.00  0.00    -0.237 OA
ATOM     69  O   UNL     1      11.512  -4.307  16.148  1.00  0.00    -0.744 OA
ENDBRANCH  62  66
ENDBRANCH  36  59
ENDBRANCH  10  11
ENDBRANCH   3   5
ENDBRANCH   2   3
ENDBRANCH   1   2
BRANCH   1  70
ATOM     70  C   UNL     1       6.041   2.100   0.040  1.00  0.00     0.274 C 
BRANCH  70  71
ATOM     71  O   UNL     1       5.331   2.221   1.772  1.00  0.00    -0.462 OA
BRANCH  71  72
ATOM     72  C   UNL     1       3.889   2.346   2.623  1.00  0.00     0.310 C 
ATOM     73  O   UNL     1       3.230   3.391   2.681  1.00  0.00    -0.252 OA
BRANCH  72  74
ATOM     74  C   UNL     1       2.991   1.074   3.513  1.00  0.00     0.117 C 
ATOM     75  C   UNL     1       2.858   1.584   4.949  1.00  0.00     0.017 C 
ATOM     76  C   UNL     1       2.915  -0.797   3.235  1.00  0.00     0.084 C 
ATOM     77  C   UNL     1       2.025   0.754   5.898  1.00  0.00     0.001 C 
ATOM     78  C   UNL     1       2.322  -1.500   4.656  1.00  0.00     0.021 C 
ATOM     79  C   UNL     1       2.344  -0.717   5.967  1.00  0.00     0.002 C 
BRANCH  76  80
ATOM     80  N   UNL     1       4.086  -1.664   1.603  1.00  0.00    -0.207 NA
ATOM     81  H   UNL     1       3.474  -2.299   1.091  1.00  0.00     0.141 HD
BRANCH  80  82
ATOM     82  S   UNL     1       4.964  -0.265   0.143  1.00  0.00     0.240 S 
ATOM     83  O   UNL     1       6.282  -0.093   0.744  1.00  0.00    -0.207 OA
ATOM     84  O   UNL     1       4.971  -1.158  -1.012  1.00  0.00    -0.207 OA
BRANCH  82  85
ATOM     85  C   UNL     1       3.659   1.788   0.047  1.00  0.00     0.083 A 
ATOM     86  C   UNL     1       2.515   2.196  -0.834  1.00  0.00     0.022 A 
ATOM     87  C   UNL     1       4.071   3.266   0.318  1.00  0.00     0.030 A 
ATOM     88  C   UNL     1       1.942   3.575  -1.076  1.00  0.00     0.010 A 
ATOM     89  C   UNL     1       3.413   4.546   0.399  1.00  0.00    -0.017 A 
ATOM     90  C   UNL     1       2.302   4.738  -0.346  1.00  0.00    -0.018 A 
ATOM     91  C   UNL     1       3.811   5.490   1.404  1.00  0.00     0.009 A 
ATOM     92  C   UNL     1       1.687   6.022  -0.219  1.00  0.00     0.009 A 
ATOM     93  C   UNL     1       3.025   6.575   1.728  1.00  0.00     0.001 A 
ATOM     94  C   UNL     1       2.005   6.891   0.853  1.00  0.00     0.001 A 
ENDBRANCH  82  85
ENDBRANCH  80  82
ENDBRANCH  76  80
ENDBRANCH  72  74
ENDBRANCH  71  72
ENDBRANCH  70  71
ENDBRANCH   1  70
TORSDOF 17
