REMARK SMILES CC(C)[C@H]([NH2+]Cc1ccncc1)C(=O)OCCOC(=O)c1ccc(-c2c3nc(c(-c4cc(S(=O)(=O)[O-])ccc4F)c4ccc([nH]4)c(-c4cc(S(=O)(=O)[O-])ccc4F)c4nc(c(-c5cc(S(=O)(=O)[O-])ccc5F)c5ccc2[nH]5)C=C4)C=C3)cc1
REMARK SMILES IDX 16 1 15 2 13 3 14 4 4 5 2 6 1 7 3 8 5 9 6 12 7 13 8 14 12 15
REMARK SMILES IDX 9 16 11 17 10 18 17 19 18 20 19 21 20 22 21 23 22 24 83 25
REMARK SMILES IDX 23 26 82 27 24 28 25 29 26 30 76 31 27 32 81 33 75 34 77 35
REMARK SMILES IDX 28 36 80 37 74 38 73 39 29 41 61 42 41 43 60 44 42 45 45 46
REMARK SMILES IDX 59 47 78 48 43 49 44 50 58 52 79 53 46 54 30 55 31 56 39 57
REMARK SMILES IDX 32 58 38 59 40 60 37 61 33 62 34 63 35 64 36 65 62 66 63 67
REMARK SMILES IDX 71 68 64 69 70 70 72 71 69 72 65 73 66 74 67 75 68 76 47 77
REMARK SMILES IDX 48 78 56 79 49 80 55 81 57 82 54 83 50 84 51 85 52 86 53 87
REMARK H PARENT 5 10 5 11 77 40 45 51
REMARK Flexibility Score: inf
ROOT
ATOM      1  C   UNL     1      -1.893   3.533   3.888  1.00  0.00     0.274 C 
ENDROOT
BRANCH   1   2
ATOM      2  O   UNL     1      -1.297   2.350   3.323  1.00  0.00    -0.458 OA
BRANCH   2   3
ATOM      3  C   UNL     1      -1.883   1.852   2.205  1.00  0.00     0.365 C 
ATOM      4  O   UNL     1      -2.974   2.226   1.788  1.00  0.00    -0.245 OA
BRANCH   3   5
ATOM      5  C   UNL     1      -1.042   0.775   1.487  1.00  0.00     0.296 C 
BRANCH   5   6
ATOM      6  C   UNL     1      -1.406  -0.680   1.868  1.00  0.00     0.053 C 
ATOM      7  C   UNL     1      -2.925  -0.891   1.950  1.00  0.00     0.014 C 
ATOM      8  C   UNL     1      -0.841  -1.657   0.824  1.00  0.00     0.014 C 
ENDBRANCH   5   6
BRANCH   5   9
ATOM      9  N   UNL     1       0.416   1.067   1.421  1.00  0.00    -0.331 N 
ATOM     10  H   UNL     1       0.527   2.001   1.027  1.00  0.00     0.347 HD
ATOM     11  H   UNL     1       0.814   0.315   0.857  1.00  0.00     0.347 HD
BRANCH   9  12
ATOM     12  C   UNL     1       1.151   1.029   2.678  1.00  0.00     0.298 C 
BRANCH  12  13
ATOM     13  C   UNL     1       2.640   1.107   2.440  1.00  0.00     0.009 A 
ATOM     14  C   UNL     1       3.415  -0.052   2.374  1.00  0.00     0.029 A 
ATOM     15  C   UNL     1       3.278   2.342   2.276  1.00  0.00     0.029 A 
ATOM     16  C   UNL     1       4.785   0.073   2.200  1.00  0.00     0.111 A 
ATOM     17  C   UNL     1       4.654   2.363   2.104  1.00  0.00     0.111 A 
ATOM     18  N   UNL     1       5.427   1.255   2.085  1.00  0.00    -0.265 NA
ENDBRANCH  12  13
ENDBRANCH   9  12
ENDBRANCH   5   9
ENDBRANCH   3   5
ENDBRANCH   2   3
ENDBRANCH   1   2
BRANCH   1  19
ATOM     19  C   UNL     1      -1.227   4.803   3.342  1.00  0.00     0.275 C 
BRANCH  19  20
ATOM     20  O   UNL     1      -1.633   5.089   1.990  1.00  0.00    -0.458 OA
BRANCH  20  21
ATOM     21  C   UNL     1      -0.831   4.590   1.017  1.00  0.00     0.338 C 
ATOM     22  O   UNL     1       0.207   3.970   1.176  1.00  0.00    -0.246 OA
BRANCH  21  23
ATOM     23  C   UNL     1      -1.480   4.751  -0.297  1.00  0.00     0.060 A 
ATOM     24  C   UNL     1      -1.683   3.603  -1.069  1.00  0.00     0.016 A 
ATOM     25  C   UNL     1      -1.839   6.004  -0.793  1.00  0.00     0.016 A 
ATOM     26  C   UNL     1      -2.264   3.693  -2.329  1.00  0.00     0.010 A 
ATOM     27  C   UNL     1      -2.413   6.097  -2.067  1.00  0.00     0.010 A 
ATOM     28  C   UNL     1      -2.629   4.942  -2.840  1.00  0.00    -0.014 A 
BRANCH  28  29
ATOM     29  C   UNL     1      -3.182   5.032  -4.212  1.00  0.00     0.031 A 
ATOM     30  C   UNL     1      -2.306   5.514  -5.331  1.00  0.00     0.074 A 
ATOM     31  C   UNL     1      -4.450   4.650  -4.450  1.00  0.00     0.049 A 
ATOM     32  N   UNL     1      -2.614   5.758  -6.577  1.00  0.00    -0.248 NA
ATOM     33  C   UNL     1      -0.894   5.752  -4.997  1.00  0.00     0.031 C 
ATOM     34  C   UNL     1      -5.365   4.099  -3.449  1.00  0.00     0.029 A 
ATOM     35  N   UNL     1      -5.189   4.669  -5.604  1.00  0.00    -0.354 N 
ATOM     36  C   UNL     1      -1.439   6.198  -7.177  1.00  0.00     0.074 A 
ATOM     37  C   UNL     1      -0.419   6.203  -6.149  1.00  0.00     0.031 C 
ATOM     38  C   UNL     1      -6.547   3.841  -4.032  1.00  0.00     0.029 A 
ATOM     39  C   UNL     1      -6.491   4.259  -5.431  1.00  0.00     0.049 A 
ATOM     40  H   UNL     1      -4.824   4.949  -6.474  1.00  0.00     0.167 HD
ATOM     41  C   UNL     1      -1.237   6.562  -8.468  1.00  0.00     0.034 A 
ATOM     42  C   UNL     1      -7.528   4.260  -6.291  1.00  0.00     0.034 A 
ATOM     43  C   UNL     1      -2.272   6.549  -9.474  1.00  0.00     0.049 A 
ATOM     44  C   UNL     1      -7.301   4.755  -7.697  1.00  0.00     0.074 A 
ATOM     45  C   UNL     1      -2.181   6.895 -10.811  1.00  0.00     0.029 A 
ATOM     46  N   UNL     1      -3.593   6.178  -9.251  1.00  0.00    -0.354 N 
ATOM     47  N   UNL     1      -6.194   5.198  -8.249  1.00  0.00    -0.248 NA
ATOM     48  C   UNL     1      -8.463   4.756  -8.596  1.00  0.00     0.031 C 
ATOM     49  C   UNL     1      -3.457   6.795 -11.378  1.00  0.00     0.029 A 
ATOM     50  C   UNL     1      -4.332   6.318 -10.415  1.00  0.00     0.049 A 
ATOM     51  H   UNL     1      -3.951   5.861  -8.390  1.00  0.00     0.167 HD
ATOM     52  C   UNL     1      -6.522   5.508  -9.565  1.00  0.00     0.074 A 
ATOM     53  C   UNL     1      -7.926   5.189  -9.728  1.00  0.00     0.031 C 
ATOM     54  C   UNL     1      -5.736   6.008 -10.552  1.00  0.00     0.034 A 
BRANCH  41  55
ATOM     55  C   UNL     1       0.136   7.069  -8.836  1.00  0.00     0.023 A 
ATOM     56  C   UNL     1       1.271   6.241  -8.797  1.00  0.00     0.031 A 
ATOM     57  C   UNL     1       0.315   8.416  -9.197  1.00  0.00     0.131 A 
ATOM     58  C   UNL     1       2.541   6.784  -9.047  1.00  0.00     0.055 A 
ATOM     59  C   UNL     1       1.571   8.932  -9.518  1.00  0.00     0.041 A 
ATOM     60  F   UNL     1      -0.729   9.259  -9.229  1.00  0.00    -0.206 F 
ATOM     61  C   UNL     1       2.696   8.118  -9.430  1.00  0.00     0.022 A 
BRANCH  58  62
ATOM     62  S   UNL     1       4.003   5.757  -8.732  1.00  0.00     0.124 S 
ATOM     63  O   UNL     1       3.842   5.442  -7.314  1.00  0.00    -0.237 OA
ATOM     64  O   UNL     1       3.816   4.648  -9.660  1.00  0.00    -0.237 OA
ATOM     65  O   UNL     1       5.120   6.647  -9.041  1.00  0.00    -0.744 OA
ENDBRANCH  58  62
ENDBRANCH  41  55
BRANCH  42  66
ATOM     66  C   UNL     1      -8.886   3.846  -5.837  1.00  0.00     0.023 A 
ATOM     67  C   UNL     1      -9.531   2.727  -6.386  1.00  0.00     0.031 A 
ATOM     68  C   UNL     1      -9.580   4.598  -4.870  1.00  0.00     0.131 A 
ATOM     69  C   UNL     1     -10.843   2.414  -5.994  1.00  0.00     0.055 A 
ATOM     70  C   UNL     1     -10.864   4.253  -4.446  1.00  0.00     0.041 A 
ATOM     71  F   UNL     1      -9.011   5.680  -4.315  1.00  0.00    -0.206 F 
ATOM     72  C   UNL     1     -11.507   3.161  -5.019  1.00  0.00     0.022 A 
BRANCH  69  73
ATOM     73  S   UNL     1     -11.703   1.059  -6.839  1.00  0.00     0.124 S 
ATOM     74  O   UNL     1     -11.655   1.496  -8.230  1.00  0.00    -0.237 OA
ATOM     75  O   UNL     1     -10.870  -0.089  -6.497  1.00  0.00    -0.237 OA
ATOM     76  O   UNL     1     -13.031   1.066  -6.229  1.00  0.00    -0.744 OA
ENDBRANCH  69  73
ENDBRANCH  42  66
BRANCH  54  77
ATOM     77  C   UNL     1      -6.379   6.200 -11.903  1.00  0.00     0.023 A 
ATOM     78  C   UNL     1      -7.357   7.184 -12.123  1.00  0.00     0.031 A 
ATOM     79  C   UNL     1      -6.011   5.376 -12.982  1.00  0.00     0.131 A 
ATOM     80  C   UNL     1      -7.971   7.289 -13.380  1.00  0.00     0.055 A 
ATOM     81  C   UNL     1      -6.587   5.520 -14.244  1.00  0.00     0.041 A 
ATOM     82  F   UNL     1      -5.083   4.419 -12.825  1.00  0.00    -0.206 F 
ATOM     83  C   UNL     1      -7.581   6.474 -14.446  1.00  0.00     0.022 A 
BRANCH  80  84
ATOM     84  S   UNL     1      -9.345   8.456 -13.586  1.00  0.00     0.124 S 
ATOM     85  O   UNL     1     -10.312   7.961 -12.611  1.00  0.00    -0.237 OA
ATOM     86  O   UNL     1      -8.719   9.736 -13.270  1.00  0.00    -0.237 OA
ATOM     87  O   UNL     1      -9.732   8.286 -14.985  1.00  0.00    -0.744 OA
ENDBRANCH  80  84
ENDBRANCH  54  77
ENDBRANCH  28  29
ENDBRANCH  21  23
ENDBRANCH  20  21
ENDBRANCH  19  20
ENDBRANCH   1  19
TORSDOF 18
