REMARK SMILES O=C(CCCS(=O)(=O)Nc1ccc(Cl)cc1F)OCCOC(=O)c1ccc(-c2c3nc(c(-c4cc(S(=O)(=O)[O-])ccc4F)c4ccc([nH]4)c(-c4cc(S(=O)(=O)[O-])ccc4F)c4nc(c(-c5cc(S(=O)(=O)[O-])ccc5F)c5ccc2[nH]5)C=C4)C=C3)cc1
REMARK SMILES IDX 19 1 18 2 2 3 1 4 3 5 4 6 5 7 6 8 7 9 8 10 9 11 10 13 11 14
REMARK SMILES IDX 16 15 12 16 15 17 17 18 13 19 14 20 20 21 21 22 22 23 23 24
REMARK SMILES IDX 24 25 25 26 86 27 26 28 85 29 27 30 28 31 29 32 79 33 30 34
REMARK SMILES IDX 84 35 78 36 80 37 31 38 83 39 77 40 76 41 32 43 64 44 44 45
REMARK SMILES IDX 63 46 45 47 48 48 62 49 81 50 46 51 47 52 61 54 82 55 49 56
REMARK SMILES IDX 33 57 34 58 42 59 35 60 41 61 43 62 40 63 36 64 37 65 38 66
REMARK SMILES IDX 39 67 65 68 66 69 74 70 67 71 73 72 75 73 72 74 68 75 69 76
REMARK SMILES IDX 70 77 71 78 50 79 51 80 59 81 52 82 58 83 60 84 57 85 53 86
REMARK SMILES IDX 54 87 55 88 56 89
REMARK H PARENT 9 12 80 42 48 53
REMARK Flexibility Score: inf
ROOT
ATOM      1  C   UNL     1       3.413  -0.192  -1.825  1.00  0.00     0.274 C 
ENDROOT
BRANCH   1   2
ATOM      2  O   UNL     1       2.570  -1.280  -2.086  1.00  0.00    -0.462 OA
BRANCH   2   3
ATOM      3  C   UNL     1       3.018  -2.479  -1.662  1.00  0.00     0.305 C 
ATOM      4  O   UNL     1       2.598  -3.488  -2.226  1.00  0.00    -0.252 OA
BRANCH   3   5
ATOM      5  C   UNL     1       3.831  -2.577  -0.356  1.00  0.00     0.124 C 
BRANCH   5   6
ATOM      6  C   UNL     1       5.197  -1.865   0.109  1.00  0.00     0.030 C 
BRANCH   6   7
ATOM      7  C   UNL     1       5.819  -0.389  -0.073  1.00  0.00     0.160 C 
BRANCH   7   8
ATOM      8  S   UNL     1       5.991   1.186   1.004  1.00  0.00     0.232 S 
ATOM      9  O   UNL     1       6.511   0.699   2.276  1.00  0.00    -0.207 OA
ATOM     10  O   UNL     1       6.919   1.986   0.216  1.00  0.00    -0.207 OA
BRANCH   8  11
ATOM     11  N   UNL     1       4.783   2.333   1.445  1.00  0.00    -0.281 N 
ATOM     12  H   UNL     1       5.112   2.827   2.230  1.00  0.00     0.180 HD
BRANCH  11  13
ATOM     13  C   UNL     1       3.409   2.883   1.100  1.00  0.00     0.084 A 
ATOM     14  C   UNL     1       3.341   4.213   0.686  1.00  0.00     0.031 A 
ATOM     15  C   UNL     1       2.103   2.355   1.414  1.00  0.00     0.148 A 
ATOM     16  C   UNL     1       2.099   4.880   0.463  1.00  0.00     0.023 A 
ATOM     17  C   UNL     1       0.879   2.953   1.093  1.00  0.00     0.062 A 
ATOM     18  F   UNL     1       1.868   1.217   2.058  1.00  0.00    -0.205 F 
ATOM     19  C   UNL     1       0.877   4.229   0.610  1.00  0.00     0.044 A 
ATOM     20  Cl  UNL     1      -0.619   4.994   0.258  1.00  0.00    -0.084 Cl
ENDBRANCH  11  13
ENDBRANCH   8  11
ENDBRANCH   7   8
ENDBRANCH   6   7
ENDBRANCH   5   6
ENDBRANCH   3   5
ENDBRANCH   2   3
ENDBRANCH   1   2
BRANCH   1  21
ATOM     21  C   UNL     1       3.105   0.412  -0.452  1.00  0.00     0.275 C 
BRANCH  21  22
ATOM     22  O   UNL     1       3.052  -0.485   0.743  1.00  0.00    -0.458 OA
BRANCH  22  23
ATOM     23  C   UNL     1       3.452  -0.359   2.052  1.00  0.00     0.338 C 
ATOM     24  O   UNL     1       4.033   0.557   2.608  1.00  0.00    -0.246 OA
BRANCH  23  25
ATOM     25  C   UNL     1       2.925  -1.289   3.034  1.00  0.00     0.060 A 
ATOM     26  C   UNL     1       1.590  -1.628   2.905  1.00  0.00     0.016 A 
ATOM     27  C   UNL     1       3.603  -1.365   4.275  1.00  0.00     0.016 A 
ATOM     28  C   UNL     1       0.895  -1.959   4.051  1.00  0.00     0.010 A 
ATOM     29  C   UNL     1       2.911  -1.747   5.412  1.00  0.00     0.010 A 
ATOM     30  C   UNL     1       1.547  -2.022   5.300  1.00  0.00    -0.014 A 
BRANCH  30  31
ATOM     31  C   UNL     1       0.799  -2.538   6.456  1.00  0.00     0.031 A 
ATOM     32  C   UNL     1       0.379  -1.659   7.590  1.00  0.00     0.074 A 
ATOM     33  C   UNL     1       0.507  -3.849   6.411  1.00  0.00     0.049 A 
ATOM     34  N   UNL     1      -0.280  -1.984   8.671  1.00  0.00    -0.248 NA
ATOM     35  C   UNL     1       0.749  -0.239   7.511  1.00  0.00     0.031 C 
ATOM     36  C   UNL     1       0.896  -4.752   5.320  1.00  0.00     0.029 A 
ATOM     37  N   UNL     1      -0.188  -4.643   7.272  1.00  0.00    -0.354 N 
ATOM     38  C   UNL     1      -0.398  -0.815   9.415  1.00  0.00     0.074 A 
ATOM     39  C   UNL     1       0.276   0.225   8.663  1.00  0.00     0.031 C 
ATOM     40  C   UNL     1       0.389  -5.966   5.556  1.00  0.00     0.029 A 
ATOM     41  C   UNL     1      -0.278  -5.946   6.848  1.00  0.00     0.049 A 
ATOM     42  H   UNL     1      -0.586  -4.317   8.111  1.00  0.00     0.167 HD
ATOM     43  C   UNL     1      -1.008  -0.648  10.617  1.00  0.00     0.034 A 
ATOM     44  C   UNL     1      -0.813  -7.016   7.457  1.00  0.00     0.034 A 
ATOM     45  C   UNL     1      -1.648  -1.734  11.333  1.00  0.00     0.049 A 
ATOM     46  C   UNL     1      -1.453  -6.805   8.796  1.00  0.00     0.074 A 
ATOM     47  C   UNL     1      -2.302  -1.702  12.553  1.00  0.00     0.029 A 
ATOM     48  N   UNL     1      -1.702  -3.055  10.895  1.00  0.00    -0.354 N 
ATOM     49  N   UNL     1      -1.562  -5.695   9.492  1.00  0.00    -0.248 NA
ATOM     50  C   UNL     1      -2.047  -7.983   9.426  1.00  0.00     0.031 C 
ATOM     51  C   UNL     1      -2.684  -3.009  12.883  1.00  0.00     0.029 A 
ATOM     52  C   UNL     1      -2.349  -3.849  11.832  1.00  0.00     0.049 A 
ATOM     53  H   UNL     1      -1.332  -3.380  10.042  1.00  0.00     0.167 HD
ATOM     54  C   UNL     1      -2.263  -6.039  10.640  1.00  0.00     0.074 A 
ATOM     55  C   UNL     1      -2.569  -7.454  10.522  1.00  0.00     0.031 C 
ATOM     56  C   UNL     1      -2.621  -5.263  11.696  1.00  0.00     0.034 A 
BRANCH  43  57
ATOM     57  C   UNL     1      -0.948   0.724  11.255  1.00  0.00     0.023 A 
ATOM     58  C   UNL     1      -1.531   1.857  10.660  1.00  0.00     0.031 A 
ATOM     59  C   UNL     1      -0.272   0.907  12.477  1.00  0.00     0.131 A 
ATOM     60  C   UNL     1      -1.368   3.124  11.246  1.00  0.00     0.055 A 
ATOM     61  C   UNL     1      -0.179   2.157  13.095  1.00  0.00     0.041 A 
ATOM     62  F   UNL     1       0.326  -0.128  13.089  1.00  0.00    -0.206 F 
ATOM     63  C   UNL     1      -0.716   3.278  12.472  1.00  0.00     0.022 A 
BRANCH  60  64
ATOM     64  S   UNL     1      -1.895   4.592  10.316  1.00  0.00     0.124 S 
ATOM     65  O   UNL     1      -1.122   4.455   9.084  1.00  0.00    -0.237 OA
ATOM     66  O   UNL     1      -3.334   4.389  10.193  1.00  0.00    -0.237 OA
ATOM     67  O   UNL     1      -1.493   5.706  11.172  1.00  0.00    -0.744 OA
ENDBRANCH  60  64
ENDBRANCH  43  57
BRANCH  44  68
ATOM     68  C   UNL     1      -0.737  -8.351   6.809  1.00  0.00     0.023 A 
ATOM     69  C   UNL     1      -1.899  -9.027   6.414  1.00  0.00     0.031 A 
ATOM     70  C   UNL     1       0.505  -8.966   6.560  1.00  0.00     0.131 A 
ATOM     71  C   UNL     1      -1.799 -10.296   5.826  1.00  0.00     0.055 A 
ATOM     72  C   UNL     1       0.601 -10.201   5.920  1.00  0.00     0.041 A 
ATOM     73  F   UNL     1       1.649  -8.353   6.904  1.00  0.00    -0.206 F 
ATOM     74  C   UNL     1      -0.558 -10.880   5.561  1.00  0.00     0.022 A 
BRANCH  71  75
ATOM     75  S   UNL     1      -3.328 -11.207   5.485  1.00  0.00     0.124 S 
ATOM     76  O   UNL     1      -3.958 -11.237   6.797  1.00  0.00    -0.237 OA
ATOM     77  O   UNL     1      -3.966 -10.363   4.482  1.00  0.00    -0.237 OA
ATOM     78  O   UNL     1      -2.846 -12.502   4.993  1.00  0.00    -0.744 OA
ENDBRANCH  71  75
ENDBRANCH  44  68
BRANCH  56  79
ATOM     79  C   UNL     1      -3.424  -5.948  12.774  1.00  0.00     0.023 A 
ATOM     80  C   UNL     1      -2.880  -6.983  13.553  1.00  0.00     0.031 A 
ATOM     81  C   UNL     1      -4.772  -5.604  12.975  1.00  0.00     0.131 A 
ATOM     82  C   UNL     1      -3.703  -7.697  14.435  1.00  0.00     0.055 A 
ATOM     83  C   UNL     1      -5.566  -6.268  13.909  1.00  0.00     0.041 A 
ATOM     84  F   UNL     1      -5.343  -4.626  12.253  1.00  0.00    -0.206 F 
ATOM     85  C   UNL     1      -5.038  -7.335  14.631  1.00  0.00     0.022 A 
BRANCH  82  86
ATOM     86  S   UNL     1      -3.042  -9.194  15.218  1.00  0.00     0.124 S 
ATOM     87  O   UNL     1      -2.644  -9.989  14.060  1.00  0.00    -0.237 OA
ATOM     88  O   UNL     1      -1.953  -8.665  16.033  1.00  0.00    -0.237 OA
ATOM     89  O   UNL     1      -4.181  -9.719  15.969  1.00  0.00    -0.744 OA
ENDBRANCH  82  86
ENDBRANCH  56  79
ENDBRANCH  30  31
ENDBRANCH  23  25
ENDBRANCH  22  23
ENDBRANCH  21  22
ENDBRANCH   1  21
TORSDOF 19
