REMARK SMILES CS(=O)(=O)c1ccc(/C=C(/C(=O)OCCOC(=O)c2ccc(-c3c4nc(c(-c5cc(S(=O)(=O)[O-])ccc5F)c5ccc([nH]5)c(-c5cc(S(=O)(=O)[O-])ccc5F)c5nc(c(-c6cc(S(=O)(=O)[O-])ccc6F)c6ccc3[nH]6)C=C5)C=C4)cc2)c2ccccc2)cc1
REMARK SMILES IDX 15 1 14 2 13 3 11 4 12 5 10 6 9 7 8 8 5 9 6 10 89 11 7 12
REMARK SMILES IDX 88 13 2 14 1 15 3 16 4 17 82 18 83 19 87 20 84 21 86 22
REMARK SMILES IDX 85 23 16 24 17 25 18 26 19 27 20 28 81 29 21 30 80 31 22 32
REMARK SMILES IDX 23 33 24 34 74 35 25 36 79 37 73 38 75 39 26 40 78 41 72 42
REMARK SMILES IDX 71 43 27 45 59 46 39 47 58 48 40 49 43 50 57 51 76 52 41 53
REMARK SMILES IDX 42 54 56 56 77 57 44 58 28 59 29 60 37 61 30 62 36 63 38 64
REMARK SMILES IDX 35 65 31 66 32 67 33 68 34 69 60 70 61 71 69 72 62 73 68 74
REMARK SMILES IDX 70 75 67 76 63 77 64 78 65 79 66 80 45 81 46 82 54 83 47 84
REMARK SMILES IDX 53 85 55 86 52 87 48 88 49 89 50 90 51 91
REMARK H PARENT 75 44 43 55
REMARK Flexibility Score: inf
ROOT
ATOM      1  C   UNL     1       3.424 -10.077  -5.345  1.00  0.00     0.275 C 
ENDROOT
BRANCH   1   2
ATOM      2  C   UNL     1       2.944  -8.695  -5.782  1.00  0.00     0.275 C 
BRANCH   2   3
ATOM      3  O   UNL     1       2.807  -7.817  -4.646  1.00  0.00    -0.458 OA
BRANCH   3   4
ATOM      4  C   UNL     1       1.538  -7.678  -4.178  1.00  0.00     0.338 C 
ATOM      5  O   UNL     1       0.543  -8.181  -4.679  1.00  0.00    -0.246 OA
BRANCH   4   6
ATOM      6  C   UNL     1       1.482  -6.832  -2.947  1.00  0.00     0.067 C 
ATOM      7  C   UNL     1       2.188  -5.677  -2.923  1.00  0.00     0.024 C 
BRANCH   7   8
ATOM      8  C   UNL     1       2.012  -4.554  -1.973  1.00  0.00    -0.025 A 
ATOM      9  C   UNL     1       1.231  -2.373  -0.384  1.00  0.00     0.067 A 
ATOM     10  C   UNL     1       1.365  -3.636   0.187  1.00  0.00     0.021 A 
ATOM     11  C   UNL     1       1.589  -2.165  -1.717  1.00  0.00     0.021 A 
ATOM     12  C   UNL     1       1.788  -4.709  -0.600  1.00  0.00     0.009 A 
ATOM     13  C   UNL     1       1.977  -3.256  -2.504  1.00  0.00     0.009 A 
BRANCH   9  14
ATOM     14  S   UNL     1       0.544  -1.074   0.610  1.00  0.00     0.175 S 
ATOM     15  C   UNL     1       1.230   0.439   0.008  1.00  0.00     0.163 C 
ATOM     16  O   UNL     1       1.060  -1.248   1.960  1.00  0.00    -0.224 OA
ATOM     17  O   UNL     1      -0.875  -1.046   0.341  1.00  0.00    -0.224 OA
ENDBRANCH   9  14
ENDBRANCH   7   8
BRANCH   6  18
ATOM     18  C   UNL     1       0.514  -7.204  -1.898  1.00  0.00    -0.011 A 
ATOM     19  C   UNL     1       0.956  -7.940  -0.786  1.00  0.00     0.009 A 
ATOM     20  C   UNL     1      -0.819  -6.781  -1.952  1.00  0.00     0.009 A 
ATOM     21  C   UNL     1       0.089  -8.207   0.276  1.00  0.00     0.001 A 
ATOM     22  C   UNL     1      -1.689  -7.067  -0.897  1.00  0.00     0.001 A 
ATOM     23  C   UNL     1      -1.233  -7.771   0.218  1.00  0.00     0.000 A 
ENDBRANCH   6  18
ENDBRANCH   4   6
ENDBRANCH   3   4
ENDBRANCH   2   3
ENDBRANCH   1   2
BRANCH   1  24
ATOM     24  O   UNL     1       2.447 -10.688  -4.484  1.00  0.00    -0.458 OA
BRANCH  24  25
ATOM     25  C   UNL     1       2.879 -11.007  -3.243  1.00  0.00     0.338 C 
ATOM     26  O   UNL     1       4.022 -10.896  -2.816  1.00  0.00    -0.246 OA
BRANCH  25  27
ATOM     27  C   UNL     1       1.771 -11.516  -2.412  1.00  0.00     0.060 A 
ATOM     28  C   UNL     1       0.568 -10.821  -2.342  1.00  0.00     0.016 A 
ATOM     29  C   UNL     1       1.994 -12.594  -1.555  1.00  0.00     0.016 A 
ATOM     30  C   UNL     1      -0.333 -11.103  -1.312  1.00  0.00     0.010 A 
ATOM     31  C   UNL     1       1.030 -12.943  -0.598  1.00  0.00     0.010 A 
ATOM     32  C   UNL     1      -0.116 -12.151  -0.404  1.00  0.00    -0.014 A 
BRANCH  32  33
ATOM     33  C   UNL     1      -1.008 -12.348   0.792  1.00  0.00     0.031 A 
ATOM     34  C   UNL     1      -0.407 -12.489   2.179  1.00  0.00     0.074 A 
ATOM     35  C   UNL     1      -2.354 -12.359   0.683  1.00  0.00     0.049 A 
ATOM     36  N   UNL     1      -0.963 -12.907   3.291  1.00  0.00    -0.248 NA
ATOM     37  C   UNL     1       1.013 -12.137   2.327  1.00  0.00     0.031 C 
ATOM     38  C   UNL     1      -3.111 -12.173  -0.556  1.00  0.00     0.029 A 
ATOM     39  N   UNL     1      -3.333 -12.517   1.639  1.00  0.00    -0.354 N 
ATOM     40  C   UNL     1       0.058 -12.963   4.239  1.00  0.00     0.074 A 
ATOM     41  C   UNL     1       1.266 -12.527   3.568  1.00  0.00     0.031 C 
ATOM     42  C   UNL     1      -4.422 -12.149  -0.276  1.00  0.00     0.029 A 
ATOM     43  C   UNL     1      -4.613 -12.453   1.137  1.00  0.00     0.049 A 
ATOM     44  H   UNL     1      -3.135 -12.661   2.592  1.00  0.00     0.167 HD
ATOM     45  C   UNL     1      -0.004 -13.347   5.540  1.00  0.00     0.034 A 
ATOM     46  C   UNL     1      -5.811 -12.671   1.718  1.00  0.00     0.034 A 
ATOM     47  C   UNL     1      -1.230 -13.681   6.229  1.00  0.00     0.049 A 
ATOM     48  C   UNL     1      -5.862 -13.092   3.162  1.00  0.00     0.074 A 
ATOM     49  C   UNL     1      -1.403 -14.062   7.550  1.00  0.00     0.029 A 
ATOM     50  N   UNL     1      -2.498 -13.643   5.664  1.00  0.00    -0.354 N 
ATOM     51  N   UNL     1      -4.873 -13.275   4.005  1.00  0.00    -0.248 NA
ATOM     52  C   UNL     1      -7.192 -13.363   3.724  1.00  0.00     0.031 C 
ATOM     53  C   UNL     1      -2.764 -14.302   7.769  1.00  0.00     0.029 A 
ATOM     54  C   UNL     1      -3.452 -14.004   6.606  1.00  0.00     0.049 A 
ATOM     55  H   UNL     1      -2.692 -13.396   4.731  1.00  0.00     0.167 HD
ATOM     56  C   UNL     1      -5.464 -13.682   5.198  1.00  0.00     0.074 A 
ATOM     57  C   UNL     1      -6.895 -13.685   4.974  1.00  0.00     0.031 C 
ATOM     58  C   UNL     1      -4.876 -14.029   6.370  1.00  0.00     0.034 A 
BRANCH  45  59
ATOM     59  C   UNL     1       1.300 -13.494   6.294  1.00  0.00     0.023 A 
ATOM     60  C   UNL     1       2.138 -12.405   6.584  1.00  0.00     0.031 A 
ATOM     61  C   UNL     1       1.714 -14.771   6.723  1.00  0.00     0.131 A 
ATOM     62  C   UNL     1       3.373 -12.621   7.219  1.00  0.00     0.055 A 
ATOM     63  C   UNL     1       2.904 -14.968   7.425  1.00  0.00     0.041 A 
ATOM     64  F   UNL     1       0.966 -15.855   6.460  1.00  0.00    -0.206 F 
ATOM     65  C   UNL     1       3.750 -13.891   7.663  1.00  0.00     0.022 A 
BRANCH  62  66
ATOM     66  S   UNL     1       4.547 -11.242   7.330  1.00  0.00     0.124 S 
ATOM     67  O   UNL     1       4.708 -10.877   5.925  1.00  0.00    -0.237 OA
ATOM     68  O   UNL     1       3.828 -10.284   8.161  1.00  0.00    -0.237 OA
ATOM     69  O   UNL     1       5.727 -11.844   7.949  1.00  0.00    -0.744 OA
ENDBRANCH  62  66
ENDBRANCH  45  59
BRANCH  46  70
ATOM     70  C   UNL     1      -7.063 -12.584   0.911  1.00  0.00     0.023 A 
ATOM     71  C   UNL     1      -8.049 -11.627   1.197  1.00  0.00     0.031 A 
ATOM     72  C   UNL     1      -7.304 -13.484  -0.144  1.00  0.00     0.131 A 
ATOM     73  C   UNL     1      -9.241 -11.610   0.455  1.00  0.00     0.055 A 
ATOM     74  C   UNL     1      -8.463 -13.423  -0.917  1.00  0.00     0.041 A 
ATOM     75  F   UNL     1      -6.398 -14.425  -0.454  1.00  0.00    -0.206 F 
ATOM     76  C   UNL     1      -9.445 -12.488  -0.612  1.00  0.00     0.022 A 
BRANCH  73  77
ATOM     77  S   UNL     1     -10.561 -10.469   0.952  1.00  0.00     0.124 S 
ATOM     78  O   UNL     1     -10.833 -10.905   2.317  1.00  0.00    -0.237 OA
ATOM     79  O   UNL     1      -9.910  -9.171   0.811  1.00  0.00    -0.237 OA
ATOM     80  O   UNL     1     -11.624 -10.737  -0.013  1.00  0.00    -0.744 OA
ENDBRANCH  73  77
ENDBRANCH  46  70
BRANCH  58  81
ATOM     81  C   UNL     1      -5.794 -14.408   7.505  1.00  0.00     0.023 A 
ATOM     82  C   UNL     1      -6.569 -15.581   7.467  1.00  0.00     0.031 A 
ATOM     83  C   UNL     1      -5.928 -13.562   8.620  1.00  0.00     0.131 A 
ATOM     84  C   UNL     1      -7.489 -15.845   8.493  1.00  0.00     0.055 A 
ATOM     85  C   UNL     1      -6.805 -13.858   9.665  1.00  0.00     0.041 A 
ATOM     86  F   UNL     1      -5.215 -12.428   8.707  1.00  0.00    -0.206 F 
ATOM     87  C   UNL     1      -7.603 -14.997   9.598  1.00  0.00     0.022 A 
BRANCH  84  88
ATOM     88  S   UNL     1      -8.612 -17.259   8.316  1.00  0.00     0.124 S 
ATOM     89  O   UNL     1      -9.273 -16.967   7.048  1.00  0.00    -0.237 OA
ATOM     90  O   UNL     1      -7.690 -18.391   8.308  1.00  0.00    -0.237 OA
ATOM     91  O   UNL     1      -9.469 -17.168   9.496  1.00  0.00    -0.744 OA
ENDBRANCH  84  88
ENDBRANCH  58  81
ENDBRANCH  32  33
ENDBRANCH  25  27
ENDBRANCH  24  25
ENDBRANCH   1  24
TORSDOF 17
