REMARK SMILES CC(C)([NH2+]C[C@@H]1CCCO1)C(=O)OCCOC(=O)c1ccc(-c2c3nc(c(-c4cc(S(=O)(=O)[O-])ccc4F)c4ccc([nH]4)c(-c4cc(S(=O)(=O)[O-])ccc4F)c4nc(c(-c5cc(S(=O)(=O)[O-])ccc5F)c5ccc2[nH]5)C=C4)C=C3)cc1
REMARK SMILES IDX 14 1 13 2 11 3 12 4 2 5 1 6 3 7 4 8 5 11 6 12 7 13 10 14
REMARK SMILES IDX 8 15 9 16 15 17 16 18 17 19 18 20 19 21 20 22 81 23 21 24
REMARK SMILES IDX 80 25 22 26 23 27 24 28 74 29 25 30 79 31 73 32 75 33 26 34
REMARK SMILES IDX 78 35 72 36 71 37 27 39 59 40 39 41 58 42 40 43 43 44 57 45
REMARK SMILES IDX 76 46 41 47 42 48 56 50 77 51 44 52 28 53 29 54 37 55 30 56
REMARK SMILES IDX 36 57 38 58 35 59 31 60 32 61 33 62 34 63 60 64 61 65 69 66
REMARK SMILES IDX 62 67 68 68 70 69 67 70 63 71 64 72 65 73 66 74 45 75 46 76
REMARK SMILES IDX 54 77 47 78 53 79 55 80 52 81 48 82 49 83 50 84 51 85
REMARK H PARENT 4 9 4 10 75 38 43 49
REMARK Flexibility Score: inf
ROOT
ATOM      1  C   UNL     1       1.311  -3.527  -2.373  1.00  0.00     0.274 C 
ENDROOT
BRANCH   1   2
ATOM      2  O   UNL     1       0.594  -2.709  -1.424  1.00  0.00    -0.457 OA
BRANCH   2   3
ATOM      3  C   UNL     1       1.293  -2.233  -0.356  1.00  0.00     0.367 C 
ATOM      4  O   UNL     1       2.507  -2.367  -0.234  1.00  0.00    -0.245 OA
BRANCH   3   5
ATOM      5  C   UNL     1       0.407  -1.486   0.682  1.00  0.00     0.188 C 
ATOM      6  C   UNL     1       0.353  -0.011   0.242  1.00  0.00     0.092 C 
ATOM      7  C   UNL     1       1.043  -1.519   2.089  1.00  0.00     0.092 C 
BRANCH   5   8
ATOM      8  N   UNL     1      -1.010  -1.912   0.736  1.00  0.00    -0.330 N 
ATOM      9  H   UNL     1      -1.481  -1.437  -0.035  1.00  0.00     0.347 HD
ATOM     10  H   UNL     1      -1.271  -1.676   1.693  1.00  0.00     0.347 HD
BRANCH   8  11
ATOM     11  C   UNL     1      -1.395  -3.318   0.647  1.00  0.00     0.293 C 
BRANCH  11  12
ATOM     12  C   UNL     1      -0.876  -4.336   1.674  1.00  0.00     0.173 C 
ATOM     13  C   UNL     1       0.550  -4.825   1.460  1.00  0.00     0.040 C 
ATOM     14  O   UNL     1      -1.706  -5.523   1.607  1.00  0.00    -0.372 OA
ATOM     15  C   UNL     1       0.502  -6.208   2.057  1.00  0.00     0.031 C 
ATOM     16  C   UNL     1      -0.859  -6.678   1.606  1.00  0.00     0.161 C 
ENDBRANCH  11  12
ENDBRANCH   8  11
ENDBRANCH   5   8
ENDBRANCH   3   5
ENDBRANCH   2   3
ENDBRANCH   1   2
BRANCH   1  17
ATOM     17  C   UNL     1       1.005  -3.044  -3.784  1.00  0.00     0.275 C 
BRANCH  17  18
ATOM     18  O   UNL     1       1.560  -1.727  -3.905  1.00  0.00    -0.458 OA
BRANCH  18  19
ATOM     19  C   UNL     1       0.693  -0.743  -4.226  1.00  0.00     0.338 C 
ATOM     20  O   UNL     1      -0.441  -0.865  -4.665  1.00  0.00    -0.246 OA
BRANCH  19  21
ATOM     21  C   UNL     1       1.333   0.548  -3.928  1.00  0.00     0.060 A 
ATOM     22  C   UNL     1       1.942   0.747  -2.688  1.00  0.00     0.016 A 
ATOM     23  C   UNL     1       1.253   1.593  -4.844  1.00  0.00     0.016 A 
ATOM     24  C   UNL     1       2.383   2.015  -2.320  1.00  0.00     0.010 A 
ATOM     25  C   UNL     1       1.803   2.836  -4.515  1.00  0.00     0.010 A 
ATOM     26  C   UNL     1       2.343   3.074  -3.236  1.00  0.00    -0.014 A 
BRANCH  26  27
ATOM     27  C   UNL     1       2.810   4.439  -2.855  1.00  0.00     0.031 A 
ATOM     28  C   UNL     1       1.876   5.614  -3.001  1.00  0.00     0.074 A 
ATOM     29  C   UNL     1       4.059   4.641  -2.387  1.00  0.00     0.049 A 
ATOM     30  N   UNL     1       2.142   6.894  -2.994  1.00  0.00    -0.248 NA
ATOM     31  C   UNL     1       0.455   5.297  -3.208  1.00  0.00     0.031 C 
ATOM     32  C   UNL     1       5.052   3.595  -2.130  1.00  0.00     0.029 A 
ATOM     33  N   UNL     1       4.710   5.801  -2.042  1.00  0.00    -0.354 N 
ATOM     34  C   UNL     1       0.937   7.535  -3.270  1.00  0.00     0.074 A 
ATOM     35  C   UNL     1      -0.059   6.496  -3.440  1.00  0.00     0.031 C 
ATOM     36  C   UNL     1       6.166   4.154  -1.634  1.00  0.00     0.029 A 
ATOM     37  C   UNL     1       6.013   5.604  -1.642  1.00  0.00     0.049 A 
ATOM     38  H   UNL     1       4.286   6.688  -2.078  1.00  0.00     0.167 HD
ATOM     39  C   UNL     1       0.691   8.864  -3.379  1.00  0.00     0.034 A 
ATOM     40  C   UNL     1       6.995   6.486  -1.372  1.00  0.00     0.034 A 
ATOM     41  C   UNL     1       1.687   9.884  -3.148  1.00  0.00     0.049 A 
ATOM     42  C   UNL     1       6.712   7.956  -1.532  1.00  0.00     0.074 A 
ATOM     43  C   UNL     1       1.552  11.260  -3.226  1.00  0.00     0.029 A 
ATOM     44  N   UNL     1       3.003   9.637  -2.776  1.00  0.00    -0.354 N 
ATOM     45  N   UNL     1       5.598   8.547  -1.897  1.00  0.00    -0.248 NA
ATOM     46  C   UNL     1       7.826   8.875  -1.265  1.00  0.00     0.031 C 
ATOM     47  C   UNL     1       2.795  11.841  -2.948  1.00  0.00     0.029 A 
ATOM     48  C   UNL     1       3.692  10.832  -2.635  1.00  0.00     0.049 A 
ATOM     49  H   UNL     1       3.390   8.744  -2.632  1.00  0.00     0.167 HD
ATOM     50  C   UNL     1       5.878   9.910  -1.899  1.00  0.00     0.074 A 
ATOM     51  C   UNL     1       7.255  10.053  -1.474  1.00  0.00     0.031 C 
ATOM     52  C   UNL     1       5.072  10.951  -2.228  1.00  0.00     0.034 A 
BRANCH  39  53
ATOM     53  C   UNL     1      -0.688   9.282  -3.832  1.00  0.00     0.023 A 
ATOM     54  C   UNL     1      -1.837   9.047  -3.058  1.00  0.00     0.031 A 
ATOM     55  C   UNL     1      -0.856   9.895  -5.088  1.00  0.00     0.131 A 
ATOM     56  C   UNL     1      -3.105   9.356  -3.576  1.00  0.00     0.055 A 
ATOM     57  C   UNL     1      -2.113  10.270  -5.565  1.00  0.00     0.041 A 
ATOM     58  F   UNL     1       0.202  10.126  -5.882  1.00  0.00    -0.206 F 
ATOM     59  C   UNL     1      -3.250   9.987  -4.814  1.00  0.00     0.022 A 
BRANCH  56  60
ATOM     60  S   UNL     1      -4.574   8.794  -2.671  1.00  0.00     0.124 S 
ATOM     61  O   UNL     1      -4.365   7.349  -2.638  1.00  0.00    -0.237 OA
ATOM     62  O   UNL     1      -4.442   9.488  -1.395  1.00  0.00    -0.237 OA
ATOM     63  O   UNL     1      -5.685   9.238  -3.510  1.00  0.00    -0.744 OA
ENDBRANCH  56  60
ENDBRANCH  39  53
BRANCH  40  64
ATOM     64  C   UNL     1       8.361   6.007  -1.010  1.00  0.00     0.023 A 
ATOM     65  C   UNL     1       8.915   6.280   0.249  1.00  0.00     0.031 A 
ATOM     66  C   UNL     1       9.144   5.290  -1.934  1.00  0.00     0.131 A 
ATOM     67  C   UNL     1      10.225   5.866   0.541  1.00  0.00     0.055 A 
ATOM     68  C   UNL     1      10.425   4.834  -1.621  1.00  0.00     0.041 A 
ATOM     69  F   UNL     1       8.663   5.005  -3.155  1.00  0.00    -0.206 F 
ATOM     70  C   UNL     1      10.976   5.131  -0.379  1.00  0.00     0.022 A 
BRANCH  67  71
ATOM     71  S   UNL     1      10.965   6.366   2.120  1.00  0.00     0.124 S 
ATOM     72  O   UNL     1      10.884   7.820   2.040  1.00  0.00    -0.237 OA
ATOM     73  O   UNL     1      10.077   5.726   3.086  1.00  0.00    -0.237 OA
ATOM     74  O   UNL     1      12.315   5.810   2.055  1.00  0.00    -0.744 OA
ENDBRANCH  67  71
ENDBRANCH  40  64
BRANCH  52  75
ATOM     75  C   UNL     1       5.666  12.330  -2.102  1.00  0.00     0.023 A 
ATOM     76  C   UNL     1       6.671  12.780  -2.977  1.00  0.00     0.031 A 
ATOM     77  C   UNL     1       5.242  13.190  -1.075  1.00  0.00     0.131 A 
ATOM     78  C   UNL     1       7.258  14.037  -2.774  1.00  0.00     0.055 A 
ATOM     79  C   UNL     1       5.795  14.461  -0.910  1.00  0.00     0.041 A 
ATOM     80  F   UNL     1       4.288  12.806  -0.213  1.00  0.00    -0.206 F 
ATOM     81  C   UNL     1       6.817  14.886  -1.754  1.00  0.00     0.022 A 
BRANCH  78  82
ATOM     82  S   UNL     1       8.668  14.517  -3.809  1.00  0.00     0.124 S 
ATOM     83  O   UNL     1       9.633  13.462  -3.517  1.00  0.00    -0.237 OA
ATOM     84  O   UNL     1       8.092  14.501  -5.150  1.00  0.00    -0.237 OA
ATOM     85  O   UNL     1       9.027  15.842  -3.307  1.00  0.00    -0.744 OA
ENDBRANCH  78  82
ENDBRANCH  52  75
ENDBRANCH  26  27
ENDBRANCH  19  21
ENDBRANCH  18  19
ENDBRANCH  17  18
ENDBRANCH   1  17
TORSDOF 17
