REMARK SMILES C#CCN(CC(=O)OCCOC(=O)c1ccc(-c2c3nc(c(-c4cc(S(=O)(=O)[O-])ccc4F)c4ccc([nH]4)c(-c4cc(S(=O)(=O)[O-])ccc4F)c4nc(c(-c5cc(S(=O)(=O)[O-])ccc5F)c5ccc2[nH]5)C=C4)C=C3)cc1)C(=O)[C@H]1C[NH2+]C[C@H]1C
REMARK SMILES IDX 9 1 8 2 6 3 7 4 5 5 4 6 3 7 2 8 1 9 77 10 78 11 79 12 80 13
REMARK SMILES IDX 83 14 81 15 82 16 84 17 10 20 11 21 12 22 13 23 14 24 15 25
REMARK SMILES IDX 76 26 16 27 75 28 17 29 18 30 19 31 69 32 20 33 74 34 68 35
REMARK SMILES IDX 70 36 21 37 73 38 67 39 66 40 22 42 54 43 34 44 53 45 35 46
REMARK SMILES IDX 38 47 52 48 71 49 36 50 37 51 51 53 72 54 39 55 23 56 24 57
REMARK SMILES IDX 32 58 25 59 31 60 33 61 30 62 26 63 27 64 28 65 29 66 55 67
REMARK SMILES IDX 56 68 64 69 57 70 63 71 65 72 62 73 58 74 59 75 60 76 61 77
REMARK SMILES IDX 40 78 41 79 49 80 42 81 48 82 50 83 47 84 43 85 44 86 45 87
REMARK SMILES IDX 46 88
REMARK H PARENT 81 18 81 19 70 41 38 52
REMARK Flexibility Score: inf
ROOT
ATOM      1  C   UNL     1      -6.407   1.727   0.196  1.00  0.00     0.274 C 
ENDROOT
BRANCH   1   2
ATOM      2  O   UNL     1      -4.969   1.626   0.219  1.00  0.00    -0.461 OA
BRANCH   2   3
ATOM      3  C   UNL     1      -4.358   1.889  -0.969  1.00  0.00     0.325 C 
ATOM      4  O   UNL     1      -4.951   2.127  -2.017  1.00  0.00    -0.250 OA
BRANCH   3   5
ATOM      5  C   UNL     1      -2.848   2.068  -0.844  1.00  0.00     0.243 C 
BRANCH   5   6
ATOM      6  N   UNL     1      -2.169   1.366   0.238  1.00  0.00    -0.320 N 
BRANCH   6   7
ATOM      7  C   UNL     1      -1.736   0.008  -0.046  1.00  0.00     0.210 C 
BRANCH   7   8
ATOM      8  C   UNL     1      -0.215   0.008  -0.046  1.00  0.00    -0.085 C 
ATOM      9  C   UNL     1       1.088   0.008  -0.046  1.00  0.00     0.006 C 
ENDBRANCH   7   8
ENDBRANCH   6   7
BRANCH   6  10
ATOM     10  C   UNL     1      -1.851   1.864   1.493  1.00  0.00     0.233 C 
ATOM     11  O   UNL     1      -1.550   1.090   2.409  1.00  0.00    -0.274 OA
BRANCH  10  12
ATOM     12  C   UNL     1      -1.907   3.364   1.753  1.00  0.00     0.142 C 
ATOM     13  C   UNL     1      -1.314   3.677   3.126  1.00  0.00     0.274 C 
ATOM     14  C   UNL     1      -1.122   4.340   0.864  1.00  0.00     0.059 C 
ATOM     15  N   UNL     1      -1.222   5.138   3.151  1.00  0.00    -0.345 N 
ATOM     16  C   UNL     1      -0.838   5.530   1.792  1.00  0.00     0.264 C 
ATOM     17  C   UNL     1       0.168   3.796   0.254  1.00  0.00     0.015 C 
ATOM     18  H   UNL     1      -0.515   5.438   3.822  1.00  0.00     0.346 HD
ATOM     19  H   UNL     1      -2.103   5.567   3.435  1.00  0.00     0.346 HD
ENDBRANCH  10  12
ENDBRANCH   6  10
ENDBRANCH   5   6
ENDBRANCH   3   5
ENDBRANCH   2   3
ENDBRANCH   1   2
BRANCH   1  20
ATOM     20  C   UNL     1      -6.875   3.106   0.664  1.00  0.00     0.275 C 
BRANCH  20  21
ATOM     21  O   UNL     1      -6.230   4.152  -0.089  1.00  0.00    -0.458 OA
BRANCH  21  22
ATOM     22  C   UNL     1      -5.419   4.953   0.641  1.00  0.00     0.338 C 
ATOM     23  O   UNL     1      -5.209   4.880   1.841  1.00  0.00    -0.246 OA
BRANCH  22  24
ATOM     24  C   UNL     1      -4.780   5.993  -0.185  1.00  0.00     0.060 A 
ATOM     25  C   UNL     1      -4.032   5.677  -1.322  1.00  0.00     0.016 A 
ATOM     26  C   UNL     1      -4.792   7.300   0.308  1.00  0.00     0.016 A 
ATOM     27  C   UNL     1      -3.210   6.650  -1.899  1.00  0.00     0.010 A 
ATOM     28  C   UNL     1      -4.033   8.287  -0.319  1.00  0.00     0.010 A 
ATOM     29  C   UNL     1      -3.202   7.964  -1.402  1.00  0.00    -0.014 A 
BRANCH  29  30
ATOM     30  C   UNL     1      -2.371   9.029  -2.020  1.00  0.00     0.031 A 
ATOM     31  C   UNL     1      -1.244   9.675  -1.257  1.00  0.00     0.074 A 
ATOM     32  C   UNL     1      -2.680   9.462  -3.255  1.00  0.00     0.049 A 
ATOM     33  N   UNL     1      -0.508  10.709  -1.576  1.00  0.00    -0.248 NA
ATOM     34  C   UNL     1      -0.891   9.069   0.032  1.00  0.00     0.031 C 
ATOM     35  C   UNL     1      -3.729   8.901  -4.108  1.00  0.00     0.029 A 
ATOM     36  N   UNL     1      -2.167  10.499  -3.991  1.00  0.00    -0.354 N 
ATOM     37  C   UNL     1       0.407  10.863  -0.538  1.00  0.00     0.074 A 
ATOM     38  C   UNL     1       0.118   9.830   0.433  1.00  0.00     0.031 C 
ATOM     39  C   UNL     1      -3.804   9.619  -5.238  1.00  0.00     0.029 A 
ATOM     40  C   UNL     1      -2.859  10.728  -5.156  1.00  0.00     0.049 A 
ATOM     41  H   UNL     1      -1.384  11.027  -3.713  1.00  0.00     0.167 HD
ATOM     42  C   UNL     1       1.391  11.785  -0.404  1.00  0.00     0.034 A 
ATOM     43  C   UNL     1      -2.794  11.752  -6.027  1.00  0.00     0.034 A 
ATOM     44  C   UNL     1       1.623  12.854  -1.343  1.00  0.00     0.049 A 
ATOM     45  C   UNL     1      -1.809  12.857  -5.782  1.00  0.00     0.074 A 
ATOM     46  C   UNL     1       2.585  13.849  -1.306  1.00  0.00     0.029 A 
ATOM     47  N   UNL     1       0.857  13.086  -2.478  1.00  0.00    -0.354 N 
ATOM     48  N   UNL     1      -0.952  12.993  -4.797  1.00  0.00    -0.248 NA
ATOM     49  C   UNL     1      -1.788  13.950  -6.761  1.00  0.00     0.031 C 
ATOM     50  C   UNL     1       2.359  14.718  -2.381  1.00  0.00     0.029 A 
ATOM     51  C   UNL     1       1.294  14.232  -3.123  1.00  0.00     0.049 A 
ATOM     52  H   UNL     1       0.112  12.518  -2.780  1.00  0.00     0.167 HD
ATOM     53  C   UNL     1      -0.278  14.183  -5.045  1.00  0.00     0.074 A 
ATOM     54  C   UNL     1      -0.826  14.722  -6.275  1.00  0.00     0.031 C 
ATOM     55  C   UNL     1       0.713  14.771  -4.328  1.00  0.00     0.034 A 
BRANCH  42  56
ATOM     56  C   UNL     1       2.247  11.712   0.835  1.00  0.00     0.023 A 
ATOM     57  C   UNL     1       3.194  10.688   1.017  1.00  0.00     0.031 A 
ATOM     58  C   UNL     1       2.114  12.679   1.846  1.00  0.00     0.131 A 
ATOM     59  C   UNL     1       3.951  10.639   2.198  1.00  0.00     0.055 A 
ATOM     60  C   UNL     1       2.899  12.648   3.001  1.00  0.00     0.041 A 
ATOM     61  F   UNL     1       1.212  13.666   1.730  1.00  0.00    -0.206 F 
ATOM     62  C   UNL     1       3.819  11.619   3.185  1.00  0.00     0.022 A 
BRANCH  59  63
ATOM     63  S   UNL     1       5.059   9.226   2.470  1.00  0.00     0.124 S 
ATOM     64  O   UNL     1       4.142   8.097   2.344  1.00  0.00    -0.237 OA
ATOM     65  O   UNL     1       6.032   9.382   1.395  1.00  0.00    -0.237 OA
ATOM     66  O   UNL     1       5.578   9.453   3.817  1.00  0.00    -0.744 OA
ENDBRANCH  59  63
ENDBRANCH  42  56
BRANCH  43  67
ATOM     67  C   UNL     1      -3.762  11.810  -7.152  1.00  0.00     0.023 A 
ATOM     68  C   UNL     1      -3.351  11.614  -8.477  1.00  0.00     0.031 A 
ATOM     69  C   UNL     1      -5.129  12.034  -6.903  1.00  0.00     0.131 A 
ATOM     70  C   UNL     1      -4.301  11.653  -9.509  1.00  0.00     0.055 A 
ATOM     71  C   UNL     1      -6.074  12.037  -7.928  1.00  0.00     0.041 A 
ATOM     72  F   UNL     1      -5.568  12.217  -5.647  1.00  0.00    -0.206 F 
ATOM     73  C   UNL     1      -5.660  11.850  -9.242  1.00  0.00     0.022 A 
BRANCH  70  74
ATOM     74  S   UNL     1      -3.732  11.469 -11.220  1.00  0.00     0.124 S 
ATOM     75  O   UNL     1      -2.807  12.589 -11.351  1.00  0.00    -0.237 OA
ATOM     76  O   UNL     1      -3.131  10.139 -11.197  1.00  0.00    -0.237 OA
ATOM     77  O   UNL     1      -4.961  11.579 -12.002  1.00  0.00    -0.744 OA
ENDBRANCH  70  74
ENDBRANCH  43  67
BRANCH  55  78
ATOM     78  C   UNL     1       1.274  16.051  -4.884  1.00  0.00     0.023 A 
ATOM     79  C   UNL     1       0.541  17.249  -4.846  1.00  0.00     0.031 A 
ATOM     80  C   UNL     1       2.542  16.061  -5.490  1.00  0.00     0.131 A 
ATOM     81  C   UNL     1       1.063  18.402  -5.449  1.00  0.00     0.055 A 
ATOM     82  C   UNL     1       3.075  17.222  -6.049  1.00  0.00     0.041 A 
ATOM     83  F   UNL     1       3.276  14.939  -5.553  1.00  0.00    -0.206 F 
ATOM     84  C   UNL     1       2.330  18.398  -6.040  1.00  0.00     0.022 A 
BRANCH  81  85
ATOM     85  S   UNL     1       0.032  19.892  -5.519  1.00  0.00     0.124 S 
ATOM     86  O   UNL     1      -1.117  19.430  -6.291  1.00  0.00    -0.237 OA
ATOM     87  O   UNL     1      -0.218  20.166  -4.107  1.00  0.00    -0.237 OA
ATOM     88  O   UNL     1       0.883  20.867  -6.197  1.00  0.00    -0.744 OA
ENDBRANCH  81  85
ENDBRANCH  55  78
ENDBRANCH  29  30
ENDBRANCH  22  24
ENDBRANCH  21  22
ENDBRANCH  20  21
ENDBRANCH   1  20
TORSDOF 19
