REMARK SMILES NC(=O)c1c(F)cccc1O[C@@H](F)C(=O)OCCOC(=O)c1ccc(-c2c3nc(c(-c4cc(S(=O)(=O)[O-])ccc4F)c4ccc([nH]4)c(-c4cc(S(=O)(=O)[O-])ccc4F)c4nc(c(-c5cc(S(=O)(=O)[O-])ccc5F)c5ccc2[nH]5)C=C4)C=C3)cc1
REMARK SMILES IDX 17 1 16 2 14 3 15 4 12 5 13 6 11 7 10 8 4 9 5 10 6 11 7 12
REMARK SMILES IDX 9 13 8 14 2 15 1 16 3 19 18 20 19 21 20 22 21 23 22 24 23 25
REMARK SMILES IDX 84 26 24 27 83 28 25 29 26 30 27 31 77 32 28 33 82 34 76 35
REMARK SMILES IDX 78 36 29 37 81 38 75 39 74 40 30 42 62 43 42 44 61 45 43 46
REMARK SMILES IDX 46 47 60 48 79 49 44 50 45 51 59 53 80 54 47 55 31 56 32 57
REMARK SMILES IDX 40 58 33 59 39 60 41 61 38 62 34 63 35 64 36 65 37 66 63 67
REMARK SMILES IDX 64 68 72 69 65 70 71 71 73 72 70 73 66 74 67 75 68 76 69 77
REMARK SMILES IDX 48 78 49 79 57 80 50 81 56 82 58 83 55 84 51 85 52 86 53 87
REMARK SMILES IDX 54 88
REMARK H PARENT 1 17 1 18 78 41 46 52
REMARK Flexibility Score: inf
ROOT
ATOM      1  C   UNL     1       1.515  -0.742   2.141  1.00  0.00     0.274 C 
ENDROOT
BRANCH   1   2
ATOM      2  O   UNL     1       0.863   0.532   1.956  1.00  0.00    -0.457 OA
BRANCH   2   3
ATOM      3  C   UNL     1      -0.494   0.506   1.792  1.00  0.00     0.381 C 
ATOM      4  O   UNL     1      -1.143  -0.535   1.742  1.00  0.00    -0.244 OA
BRANCH   3   5
ATOM      5  C   UNL     1      -1.139   1.933   1.814  1.00  0.00     0.461 C 
ATOM      6  F   UNL     1      -2.415   1.844   1.310  1.00  0.00    -0.189 F 
BRANCH   5   7
ATOM      7  O   UNL     1      -0.668   3.176   1.340  1.00  0.00    -0.450 OA
BRANCH   7   8
ATOM      8  C   UNL     1       0.620   3.304   0.932  1.00  0.00     0.139 A 
ATOM      9  C   UNL     1       1.180   2.658  -0.176  1.00  0.00     0.117 A 
ATOM     10  C   UNL     1       2.478   2.991  -0.570  1.00  0.00     0.139 A 
ATOM     11  F   UNL     1       3.050   2.393  -1.627  1.00  0.00    -0.206 F 
ATOM     12  C   UNL     1       3.210   3.969   0.101  1.00  0.00     0.040 A 
ATOM     13  C   UNL     1       1.356   4.290   1.605  1.00  0.00     0.047 A 
ATOM     14  C   UNL     1       2.647   4.622   1.194  1.00  0.00     0.007 A 
BRANCH   9  15
ATOM     15  C   UNL     1       0.415   1.671  -0.961  1.00  0.00     0.255 C 
ATOM     16  N   UNL     1       1.062   0.518  -1.303  1.00  0.00    -0.365 N 
ATOM     17  H   UNL     1       0.594  -0.172  -1.827  1.00  0.00     0.159 HD
ATOM     18  H   UNL     1       1.996   0.377  -1.026  1.00  0.00     0.159 HD
ATOM     19  O   UNL     1      -0.765   1.833  -1.233  1.00  0.00    -0.269 OA
ENDBRANCH   9  15
ENDBRANCH   7   8
ENDBRANCH   5   7
ENDBRANCH   3   5
ENDBRANCH   2   3
ENDBRANCH   1   2
BRANCH   1  20
ATOM     20  C   UNL     1       2.110  -0.852   3.548  1.00  0.00     0.275 C 
BRANCH  20  21
ATOM     21  O   UNL     1       1.086  -1.004   4.548  1.00  0.00    -0.458 OA
BRANCH  21  22
ATOM     22  C   UNL     1       0.521   0.155   4.961  1.00  0.00     0.338 C 
ATOM     23  O   UNL     1       0.817   1.285   4.607  1.00  0.00    -0.246 OA
BRANCH  22  24
ATOM     24  C   UNL     1      -0.649  -0.135   5.799  1.00  0.00     0.060 A 
ATOM     25  C   UNL     1      -1.882   0.370   5.380  1.00  0.00     0.016 A 
ATOM     26  C   UNL     1      -0.531  -0.814   7.013  1.00  0.00     0.016 A 
ATOM     27  C   UNL     1      -3.000   0.238   6.190  1.00  0.00     0.010 A 
ATOM     28  C   UNL     1      -1.664  -0.965   7.819  1.00  0.00     0.010 A 
ATOM     29  C   UNL     1      -2.898  -0.425   7.418  1.00  0.00    -0.014 A 
BRANCH  29  30
ATOM     30  C   UNL     1      -4.083  -0.488   8.303  1.00  0.00     0.031 A 
ATOM     31  C   UNL     1      -4.122   0.358   9.542  1.00  0.00     0.074 A 
ATOM     32  C   UNL     1      -5.139  -1.246   7.951  1.00  0.00     0.049 A 
ATOM     33  N   UNL     1      -4.999   0.363  10.509  1.00  0.00    -0.248 NA
ATOM     34  C   UNL     1      -3.029   1.330   9.714  1.00  0.00     0.031 C 
ATOM     35  C   UNL     1      -5.245  -2.023   6.713  1.00  0.00     0.029 A 
ATOM     36  N   UNL     1      -6.332  -1.471   8.586  1.00  0.00    -0.354 N 
ATOM     37  C   UNL     1      -4.561   1.324  11.412  1.00  0.00     0.074 A 
ATOM     38  C   UNL     1      -3.330   1.872  10.887  1.00  0.00     0.031 C 
ATOM     39  C   UNL     1      -6.448  -2.616   6.670  1.00  0.00     0.029 A 
ATOM     40  C   UNL     1      -7.169  -2.323   7.904  1.00  0.00     0.049 A 
ATOM     41  H   UNL     1      -6.567  -1.061   9.450  1.00  0.00     0.167 HD
ATOM     42  C   UNL     1      -5.143   1.711  12.572  1.00  0.00     0.034 A 
ATOM     43  C   UNL     1      -8.366  -2.833   8.254  1.00  0.00     0.034 A 
ATOM     44  C   UNL     1      -6.378   1.161  13.067  1.00  0.00     0.049 A 
ATOM     45  C   UNL     1      -8.937  -2.464   9.598  1.00  0.00     0.074 A 
ATOM     46  C   UNL     1      -7.029   1.435  14.257  1.00  0.00     0.029 A 
ATOM     47  N   UNL     1      -7.158   0.236  12.388  1.00  0.00    -0.354 N 
ATOM     48  N   UNL     1      -8.450  -1.646  10.503  1.00  0.00    -0.248 NA
ATOM     49  C   UNL     1     -10.205  -3.100   9.979  1.00  0.00     0.031 C 
ATOM     50  C   UNL     1      -8.182   0.646  14.314  1.00  0.00     0.029 A 
ATOM     51  C   UNL     1      -8.279  -0.078  13.136  1.00  0.00     0.049 A 
ATOM     52  H   UNL     1      -6.945  -0.142  11.504  1.00  0.00     0.167 HD
ATOM     53  C   UNL     1      -9.363  -1.655  11.551  1.00  0.00     0.074 A 
ATOM     54  C   UNL     1     -10.432  -2.554  11.166  1.00  0.00     0.031 C 
ATOM     55  C   UNL     1      -9.325  -0.980  12.726  1.00  0.00     0.034 A 
BRANCH  42  56
ATOM     56  C   UNL     1      -4.430   2.741  13.404  1.00  0.00     0.023 A 
ATOM     57  C   UNL     1      -4.381   4.092  13.022  1.00  0.00     0.031 A 
ATOM     58  C   UNL     1      -3.816   2.368  14.613  1.00  0.00     0.131 A 
ATOM     59  C   UNL     1      -3.706   5.019  13.831  1.00  0.00     0.055 A 
ATOM     60  C   UNL     1      -3.193   3.303  15.439  1.00  0.00     0.041 A 
ATOM     61  F   UNL     1      -3.817   1.085  15.010  1.00  0.00    -0.206 F 
ATOM     62  C   UNL     1      -3.134   4.638  15.048  1.00  0.00     0.022 A 
BRANCH  59  63
ATOM     63  S   UNL     1      -3.541   6.730  13.254  1.00  0.00     0.124 S 
ATOM     64  O   UNL     1      -2.616   6.573  12.134  1.00  0.00    -0.237 OA
ATOM     65  O   UNL     1      -4.912   7.085  12.905  1.00  0.00    -0.237 OA
ATOM     66  O   UNL     1      -2.994   7.431  14.414  1.00  0.00    -0.744 OA
ENDBRANCH  59  63
ENDBRANCH  42  56
BRANCH  43  67
ATOM     67  C   UNL     1      -9.076  -3.785   7.356  1.00  0.00     0.023 A 
ATOM     68  C   UNL     1     -10.315  -3.454   6.787  1.00  0.00     0.031 A 
ATOM     69  C   UNL     1      -8.540  -5.056   7.079  1.00  0.00     0.131 A 
ATOM     70  C   UNL     1     -10.993  -4.394   5.995  1.00  0.00     0.055 A 
ATOM     71  C   UNL     1      -9.196  -5.970   6.252  1.00  0.00     0.041 A 
ATOM     72  F   UNL     1      -7.359  -5.424   7.602  1.00  0.00    -0.206 F 
ATOM     73  C   UNL     1     -10.435  -5.644   5.712  1.00  0.00     0.022 A 
BRANCH  70  74
ATOM     74  S   UNL     1     -12.652  -3.985   5.387  1.00  0.00     0.124 S 
ATOM     75  O   UNL     1     -13.386  -3.799   6.633  1.00  0.00    -0.237 OA
ATOM     76  O   UNL     1     -12.401  -2.780   4.603  1.00  0.00    -0.237 OA
ATOM     77  O   UNL     1     -13.030  -5.163   4.610  1.00  0.00    -0.744 OA
ENDBRANCH  70  74
ENDBRANCH  43  67
BRANCH  55  78
ATOM     78  C   UNL     1     -10.491  -1.160  13.657  1.00  0.00     0.023 A 
ATOM     79  C   UNL     1     -10.659  -2.340  14.398  1.00  0.00     0.031 A 
ATOM     80  C   UNL     1     -11.419  -0.119  13.830  1.00  0.00     0.131 A 
ATOM     81  C   UNL     1     -11.754  -2.464  15.264  1.00  0.00     0.055 A 
ATOM     82  C   UNL     1     -12.483  -0.232  14.723  1.00  0.00     0.041 A 
ATOM     83  F   UNL     1     -11.293   1.029  13.145  1.00  0.00    -0.206 F 
ATOM     84  C   UNL     1     -12.658  -1.411  15.443  1.00  0.00     0.022 A 
BRANCH  81  85
ATOM     85  S   UNL     1     -11.998  -4.030  16.143  1.00  0.00     0.124 S 
ATOM     86  O   UNL     1     -12.305  -4.946  15.048  1.00  0.00    -0.237 OA
ATOM     87  O   UNL     1     -10.710  -4.231  16.798  1.00  0.00    -0.237 OA
ATOM     88  O   UNL     1     -13.112  -3.747  17.046  1.00  0.00    -0.744 OA
ENDBRANCH  81  85
ENDBRANCH  55  78
ENDBRANCH  29  30
ENDBRANCH  22  24
ENDBRANCH  21  22
ENDBRANCH  20  21
ENDBRANCH   1  20
TORSDOF 17
