REMARK SMILES CC1=C(C(=O)Nc2ccccc2)[C@@H](c2ccc(C(=O)OCCOC(=O)c3ccc(-c4c5nc(c(-c6cc(S(=O)(=O)[O-])ccc6F)c6ccc([nH]6)c(-c6cc(S(=O)(=O)[O-])ccc6F)c6nc(c(-c7cc(S(=O)(=O)[O-])ccc7F)c7ccc4[nH]7)C=C6)C=C5)cc3)cc2)n2ncnc2N1
REMARK SMILES IDX 21 1 20 2 18 3 19 4 17 5 14 6 15 7 90 8 16 9 89 10 13 11
REMARK SMILES IDX 1 12 2 13 3 14 96 15 95 16 91 18 94 19 92 20 93 21 4 22 5 23
REMARK SMILES IDX 6 24 7 26 8 27 12 28 9 29 11 30 10 31 22 32 23 33 24 34
REMARK SMILES IDX 25 35 26 36 27 37 88 38 28 39 87 40 29 41 30 42 31 43 81 44
REMARK SMILES IDX 32 45 86 46 80 47 82 48 33 49 85 50 79 51 78 52 34 54 66 55
REMARK SMILES IDX 46 56 65 57 47 58 50 59 64 60 83 61 48 62 49 63 63 65 84 66
REMARK SMILES IDX 51 67 35 68 36 69 44 70 37 71 43 72 45 73 42 74 38 75 39 76
REMARK SMILES IDX 40 77 41 78 67 79 68 80 76 81 69 82 75 83 77 84 74 85 70 86
REMARK SMILES IDX 71 87 72 88 73 89 52 90 53 91 61 92 54 93 60 94 62 95 59 96
REMARK SMILES IDX 55 97 56 98 57 99 58 100
REMARK H PARENT 96 17 6 25 82 53 50 64
REMARK Flexibility Score: inf
ROOT
ATOM      1  C   UNL     1      -6.236   6.137   4.352  1.00  0.00     0.275 C 
ENDROOT
BRANCH   1   2
ATOM      2  O   UNL     1      -5.138   5.215   4.432  1.00  0.00    -0.458 OA
BRANCH   2   3
ATOM      3  C   UNL     1      -5.369   3.966   3.947  1.00  0.00     0.338 C 
ATOM      4  O   UNL     1      -6.461   3.496   3.659  1.00  0.00    -0.246 OA
BRANCH   3   5
ATOM      5  C   UNL     1      -4.085   3.253   3.720  1.00  0.00     0.060 A 
ATOM      6  C   UNL     1      -1.710   1.798   3.314  1.00  0.00    -0.019 A 
ATOM      7  C   UNL     1      -2.877   1.440   2.628  1.00  0.00     0.007 A 
ATOM      8  C   UNL     1      -1.734   2.938   4.145  1.00  0.00     0.007 A 
ATOM      9  C   UNL     1      -4.059   2.161   2.838  1.00  0.00     0.016 A 
ATOM     10  C   UNL     1      -2.907   3.660   4.347  1.00  0.00     0.016 A 
BRANCH   6  11
ATOM     11  C   UNL     1      -0.452   0.939   3.317  1.00  0.00     0.179 C 
ATOM     12  C   UNL     1       2.246  -0.569   0.939  1.00  0.00     0.065 C 
ATOM     13  C   UNL     1       1.032  -0.382   1.815  1.00  0.00     0.026 C 
ATOM     14  C   UNL     1       0.358   0.785   2.015  1.00  0.00     0.065 C 
ATOM     15  N   UNL     1       0.720  -1.517   2.558  1.00  0.00    -0.328 N 
ATOM     16  C   UNL     1      -0.143  -1.527   3.584  1.00  0.00     0.226 A 
ATOM     17  H   UNL     1       1.160  -2.363   2.316  1.00  0.00     0.169 HD
ATOM     18  N   UNL     1      -0.733  -0.355   3.961  1.00  0.00    -0.219 N 
ATOM     19  N   UNL     1      -0.518  -2.490   4.386  1.00  0.00    -0.200 NA
ATOM     20  N   UNL     1      -1.442  -0.518   5.103  1.00  0.00    -0.157 NA
ATOM     21  C   UNL     1      -1.315  -1.835   5.287  1.00  0.00     0.248 A 
BRANCH  14  22
ATOM     22  C   UNL     1       0.580   2.087   1.318  1.00  0.00     0.255 C 
ATOM     23  O   UNL     1       0.720   3.094   2.019  1.00  0.00    -0.269 OA
ATOM     24  N   UNL     1       0.674   2.246  -0.034  1.00  0.00    -0.322 N 
ATOM     25  H   UNL     1       0.620   3.183  -0.333  1.00  0.00     0.170 HD
BRANCH  24  26
ATOM     26  C   UNL     1       0.833   1.322  -1.075  1.00  0.00     0.041 A 
ATOM     27  C   UNL     1       1.930   1.545  -1.918  1.00  0.00     0.026 A 
ATOM     28  C   UNL     1       0.052   0.181  -1.245  1.00  0.00     0.026 A 
ATOM     29  C   UNL     1       2.339   0.563  -2.819  1.00  0.00     0.002 A 
ATOM     30  C   UNL     1       0.435  -0.781  -2.190  1.00  0.00     0.002 A 
ATOM     31  C   UNL     1       1.598  -0.608  -2.944  1.00  0.00     0.000 A 
ENDBRANCH  24  26
ENDBRANCH  14  22
ENDBRANCH   6  11
ENDBRANCH   3   5
ENDBRANCH   2   3
ENDBRANCH   1   2
BRANCH   1  32
ATOM     32  C   UNL     1      -6.225   6.884   3.027  1.00  0.00     0.275 C 
BRANCH  32  33
ATOM     33  O   UNL     1      -6.569   6.023   1.943  1.00  0.00    -0.458 OA
BRANCH  33  34
ATOM     34  C   UNL     1      -5.514   5.505   1.273  1.00  0.00     0.338 C 
ATOM     35  O   UNL     1      -4.364   5.416   1.669  1.00  0.00    -0.246 OA
BRANCH  34  36
ATOM     36  C   UNL     1      -5.900   5.283  -0.124  1.00  0.00     0.060 A 
ATOM     37  C   UNL     1      -4.916   4.788  -0.986  1.00  0.00     0.016 A 
ATOM     38  C   UNL     1      -7.097   5.832  -0.604  1.00  0.00     0.016 A 
ATOM     39  C   UNL     1      -5.062   5.001  -2.341  1.00  0.00     0.010 A 
ATOM     40  C   UNL     1      -7.230   6.063  -1.952  1.00  0.00     0.010 A 
ATOM     41  C   UNL     1      -6.181   5.705  -2.798  1.00  0.00    -0.014 A 
BRANCH  41  42
ATOM     42  C   UNL     1      -6.306   5.951  -4.220  1.00  0.00     0.031 A 
ATOM     43  C   UNL     1      -6.636   4.731  -4.989  1.00  0.00     0.074 A 
ATOM     44  C   UNL     1      -6.290   7.189  -4.748  1.00  0.00     0.049 A 
ATOM     45  N   UNL     1      -5.926   4.139  -5.889  1.00  0.00    -0.248 NA
ATOM     46  C   UNL     1      -7.826   3.971  -4.568  1.00  0.00     0.031 C 
ATOM     47  C   UNL     1      -6.266   8.464  -4.027  1.00  0.00     0.029 A 
ATOM     48  N   UNL     1      -6.421   7.569  -6.048  1.00  0.00    -0.354 N 
ATOM     49  C   UNL     1      -6.698   3.065  -6.320  1.00  0.00     0.074 A 
ATOM     50  C   UNL     1      -7.717   2.884  -5.327  1.00  0.00     0.031 C 
ATOM     51  C   UNL     1      -6.602   9.460  -4.878  1.00  0.00     0.029 A 
ATOM     52  C   UNL     1      -6.745   8.911  -6.217  1.00  0.00     0.049 A 
ATOM     53  H   UNL     1      -6.297   6.949  -6.803  1.00  0.00     0.167 HD
ATOM     54  C   UNL     1      -6.598   2.601  -7.595  1.00  0.00     0.034 A 
ATOM     55  C   UNL     1      -7.176   9.509  -7.359  1.00  0.00     0.034 A 
ATOM     56  C   UNL     1      -5.345   3.017  -8.193  1.00  0.00     0.049 A 
ATOM     57  C   UNL     1      -6.778   8.634  -8.489  1.00  0.00     0.074 A 
ATOM     58  C   UNL     1      -4.013   2.829  -7.874  1.00  0.00     0.029 A 
ATOM     59  N   UNL     1      -5.368   4.065  -9.087  1.00  0.00    -0.354 N 
ATOM     60  N   UNL     1      -5.537   8.415  -8.826  1.00  0.00    -0.248 NA
ATOM     61  C   UNL     1      -7.729   7.641  -8.968  1.00  0.00     0.031 C 
ATOM     62  C   UNL     1      -3.369   4.053  -8.219  1.00  0.00     0.029 A 
ATOM     63  C   UNL     1      -4.320   4.901  -8.790  1.00  0.00     0.049 A 
ATOM     64  H   UNL     1      -6.022   4.193  -9.812  1.00  0.00     0.167 HD
ATOM     65  C   UNL     1      -5.488   7.071  -9.164  1.00  0.00     0.074 A 
ATOM     66  C   UNL     1      -6.882   6.681  -9.354  1.00  0.00     0.031 C 
ATOM     67  C   UNL     1      -4.349   6.341  -8.975  1.00  0.00     0.034 A 
BRANCH  54  68
ATOM     68  C   UNL     1      -7.791   2.158  -8.425  1.00  0.00     0.023 A 
ATOM     69  C   UNL     1      -7.535   1.870  -9.777  1.00  0.00     0.031 A 
ATOM     70  C   UNL     1      -9.158   2.294  -8.083  1.00  0.00     0.131 A 
ATOM     71  C   UNL     1      -8.565   1.900 -10.732  1.00  0.00     0.055 A 
ATOM     72  C   UNL     1     -10.188   2.256  -9.028  1.00  0.00     0.041 A 
ATOM     73  F   UNL     1      -9.587   2.545  -6.843  1.00  0.00    -0.206 F 
ATOM     74  C   UNL     1      -9.891   2.103 -10.369  1.00  0.00     0.022 A 
BRANCH  71  75
ATOM     75  S   UNL     1      -8.097   1.881 -12.478  1.00  0.00     0.124 S 
ATOM     76  O   UNL     1      -7.124   2.967 -12.526  1.00  0.00    -0.237 OA
ATOM     77  O   UNL     1      -7.566   0.530 -12.628  1.00  0.00    -0.237 OA
ATOM     78  O   UNL     1      -9.358   2.138 -13.168  1.00  0.00    -0.744 OA
ENDBRANCH  71  75
ENDBRANCH  54  68
BRANCH  55  79
ATOM     79  C   UNL     1      -8.165  10.614  -7.483  1.00  0.00     0.023 A 
ATOM     80  C   UNL     1      -8.266  11.420  -8.636  1.00  0.00     0.031 A 
ATOM     81  C   UNL     1      -9.201  10.739  -6.529  1.00  0.00     0.131 A 
ATOM     82  C   UNL     1      -9.364  12.299  -8.796  1.00  0.00     0.055 A 
ATOM     83  C   UNL     1     -10.277  11.614  -6.688  1.00  0.00     0.041 A 
ATOM     84  F   UNL     1      -9.249   9.947  -5.446  1.00  0.00    -0.206 F 
ATOM     85  C   UNL     1     -10.368  12.392  -7.829  1.00  0.00     0.022 A 
BRANCH  82  86
ATOM     86  S   UNL     1      -9.555  13.270 -10.326  1.00  0.00     0.124 S 
ATOM     87  O   UNL     1      -8.463  14.231 -10.222  1.00  0.00    -0.237 OA
ATOM     88  O   UNL     1      -9.428  12.252 -11.362  1.00  0.00    -0.237 OA
ATOM     89  O   UNL     1     -10.894  13.847 -10.199  1.00  0.00    -0.744 OA
ENDBRANCH  82  86
ENDBRANCH  55  79
BRANCH  67  90
ATOM     90  C   UNL     1      -3.056   7.093  -8.731  1.00  0.00     0.023 A 
ATOM     91  C   UNL     1      -2.830   7.990  -7.661  1.00  0.00     0.031 A 
ATOM     92  C   UNL     1      -1.972   6.801  -9.577  1.00  0.00     0.131 A 
ATOM     93  C   UNL     1      -1.557   8.568  -7.483  1.00  0.00     0.055 A 
ATOM     94  C   UNL     1      -0.709   7.358  -9.385  1.00  0.00     0.041 A 
ATOM     95  F   UNL     1      -2.115   5.933 -10.592  1.00  0.00    -0.206 F 
ATOM     96  C   UNL     1      -0.498   8.250  -8.341  1.00  0.00     0.022 A 
BRANCH  93  97
ATOM     97  S   UNL     1      -1.255   9.757  -6.136  1.00  0.00     0.124 S 
ATOM     98  O   UNL     1      -2.370  10.690  -6.244  1.00  0.00    -0.237 OA
ATOM     99  O   UNL     1      -1.249   8.899  -4.954  1.00  0.00    -0.237 OA
ATOM    100  O   UNL     1       0.051  10.328  -6.473  1.00  0.00    -0.744 OA
ENDBRANCH  93  97
ENDBRANCH  67  90
ENDBRANCH  41  42
ENDBRANCH  34  36
ENDBRANCH  33  34
ENDBRANCH  32  33
ENDBRANCH   1  32
TORSDOF 17
