REMARK SMILES CCCS[C@@H]1CC[C@@]([NH2+]CC)(C(=O)OCCOC(=O)c2ccc(-c3c4nc(c(-c5cc(S(=O)(=O)[O-])ccc5F)c5ccc([nH]5)c(-c5cc(S(=O)(=O)[O-])ccc5F)c5nc(c(-c6cc(S(=O)(=O)[O-])ccc6F)c6ccc3[nH]6)C=C5)C=C4)cc2)C1
REMARK SMILES IDX 15 1 14 2 12 3 13 4 8 5 5 6 6 7 83 8 7 9 4 10 3 11 2 12 1 13
REMARK SMILES IDX 9 14 10 17 11 18 16 19 17 20 18 21 19 22 20 23 21 24 82 25
REMARK SMILES IDX 22 26 81 27 23 28 24 29 25 30 75 31 26 32 80 33 74 34 76 35
REMARK SMILES IDX 27 36 79 37 73 38 72 39 28 41 60 42 40 43 59 44 41 45 44 46
REMARK SMILES IDX 58 47 77 48 42 49 43 50 57 52 78 53 45 54 29 55 30 56 38 57
REMARK SMILES IDX 31 58 37 59 39 60 36 61 32 62 33 63 34 64 35 65 61 66 62 67
REMARK SMILES IDX 70 68 63 69 69 70 71 71 68 72 64 73 65 74 66 75 67 76 46 77
REMARK SMILES IDX 47 78 55 79 48 80 54 81 56 82 53 83 49 84 50 85 51 86 52 87
REMARK H PARENT 9 15 9 16 76 40 44 51
REMARK Flexibility Score: inf
ROOT
ATOM      1  C   UNL     1       2.128  -3.803   5.557  1.00  0.00     0.274 C 
ENDROOT
BRANCH   1   2
ATOM      2  O   UNL     1       2.715  -3.186   4.393  1.00  0.00    -0.457 OA
BRANCH   2   3
ATOM      3  C   UNL     1       2.862  -3.990   3.303  1.00  0.00     0.368 C 
ATOM      4  O   UNL     1       2.517  -5.168   3.288  1.00  0.00    -0.245 OA
BRANCH   3   5
ATOM      5  C   UNL     1       3.568  -3.289   2.096  1.00  0.00     0.195 C 
ATOM      6  C   UNL     1       1.819  -2.332   0.694  1.00  0.00     0.053 C 
ATOM      7  C   UNL     1       2.759  -1.191   1.029  1.00  0.00     0.022 C 
ATOM      8  C   UNL     1       2.763  -3.532   0.795  1.00  0.00     0.095 C 
ATOM      9  C   UNL     1       3.586  -1.733   2.202  1.00  0.00     0.082 C 
BRANCH   6  10
ATOM     10  S   UNL     1       0.905  -2.409  -0.884  1.00  0.00    -0.158 SA
BRANCH  10  11
ATOM     11  C   UNL     1       1.406  -0.926  -1.816  1.00  0.00     0.069 C 
BRANCH  11  12
ATOM     12  C   UNL     1       0.381   0.206  -1.756  1.00  0.00     0.007 C 
ATOM     13  C   UNL     1       0.316   0.923  -0.419  1.00  0.00     0.005 C 
ENDBRANCH  11  12
ENDBRANCH  10  11
ENDBRANCH   6  10
BRANCH   5  14
ATOM     14  N   UNL     1       4.978  -3.758   1.974  1.00  0.00    -0.332 N 
ATOM     15  H   UNL     1       5.516  -3.297   2.707  1.00  0.00     0.347 HD
ATOM     16  H   UNL     1       5.243  -3.523   1.017  1.00  0.00     0.347 HD
BRANCH  14  17
ATOM     17  C   UNL     1       5.234  -5.199   2.083  1.00  0.00     0.257 C 
ATOM     18  C   UNL     1       4.631  -6.083   0.999  1.00  0.00     0.071 C 
ENDBRANCH  14  17
ENDBRANCH   5  14
ENDBRANCH   3   5
ENDBRANCH   2   3
ENDBRANCH   1   2
BRANCH   1  19
ATOM     19  C   UNL     1       0.629  -3.524   5.631  1.00  0.00     0.275 C 
BRANCH  19  20
ATOM     20  O   UNL     1      -0.033  -4.142   4.516  1.00  0.00    -0.458 OA
BRANCH  20  21
ATOM     21  C   UNL     1      -0.893  -3.363   3.825  1.00  0.00     0.338 C 
ATOM     22  O   UNL     1      -1.216  -2.213   4.094  1.00  0.00    -0.246 OA
BRANCH  21  23
ATOM     23  C   UNL     1      -1.413  -4.099   2.657  1.00  0.00     0.060 A 
ATOM     24  C   UNL     1      -0.546  -4.816   1.832  1.00  0.00     0.016 A 
ATOM     25  C   UNL     1      -2.758  -3.986   2.312  1.00  0.00     0.016 A 
ATOM     26  C   UNL     1      -0.992  -5.332   0.617  1.00  0.00     0.010 A 
ATOM     27  C   UNL     1      -3.227  -4.600   1.146  1.00  0.00     0.010 A 
ATOM     28  C   UNL     1      -2.343  -5.251   0.264  1.00  0.00    -0.014 A 
BRANCH  28  29
ATOM     29  C   UNL     1      -2.838  -5.787  -1.037  1.00  0.00     0.031 A 
ATOM     30  C   UNL     1      -3.586  -4.875  -1.974  1.00  0.00     0.074 A 
ATOM     31  C   UNL     1      -2.642  -7.074  -1.387  1.00  0.00     0.049 A 
ATOM     32  N   UNL     1      -4.386  -5.175  -2.964  1.00  0.00    -0.248 NA
ATOM     33  C   UNL     1      -3.429  -3.432  -1.741  1.00  0.00     0.031 C 
ATOM     34  C   UNL     1      -1.858  -8.055  -0.633  1.00  0.00     0.029 A 
ATOM     35  N   UNL     1      -3.096  -7.784  -2.473  1.00  0.00    -0.354 N 
ATOM     36  C   UNL     1      -4.891  -3.962  -3.423  1.00  0.00     0.074 A 
ATOM     37  C   UNL     1      -4.298  -2.925  -2.603  1.00  0.00     0.031 C 
ATOM     38  C   UNL     1      -1.862  -9.224  -1.292  1.00  0.00     0.029 A 
ATOM     39  C   UNL     1      -2.742  -9.113  -2.448  1.00  0.00     0.049 A 
ATOM     40  H   UNL     1      -3.624  -7.380  -3.200  1.00  0.00     0.167 HD
ATOM     41  C   UNL     1      -5.777  -3.744  -4.427  1.00  0.00     0.034 A 
ATOM     42  C   UNL     1      -3.135 -10.145  -3.221  1.00  0.00     0.034 A 
ATOM     43  C   UNL     1      -6.303  -4.793  -5.269  1.00  0.00     0.049 A 
ATOM     44  C   UNL     1      -4.154  -9.896  -4.301  1.00  0.00     0.074 A 
ATOM     45  C   UNL     1      -7.218  -4.697  -6.305  1.00  0.00     0.029 A 
ATOM     46  N   UNL     1      -5.940  -6.132  -5.187  1.00  0.00    -0.354 N 
ATOM     47  N   UNL     1      -4.742  -8.770  -4.637  1.00  0.00    -0.248 NA
ATOM     48  C   UNL     1      -4.585 -11.059  -5.087  1.00  0.00     0.031 C 
ATOM     49  C   UNL     1      -7.437  -5.981  -6.820  1.00  0.00     0.029 A 
ATOM     50  C   UNL     1      -6.616  -6.870  -6.145  1.00  0.00     0.049 A 
ATOM     51  H   UNL     1      -5.296  -6.502  -4.541  1.00  0.00     0.167 HD
ATOM     52  C   UNL     1      -5.606  -9.091  -5.678  1.00  0.00     0.074 A 
ATOM     53  C   UNL     1      -5.451 -10.510  -5.926  1.00  0.00     0.031 C 
ATOM     54  C   UNL     1      -6.454  -8.287  -6.367  1.00  0.00     0.034 A 
BRANCH  41  55
ATOM     55  C   UNL     1      -6.287  -2.335  -4.612  1.00  0.00     0.023 A 
ATOM     56  C   UNL     1      -5.454  -1.281  -5.024  1.00  0.00     0.031 A 
ATOM     57  C   UNL     1      -7.633  -2.038  -4.330  1.00  0.00     0.131 A 
ATOM     58  C   UNL     1      -5.958   0.029  -5.077  1.00  0.00     0.055 A 
ATOM     59  C   UNL     1      -8.148  -0.747  -4.458  1.00  0.00     0.041 A 
ATOM     60  F   UNL     1      -8.472  -2.999  -3.911  1.00  0.00    -0.206 F 
ATOM     61  C   UNL     1      -7.304   0.299  -4.819  1.00  0.00     0.022 A 
BRANCH  58  62
ATOM     62  S   UNL     1      -4.800   1.396  -5.359  1.00  0.00     0.124 S 
ATOM     63  O   UNL     1      -3.878   1.243  -4.236  1.00  0.00    -0.237 OA
ATOM     64  O   UNL     1      -4.258   1.085  -6.677  1.00  0.00    -0.237 OA
ATOM     65  O   UNL     1      -5.649   2.584  -5.300  1.00  0.00    -0.744 OA
ENDBRANCH  58  62
ENDBRANCH  41  55
BRANCH  42  66
ATOM     66  C   UNL     1      -2.646 -11.525  -2.939  1.00  0.00     0.023 A 
ATOM     67  C   UNL     1      -1.848 -12.215  -3.864  1.00  0.00     0.031 A 
ATOM     68  C   UNL     1      -2.992 -12.184  -1.745  1.00  0.00     0.131 A 
ATOM     69  C   UNL     1      -1.444 -13.532  -3.592  1.00  0.00     0.055 A 
ATOM     70  C   UNL     1      -2.545 -13.473  -1.455  1.00  0.00     0.041 A 
ATOM     71  F   UNL     1      -3.758 -11.570  -0.828  1.00  0.00    -0.206 F 
ATOM     72  C   UNL     1      -1.773 -14.159  -2.387  1.00  0.00     0.022 A 
BRANCH  69  73
ATOM     73  S   UNL     1      -0.534 -14.446  -4.868  1.00  0.00     0.124 S 
ATOM     74  O   UNL     1      -1.474 -14.416  -5.983  1.00  0.00    -0.237 OA
ATOM     75  O   UNL     1       0.670 -13.636  -5.021  1.00  0.00    -0.237 OA
ATOM     76  O   UNL     1      -0.326 -15.760  -4.262  1.00  0.00    -0.744 OA
ENDBRANCH  69  73
ENDBRANCH  42  66
BRANCH  54  77
ATOM     77  C   UNL     1      -7.236  -8.928  -7.482  1.00  0.00     0.023 A 
ATOM     78  C   UNL     1      -8.300  -9.809  -7.224  1.00  0.00     0.031 A 
ATOM     79  C   UNL     1      -6.896  -8.663  -8.820  1.00  0.00     0.131 A 
ATOM     80  C   UNL     1      -8.961 -10.431  -8.294  1.00  0.00     0.055 A 
ATOM     81  C   UNL     1      -7.586  -9.251  -9.880  1.00  0.00     0.041 A 
ATOM     82  F   UNL     1      -5.886  -7.830  -9.115  1.00  0.00    -0.206 F 
ATOM     83  C   UNL     1      -8.619 -10.148  -9.620  1.00  0.00     0.022 A 
BRANCH  80  84
ATOM     84  S   UNL     1     -10.241 -11.665  -7.932  1.00  0.00     0.124 S 
ATOM     85  O   UNL     1      -9.483 -12.687  -7.217  1.00  0.00    -0.237 OA
ATOM     86  O   UNL     1     -11.195 -10.903  -7.132  1.00  0.00    -0.237 OA
ATOM     87  O   UNL     1     -10.720 -12.061  -9.255  1.00  0.00    -0.744 OA
ENDBRANCH  80  84
ENDBRANCH  54  77
ENDBRANCH  28  29
ENDBRANCH  21  23
ENDBRANCH  20  21
ENDBRANCH  19  20
ENDBRANCH   1  19
TORSDOF 19
