REMARK SMILES CC1=Nc2c(c(C)nn2-c2ccc(F)cc2)[C@H](c2ccc(C(=O)OCCOC(=O)c3ccc(-c4c5nc(c(-c6cc(S(=O)(=O)[O-])ccc6F)c6ccc([nH]6)c(-c6cc(S(=O)(=O)[O-])ccc6F)c6nc(c(-c7cc(S(=O)(=O)[O-])ccc7F)c7ccc4[nH]7)C=C6)C=C5)cc3)cc2)S1
REMARK SMILES IDX 26 1 25 2 24 3 22 4 23 5 21 6 18 7 19 8 94 9 20 10 93 11
REMARK SMILES IDX 17 12 1 13 2 14 3 15 95 16 4 17 5 18 9 19 6 20 8 21 7 22
REMARK SMILES IDX 10 23 11 24 16 25 12 26 15 27 13 28 14 29 27 30 28 31 29 32
REMARK SMILES IDX 30 33 31 34 92 35 32 36 91 37 33 38 34 39 35 40 85 41 36 42
REMARK SMILES IDX 90 43 84 44 86 45 37 46 89 47 83 48 82 49 38 51 70 52 50 53
REMARK SMILES IDX 69 54 51 55 54 56 68 57 87 58 52 59 53 60 67 62 88 63 55 64
REMARK SMILES IDX 39 65 40 66 48 67 41 68 47 69 49 70 46 71 42 72 43 73 44 74
REMARK SMILES IDX 45 75 71 76 72 77 80 78 73 79 79 80 81 81 78 82 74 83 75 84
REMARK SMILES IDX 76 85 77 86 56 87 57 88 65 89 58 90 64 91 66 92 63 93 59 94
REMARK SMILES IDX 60 95 61 96 62 97
REMARK H PARENT 86 50 54 61
REMARK Flexibility Score: inf
ROOT
ATOM      1  C   UNL     1      -2.402   3.245   8.874  1.00  0.00     0.275 C 
ENDROOT
BRANCH   1   2
ATOM      2  C   UNL     1      -3.280   2.223   8.164  1.00  0.00     0.275 C 
BRANCH   2   3
ATOM      3  O   UNL     1      -2.923   2.102   6.775  1.00  0.00    -0.458 OA
BRANCH   3   4
ATOM      4  C   UNL     1      -3.590   2.929   5.934  1.00  0.00     0.338 C 
ATOM      5  O   UNL     1      -4.584   3.588   6.216  1.00  0.00    -0.246 OA
BRANCH   4   6
ATOM      6  C   UNL     1      -2.937   3.002   4.598  1.00  0.00     0.060 A 
ATOM      7  C   UNL     1      -1.879   3.174   1.972  1.00  0.00    -0.030 A 
ATOM      8  C   UNL     1      -2.815   4.111   2.447  1.00  0.00     0.006 A 
ATOM      9  C   UNL     1      -1.426   2.195   2.877  1.00  0.00     0.006 A 
ATOM     10  C   UNL     1      -3.327   4.035   3.743  1.00  0.00     0.016 A 
ATOM     11  C   UNL     1      -1.959   2.099   4.172  1.00  0.00     0.016 A 
BRANCH   7  12
ATOM     12  C   UNL     1      -1.470   3.233   0.505  1.00  0.00     0.119 C 
ATOM     13  C   UNL     1       0.973  -0.031  -0.183  1.00  0.00     0.075 C 
ATOM     14  C   UNL     1       0.501   1.398  -0.161  1.00  0.00     0.074 C 
ATOM     15  N   UNL     1       1.392   2.333  -0.091  1.00  0.00    -0.227 NA
ATOM     16  S   UNL     1      -1.243   1.596  -0.276  1.00  0.00    -0.098 SA
ATOM     17  C   UNL     1       0.969   3.614   0.028  1.00  0.00     0.161 A 
ATOM     18  C   UNL     1      -0.277   4.098   0.361  1.00  0.00     0.038 A 
ATOM     19  N   UNL     1       1.802   4.716  -0.092  1.00  0.00    -0.215 N 
ATOM     20  C   UNL     1      -0.110   5.508   0.422  1.00  0.00     0.067 A 
ATOM     21  N   UNL     1       1.165   5.866   0.228  1.00  0.00    -0.171 NA
ATOM     22  C   UNL     1      -1.125   6.565   0.657  1.00  0.00     0.069 C 
BRANCH  19  23
ATOM     23  C   UNL     1       3.136   4.736  -0.566  1.00  0.00     0.067 A 
ATOM     24  C   UNL     1       3.507   3.923  -1.649  1.00  0.00     0.031 A 
ATOM     25  C   UNL     1       4.078   5.562   0.059  1.00  0.00     0.031 A 
ATOM     26  C   UNL     1       4.827   3.928  -2.095  1.00  0.00     0.041 A 
ATOM     27  C   UNL     1       5.409   5.519  -0.360  1.00  0.00     0.041 A 
ATOM     28  C   UNL     1       5.770   4.709  -1.434  1.00  0.00     0.123 A 
ATOM     29  F   UNL     1       7.046   4.674  -1.840  1.00  0.00    -0.207 F 
ENDBRANCH  19  23
ENDBRANCH   7  12
ENDBRANCH   4   6
ENDBRANCH   3   4
ENDBRANCH   2   3
ENDBRANCH   1   2
BRANCH   1  30
ATOM     30  O   UNL     1      -2.670   4.577   8.434  1.00  0.00    -0.458 OA
BRANCH  30  31
ATOM     31  C   UNL     1      -1.849   5.017   7.452  1.00  0.00     0.338 C 
ATOM     32  O   UNL     1      -1.204   4.333   6.676  1.00  0.00    -0.246 OA
BRANCH  31  33
ATOM     33  C   UNL     1      -1.649   6.463   7.599  1.00  0.00     0.060 A 
ATOM     34  C   UNL     1      -0.835   7.094   6.653  1.00  0.00     0.016 A 
ATOM     35  C   UNL     1      -2.019   7.096   8.795  1.00  0.00     0.016 A 
ATOM     36  C   UNL     1      -0.264   8.307   6.978  1.00  0.00     0.010 A 
ATOM     37  C   UNL     1      -1.435   8.298   9.123  1.00  0.00     0.010 A 
ATOM     38  C   UNL     1      -0.515   8.857   8.239  1.00  0.00    -0.014 A 
BRANCH  38  39
ATOM     39  C   UNL     1       0.138  10.102   8.583  1.00  0.00     0.031 A 
ATOM     40  C   UNL     1      -0.414  11.278   7.874  1.00  0.00     0.074 A 
ATOM     41  C   UNL     1       1.055  10.203   9.561  1.00  0.00     0.049 A 
ATOM     42  N   UNL     1       0.180  12.038   7.018  1.00  0.00    -0.248 NA
ATOM     43  C   UNL     1      -1.851  11.552   8.030  1.00  0.00     0.031 C 
ATOM     44  C   UNL     1       1.473   9.180  10.521  1.00  0.00     0.029 A 
ATOM     45  N   UNL     1       1.730  11.309   9.973  1.00  0.00    -0.354 N 
ATOM     46  C   UNL     1      -0.744  13.021   6.686  1.00  0.00     0.074 A 
ATOM     47  C   UNL     1      -2.015  12.567   7.182  1.00  0.00     0.031 C 
ATOM     48  C   UNL     1       2.152   9.773  11.530  1.00  0.00     0.029 A 
ATOM     49  C   UNL     1       2.321  11.185  11.223  1.00  0.00     0.049 A 
ATOM     50  H   UNL     1       1.793  12.128   9.430  1.00  0.00     0.167 HD
ATOM     51  C   UNL     1      -0.348  14.241   6.236  1.00  0.00     0.034 A 
ATOM     52  C   UNL     1       2.834  12.196  11.973  1.00  0.00     0.034 A 
ATOM     53  C   UNL     1       1.006  14.207   5.738  1.00  0.00     0.049 A 
ATOM     54  C   UNL     1       3.166  13.295  11.026  1.00  0.00     0.074 A 
ATOM     55  C   UNL     1       1.651  13.479   4.755  1.00  0.00     0.029 A 
ATOM     56  N   UNL     1       2.008  14.716   6.532  1.00  0.00    -0.354 N 
ATOM     57  N   UNL     1       4.066  13.188  10.085  1.00  0.00    -0.248 NA
ATOM     58  C   UNL     1       2.180  14.345  10.821  1.00  0.00     0.031 C 
ATOM     59  C   UNL     1       2.929  13.170   5.305  1.00  0.00     0.029 A 
ATOM     60  C   UNL     1       3.014  13.781   6.558  1.00  0.00     0.049 A 
ATOM     61  H   UNL     1       2.004  15.585   6.995  1.00  0.00     0.167 HD
ATOM     62  C   UNL     1       3.525  13.850   8.992  1.00  0.00     0.074 A 
ATOM     63  C   UNL     1       2.410  14.624   9.534  1.00  0.00     0.031 C 
ATOM     64  C   UNL     1       3.848  13.501   7.712  1.00  0.00     0.034 A 
BRANCH  51  65
ATOM     65  C   UNL     1      -1.069  15.526   6.560  1.00  0.00     0.023 A 
ATOM     66  C   UNL     1      -0.610  16.708   5.951  1.00  0.00     0.031 A 
ATOM     67  C   UNL     1      -1.988  15.695   7.624  1.00  0.00     0.131 A 
ATOM     68  C   UNL     1      -1.004  17.967   6.438  1.00  0.00     0.055 A 
ATOM     69  C   UNL     1      -2.430  16.947   8.056  1.00  0.00     0.041 A 
ATOM     70  F   UNL     1      -2.430  14.675   8.368  1.00  0.00    -0.206 F 
ATOM     71  C   UNL     1      -1.917  18.094   7.481  1.00  0.00     0.022 A 
BRANCH  68  72
ATOM     72  S   UNL     1      -0.175  19.439   5.787  1.00  0.00     0.124 S 
ATOM     73  O   UNL     1       1.226  19.131   6.051  1.00  0.00    -0.237 OA
ATOM     74  O   UNL     1      -0.587  19.421   4.388  1.00  0.00    -0.237 OA
ATOM     75  O   UNL     1      -0.737  20.525   6.587  1.00  0.00    -0.744 OA
ENDBRANCH  68  72
ENDBRANCH  51  65
BRANCH  52  76
ATOM     76  C   UNL     1       2.722  12.376  13.449  1.00  0.00     0.023 A 
ATOM     77  C   UNL     1       3.461  13.359  14.142  1.00  0.00     0.031 A 
ATOM     78  C   UNL     1       1.692  11.738  14.179  1.00  0.00     0.131 A 
ATOM     79  C   UNL     1       3.159  13.666  15.490  1.00  0.00     0.055 A 
ATOM     80  C   UNL     1       1.405  12.036  15.513  1.00  0.00     0.041 A 
ATOM     81  F   UNL     1       0.860  10.860  13.598  1.00  0.00    -0.206 F 
ATOM     82  C   UNL     1       2.131  13.013  16.173  1.00  0.00     0.022 A 
BRANCH  79  83
ATOM     83  S   UNL     1       4.020  15.024  16.346  1.00  0.00     0.124 S 
ATOM     84  O   UNL     1       5.285  14.397  16.714  1.00  0.00    -0.237 OA
ATOM     85  O   UNL     1       4.084  16.059  15.321  1.00  0.00    -0.237 OA
ATOM     86  O   UNL     1       3.134  15.330  17.469  1.00  0.00    -0.744 OA
ENDBRANCH  79  83
ENDBRANCH  52  76
BRANCH  64  87
ATOM     87  C   UNL     1       5.023  12.575   7.481  1.00  0.00     0.023 A 
ATOM     88  C   UNL     1       5.084  11.229   7.909  1.00  0.00     0.031 A 
ATOM     89  C   UNL     1       6.045  13.041   6.636  1.00  0.00     0.131 A 
ATOM     90  C   UNL     1       6.146  10.404   7.483  1.00  0.00     0.055 A 
ATOM     91  C   UNL     1       7.083  12.217   6.202  1.00  0.00     0.041 A 
ATOM     92  F   UNL     1       6.020  14.302   6.171  1.00  0.00    -0.206 F 
ATOM     93  C   UNL     1       7.137  10.894   6.624  1.00  0.00     0.022 A 
BRANCH  90  94
ATOM     94  S   UNL     1       6.235   8.659   8.004  1.00  0.00     0.124 S 
ATOM     95  O   UNL     1       6.327   8.750   9.457  1.00  0.00    -0.237 OA
ATOM     96  O   UNL     1       4.996   8.098   7.472  1.00  0.00    -0.237 OA
ATOM     97  O   UNL     1       7.449   8.166   7.350  1.00  0.00    -0.744 OA
ENDBRANCH  90  94
ENDBRANCH  64  87
ENDBRANCH  38  39
ENDBRANCH  31  33
ENDBRANCH  30  31
ENDBRANCH   1  30
TORSDOF 16
