REMARK SMILES O=C(OCCOC(=O)c1ccc(O[C@@H]2CCCCNC2=O)cn1)c1ccc(-c2c3nc(c(-c4cc(S(=O)(=O)[O-])ccc4F)c4ccc([nH]4)c(-c4cc(S(=O)(=O)[O-])ccc4F)c4nc(c(-c5cc(S(=O)(=O)[O-])ccc5F)c5ccc2[nH]5)C=C4)C=C3)cc1
REMARK SMILES IDX 6 1 5 2 4 3 3 4 2 5 1 6 24 7 25 8 86 9 26 10 85 11 27 12
REMARK SMILES IDX 28 13 29 14 79 15 30 16 84 17 78 18 80 19 31 20 83 21 77 22
REMARK SMILES IDX 76 23 32 25 64 26 44 27 63 28 45 29 48 30 62 31 81 32 46 33
REMARK SMILES IDX 47 34 61 36 82 37 49 38 33 39 34 40 42 41 35 42 41 43 43 44
REMARK SMILES IDX 40 45 36 46 37 47 38 48 39 49 65 50 66 51 74 52 67 53 73 54
REMARK SMILES IDX 75 55 72 56 68 57 69 58 70 59 71 60 50 61 51 62 59 63 52 64
REMARK SMILES IDX 58 65 60 66 57 67 53 68 54 69 55 70 56 71 7 72 8 73 9 74
REMARK SMILES IDX 10 75 23 76 11 77 22 78 12 79 13 80 14 81 15 82 20 84 19 85
REMARK SMILES IDX 21 86 18 88 17 89 16 90
REMARK H PARENT 80 24 48 35 19 87
REMARK Flexibility Score: 80.00
ROOT
ATOM      1  O   UNL     1       3.634   3.543 -14.193  1.00  0.00    -0.457 OA
ENDROOT
BRANCH   1   2
ATOM      2  C   UNL     1       3.954   3.233 -15.553  1.00  0.00     0.275 C 
BRANCH   2   3
ATOM      3  C   UNL     1       2.728   2.891 -16.398  1.00  0.00     0.275 C 
BRANCH   3   4
ATOM      4  O   UNL     1       1.508   3.516 -15.982  1.00  0.00    -0.458 OA
BRANCH   4   5
ATOM      5  C   UNL     1       0.667   3.160 -14.982  1.00  0.00     0.338 C 
ATOM      6  O   UNL     1      -0.401   3.761 -14.876  1.00  0.00    -0.246 OA
BRANCH   5   7
ATOM      7  C   UNL     1       1.000   2.131 -13.945  1.00  0.00     0.060 A 
ATOM      8  C   UNL     1       1.662   0.913 -14.156  1.00  0.00     0.016 A 
ATOM      9  C   UNL     1       0.496   2.383 -12.664  1.00  0.00     0.016 A 
ATOM     10  C   UNL     1       1.812  -0.032 -13.120  1.00  0.00     0.010 A 
ATOM     11  C   UNL     1       0.658   1.461 -11.630  1.00  0.00     0.010 A 
ATOM     12  C   UNL     1       1.276   0.217 -11.858  1.00  0.00    -0.014 A 
BRANCH  12  13
ATOM     13  C   UNL     1       1.091  -0.835 -10.815  1.00  0.00     0.031 A 
ATOM     14  C   UNL     1      -0.333  -1.189 -10.475  1.00  0.00     0.074 A 
ATOM     15  C   UNL     1       2.100  -1.323 -10.065  1.00  0.00     0.049 A 
ATOM     16  N   UNL     1      -0.820  -1.756  -9.405  1.00  0.00    -0.248 NA
ATOM     17  C   UNL     1      -1.342  -0.822 -11.483  1.00  0.00     0.031 C 
ATOM     18  C   UNL     1       3.531  -1.136 -10.300  1.00  0.00     0.029 A 
ATOM     19  N   UNL     1       2.050  -1.920  -8.822  1.00  0.00    -0.354 N 
ATOM     20  C   UNL     1      -2.186  -1.863  -9.640  1.00  0.00     0.074 A 
ATOM     21  C   UNL     1      -2.464  -1.146 -10.865  1.00  0.00     0.031 C 
ATOM     22  C   UNL     1       4.194  -1.367  -9.151  1.00  0.00     0.029 A 
ATOM     23  C   UNL     1       3.235  -1.761  -8.126  1.00  0.00     0.049 A 
ATOM     24  H   UNL     1       1.266  -2.401  -8.472  1.00  0.00     0.167 HD
ATOM     25  C   UNL     1      -3.106  -2.582  -8.951  1.00  0.00     0.034 A 
ATOM     26  C   UNL     1       3.473  -1.824  -6.801  1.00  0.00     0.034 A 
ATOM     27  C   UNL     1      -2.796  -3.260  -7.722  1.00  0.00     0.049 A 
ATOM     28  C   UNL     1       2.397  -2.351  -5.896  1.00  0.00     0.074 A 
ATOM     29  C   UNL     1      -3.558  -4.155  -6.994  1.00  0.00     0.029 A 
ATOM     30  N   UNL     1      -1.616  -3.072  -7.016  1.00  0.00    -0.354 N 
ATOM     31  N   UNL     1       1.138  -2.592  -6.164  1.00  0.00    -0.248 NA
ATOM     32  C   UNL     1       2.812  -2.704  -4.532  1.00  0.00     0.031 C 
ATOM     33  C   UNL     1      -2.856  -4.468  -5.822  1.00  0.00     0.029 A 
ATOM     34  C   UNL     1      -1.634  -3.814  -5.849  1.00  0.00     0.049 A 
ATOM     35  H   UNL     1      -0.873  -2.494  -7.304  1.00  0.00     0.167 HD
ATOM     36  C   UNL     1       0.639  -3.239  -5.039  1.00  0.00     0.074 A 
ATOM     37  C   UNL     1       1.705  -3.257  -4.057  1.00  0.00     0.031 C 
ATOM     38  C   UNL     1      -0.565  -3.843  -4.880  1.00  0.00     0.034 A 
BRANCH  25  39
ATOM     39  C   UNL     1      -4.481  -2.692  -9.564  1.00  0.00     0.023 A 
ATOM     40  C   UNL     1      -4.641  -3.188 -10.874  1.00  0.00     0.031 A 
ATOM     41  C   UNL     1      -5.626  -2.234  -8.897  1.00  0.00     0.131 A 
ATOM     42  C   UNL     1      -5.877  -3.086 -11.523  1.00  0.00     0.055 A 
ATOM     43  C   UNL     1      -6.880  -2.228  -9.515  1.00  0.00     0.041 A 
ATOM     44  F   UNL     1      -5.544  -1.748  -7.649  1.00  0.00    -0.206 F 
ATOM     45  C   UNL     1      -7.006  -2.629 -10.845  1.00  0.00     0.022 A 
BRANCH  42  46
ATOM     46  S   UNL     1      -5.928  -3.372 -13.314  1.00  0.00     0.124 S 
ATOM     47  O   UNL     1      -4.959  -2.391 -13.799  1.00  0.00    -0.237 OA
ATOM     48  O   UNL     1      -5.525  -4.769 -13.422  1.00  0.00    -0.237 OA
ATOM     49  O   UNL     1      -7.318  -3.092 -13.667  1.00  0.00    -0.744 OA
ENDBRANCH  42  46
ENDBRANCH  25  39
BRANCH  26  50
ATOM     50  C   UNL     1       4.724  -1.293  -6.196  1.00  0.00     0.023 A 
ATOM     51  C   UNL     1       5.880  -2.065  -6.032  1.00  0.00     0.031 A 
ATOM     52  C   UNL     1       4.716   0.013  -5.672  1.00  0.00     0.131 A 
ATOM     53  C   UNL     1       6.982  -1.519  -5.349  1.00  0.00     0.055 A 
ATOM     54  C   UNL     1       5.823   0.561  -5.024  1.00  0.00     0.041 A 
ATOM     55  F   UNL     1       3.617   0.774  -5.787  1.00  0.00    -0.206 F 
ATOM     56  C   UNL     1       6.968  -0.209  -4.859  1.00  0.00     0.022 A 
BRANCH  53  57
ATOM     57  S   UNL     1       8.443  -2.559  -5.072  1.00  0.00     0.124 S 
ATOM     58  O   UNL     1       7.936  -3.527  -4.107  1.00  0.00    -0.237 OA
ATOM     59  O   UNL     1       8.712  -3.068  -6.413  1.00  0.00    -0.237 OA
ATOM     60  O   UNL     1       9.436  -1.618  -4.558  1.00  0.00    -0.744 OA
ENDBRANCH  53  57
ENDBRANCH  26  50
BRANCH  38  61
ATOM     61  C   UNL     1      -0.726  -4.731  -3.680  1.00  0.00     0.023 A 
ATOM     62  C   UNL     1      -0.873  -4.232  -2.378  1.00  0.00     0.031 A 
ATOM     63  C   UNL     1      -0.725  -6.126  -3.869  1.00  0.00     0.131 A 
ATOM     64  C   UNL     1      -0.983  -5.130  -1.306  1.00  0.00     0.055 A 
ATOM     65  C   UNL     1      -0.892  -7.011  -2.807  1.00  0.00     0.041 A 
ATOM     66  F   UNL     1      -0.569  -6.648  -5.096  1.00  0.00    -0.206 F 
ATOM     67  C   UNL     1      -1.016  -6.514  -1.514  1.00  0.00     0.022 A 
BRANCH  64  68
ATOM     68  S   UNL     1      -1.024  -4.473   0.383  1.00  0.00     0.124 S 
ATOM     69  O   UNL     1       0.302  -3.876   0.504  1.00  0.00    -0.237 OA
ATOM     70  O   UNL     1      -2.143  -3.538   0.331  1.00  0.00    -0.237 OA
ATOM     71  O   UNL     1      -1.248  -5.660   1.207  1.00  0.00    -0.744 OA
ENDBRANCH  64  68
ENDBRANCH  38  61
ENDBRANCH  12  13
ENDBRANCH   5   7
ENDBRANCH   4   5
ENDBRANCH   3   4
ENDBRANCH   2   3
ENDBRANCH   1   2
BRANCH   1  72
ATOM     72  C   UNL     1       3.529   4.872 -13.914  1.00  0.00     0.357 C 
ATOM     73  O   UNL     1       3.766   5.799 -14.669  1.00  0.00    -0.244 OA
BRANCH  72  74
ATOM     74  C   UNL     1       3.208   5.027 -12.476  1.00  0.00     0.148 A 
ATOM     75  C   UNL     1       4.257   5.152 -11.581  1.00  0.00     0.040 A 
ATOM     76  N   UNL     1       1.900   5.079 -12.118  1.00  0.00    -0.245 NA
ATOM     77  C   UNL     1       3.943   5.324 -10.237  1.00  0.00     0.050 A 
ATOM     78  C   UNL     1       1.635   5.189 -10.788  1.00  0.00     0.158 A 
ATOM     79  C   UNL     1       2.619   5.260  -9.812  1.00  0.00     0.138 A 
BRANCH  79  80
ATOM     80  O   UNL     1       2.328   5.404  -8.496  1.00  0.00    -0.479 OA
BRANCH  80  81
ATOM     81  C   UNL     1       2.224   4.231  -7.688  1.00  0.00     0.262 C 
BRANCH  81  82
ATOM     82  C   UNL     1       3.513   3.902  -6.901  1.00  0.00     0.055 CG0
ATOM     83  G   UNL     1       4.744   3.351  -7.623  1.00  0.00     0.000 G0
ENDBRANCH  81  82
BRANCH  81  84
ATOM     84  C   UNL     1       1.453   2.932  -8.034  1.00  0.00     0.261 C 
ATOM     85  N   UNL     1       2.140   1.910  -8.612  1.00  0.00    -0.353 N 
ATOM     86  O   UNL     1       0.262   2.790  -7.758  1.00  0.00    -0.271 OA
ATOM     87  H   UNL     1       1.794   0.997  -8.487  1.00  0.00     0.163 HD
BRANCH  85  88
ATOM     88  C   UNL     1       3.332   2.070  -9.389  1.00  0.00     0.116 C 
BRANCH  88  89
ATOM     89  C   UNL     1       4.604   2.177  -8.586  1.00  0.00     0.021 C 
BRANCH  89  90
ATOM     90  C   UNL     1       4.744   3.351  -7.623  1.00  0.00     0.006 CG0
ATOM     91  G   UNL     1       3.513   3.902  -6.901  1.00  0.00     0.000 G0
ENDBRANCH  89  90
ENDBRANCH  88  89
ENDBRANCH  85  88
ENDBRANCH  81  84
ENDBRANCH  80  81
ENDBRANCH  79  80
ENDBRANCH  72  74
ENDBRANCH   1  72
TORSDOF 16
