REMARK SMILES CC[NH2+][C@]1(C(=O)OCCOC(=O)c2ccc(-c3c4nc(c(-c5cc(S(=O)(=O)[O-])ccc5F)c5ccc([nH]5)c(-c5cc(S(=O)(=O)[O-])ccc5F)c5nc(c(-c6cc(S(=O)(=O)[O-])ccc6F)c6ccc3[nH]6)C=C5)C=C4)cc2)CC[C@H](OCC)C1
REMARK SMILES IDX 9 1 8 2 7 3 5 4 6 5 4 6 76 7 82 8 77 9 78 10 3 11 2 14 1 15
REMARK SMILES IDX 79 16 80 17 81 18 10 19 11 20 12 21 13 22 14 23 75 24 15 25
REMARK SMILES IDX 74 26 16 27 17 28 18 29 68 30 19 31 73 32 67 33 69 34 20 35
REMARK SMILES IDX 72 36 66 37 65 38 21 40 53 41 33 42 52 43 34 44 37 45 51 46
REMARK SMILES IDX 70 47 35 48 36 49 50 51 71 52 38 53 22 54 23 55 31 56 24 57
REMARK SMILES IDX 30 58 32 59 29 60 25 61 26 62 27 63 28 64 54 65 55 66 63 67
REMARK SMILES IDX 56 68 62 69 64 70 61 71 57 72 58 73 59 74 60 75 39 76 40 77
REMARK SMILES IDX 48 78 41 79 47 80 49 81 46 82 42 83 43 84 44 85 45 86
REMARK H PARENT 3 12 3 13 69 39 37 50
REMARK Flexibility Score: inf
ROOT
ATOM      1  C   UNL     1       2.363  -0.665  -2.301  1.00  0.00     0.275 C 
ENDROOT
BRANCH   1   2
ATOM      2  C   UNL     1       0.855  -0.422  -2.282  1.00  0.00     0.274 C 
BRANCH   2   3
ATOM      3  O   UNL     1       0.527   0.924  -2.684  1.00  0.00    -0.457 OA
BRANCH   3   4
ATOM      4  C   UNL     1       0.374   1.805  -1.655  1.00  0.00     0.368 C 
ATOM      5  O   UNL     1       0.508   1.502  -0.472  1.00  0.00    -0.245 OA
BRANCH   4   6
ATOM      6  C   UNL     1      -0.098   3.202  -2.117  1.00  0.00     0.196 C 
ATOM      7  C   UNL     1       0.755   4.282  -1.434  1.00  0.00     0.084 C 
ATOM      8  C   UNL     1       0.208   3.552  -3.588  1.00  0.00     0.113 C 
ATOM      9  C   UNL     1       0.549   5.556  -2.235  1.00  0.00     0.039 C 
ATOM     10  C   UNL     1       0.140   5.094  -3.640  1.00  0.00     0.125 C 
BRANCH   6  11
ATOM     11  N   UNL     1      -1.561   3.314  -1.905  1.00  0.00    -0.332 N 
ATOM     12  H   UNL     1      -1.892   4.123  -2.432  1.00  0.00     0.347 HD
ATOM     13  H   UNL     1      -1.953   2.426  -2.216  1.00  0.00     0.347 HD
BRANCH  11  14
ATOM     14  C   UNL     1      -1.994   3.474  -0.524  1.00  0.00     0.257 C 
ATOM     15  C   UNL     1      -3.505   3.303  -0.452  1.00  0.00     0.071 C 
ENDBRANCH  11  14
ENDBRANCH   6  11
BRANCH  10  16
ATOM     16  O   UNL     1      -1.193   5.470  -3.992  1.00  0.00    -0.378 OA
BRANCH  16  17
ATOM     17  C   UNL     1      -1.461   6.869  -3.985  1.00  0.00     0.157 C 
ATOM     18  C   UNL     1      -2.464   7.188  -2.886  1.00  0.00     0.035 C 
ENDBRANCH  16  17
ENDBRANCH  10  16
ENDBRANCH   4   6
ENDBRANCH   3   4
ENDBRANCH   2   3
ENDBRANCH   1   2
BRANCH   1  19
ATOM     19  O   UNL     1       3.023   0.259  -1.420  1.00  0.00    -0.458 OA
BRANCH  19  20
ATOM     20  C   UNL     1       4.135   0.853  -1.917  1.00  0.00     0.338 C 
ATOM     21  O   UNL     1       4.663   0.620  -2.991  1.00  0.00    -0.246 OA
BRANCH  20  22
ATOM     22  C   UNL     1       4.645   1.873  -0.974  1.00  0.00     0.060 A 
ATOM     23  C   UNL     1       3.772   2.714  -0.288  1.00  0.00     0.016 A 
ATOM     24  C   UNL     1       6.019   2.082  -0.867  1.00  0.00     0.016 A 
ATOM     25  C   UNL     1       4.255   3.839   0.382  1.00  0.00     0.010 A 
ATOM     26  C   UNL     1       6.508   3.134  -0.079  1.00  0.00     0.010 A 
ATOM     27  C   UNL     1       5.633   4.060   0.518  1.00  0.00    -0.014 A 
BRANCH  27  28
ATOM     28  C   UNL     1       6.159   5.265   1.234  1.00  0.00     0.031 A 
ATOM     29  C   UNL     1       7.159   6.173   0.556  1.00  0.00     0.074 A 
ATOM     30  C   UNL     1       5.748   5.569   2.484  1.00  0.00     0.049 A 
ATOM     31  N   UNL     1       7.921   7.104   1.072  1.00  0.00    -0.248 NA
ATOM     32  C   UNL     1       7.342   5.989  -0.892  1.00  0.00     0.031 C 
ATOM     33  C   UNL     1       4.751   4.827   3.259  1.00  0.00     0.029 A 
ATOM     34  N   UNL     1       6.116   6.593   3.327  1.00  0.00    -0.354 N 
ATOM     35  C   UNL     1       8.727   7.561   0.032  1.00  0.00     0.074 A 
ATOM     36  C   UNL     1       8.356   6.805  -1.145  1.00  0.00     0.031 C 
ATOM     37  C   UNL     1       4.546   5.447   4.430  1.00  0.00     0.029 A 
ATOM     38  C   UNL     1       5.478   6.561   4.547  1.00  0.00     0.049 A 
ATOM     39  H   UNL     1       6.773   7.283   3.080  1.00  0.00     0.167 HD
ATOM     40  C   UNL     1       9.692   8.515   0.061  1.00  0.00     0.034 A 
ATOM     41  C   UNL     1       5.658   7.300   5.660  1.00  0.00     0.034 A 
ATOM     42  C   UNL     1      10.005   9.311   1.224  1.00  0.00     0.049 A 
ATOM     43  C   UNL     1       6.739   8.347   5.674  1.00  0.00     0.074 A 
ATOM     44  C   UNL     1      10.961  10.304   1.361  1.00  0.00     0.029 A 
ATOM     45  N   UNL     1       9.350   9.225   2.445  1.00  0.00    -0.354 N 
ATOM     46  N   UNL     1       7.572   8.684   4.717  1.00  0.00    -0.248 NA
ATOM     47  C   UNL     1       6.920   9.093   6.925  1.00  0.00     0.031 C 
ATOM     48  C   UNL     1      10.913  10.786   2.675  1.00  0.00     0.029 A 
ATOM     49  C   UNL     1       9.888  10.136   3.342  1.00  0.00     0.049 A 
ATOM     50  H   UNL     1       8.612   8.605   2.646  1.00  0.00     0.167 HD
ATOM     51  C   UNL     1       8.379   9.681   5.256  1.00  0.00     0.074 A 
ATOM     52  C   UNL     1       7.909   9.914   6.607  1.00  0.00     0.031 C 
ATOM     53  C   UNL     1       9.423  10.339   4.691  1.00  0.00     0.034 A 
BRANCH  40  54
ATOM     54  C   UNL     1      10.523   8.705  -1.186  1.00  0.00     0.023 A 
ATOM     55  C   UNL     1       9.985   9.217  -2.378  1.00  0.00     0.031 A 
ATOM     56  C   UNL     1      11.884   8.345  -1.178  1.00  0.00     0.131 A 
ATOM     57  C   UNL     1      10.787   9.297  -3.529  1.00  0.00     0.055 A 
ATOM     58  C   UNL     1      12.694   8.494  -2.305  1.00  0.00     0.041 A 
ATOM     59  F   UNL     1      12.448   7.832  -0.073  1.00  0.00    -0.206 F 
ATOM     60  C   UNL     1      12.143   8.961  -3.494  1.00  0.00     0.022 A 
BRANCH  57  61
ATOM     61  S   UNL     1      10.004   9.733  -5.106  1.00  0.00     0.124 S 
ATOM     62  O   UNL     1       9.033   8.653  -5.261  1.00  0.00    -0.237 OA
ATOM     63  O   UNL     1       9.451  11.054  -4.830  1.00  0.00    -0.237 OA
ATOM     64  O   UNL     1      11.112   9.707  -6.058  1.00  0.00    -0.744 OA
ENDBRANCH  57  61
ENDBRANCH  40  54
BRANCH  41  65
ATOM     65  C   UNL     1       4.862   7.018   6.890  1.00  0.00     0.023 A 
ATOM     66  C   UNL     1       3.981   7.973   7.421  1.00  0.00     0.031 A 
ATOM     67  C   UNL     1       5.003   5.798   7.577  1.00  0.00     0.131 A 
ATOM     68  C   UNL     1       3.300   7.707   8.619  1.00  0.00     0.055 A 
ATOM     69  C   UNL     1       4.281   5.515   8.737  1.00  0.00     0.041 A 
ATOM     70  F   UNL     1       5.835   4.851   7.116  1.00  0.00    -0.206 F 
ATOM     71  C   UNL     1       3.432   6.478   9.272  1.00  0.00     0.022 A 
BRANCH  68  72
ATOM     72  S   UNL     1       2.300   9.024   9.364  1.00  0.00     0.124 S 
ATOM     73  O   UNL     1       3.280  10.093   9.517  1.00  0.00    -0.237 OA
ATOM     74  O   UNL     1       1.274   9.235   8.348  1.00  0.00    -0.237 OA
ATOM     75  O   UNL     1       1.826   8.428  10.611  1.00  0.00    -0.744 OA
ENDBRANCH  68  72
ENDBRANCH  41  65
BRANCH  53  76
ATOM     76  C   UNL     1      10.098  11.384   5.540  1.00  0.00     0.023 A 
ATOM     77  C   UNL     1      10.869  11.030   6.661  1.00  0.00     0.031 A 
ATOM     78  C   UNL     1       9.930  12.749   5.251  1.00  0.00     0.131 A 
ATOM     79  C   UNL     1      11.398  12.033   7.487  1.00  0.00     0.055 A 
ATOM     80  C   UNL     1      10.501  13.741   6.048  1.00  0.00     0.041 A 
ATOM     81  F   UNL     1       9.200  13.138   4.193  1.00  0.00    -0.206 F 
ATOM     82  C   UNL     1      11.228  13.386   7.182  1.00  0.00     0.022 A 
BRANCH  79  83
ATOM     83  S   UNL     1      12.236  11.545   9.021  1.00  0.00     0.124 S 
ATOM     84  O   UNL     1      11.192  10.797   9.713  1.00  0.00    -0.237 OA
ATOM     85  O   UNL     1      13.362  10.760   8.525  1.00  0.00    -0.237 OA
ATOM     86  O   UNL     1      12.596  12.822   9.636  1.00  0.00    -0.744 OA
ENDBRANCH  79  83
ENDBRANCH  53  76
ENDBRANCH  27  28
ENDBRANCH  20  22
ENDBRANCH  19  20
ENDBRANCH   1  19
TORSDOF 18
