REMARK SMILES CS(=O)(=O)Nc1ccc(-c2cc(Cl)cc3c2O[C@H](C(F)(F)F)C(C(=O)OCCOC(=O)c2ccc(-c4c5nc(c(-c6cc(S(=O)(=O)[O-])ccc6F)c6ccc([nH]6)c(-c6cc(S(=O)(=O)[O-])ccc6F)c6nc(c(-c7cc(S(=O)(=O)[O-])ccc7F)c7ccc4[nH]7)C=C6)C=C5)cc2)=C3)cc1
REMARK SMILES IDX 27 1 26 2 24 3 25 4 23 5 10 6 11 7 16 8 12 9 15 10 17 11
REMARK SMILES IDX 13 12 14 13 95 14 18 15 9 16 6 17 7 18 97 19 8 20 96 21 5 22
REMARK SMILES IDX 2 24 1 25 3 26 4 27 19 28 20 29 21 30 22 31 28 32 29 33
REMARK SMILES IDX 30 34 31 35 32 36 33 37 94 38 34 39 93 40 35 41 36 42 37 43
REMARK SMILES IDX 87 44 38 45 92 46 86 47 88 48 39 49 91 50 85 51 84 52 40 54
REMARK SMILES IDX 72 55 52 56 71 57 53 58 56 59 70 60 89 61 54 62 55 63 69 65
REMARK SMILES IDX 90 66 57 67 41 68 42 69 50 70 43 71 49 72 51 73 48 74 44 75
REMARK SMILES IDX 45 76 46 77 47 78 73 79 74 80 82 81 75 82 81 83 83 84 80 85
REMARK SMILES IDX 76 86 77 87 78 88 79 89 58 90 59 91 67 92 60 93 66 94 68 95
REMARK SMILES IDX 65 96 61 97 62 98 63 99 64 100
REMARK H PARENT 5 23 88 53 56 64
REMARK Flexibility Score: inf
ROOT
ATOM      1  C   UNL     1       9.296   9.594   1.945  1.00  0.00     0.275 C 
ENDROOT
BRANCH   1   2
ATOM      2  O   UNL     1       9.370   8.306   1.283  1.00  0.00    -0.459 OA
BRANCH   2   3
ATOM      3  C   UNL     1       9.566   7.272   2.143  1.00  0.00     0.338 C 
ATOM      4  O   UNL     1       9.664   7.402   3.360  1.00  0.00    -0.246 OA
BRANCH   3   5
ATOM      5  C   UNL     1       9.640   5.933   1.501  1.00  0.00     0.087 C 
ATOM      6  C   UNL     1       6.180   4.234   0.268  1.00  0.00     0.026 A 
ATOM      7  C   UNL     1       5.264   4.898   1.125  1.00  0.00     0.033 A 
ATOM      8  C   UNL     1       7.520   4.419   0.620  1.00  0.00     0.135 A 
ATOM      9  C   UNL     1       5.636   5.518   2.324  1.00  0.00     0.042 A 
ATOM     10  C   UNL     1       7.840   4.796   1.950  1.00  0.00     0.019 A 
ATOM     11  O   UNL     1       8.570   4.497  -0.291  1.00  0.00    -0.475 OA
ATOM     12  Cl  UNL     1       4.626   6.556   3.243  1.00  0.00    -0.084 Cl
ATOM     13  C   UNL     1       6.905   5.343   2.805  1.00  0.00     0.032 A 
ATOM     14  C   UNL     1       9.259   4.939   2.321  1.00  0.00     0.027 C 
ATOM     15  C   UNL     1       9.498   5.657   0.013  1.00  0.00     0.316 C 
BRANCH   6  16
ATOM     16  C   UNL     1       5.544   3.255  -0.681  1.00  0.00    -0.014 A 
ATOM     17  C   UNL     1       3.297   1.786  -1.732  1.00  0.00     0.048 A 
ATOM     18  C   UNL     1       3.778   2.932  -2.369  1.00  0.00     0.027 A 
ATOM     19  C   UNL     1       4.029   1.294  -0.658  1.00  0.00     0.027 A 
ATOM     20  C   UNL     1       4.922   3.618  -1.885  1.00  0.00     0.011 A 
ATOM     21  C   UNL     1       5.126   2.019  -0.142  1.00  0.00     0.011 A 
BRANCH  17  22
ATOM     22  N   UNL     1       2.011   1.285  -2.093  1.00  0.00    -0.284 N 
ATOM     23  H   UNL     1       1.331   1.943  -2.363  1.00  0.00     0.180 HD
BRANCH  22  24
ATOM     24  S   UNL     1       1.560  -0.324  -2.097  1.00  0.00     0.229 S 
ATOM     25  C   UNL     1       1.141  -0.644  -0.396  1.00  0.00     0.183 C 
ATOM     26  O   UNL     1       2.692  -1.143  -2.464  1.00  0.00    -0.207 OA
ATOM     27  O   UNL     1       0.325  -0.384  -2.855  1.00  0.00    -0.207 OA
ENDBRANCH  22  24
ENDBRANCH  17  22
ENDBRANCH   6  16
BRANCH  15  28
ATOM     28  C   UNL     1      10.922   5.361  -0.475  1.00  0.00     0.430 C 
ATOM     29  F   UNL     1      11.411   4.217   0.064  1.00  0.00    -0.167 F 
ATOM     30  F   UNL     1      11.004   5.252  -1.816  1.00  0.00    -0.167 F 
ATOM     31  F   UNL     1      11.776   6.355  -0.108  1.00  0.00    -0.167 F 
ENDBRANCH  15  28
ENDBRANCH   3   5
ENDBRANCH   2   3
ENDBRANCH   1   2
BRANCH   1  32
ATOM     32  C   UNL     1       8.367  10.595   1.249  1.00  0.00     0.275 C 
BRANCH  32  33
ATOM     33  O   UNL     1       7.049  10.053   1.048  1.00  0.00    -0.458 OA
BRANCH  33  34
ATOM     34  C   UNL     1       6.874   9.490  -0.173  1.00  0.00     0.338 C 
ATOM     35  O   UNL     1       7.714   9.452  -1.062  1.00  0.00    -0.246 OA
BRANCH  34  36
ATOM     36  C   UNL     1       5.568   8.790  -0.279  1.00  0.00     0.060 A 
ATOM     37  C   UNL     1       5.528   7.707  -1.148  1.00  0.00     0.016 A 
ATOM     38  C   UNL     1       4.397   9.150   0.404  1.00  0.00     0.016 A 
ATOM     39  C   UNL     1       4.350   6.973  -1.286  1.00  0.00     0.010 A 
ATOM     40  C   UNL     1       3.209   8.386   0.261  1.00  0.00     0.010 A 
ATOM     41  C   UNL     1       3.176   7.255  -0.565  1.00  0.00    -0.014 A 
BRANCH  41  42
ATOM     42  C   UNL     1       1.987   6.346  -0.796  1.00  0.00     0.031 A 
ATOM     43  C   UNL     1       1.453   6.217  -2.195  1.00  0.00     0.074 A 
ATOM     44  C   UNL     1       1.515   5.476   0.130  1.00  0.00     0.049 A 
ATOM     45  N   UNL     1       0.611   5.341  -2.678  1.00  0.00    -0.248 NA
ATOM     46  C   UNL     1       1.950   7.192  -3.177  1.00  0.00     0.031 C 
ATOM     47  C   UNL     1       1.960   5.428   1.506  1.00  0.00     0.029 A 
ATOM     48  N   UNL     1       0.638   4.409   0.061  1.00  0.00    -0.354 N 
ATOM     49  C   UNL     1       0.480   5.655  -4.022  1.00  0.00     0.074 A 
ATOM     50  C   UNL     1       1.361   6.774  -4.285  1.00  0.00     0.031 C 
ATOM     51  C   UNL     1       1.539   4.301   2.096  1.00  0.00     0.029 A 
ATOM     52  C   UNL     1       0.592   3.635   1.213  1.00  0.00     0.049 A 
ATOM     53  H   UNL     1       0.093   4.215  -0.736  1.00  0.00     0.167 HD
ATOM     54  C   UNL     1      -0.334   5.097  -4.948  1.00  0.00     0.034 A 
ATOM     55  C   UNL     1      -0.156   2.557   1.552  1.00  0.00     0.034 A 
ATOM     56  C   UNL     1      -1.306   4.075  -4.665  1.00  0.00     0.049 A 
ATOM     57  C   UNL     1      -1.184   2.083   0.547  1.00  0.00     0.074 A 
ATOM     58  C   UNL     1      -2.245   3.530  -5.522  1.00  0.00     0.029 A 
ATOM     59  N   UNL     1      -1.501   3.474  -3.430  1.00  0.00    -0.354 N 
ATOM     60  N   UNL     1      -1.324   2.432  -0.711  1.00  0.00    -0.248 NA
ATOM     61  C   UNL     1      -2.162   1.089   1.008  1.00  0.00     0.031 C 
ATOM     62  C   UNL     1      -3.050   2.652  -4.790  1.00  0.00     0.029 A 
ATOM     63  C   UNL     1      -2.550   2.570  -3.500  1.00  0.00     0.049 A 
ATOM     64  H   UNL     1      -0.972   3.661  -2.621  1.00  0.00     0.167 HD
ATOM     65  C   UNL     1      -2.405   1.692  -1.190  1.00  0.00     0.074 A 
ATOM     66  C   UNL     1      -2.840   0.841  -0.103  1.00  0.00     0.031 C 
ATOM     67  C   UNL     1      -2.991   1.725  -2.414  1.00  0.00     0.034 A 
BRANCH  54  68
ATOM     68  C   UNL     1      -0.279   5.697  -6.324  1.00  0.00     0.023 A 
ATOM     69  C   UNL     1       0.856   5.556  -7.139  1.00  0.00     0.031 A 
ATOM     70  C   UNL     1      -1.340   6.495  -6.785  1.00  0.00     0.131 A 
ATOM     71  C   UNL     1       0.930   6.261  -8.348  1.00  0.00     0.055 A 
ATOM     72  C   UNL     1      -1.290   7.131  -8.024  1.00  0.00     0.041 A 
ATOM     73  F   UNL     1      -2.425   6.696  -6.021  1.00  0.00    -0.206 F 
ATOM     74  C   UNL     1      -0.144   7.028  -8.807  1.00  0.00     0.022 A 
BRANCH  71  75
ATOM     75  S   UNL     1       2.517   6.302  -9.225  1.00  0.00     0.124 S 
ATOM     76  O   UNL     1       3.407   6.837  -8.196  1.00  0.00    -0.237 OA
ATOM     77  O   UNL     1       2.716   4.903  -9.579  1.00  0.00    -0.237 OA
ATOM     78  O   UNL     1       2.263   7.203 -10.347  1.00  0.00    -0.744 OA
ENDBRANCH  71  75
ENDBRANCH  54  68
BRANCH  55  79
ATOM     79  C   UNL     1      -0.061   1.886   2.904  1.00  0.00     0.023 A 
ATOM     80  C   UNL     1       0.091   0.490   3.035  1.00  0.00     0.031 A 
ATOM     81  C   UNL     1      -0.220   2.610   4.101  1.00  0.00     0.131 A 
ATOM     82  C   UNL     1       0.060  -0.127   4.301  1.00  0.00     0.055 A 
ATOM     83  C   UNL     1      -0.178   2.003   5.362  1.00  0.00     0.041 A 
ATOM     84  F   UNL     1      -0.433   3.935   4.073  1.00  0.00    -0.206 F 
ATOM     85  C   UNL     1      -0.051   0.625   5.468  1.00  0.00     0.022 A 
BRANCH  82  86
ATOM     86  S   UNL     1       0.043  -1.942   4.391  1.00  0.00     0.124 S 
ATOM     87  O   UNL     1      -1.077  -2.270   3.517  1.00  0.00    -0.237 OA
ATOM     88  O   UNL     1       1.369  -2.275   3.882  1.00  0.00    -0.237 OA
ATOM     89  O   UNL     1      -0.169  -2.211   5.811  1.00  0.00    -0.744 OA
ENDBRANCH  82  86
ENDBRANCH  55  79
BRANCH  67  90
ATOM     90  C   UNL     1      -4.140   0.774  -2.664  1.00  0.00     0.023 A 
ATOM     91  C   UNL     1      -5.354   0.866  -1.960  1.00  0.00     0.031 A 
ATOM     92  C   UNL     1      -4.015  -0.246  -3.626  1.00  0.00     0.131 A 
ATOM     93  C   UNL     1      -6.369  -0.079  -2.184  1.00  0.00     0.055 A 
ATOM     94  C   UNL     1      -5.053  -1.141  -3.892  1.00  0.00     0.041 A 
ATOM     95  F   UNL     1      -2.886  -0.382  -4.338  1.00  0.00    -0.206 F 
ATOM     96  C   UNL     1      -6.233  -1.069  -3.160  1.00  0.00     0.022 A 
BRANCH  93  97
ATOM     97  S   UNL     1      -7.838  -0.051  -1.120  1.00  0.00     0.124 S 
ATOM     98  O   UNL     1      -7.259  -0.270   0.201  1.00  0.00    -0.237 OA
ATOM     99  O   UNL     1      -8.378   1.283  -1.365  1.00  0.00    -0.237 OA
ATOM    100  O   UNL     1      -8.654  -1.151  -1.631  1.00  0.00    -0.744 OA
ENDBRANCH  93  97
ENDBRANCH  67  90
ENDBRANCH  41  42
ENDBRANCH  34  36
ENDBRANCH  33  34
ENDBRANCH  32  33
ENDBRANCH   1  32
TORSDOF 18
