REMARK SMILES O=C(OCCOC(=O)[C@@H]1[C@@H](C(=O)Nc2cccc([N+](=O)[O-])c2)[C@@H]2C=C[C@H]1O2)c1ccc(-c2c3nc(c(-c4cc(S(=O)(=O)[O-])ccc4F)c4ccc([nH]4)c(-c4cc(S(=O)(=O)[O-])ccc4F)c4nc(c(-c5cc(S(=O)(=O)[O-])ccc5F)c5ccc2[nH]5)C=C4)C=C3)cc1
REMARK SMILES IDX 4 1 3 2 2 3 1 4 28 5 29 6 90 7 30 8 89 9 31 10 32 11 33 12
REMARK SMILES IDX 83 13 34 14 88 15 82 16 84 17 35 18 87 19 81 20 80 21 36 23
REMARK SMILES IDX 68 24 48 25 67 26 49 27 52 28 66 29 85 30 50 31 51 32 65 34
REMARK SMILES IDX 86 35 53 36 37 37 38 38 46 39 39 40 45 41 47 42 44 43 40 44
REMARK SMILES IDX 41 45 42 46 43 47 69 48 70 49 78 50 71 51 77 52 79 53 76 54
REMARK SMILES IDX 72 55 73 56 74 57 75 58 54 59 55 60 63 61 56 62 62 63 64 64
REMARK SMILES IDX 61 65 57 66 58 67 59 68 60 69 5 70 6 71 7 72 8 73 9 74 10 75
REMARK SMILES IDX 26 76 23 77 25 78 27 79 24 80 11 81 12 82 13 83 14 85 15 86
REMARK SMILES IDX 22 87 16 88 18 89 17 90 19 91 20 92 21 93
REMARK H PARENT 84 22 52 33 13 84
REMARK Flexibility Score: inf
ROOT
ATOM      1  C   UNL     1       3.919  -0.329   1.363  1.00  0.00     0.275 C 
ENDROOT
BRANCH   1   2
ATOM      2  O   UNL     1       2.710   0.417   1.040  1.00  0.00    -0.458 OA
BRANCH   2   3
ATOM      3  C   UNL     1       2.588   1.741   0.713  1.00  0.00     0.338 C 
ATOM      4  O   UNL     1       1.750   2.433   1.285  1.00  0.00    -0.246 OA
BRANCH   3   5
ATOM      5  C   UNL     1       3.167   2.245  -0.587  1.00  0.00     0.060 A 
ATOM      6  C   UNL     1       4.386   1.871  -1.078  1.00  0.00     0.016 A 
ATOM      7  C   UNL     1       2.479   3.160  -1.406  1.00  0.00     0.016 A 
ATOM      8  C   UNL     1       4.726   2.165  -2.423  1.00  0.00     0.010 A 
ATOM      9  C   UNL     1       2.831   3.374  -2.799  1.00  0.00     0.010 A 
ATOM     10  C   UNL     1       3.900   2.704  -3.405  1.00  0.00    -0.014 A 
BRANCH  10  11
ATOM     11  C   UNL     1       4.469   2.848  -4.853  1.00  0.00     0.031 A 
ATOM     12  C   UNL     1       5.308   4.089  -5.038  1.00  0.00     0.074 A 
ATOM     13  C   UNL     1       4.510   1.972  -5.923  1.00  0.00     0.049 A 
ATOM     14  N   UNL     1       6.019   4.473  -6.067  1.00  0.00    -0.248 NA
ATOM     15  C   UNL     1       5.355   4.998  -3.886  1.00  0.00     0.031 C 
ATOM     16  C   UNL     1       3.922   0.649  -6.039  1.00  0.00     0.029 A 
ATOM     17  N   UNL     1       5.160   2.039  -7.173  1.00  0.00    -0.354 N 
ATOM     18  C   UNL     1       6.590   5.676  -5.686  1.00  0.00     0.074 A 
ATOM     19  C   UNL     1       6.109   5.970  -4.354  1.00  0.00     0.031 C 
ATOM     20  C   UNL     1       4.258   0.015  -7.166  1.00  0.00     0.029 A 
ATOM     21  C   UNL     1       5.034   0.904  -7.986  1.00  0.00     0.049 A 
ATOM     22  H   UNL     1       5.670   2.832  -7.456  1.00  0.00     0.167 HD
ATOM     23  C   UNL     1       7.443   6.482  -6.360  1.00  0.00     0.034 A 
ATOM     24  C   UNL     1       5.432   0.544  -9.237  1.00  0.00     0.034 A 
ATOM     25  C   UNL     1       7.878   6.283  -7.711  1.00  0.00     0.049 A 
ATOM     26  C   UNL     1       6.212   1.542 -10.039  1.00  0.00     0.074 A 
ATOM     27  C   UNL     1       8.640   7.136  -8.489  1.00  0.00     0.029 A 
ATOM     28  N   UNL     1       7.568   5.190  -8.505  1.00  0.00    -0.354 N 
ATOM     29  N   UNL     1       6.694   2.694  -9.645  1.00  0.00    -0.248 NA
ATOM     30  C   UNL     1       6.486   1.220 -11.447  1.00  0.00     0.031 C 
ATOM     31  C   UNL     1       8.716   6.603  -9.777  1.00  0.00     0.029 A 
ATOM     32  C   UNL     1       8.083   5.372  -9.780  1.00  0.00     0.049 A 
ATOM     33  H   UNL     1       7.058   4.402  -8.208  1.00  0.00     0.167 HD
ATOM     34  C   UNL     1       7.331   3.233 -10.756  1.00  0.00     0.074 A 
ATOM     35  C   UNL     1       7.204   2.267 -11.826  1.00  0.00     0.031 C 
ATOM     36  C   UNL     1       7.955   4.430 -10.865  1.00  0.00     0.034 A 
BRANCH  23  37
ATOM     37  C   UNL     1       7.830   7.734  -5.623  1.00  0.00     0.023 A 
ATOM     38  C   UNL     1       8.577   7.666  -4.434  1.00  0.00     0.031 A 
ATOM     39  C   UNL     1       7.248   8.959  -5.987  1.00  0.00     0.131 A 
ATOM     40  C   UNL     1       8.595   8.773  -3.577  1.00  0.00     0.055 A 
ATOM     41  C   UNL     1       7.370  10.087  -5.181  1.00  0.00     0.041 A 
ATOM     42  F   UNL     1       6.489   9.053  -7.090  1.00  0.00    -0.206 F 
ATOM     43  C   UNL     1       8.020   9.990  -3.953  1.00  0.00     0.022 A 
BRANCH  40  44
ATOM     44  S   UNL     1       9.129   8.507  -1.862  1.00  0.00     0.124 S 
ATOM     45  O   UNL     1       8.211   7.453  -1.432  1.00  0.00    -0.237 OA
ATOM     46  O   UNL     1      10.522   8.110  -2.026  1.00  0.00    -0.237 OA
ATOM     47  O   UNL     1       8.914   9.807  -1.233  1.00  0.00    -0.744 OA
ENDBRANCH  40  44
ENDBRANCH  23  37
BRANCH  24  48
ATOM     48  C   UNL     1       5.030  -0.782  -9.874  1.00  0.00     0.023 A 
ATOM     49  C   UNL     1       5.965  -1.707 -10.396  1.00  0.00     0.031 A 
ATOM     50  C   UNL     1       3.667  -1.112 -10.037  1.00  0.00     0.131 A 
ATOM     51  C   UNL     1       5.525  -2.887 -11.041  1.00  0.00     0.055 A 
ATOM     52  C   UNL     1       3.239  -2.310 -10.620  1.00  0.00     0.041 A 
ATOM     53  F   UNL     1       2.712  -0.267  -9.615  1.00  0.00    -0.206 F 
ATOM     54  C   UNL     1       4.170  -3.204 -11.132  1.00  0.00     0.022 A 
BRANCH  51  55
ATOM     55  S   UNL     1       6.737  -3.985 -11.850  1.00  0.00     0.124 S 
ATOM     56  O   UNL     1       7.380  -3.078 -12.793  1.00  0.00    -0.237 OA
ATOM     57  O   UNL     1       7.551  -4.423 -10.721  1.00  0.00    -0.237 OA
ATOM     58  O   UNL     1       5.907  -5.026 -12.456  1.00  0.00    -0.744 OA
ENDBRANCH  51  55
ENDBRANCH  24  48
BRANCH  36  59
ATOM     59  C   UNL     1       8.581   4.772 -12.190  1.00  0.00     0.023 A 
ATOM     60  C   UNL     1       7.803   4.996 -13.338  1.00  0.00     0.031 A 
ATOM     61  C   UNL     1       9.976   4.907 -12.296  1.00  0.00     0.131 A 
ATOM     62  C   UNL     1       8.429   5.308 -14.553  1.00  0.00     0.055 A 
ATOM     63  C   UNL     1      10.589   5.279 -13.493  1.00  0.00     0.041 A 
ATOM     64  F   UNL     1      10.766   4.695 -11.231  1.00  0.00    -0.206 F 
ATOM     65  C   UNL     1       9.815   5.474 -14.633  1.00  0.00     0.022 A 
BRANCH  62  66
ATOM     66  S   UNL     1       7.413   5.425 -16.051  1.00  0.00     0.124 S 
ATOM     67  O   UNL     1       6.862   4.077 -16.145  1.00  0.00    -0.237 OA
ATOM     68  O   UNL     1       6.466   6.479 -15.706  1.00  0.00    -0.237 OA
ATOM     69  O   UNL     1       8.378   5.776 -17.092  1.00  0.00    -0.744 OA
ENDBRANCH  62  66
ENDBRANCH  36  59
ENDBRANCH  10  11
ENDBRANCH   3   5
ENDBRANCH   2   3
ENDBRANCH   1   2
BRANCH   1  70
ATOM     70  C   UNL     1       3.898  -1.723   0.720  1.00  0.00     0.274 C 
BRANCH  70  71
ATOM     71  O   UNL     1       3.543  -1.636  -0.656  1.00  0.00    -0.462 OA
BRANCH  71  72
ATOM     72  C   UNL     1       2.237  -1.868  -0.962  1.00  0.00     0.312 C 
ATOM     73  O   UNL     1       1.367  -2.244  -0.174  1.00  0.00    -0.252 OA
BRANCH  72  74
ATOM     74  C   UNL     1       2.029  -1.675  -2.418  1.00  0.00     0.147 C 
ATOM     75  C   UNL     1       2.960  -0.545  -2.988  1.00  0.00     0.129 C 
ATOM     76  C   UNL     1       0.618  -1.221  -2.777  1.00  0.00     0.157 C 
ATOM     77  C   UNL     1       1.828   0.280  -3.751  1.00  0.00     0.155 C 
ATOM     78  C   UNL     1       0.198   0.077  -2.166  1.00  0.00     0.004 C 
ATOM     79  O   UNL     1       0.904  -0.767  -4.135  1.00  0.00    -0.365 OA
ATOM     80  C   UNL     1       0.882   1.002  -2.831  1.00  0.00     0.004 C 
BRANCH  75  81
ATOM     81  C   UNL     1       4.273  -1.262  -3.608  1.00  0.00     0.231 C 
ATOM     82  O   UNL     1       4.205  -2.453  -3.943  1.00  0.00    -0.274 OA
ATOM     83  N   UNL     1       5.443  -0.615  -3.979  1.00  0.00    -0.325 N 
ATOM     84  H   UNL     1       5.520  -0.533  -4.957  1.00  0.00     0.169 HD
BRANCH  83  85
ATOM     85  C   UNL     1       6.563  -0.035  -3.310  1.00  0.00     0.048 A 
ATOM     86  C   UNL     1       7.335   0.896  -4.057  1.00  0.00     0.026 A 
ATOM     87  C   UNL     1       6.855  -0.183  -1.954  1.00  0.00     0.111 A 
ATOM     88  C   UNL     1       8.173   1.835  -3.421  1.00  0.00     0.009 A 
ATOM     89  C   UNL     1       7.744   0.737  -1.327  1.00  0.00     0.271 A 
ATOM     90  C   UNL     1       8.351   1.783  -2.041  1.00  0.00     0.086 A 
BRANCH  89  91
ATOM     91  N   UNL     1       7.898   0.701   0.134  1.00  0.00     0.062 N 
ATOM     92  O   UNL     1       8.378   1.692   0.700  1.00  0.00    -0.258 OA
ATOM     93  O   UNL     1       7.483  -0.307   0.726  1.00  0.00    -0.258 OA
ENDBRANCH  89  91
ENDBRANCH  83  85
ENDBRANCH  75  81
ENDBRANCH  72  74
ENDBRANCH  71  72
ENDBRANCH  70  71
ENDBRANCH   1  70
TORSDOF 17
