REMARK SMILES O=C(OCCOC(=O)[C@H](CCc1ccccn1)c1ccccc1Br)c1ccc(-c2c3nc(c(-c4cc(S(=O)(=O)[O-])ccc4F)c4ccc([nH]4)c(-c4cc(S(=O)(=O)[O-])ccc4F)c4nc(c(-c5cc(S(=O)(=O)[O-])ccc5F)c5ccc2[nH]5)C=C4)C=C3)cc1
REMARK SMILES IDX 4 1 3 2 2 3 1 4 25 5 26 6 87 7 27 8 86 9 28 10 29 11 30 12
REMARK SMILES IDX 80 13 31 14 85 15 79 16 81 17 32 18 84 19 78 20 77 21 33 23
REMARK SMILES IDX 65 24 45 25 64 26 46 27 49 28 63 29 82 30 47 31 48 32 62 34
REMARK SMILES IDX 83 35 50 36 34 37 35 38 43 39 36 40 42 41 44 42 41 43 37 44
REMARK SMILES IDX 38 45 39 46 40 47 66 48 67 49 75 50 68 51 74 52 76 53 73 54
REMARK SMILES IDX 69 55 70 56 71 57 72 58 51 59 52 60 60 61 53 62 59 63 61 64
REMARK SMILES IDX 58 65 54 66 55 67 56 68 57 69 5 70 6 71 7 72 8 73 9 74 18 75
REMARK SMILES IDX 19 76 23 77 20 78 22 79 24 80 21 81 10 82 11 83 12 84 13 85
REMARK SMILES IDX 17 86 14 87 16 88 15 89
REMARK H PARENT 81 22 49 33
REMARK Flexibility Score: inf
ROOT
ATOM      1  C   UNL     1       3.171   1.281   5.154  1.00  0.00     0.275 C 
ENDROOT
BRANCH   1   2
ATOM      2  O   UNL     1       2.742   0.168   4.358  1.00  0.00    -0.458 OA
BRANCH   2   3
ATOM      3  C   UNL     1       1.797   0.097   3.394  1.00  0.00     0.338 C 
ATOM      4  O   UNL     1       1.700  -0.968   2.783  1.00  0.00    -0.246 OA
BRANCH   3   5
ATOM      5  C   UNL     1       0.911   1.236   2.955  1.00  0.00     0.060 A 
ATOM      6  C   UNL     1       0.795   2.508   3.527  1.00  0.00     0.016 A 
ATOM      7  C   UNL     1       0.152   0.995   1.800  1.00  0.00     0.016 A 
ATOM      8  C   UNL     1       0.017   3.516   2.936  1.00  0.00     0.010 A 
ATOM      9  C   UNL     1      -0.606   2.001   1.198  1.00  0.00     0.010 A 
ATOM     10  C   UNL     1      -0.686   3.273   1.758  1.00  0.00    -0.014 A 
BRANCH  10  11
ATOM     11  C   UNL     1      -1.666   4.270   1.262  1.00  0.00     0.031 A 
ATOM     12  C   UNL     1      -3.119   3.974   1.466  1.00  0.00     0.074 A 
ATOM     13  C   UNL     1      -1.272   5.430   0.703  1.00  0.00     0.049 A 
ATOM     14  N   UNL     1      -4.157   4.718   1.203  1.00  0.00    -0.248 NA
ATOM     15  C   UNL     1      -3.447   2.641   1.994  1.00  0.00     0.031 C 
ATOM     16  C   UNL     1       0.106   5.753   0.366  1.00  0.00     0.029 A 
ATOM     17  N   UNL     1      -1.964   6.560   0.345  1.00  0.00    -0.354 N 
ATOM     18  C   UNL     1      -5.259   3.930   1.506  1.00  0.00     0.074 A 
ATOM     19  C   UNL     1      -4.762   2.631   1.895  1.00  0.00     0.031 C 
ATOM     20  C   UNL     1       0.185   7.033  -0.034  1.00  0.00     0.029 A 
ATOM     21  C   UNL     1      -1.153   7.608  -0.044  1.00  0.00     0.049 A 
ATOM     22  H   UNL     1      -2.947   6.617   0.364  1.00  0.00     0.167 HD
ATOM     23  C   UNL     1      -6.568   4.272   1.487  1.00  0.00     0.034 A 
ATOM     24  C   UNL     1      -1.467   8.883  -0.362  1.00  0.00     0.034 A 
ATOM     25  C   UNL     1      -7.024   5.577   1.093  1.00  0.00     0.049 A 
ATOM     26  C   UNL     1      -2.933   9.252  -0.347  1.00  0.00     0.074 A 
ATOM     27  C   UNL     1      -8.318   6.053   1.006  1.00  0.00     0.029 A 
ATOM     28  N   UNL     1      -6.186   6.621   0.713  1.00  0.00    -0.354 N 
ATOM     29  N   UNL     1      -3.968   8.503  -0.032  1.00  0.00    -0.248 NA
ATOM     30  C   UNL     1      -3.278  10.622  -0.739  1.00  0.00     0.031 C 
ATOM     31  C   UNL     1      -8.264   7.364   0.520  1.00  0.00     0.029 A 
ATOM     32  C   UNL     1      -6.935   7.736   0.380  1.00  0.00     0.049 A 
ATOM     33  H   UNL     1      -5.203   6.574   0.686  1.00  0.00     0.167 HD
ATOM     34  C   UNL     1      -5.085   9.319  -0.172  1.00  0.00     0.074 A 
ATOM     35  C   UNL     1      -4.591  10.625  -0.564  1.00  0.00     0.031 C 
ATOM     36  C   UNL     1      -6.400   9.022  -0.006  1.00  0.00     0.034 A 
BRANCH  23  37
ATOM     37  C   UNL     1      -7.548   3.183   1.841  1.00  0.00     0.023 A 
ATOM     38  C   UNL     1      -7.524   2.555   3.102  1.00  0.00     0.031 A 
ATOM     39  C   UNL     1      -8.413   2.664   0.864  1.00  0.00     0.131 A 
ATOM     40  C   UNL     1      -8.252   1.374   3.307  1.00  0.00     0.055 A 
ATOM     41  C   UNL     1      -9.214   1.548   1.111  1.00  0.00     0.041 A 
ATOM     42  F   UNL     1      -8.455   3.201  -0.366  1.00  0.00    -0.206 F 
ATOM     43  C   UNL     1      -9.118   0.881   2.330  1.00  0.00     0.022 A 
BRANCH  40  44
ATOM     44  S   UNL     1      -7.886   0.382   4.783  1.00  0.00     0.124 S 
ATOM     45  O   UNL     1      -6.478   0.054   4.573  1.00  0.00    -0.237 OA
ATOM     46  O   UNL     1      -8.168   1.313   5.869  1.00  0.00    -0.237 OA
ATOM     47  O   UNL     1      -8.807  -0.747   4.673  1.00  0.00    -0.744 OA
ENDBRANCH  40  44
ENDBRANCH  23  37
BRANCH  24  48
ATOM     48  C   UNL     1      -0.422   9.897  -0.720  1.00  0.00     0.023 A 
ATOM     49  C   UNL     1      -0.285  11.093   0.011  1.00  0.00     0.031 A 
ATOM     50  C   UNL     1       0.411   9.729  -1.841  1.00  0.00     0.131 A 
ATOM     51  C   UNL     1       0.614  12.088  -0.415  1.00  0.00     0.055 A 
ATOM     52  C   UNL     1       1.349  10.694  -2.224  1.00  0.00     0.041 A 
ATOM     53  F   UNL     1       0.329   8.617  -2.589  1.00  0.00    -0.206 F 
ATOM     54  C   UNL     1       1.443  11.889  -1.520  1.00  0.00     0.022 A 
BRANCH  51  55
ATOM     55  S   UNL     1       0.612  13.696   0.430  1.00  0.00     0.124 S 
ATOM     56  O   UNL     1      -0.779  14.108   0.281  1.00  0.00    -0.237 OA
ATOM     57  O   UNL     1       1.033  13.329   1.778  1.00  0.00    -0.237 OA
ATOM     58  O   UNL     1       1.581  14.482  -0.330  1.00  0.00    -0.744 OA
ENDBRANCH  51  55
ENDBRANCH  24  48
BRANCH  36  59
ATOM     59  C   UNL     1      -7.378  10.152  -0.201  1.00  0.00     0.023 A 
ATOM     60  C   UNL     1      -7.571  10.755  -1.455  1.00  0.00     0.031 A 
ATOM     61  C   UNL     1      -8.122  10.632   0.891  1.00  0.00     0.131 A 
ATOM     62  C   UNL     1      -8.436  11.851  -1.573  1.00  0.00     0.055 A 
ATOM     63  C   UNL     1      -9.036  11.675   0.751  1.00  0.00     0.041 A 
ATOM     64  F   UNL     1      -7.973  10.091   2.111  1.00  0.00    -0.206 F 
ATOM     65  C   UNL     1      -9.185  12.301  -0.483  1.00  0.00     0.022 A 
BRANCH  62  66
ATOM     66  S   UNL     1      -8.480  12.754  -3.144  1.00  0.00     0.124 S 
ATOM     67  O   UNL     1      -7.081  13.134  -3.314  1.00  0.00    -0.237 OA
ATOM     68  O   UNL     1      -8.983  11.744  -4.070  1.00  0.00    -0.237 OA
ATOM     69  O   UNL     1      -9.396  13.861  -2.877  1.00  0.00    -0.744 OA
ENDBRANCH  62  66
ENDBRANCH  36  59
ENDBRANCH  10  11
ENDBRANCH   3   5
ENDBRANCH   2   3
ENDBRANCH   1   2
BRANCH   1  70
ATOM     70  C   UNL     1       4.133   2.213   4.411  1.00  0.00     0.274 C 
BRANCH  70  71
ATOM     71  O   UNL     1       3.652   2.584   3.107  1.00  0.00    -0.462 OA
BRANCH  71  72
ATOM     72  C   UNL     1       4.258   2.026   2.010  1.00  0.00     0.313 C 
ATOM     73  O   UNL     1       5.208   1.255   2.065  1.00  0.00    -0.252 OA
BRANCH  72  74
ATOM     74  C   UNL     1       3.592   2.536   0.718  1.00  0.00     0.131 C 
BRANCH  74  75
ATOM     75  C   UNL     1       4.053   3.971   0.433  1.00  0.00    -0.020 A 
ATOM     76  C   UNL     1       3.371   4.995   1.125  1.00  0.00     0.006 A 
ATOM     77  C   UNL     1       5.088   4.376  -0.426  1.00  0.00     0.022 A 
ATOM     78  C   UNL     1       3.590   6.348   0.860  1.00  0.00     0.000 A 
ATOM     79  C   UNL     1       5.262   5.734  -0.740  1.00  0.00     0.016 A 
ATOM     80  Br  UNL     1       6.419   3.211  -1.125  1.00  0.00    -0.051 Br
ATOM     81  C   UNL     1       4.498   6.716  -0.118  1.00  0.00     0.001 A 
ENDBRANCH  74  75
BRANCH  74  82
ATOM     82  C   UNL     1       3.684   1.520  -0.461  1.00  0.00     0.026 C 
BRANCH  82  83
ATOM     83  C   UNL     1       2.380   0.827  -0.905  1.00  0.00     0.057 C 
BRANCH  83  84
ATOM     84  C   UNL     1       1.312   1.627  -1.620  1.00  0.00     0.040 A 
ATOM     85  C   UNL     1       1.522   2.895  -2.152  1.00  0.00     0.024 A 
ATOM     86  N   UNL     1       0.113   0.999  -1.751  1.00  0.00    -0.261 NA
ATOM     87  C   UNL     1       0.462   3.562  -2.768  1.00  0.00     0.003 A 
ATOM     88  C   UNL     1      -0.901   1.672  -2.349  1.00  0.00     0.111 A 
ATOM     89  C   UNL     1      -0.780   2.950  -2.855  1.00  0.00     0.020 A 
ENDBRANCH  83  84
ENDBRANCH  82  83
ENDBRANCH  74  82
ENDBRANCH  72  74
ENDBRANCH  71  72
ENDBRANCH  70  71
ENDBRANCH   1  70
TORSDOF 18
