REMARK SMILES Cc1ccc(-c2cc(C(=O)OCCOC(=O)c3ccc(-c4c5nc(c(-c6cc(S(=O)(=O)[O-])ccc6F)c6ccc([nH]6)c(-c6cc(S(=O)(=O)[O-])ccc6F)c6nc(c(-c7cc(S(=O)(=O)[O-])ccc7F)c7ccc4[nH]7)C=C6)C=C5)cc3)c3cc(C)ccc3n2)c(C)c1
REMARK SMILES IDX 13 1 12 2 11 3 9 4 10 5 8 6 6 7 7 8 87 9 86 10 80 11 85 12
REMARK SMILES IDX 81 13 84 14 82 15 83 16 5 17 1 18 2 19 3 20 90 21 4 22 88 23
REMARK SMILES IDX 89 24 14 25 15 26 16 27 17 28 18 29 79 30 19 31 78 32 20 33
REMARK SMILES IDX 21 34 22 35 72 36 23 37 77 38 71 39 73 40 24 41 76 42 70 43
REMARK SMILES IDX 69 44 25 46 57 47 37 48 56 49 38 50 41 51 55 52 74 53 39 54
REMARK SMILES IDX 40 55 54 57 75 58 42 59 26 60 27 61 35 62 28 63 34 64 36 65
REMARK SMILES IDX 33 66 29 67 30 68 31 69 32 70 58 71 59 72 67 73 60 74 66 75
REMARK SMILES IDX 68 76 65 77 61 78 62 79 63 80 64 81 43 82 44 83 52 84 45 85
REMARK SMILES IDX 51 86 53 87 50 88 46 89 47 90 48 91 49 92
REMARK H PARENT 73 45 41 56
REMARK Flexibility Score: inf
ROOT
ATOM      1  C   UNL     1      -4.608  -6.895   3.340  1.00  0.00     0.275 C 
ENDROOT
BRANCH   1   2
ATOM      2  C   UNL     1      -5.552  -5.707   3.162  1.00  0.00     0.275 C 
BRANCH   2   3
ATOM      3  O   UNL     1      -5.190  -4.935   1.998  1.00  0.00    -0.458 OA
BRANCH   3   4
ATOM      4  C   UNL     1      -4.798  -3.653   2.214  1.00  0.00     0.339 C 
ATOM      5  O   UNL     1      -4.682  -3.105   3.293  1.00  0.00    -0.246 OA
BRANCH   4   6
ATOM      6  C   UNL     1      -4.413  -2.998   0.939  1.00  0.00     0.071 A 
ATOM      7  C   UNL     1      -2.771  -1.685  -0.212  1.00  0.00     0.072 A 
ATOM      8  C   UNL     1      -3.211  -2.292   0.948  1.00  0.00     0.045 A 
ATOM      9  N   UNL     1      -3.518  -1.677  -1.337  1.00  0.00    -0.248 NA
ATOM     10  C   UNL     1      -4.715  -2.292  -1.327  1.00  0.00     0.072 A 
ATOM     11  C   UNL     1      -5.222  -2.993  -0.212  1.00  0.00     0.015 A 
ATOM     12  C   UNL     1      -5.502  -2.208  -2.466  1.00  0.00     0.029 A 
ATOM     13  C   UNL     1      -6.505  -3.591  -0.300  1.00  0.00     0.014 A 
ATOM     14  C   UNL     1      -6.770  -2.795  -2.544  1.00  0.00     0.005 A 
ATOM     15  C   UNL     1      -7.281  -3.496  -1.457  1.00  0.00    -0.050 A 
ATOM     16  C   UNL     1      -8.620  -4.165  -1.508  1.00  0.00     0.044 C 
BRANCH   7  17
ATOM     17  C   UNL     1      -1.479  -0.983  -0.234  1.00  0.00     0.003 A 
ATOM     18  C   UNL     1       2.400   0.945   0.028  1.00  0.00     0.044 C 
ATOM     19  C   UNL     1       1.065   0.265  -0.072  1.00  0.00    -0.051 A 
ATOM     20  C   UNL     1       0.968  -1.121  -0.193  1.00  0.00     0.004 A 
ATOM     21  C   UNL     1      -0.111   1.024  -0.049  1.00  0.00     0.007 A 
ATOM     22  C   UNL     1      -0.286  -1.735  -0.275  1.00  0.00     0.011 A 
ATOM     23  C   UNL     1      -1.381   0.419  -0.115  1.00  0.00    -0.041 A 
ATOM     24  C   UNL     1      -2.587   1.317  -0.070  1.00  0.00     0.045 C 
ENDBRANCH   7  17
ENDBRANCH   4   6
ENDBRANCH   3   4
ENDBRANCH   2   3
ENDBRANCH   1   2
BRANCH   1  25
ATOM     25  O   UNL     1      -3.299  -6.429   3.711  1.00  0.00    -0.458 OA
BRANCH  25  26
ATOM     26  C   UNL     1      -2.412  -6.369   2.692  1.00  0.00     0.338 C 
ATOM     27  O   UNL     1      -2.576  -6.741   1.542  1.00  0.00    -0.246 OA
BRANCH  26  28
ATOM     28  C   UNL     1      -1.207  -5.656   3.131  1.00  0.00     0.060 A 
ATOM     29  C   UNL     1      -1.248  -4.268   3.128  1.00  0.00     0.016 A 
ATOM     30  C   UNL     1      -0.010  -6.321   3.364  1.00  0.00     0.016 A 
ATOM     31  C   UNL     1      -0.072  -3.530   3.211  1.00  0.00     0.010 A 
ATOM     32  C   UNL     1       1.153  -5.572   3.587  1.00  0.00     0.010 A 
ATOM     33  C   UNL     1       1.149  -4.167   3.466  1.00  0.00    -0.014 A 
BRANCH  33  34
ATOM     34  C   UNL     1       2.414  -3.377   3.569  1.00  0.00     0.031 A 
ATOM     35  C   UNL     1       3.598  -3.733   2.701  1.00  0.00     0.074 A 
ATOM     36  C   UNL     1       2.512  -2.334   4.422  1.00  0.00     0.049 A 
ATOM     37  N   UNL     1       4.843  -3.341   2.793  1.00  0.00    -0.248 NA
ATOM     38  C   UNL     1       3.348  -4.670   1.594  1.00  0.00     0.031 C 
ATOM     39  C   UNL     1       1.432  -1.825   5.272  1.00  0.00     0.029 A 
ATOM     40  N   UNL     1       3.572  -1.509   4.718  1.00  0.00    -0.354 N 
ATOM     41  C   UNL     1       5.534  -4.020   1.792  1.00  0.00     0.074 A 
ATOM     42  C   UNL     1       4.571  -4.866   1.121  1.00  0.00     0.031 C 
ATOM     43  C   UNL     1       1.869  -0.756   5.954  1.00  0.00     0.029 A 
ATOM     44  C   UNL     1       3.290  -0.575   5.692  1.00  0.00     0.049 A 
ATOM     45  H   UNL     1       4.449  -1.578   4.276  1.00  0.00     0.167 HD
ATOM     46  C   UNL     1       6.848  -3.939   1.464  1.00  0.00     0.034 A 
ATOM     47  C   UNL     1       4.091   0.287   6.350  1.00  0.00     0.034 A 
ATOM     48  C   UNL     1       7.787  -3.059   2.118  1.00  0.00     0.049 A 
ATOM     49  C   UNL     1       5.564   0.294   6.027  1.00  0.00     0.074 A 
ATOM     50  C   UNL     1       9.143  -2.909   1.877  1.00  0.00     0.029 A 
ATOM     51  N   UNL     1       7.467  -2.165   3.131  1.00  0.00    -0.354 N 
ATOM     52  N   UNL     1       6.218  -0.415   5.135  1.00  0.00    -0.248 NA
ATOM     53  C   UNL     1       6.409   1.208   6.805  1.00  0.00     0.031 C 
ATOM     54  C   UNL     1       9.651  -1.970   2.779  1.00  0.00     0.029 A 
ATOM     55  C   UNL     1       8.600  -1.473   3.532  1.00  0.00     0.049 A 
ATOM     56  H   UNL     1       6.567  -2.040   3.510  1.00  0.00     0.167 HD
ATOM     57  C   UNL     1       7.545  -0.002   5.226  1.00  0.00     0.074 A 
ATOM     58  C   UNL     1       7.592   1.030   6.239  1.00  0.00     0.031 C 
ATOM     59  C   UNL     1       8.629  -0.439   4.536  1.00  0.00     0.034 A 
BRANCH  46  60
ATOM     60  C   UNL     1       7.361  -4.855   0.377  1.00  0.00     0.023 A 
ATOM     61  C   UNL     1       6.935  -4.736  -0.957  1.00  0.00     0.031 A 
ATOM     62  C   UNL     1       8.298  -5.859   0.681  1.00  0.00     0.131 A 
ATOM     63  C   UNL     1       7.403  -5.640  -1.924  1.00  0.00     0.055 A 
ATOM     64  C   UNL     1       8.818  -6.706  -0.300  1.00  0.00     0.041 A 
ATOM     65  F   UNL     1       8.727  -6.035   1.941  1.00  0.00    -0.206 F 
ATOM     66  C   UNL     1       8.362  -6.606  -1.611  1.00  0.00     0.022 A 
BRANCH  63  67
ATOM     67  S   UNL     1       6.651  -5.611  -3.574  1.00  0.00     0.124 S 
ATOM     68  O   UNL     1       5.255  -5.909  -3.264  1.00  0.00    -0.237 OA
ATOM     69  O   UNL     1       6.931  -4.253  -4.025  1.00  0.00    -0.237 OA
ATOM     70  O   UNL     1       7.361  -6.667  -4.293  1.00  0.00    -0.744 OA
ENDBRANCH  63  67
ENDBRANCH  46  60
BRANCH  47  71
ATOM     71  C   UNL     1       3.553   1.163   7.435  1.00  0.00     0.023 A 
ATOM     72  C   UNL     1       3.680   2.559   7.365  1.00  0.00     0.031 A 
ATOM     73  C   UNL     1       2.986   0.616   8.602  1.00  0.00     0.131 A 
ATOM     74  C   UNL     1       3.315   3.353   8.464  1.00  0.00     0.055 A 
ATOM     75  C   UNL     1       2.549   1.416   9.659  1.00  0.00     0.041 A 
ATOM     76  F   UNL     1       2.848  -0.713   8.735  1.00  0.00    -0.206 F 
ATOM     77  C   UNL     1       2.733   2.793   9.602  1.00  0.00     0.022 A 
BRANCH  74  78
ATOM     78  S   UNL     1       3.755   5.112   8.442  1.00  0.00     0.124 S 
ATOM     79  O   UNL     1       5.191   5.054   8.192  1.00  0.00    -0.237 OA
ATOM     80  O   UNL     1       2.933   5.616   7.346  1.00  0.00    -0.237 OA
ATOM     81  O   UNL     1       3.370   5.575   9.773  1.00  0.00    -0.744 OA
ENDBRANCH  74  78
ENDBRANCH  47  71
BRANCH  59  82
ATOM     82  C   UNL     1       9.938   0.259   4.810  1.00  0.00     0.023 A 
ATOM     83  C   UNL     1      10.586   0.162   6.053  1.00  0.00     0.031 A 
ATOM     84  C   UNL     1      10.532   1.055   3.814  1.00  0.00     0.131 A 
ATOM     85  C   UNL     1      11.755   0.901   6.291  1.00  0.00     0.055 A 
ATOM     86  C   UNL     1      11.730   1.735   4.034  1.00  0.00     0.041 A 
ATOM     87  F   UNL     1       9.955   1.185   2.609  1.00  0.00    -0.206 F 
ATOM     88  C   UNL     1      12.340   1.672   5.284  1.00  0.00     0.022 A 
BRANCH  85  89
ATOM     89  S   UNL     1      12.445   0.921   7.968  1.00  0.00     0.124 S 
ATOM     90  O   UNL     1      11.331   1.448   8.749  1.00  0.00    -0.237 OA
ATOM     91  O   UNL     1      12.770  -0.484   8.189  1.00  0.00    -0.237 OA
ATOM     92  O   UNL     1      13.599   1.811   7.853  1.00  0.00    -0.744 OA
ENDBRANCH  85  89
ENDBRANCH  59  82
ENDBRANCH  33  34
ENDBRANCH  26  28
ENDBRANCH  25  26
ENDBRANCH   1  25
TORSDOF 15
