REMARK SMILES COc1ccc(C[NH2+]Cc2cccn2-c2sc(C)c(C)c2C(=O)OCCOC(=O)c2ccc(-c3c4nc(c(-c5cc(S(=O)(=O)[O-])ccc5F)c5ccc([nH]5)c(-c5cc(S(=O)(=O)[O-])ccc5F)c5nc(c(-c6cc(S(=O)(=O)[O-])ccc6F)c6ccc3[nH]6)C=C5)C=C4)cc2)cc1
REMARK SMILES IDX 24 1 22 2 23 3 21 4 15 5 16 6 17 7 19 8 18 9 20 10 14 11
REMARK SMILES IDX 10 12 11 13 12 14 13 15 9 16 8 17 7 20 6 21 3 22 4 23 94 24
REMARK SMILES IDX 5 25 93 26 2 27 1 28 25 29 26 30 27 31 28 32 29 33 30 34
REMARK SMILES IDX 31 35 92 36 32 37 91 38 33 39 34 40 35 41 85 42 36 43 90 44
REMARK SMILES IDX 84 45 86 46 37 47 89 48 83 49 82 50 38 52 70 53 50 54 69 55
REMARK SMILES IDX 51 56 54 57 68 58 87 59 52 60 53 61 67 63 88 64 55 65 39 66
REMARK SMILES IDX 40 67 48 68 41 69 47 70 49 71 46 72 42 73 43 74 44 75 45 76
REMARK SMILES IDX 71 77 72 78 80 79 73 80 79 81 81 82 78 83 74 84 75 85 76 86
REMARK SMILES IDX 77 87 56 88 57 89 65 90 58 91 64 92 66 93 63 94 59 95 60 96
REMARK SMILES IDX 61 97 62 98
REMARK H PARENT 8 18 8 19 86 51 54 62
REMARK Flexibility Score: inf
ROOT
ATOM      1  O   UNL     1       5.855  -9.734   6.641  1.00  0.00    -0.458 OA
ENDROOT
BRANCH   1   2
ATOM      2  C   UNL     1       5.400 -10.953   6.231  1.00  0.00     0.341 C 
ATOM      3  O   UNL     1       5.941 -12.007   6.555  1.00  0.00    -0.246 OA
BRANCH   2   4
ATOM      4  C   UNL     1       4.179 -10.896   5.398  1.00  0.00     0.098 A 
ATOM      5  C   UNL     1       3.712  -9.774   4.722  1.00  0.00     0.115 A 
ATOM      6  S   UNL     1       2.300 -10.047   3.829  1.00  0.00    -0.122 S 
ATOM      7  C   UNL     1       2.150 -11.635   4.420  1.00  0.00     0.007 A 
ATOM      8  C   UNL     1       3.204 -11.986   5.256  1.00  0.00    -0.021 A 
ATOM      9  C   UNL     1       0.960 -12.459   4.036  1.00  0.00     0.057 C 
ATOM     10  C   UNL     1       3.252 -13.312   5.960  1.00  0.00     0.046 C 
BRANCH   5  11
ATOM     11  N   UNL     1       4.330  -8.522   4.584  1.00  0.00    -0.306 N 
ATOM     12  C   UNL     1       3.813  -7.238   4.796  1.00  0.00     0.078 A 
ATOM     13  C   UNL     1       4.873  -6.343   4.704  1.00  0.00     0.029 A 
ATOM     14  C   UNL     1       6.023  -7.047   4.312  1.00  0.00     0.020 A 
ATOM     15  C   UNL     1       5.660  -8.365   4.212  1.00  0.00     0.092 A 
BRANCH  12  16
ATOM     16  C   UNL     1       2.395  -6.937   5.195  1.00  0.00     0.316 C 
BRANCH  16  17
ATOM     17  N   UNL     1       1.926  -5.653   4.661  1.00  0.00    -0.338 N 
ATOM     18  H   UNL     1       0.994  -5.467   5.030  1.00  0.00     0.346 HD
ATOM     19  H   UNL     1       2.595  -4.938   4.947  1.00  0.00     0.346 HD
BRANCH  17  20
ATOM     20  C   UNL     1       1.862  -5.638   3.203  1.00  0.00     0.297 C 
BRANCH  20  21
ATOM     21  C   UNL     1       1.531  -4.257   2.685  1.00  0.00     0.006 A 
ATOM     22  C   UNL     1       0.898  -1.703   1.686  1.00  0.00     0.118 A 
ATOM     23  C   UNL     1      -0.059  -2.450   2.373  1.00  0.00     0.047 A 
ATOM     24  C   UNL     1       2.187  -2.215   1.533  1.00  0.00     0.047 A 
ATOM     25  C   UNL     1       0.250  -3.720   2.864  1.00  0.00     0.013 A 
ATOM     26  C   UNL     1       2.501  -3.484   2.031  1.00  0.00     0.013 A 
BRANCH  22  27
ATOM     27  O   UNL     1       0.489  -0.471   1.254  1.00  0.00    -0.497 OA
ATOM     28  C   UNL     1       1.096  -0.023   0.048  1.00  0.00     0.278 C 
ENDBRANCH  22  27
ENDBRANCH  20  21
ENDBRANCH  17  20
ENDBRANCH  16  17
ENDBRANCH  12  16
ENDBRANCH   5  11
ENDBRANCH   2   4
ENDBRANCH   1   2
BRANCH   1  29
ATOM     29  C   UNL     1       6.894  -9.695   7.632  1.00  0.00     0.275 C 
BRANCH  29  30
ATOM     30  C   UNL     1       6.344  -9.394   9.027  1.00  0.00     0.275 C 
BRANCH  30  31
ATOM     31  O   UNL     1       5.541 -10.447   9.573  1.00  0.00    -0.458 OA
BRANCH  31  32
ATOM     32  C   UNL     1       4.256 -10.376   9.165  1.00  0.00     0.338 C 
ATOM     33  O   UNL     1       3.814  -9.753   8.213  1.00  0.00    -0.246 OA
BRANCH  32  34
ATOM     34  C   UNL     1       3.331 -10.975  10.113  1.00  0.00     0.060 A 
ATOM     35  C   UNL     1       2.137 -11.460   9.571  1.00  0.00     0.016 A 
ATOM     36  C   UNL     1       3.487 -10.720  11.480  1.00  0.00     0.016 A 
ATOM     37  C   UNL     1       1.043 -11.598  10.393  1.00  0.00     0.010 A 
ATOM     38  C   UNL     1       2.383 -10.848  12.306  1.00  0.00     0.010 A 
ATOM     39  C   UNL     1       1.165 -11.270  11.750  1.00  0.00    -0.014 A 
BRANCH  39  40
ATOM     40  C   UNL     1       0.064 -11.709  12.620  1.00  0.00     0.031 A 
ATOM     41  C   UNL     1       0.249 -13.237  12.892  1.00  0.00     0.074 A 
ATOM     42  C   UNL     1      -0.876 -10.759  12.943  1.00  0.00     0.049 A 
ATOM     43  N   UNL     1      -0.612 -14.150  13.215  1.00  0.00    -0.248 NA
ATOM     44  C   UNL     1       1.595 -13.872  12.674  1.00  0.00     0.031 C 
ATOM     45  C   UNL     1      -0.833  -9.322  12.553  1.00  0.00     0.029 A 
ATOM     46  N   UNL     1      -2.058 -10.784  13.655  1.00  0.00    -0.354 N 
ATOM     47  C   UNL     1       0.119 -15.317  13.558  1.00  0.00     0.074 A 
ATOM     48  C   UNL     1       1.425 -15.148  13.019  1.00  0.00     0.031 C 
ATOM     49  C   UNL     1      -1.953  -8.661  12.948  1.00  0.00     0.029 A 
ATOM     50  C   UNL     1      -2.823  -9.568  13.675  1.00  0.00     0.049 A 
ATOM     51  H   UNL     1      -2.361 -11.593  14.126  1.00  0.00     0.167 HD
ATOM     52  C   UNL     1      -0.340 -16.240  14.455  1.00  0.00     0.034 A 
ATOM     53  C   UNL     1      -4.068  -9.345  14.229  1.00  0.00     0.034 A 
ATOM     54  C   UNL     1      -1.663 -15.883  14.842  1.00  0.00     0.049 A 
ATOM     55  C   UNL     1      -4.264 -10.554  15.041  1.00  0.00     0.074 A 
ATOM     56  C   UNL     1      -2.839 -15.843  14.143  1.00  0.00     0.029 A 
ATOM     57  N   UNL     1      -1.781 -15.118  15.983  1.00  0.00    -0.354 N 
ATOM     58  N   UNL     1      -3.638 -10.797  16.151  1.00  0.00    -0.248 NA
ATOM     59  C   UNL     1      -5.167 -11.603  14.551  1.00  0.00     0.031 C 
ATOM     60  C   UNL     1      -3.395 -14.625  14.576  1.00  0.00     0.029 A 
ATOM     61  C   UNL     1      -2.723 -14.163  15.718  1.00  0.00     0.049 A 
ATOM     62  H   UNL     1      -1.284 -15.237  16.825  1.00  0.00     0.167 HD
ATOM     63  C   UNL     1      -3.808 -12.148  16.292  1.00  0.00     0.074 A 
ATOM     64  C   UNL     1      -4.992 -12.491  15.528  1.00  0.00     0.031 C 
ATOM     65  C   UNL     1      -2.717 -12.937  16.485  1.00  0.00     0.034 A 
BRANCH  52  66
ATOM     66  C   UNL     1       0.346 -17.291  15.296  1.00  0.00     0.023 A 
ATOM     67  C   UNL     1      -0.520 -18.069  16.105  1.00  0.00     0.031 A 
ATOM     68  C   UNL     1       1.704 -17.329  15.631  1.00  0.00     0.131 A 
ATOM     69  C   UNL     1      -0.082 -18.642  17.302  1.00  0.00     0.055 A 
ATOM     70  C   UNL     1       2.160 -17.996  16.780  1.00  0.00     0.041 A 
ATOM     71  F   UNL     1       2.628 -16.665  14.926  1.00  0.00    -0.206 F 
ATOM     72  C   UNL     1       1.261 -18.608  17.651  1.00  0.00     0.022 A 
BRANCH  69  73
ATOM     73  S   UNL     1      -1.349 -19.200  18.477  1.00  0.00     0.124 S 
ATOM     74  O   UNL     1      -2.153 -17.995  18.646  1.00  0.00    -0.237 OA
ATOM     75  O   UNL     1      -1.981 -20.294  17.746  1.00  0.00    -0.237 OA
ATOM     76  O   UNL     1      -0.570 -19.601  19.646  1.00  0.00    -0.744 OA
ENDBRANCH  69  73
ENDBRANCH  52  66
BRANCH  53  77
ATOM     77  C   UNL     1      -5.250  -8.359  14.301  1.00  0.00     0.023 A 
ATOM     78  C   UNL     1      -5.370  -7.087  13.709  1.00  0.00     0.031 A 
ATOM     79  C   UNL     1      -6.453  -8.798  14.962  1.00  0.00     0.131 A 
ATOM     80  C   UNL     1      -6.635  -6.404  13.717  1.00  0.00     0.055 A 
ATOM     81  C   UNL     1      -7.700  -8.184  14.869  1.00  0.00     0.041 A 
ATOM     82  F   UNL     1      -6.486  -9.876  15.756  1.00  0.00    -0.206 F 
ATOM     83  C   UNL     1      -7.802  -6.981  14.225  1.00  0.00     0.022 A 
BRANCH  80  84
ATOM     84  S   UNL     1      -6.838  -4.714  13.060  1.00  0.00     0.124 S 
ATOM     85  O   UNL     1      -6.513  -3.896  14.224  1.00  0.00    -0.237 OA
ATOM     86  O   UNL     1      -5.885  -4.675  11.957  1.00  0.00    -0.237 OA
ATOM     87  O   UNL     1      -8.244  -4.676  12.655  1.00  0.00    -0.744 OA
ENDBRANCH  80  84
ENDBRANCH  53  77
BRANCH  65  88
ATOM     88  C   UNL     1      -1.508 -12.242  17.124  1.00  0.00     0.023 A 
ATOM     89  C   UNL     1      -1.663 -11.497  18.312  1.00  0.00     0.031 A 
ATOM     90  C   UNL     1      -0.223 -12.200  16.551  1.00  0.00     0.131 A 
ATOM     91  C   UNL     1      -0.603 -10.733  18.845  1.00  0.00     0.055 A 
ATOM     92  C   UNL     1       0.833 -11.435  17.071  1.00  0.00     0.041 A 
ATOM     93  F   UNL     1       0.065 -12.905  15.459  1.00  0.00    -0.206 F 
ATOM     94  C   UNL     1       0.644 -10.690  18.224  1.00  0.00     0.022 A 
BRANCH  91  95
ATOM     95  S   UNL     1      -0.858  -9.810  20.387  1.00  0.00     0.124 S 
ATOM     96  O   UNL     1      -1.800  -8.770  19.991  1.00  0.00    -0.237 OA
ATOM     97  O   UNL     1      -1.376 -10.836  21.286  1.00  0.00    -0.237 OA
ATOM     98  O   UNL     1       0.483  -9.328  20.724  1.00  0.00    -0.744 OA
ENDBRANCH  91  95
ENDBRANCH  65  88
ENDBRANCH  39  40
ENDBRANCH  32  34
ENDBRANCH  31  32
ENDBRANCH  30  31
ENDBRANCH  29  30
ENDBRANCH   1  29
TORSDOF 20
