REMARK SMILES CSCC[C@@H](C(=O)OCCOC(=O)c1ccc(-c2c3nc(c(-c4cc(S(=O)(=O)[O-])ccc4F)c4ccc([nH]4)c(-c4cc(S(=O)(=O)[O-])ccc4F)c4nc(c(-c5cc(S(=O)(=O)[O-])ccc5F)c5ccc2[nH]5)C=C4)C=C3)cc1)N1C(=O)/C(=C/c2ccc(-c3ccccc3Cl)o2)SC1=S
REMARK SMILES IDX 9 1 8 2 6 3 7 4 5 5 4 6 3 7 2 8 1 9 77 10 78 11 95 12 79 13
REMARK SMILES IDX 80 14 94 15 96 16 81 17 82 18 83 19 93 20 84 21 85 22 86 23
REMARK SMILES IDX 87 24 91 25 88 26 90 27 92 28 89 29 10 30 11 31 12 32 13 33
REMARK SMILES IDX 14 34 15 35 76 36 16 37 75 38 17 39 18 40 19 41 69 42 20 43
REMARK SMILES IDX 74 44 68 45 70 46 21 47 73 48 67 49 66 50 22 52 54 53 34 54
REMARK SMILES IDX 53 55 35 56 38 57 52 58 71 59 36 60 37 61 51 63 72 64 39 65
REMARK SMILES IDX 23 66 24 67 32 68 25 69 31 70 33 71 30 72 26 73 27 74 28 75
REMARK SMILES IDX 29 76 55 77 56 78 64 79 57 80 63 81 65 82 62 83 58 84 59 85
REMARK SMILES IDX 60 86 61 87 40 88 41 89 49 90 42 91 48 92 50 93 47 94 43 95
REMARK SMILES IDX 44 96 45 97 46 98
REMARK H PARENT 70 51 38 62
REMARK Flexibility Score: inf
ROOT
ATOM      1  C   UNL     1       4.191   1.842  -1.426  1.00  0.00     0.274 C 
ENDROOT
BRANCH   1   2
ATOM      2  O   UNL     1       2.781   2.154  -1.509  1.00  0.00    -0.461 OA
BRANCH   2   3
ATOM      3  C   UNL     1       2.046   1.611  -0.491  1.00  0.00     0.329 C 
ATOM      4  O   UNL     1       2.534   0.945   0.417  1.00  0.00    -0.250 OA
BRANCH   3   5
ATOM      5  C   UNL     1       0.527   1.862  -0.629  1.00  0.00     0.202 C 
BRANCH   5   6
ATOM      6  C   UNL     1       0.126   1.395  -2.059  1.00  0.00     0.048 C 
BRANCH   6   7
ATOM      7  C   UNL     1       0.604  -0.006  -2.479  1.00  0.00     0.072 C 
BRANCH   7   8
ATOM      8  S   UNL     1      -0.178  -1.390  -1.582  1.00  0.00    -0.165 SA
ATOM      9  C   UNL     1       0.949  -1.575  -0.175  1.00  0.00     0.085 C 
ENDBRANCH   7   8
ENDBRANCH   6   7
ENDBRANCH   5   6
BRANCH   5  10
ATOM     10  N   UNL     1       0.047   3.246  -0.335  1.00  0.00    -0.278 N 
ATOM     11  C   UNL     1      -1.323   3.534  -0.401  1.00  0.00     0.267 C 
ATOM     12  C   UNL     1       0.731   4.217   0.358  1.00  0.00     0.149 C 
ATOM     13  O   UNL     1      -2.219   2.717  -0.561  1.00  0.00    -0.268 OA
ATOM     14  C   UNL     1      -1.575   4.991  -0.156  1.00  0.00     0.084 C 
ATOM     15  S   UNL     1      -0.057   5.748   0.086  1.00  0.00    -0.054 SA
ATOM     16  S   UNL     1       2.043   4.108   1.377  1.00  0.00    -0.052 S 
ATOM     17  C   UNL     1      -2.757   5.619  -0.050  1.00  0.00     0.068 C 
BRANCH  17  18
ATOM     18  C   UNL     1      -2.808   7.051  -0.006  1.00  0.00     0.128 A 
ATOM     19  C   UNL     1      -2.465   7.931  -1.029  1.00  0.00     0.051 A 
ATOM     20  O   UNL     1      -3.146   7.810   1.098  1.00  0.00    -0.457 OA
ATOM     21  C   UNL     1      -2.512   9.241  -0.514  1.00  0.00     0.051 A 
ATOM     22  C   UNL     1      -2.929   9.130   0.794  1.00  0.00     0.136 A 
BRANCH  22  23
ATOM     23  C   UNL     1      -3.207  10.144   1.811  1.00  0.00     0.036 A 
ATOM     24  C   UNL     1      -3.864  11.321   1.394  1.00  0.00     0.013 A 
ATOM     25  C   UNL     1      -2.805  10.058   3.153  1.00  0.00     0.052 A 
ATOM     26  C   UNL     1      -4.119  12.372   2.279  1.00  0.00     0.001 A 
ATOM     27  C   UNL     1      -3.089  11.104   4.046  1.00  0.00     0.021 A 
ATOM     28  Cl  UNL     1      -1.879   8.729   3.764  1.00  0.00    -0.084 Cl
ATOM     29  C   UNL     1      -3.733  12.262   3.608  1.00  0.00     0.002 A 
ENDBRANCH  22  23
ENDBRANCH  17  18
ENDBRANCH   5  10
ENDBRANCH   3   5
ENDBRANCH   2   3
ENDBRANCH   1   2
BRANCH   1  30
ATOM     30  C   UNL     1       4.951   2.446  -2.609  1.00  0.00     0.275 C 
BRANCH  30  31
ATOM     31  O   UNL     1       4.906   3.873  -2.475  1.00  0.00    -0.458 OA
BRANCH  31  32
ATOM     32  C   UNL     1       4.388   4.576  -3.513  1.00  0.00     0.338 C 
ATOM     33  O   UNL     1       4.189   4.181  -4.644  1.00  0.00    -0.246 OA
BRANCH  32  34
ATOM     34  C   UNL     1       3.982   5.902  -2.998  1.00  0.00     0.060 A 
ATOM     35  C   UNL     1       3.318   5.947  -1.780  1.00  0.00     0.016 A 
ATOM     36  C   UNL     1       4.134   7.073  -3.738  1.00  0.00     0.016 A 
ATOM     37  C   UNL     1       2.737   7.132  -1.346  1.00  0.00     0.010 A 
ATOM     38  C   UNL     1       3.603   8.284  -3.250  1.00  0.00     0.010 A 
ATOM     39  C   UNL     1       2.838   8.324  -2.068  1.00  0.00    -0.014 A 
BRANCH  39  40
ATOM     40  C   UNL     1       2.032   9.525  -1.643  1.00  0.00     0.031 A 
ATOM     41  C   UNL     1       1.153  10.229  -2.655  1.00  0.00     0.074 A 
ATOM     42  C   UNL     1       1.966   9.937  -0.355  1.00  0.00     0.049 A 
ATOM     43  N   UNL     1       0.571  11.400  -2.584  1.00  0.00    -0.248 NA
ATOM     44  C   UNL     1       0.909   9.526  -3.924  1.00  0.00     0.031 C 
ATOM     45  C   UNL     1       2.640   9.301   0.779  1.00  0.00     0.029 A 
ATOM     46  N   UNL     1       1.262  10.966   0.234  1.00  0.00    -0.354 N 
ATOM     47  C   UNL     1       0.003  11.625  -3.836  1.00  0.00     0.074 A 
ATOM     48  C   UNL     1       0.276  10.449  -4.634  1.00  0.00     0.031 C 
ATOM     49  C   UNL     1       2.234   9.874   1.919  1.00  0.00     0.029 A 
ATOM     50  C   UNL     1       1.421  11.040   1.603  1.00  0.00     0.049 A 
ATOM     51  H   UNL     1       0.697  11.591  -0.276  1.00  0.00     0.167 HD
ATOM     52  C   UNL     1      -0.656  12.725  -4.280  1.00  0.00     0.034 A 
ATOM     53  C   UNL     1       1.032  11.971   2.501  1.00  0.00     0.034 A 
ATOM     54  C   UNL     1      -0.992  13.848  -3.437  1.00  0.00     0.049 A 
ATOM     55  C   UNL     1       0.291  13.183   1.992  1.00  0.00     0.074 A 
ATOM     56  C   UNL     1      -1.605  15.040  -3.784  1.00  0.00     0.029 A 
ATOM     57  N   UNL     1      -0.771  13.903  -2.066  1.00  0.00    -0.354 N 
ATOM     58  N   UNL     1      -0.098  13.459   0.767  1.00  0.00    -0.248 NA
ATOM     59  C   UNL     1      -0.034  14.225   2.975  1.00  0.00     0.031 C 
ATOM     60  C   UNL     1      -1.709  15.833  -2.635  1.00  0.00     0.029 A 
ATOM     61  C   UNL     1      -1.227  15.110  -1.557  1.00  0.00     0.049 A 
ATOM     62  H   UNL     1      -0.351  13.190  -1.534  1.00  0.00     0.167 HD
ATOM     63  C   UNL     1      -0.699  14.713   0.836  1.00  0.00     0.074 A 
ATOM     64  C   UNL     1      -0.679  15.108   2.228  1.00  0.00     0.031 C 
ATOM     65  C   UNL     1      -1.191  15.486  -0.165  1.00  0.00     0.034 A 
BRANCH  52  66
ATOM     66  C   UNL     1      -0.954  12.811  -5.761  1.00  0.00     0.023 A 
ATOM     67  C   UNL     1      -1.850  11.947  -6.411  1.00  0.00     0.031 A 
ATOM     68  C   UNL     1      -0.281  13.769  -6.545  1.00  0.00     0.131 A 
ATOM     69  C   UNL     1      -1.995  12.013  -7.808  1.00  0.00     0.055 A 
ATOM     70  C   UNL     1      -0.489  13.881  -7.920  1.00  0.00     0.041 A 
ATOM     71  F   UNL     1       0.605  14.608  -5.985  1.00  0.00    -0.206 F 
ATOM     72  C   UNL     1      -1.340  12.989  -8.563  1.00  0.00     0.022 A 
BRANCH  69  73
ATOM     73  S   UNL     1      -2.941  10.711  -8.646  1.00  0.00     0.124 S 
ATOM     74  O   UNL     1      -2.210   9.511  -8.243  1.00  0.00    -0.237 OA
ATOM     75  O   UNL     1      -4.272  10.871  -8.073  1.00  0.00    -0.237 OA
ATOM     76  O   UNL     1      -2.824  11.057 -10.061  1.00  0.00    -0.744 OA
ENDBRANCH  69  73
ENDBRANCH  52  66
BRANCH  53  77
ATOM     77  C   UNL     1       1.416  11.850   3.947  1.00  0.00     0.023 A 
ATOM     78  C   UNL     1       0.445  11.865   4.959  1.00  0.00     0.031 A 
ATOM     79  C   UNL     1       2.761  11.753   4.354  1.00  0.00     0.131 A 
ATOM     80  C   UNL     1       0.817  11.792   6.312  1.00  0.00     0.055 A 
ATOM     81  C   UNL     1       3.127  11.609   5.695  1.00  0.00     0.041 A 
ATOM     82  F   UNL     1       3.751  11.776   3.447  1.00  0.00    -0.206 F 
ATOM     83  C   UNL     1       2.152  11.637   6.686  1.00  0.00     0.022 A 
BRANCH  80  84
ATOM     84  S   UNL     1      -0.463  12.017   7.578  1.00  0.00     0.124 S 
ATOM     85  O   UNL     1      -1.079  13.272   7.162  1.00  0.00    -0.237 OA
ATOM     86  O   UNL     1      -1.281  10.822   7.402  1.00  0.00    -0.237 OA
ATOM     87  O   UNL     1       0.298  12.077   8.824  1.00  0.00    -0.744 OA
ENDBRANCH  80  84
ENDBRANCH  53  77
BRANCH  65  88
ATOM     88  C   UNL     1      -1.756  16.828   0.230  1.00  0.00     0.023 A 
ATOM     89  C   UNL     1      -0.929  17.849   0.729  1.00  0.00     0.031 A 
ATOM     90  C   UNL     1      -3.134  17.081   0.125  1.00  0.00     0.131 A 
ATOM     91  C   UNL     1      -1.495  19.056   1.164  1.00  0.00     0.055 A 
ATOM     92  C   UNL     1      -3.684  18.307   0.502  1.00  0.00     0.041 A 
ATOM     93  F   UNL     1      -3.968  16.138  -0.342  1.00  0.00    -0.206 F 
ATOM     94  C   UNL     1      -2.865  19.298   1.038  1.00  0.00     0.022 A 
BRANCH  91  95
ATOM     95  S   UNL     1      -0.428  20.271   1.986  1.00  0.00     0.124 S 
ATOM     96  O   UNL     1       0.083  19.507   3.119  1.00  0.00    -0.237 OA
ATOM     97  O   UNL     1       0.541  20.592   0.944  1.00  0.00    -0.237 OA
ATOM     98  O   UNL     1      -1.347  21.354   2.332  1.00  0.00    -0.744 OA
ENDBRANCH  91  95
ENDBRANCH  65  88
ENDBRANCH  39  40
ENDBRANCH  32  34
ENDBRANCH  31  32
ENDBRANCH  30  31
ENDBRANCH   1  30
TORSDOF 20
