REMARK SMILES C[N@H+](CCS(C)(=O)=O)[C@H](CC(=O)OCCOC(=O)c1ccc(-c2c3nc(c(-c4cc(S(=O)(=O)[O-])ccc4F)c4ccc([nH]4)c(-c4cc(S(=O)(=O)[O-])ccc4F)c4nc(c(-c5cc(S(=O)(=O)[O-])ccc5F)c5ccc2[nH]5)C=C4)C=C3)cc1)c1ccccc1
REMARK SMILES IDX 14 1 13 2 11 3 12 4 10 5 9 6 2 7 1 8 3 10 4 11 5 12 6 13
REMARK SMILES IDX 7 14 8 15 82 16 83 17 87 18 84 19 86 20 85 21 15 22 16 23
REMARK SMILES IDX 17 24 18 25 19 26 20 27 81 28 21 29 80 30 22 31 23 32 24 33
REMARK SMILES IDX 74 34 25 35 79 36 73 37 75 38 26 39 78 40 72 41 71 42 27 44
REMARK SMILES IDX 59 45 39 46 58 47 40 48 43 49 57 50 76 51 41 52 42 53 56 55
REMARK SMILES IDX 77 56 44 57 28 58 29 59 37 60 30 61 36 62 38 63 35 64 31 65
REMARK SMILES IDX 32 66 33 67 34 68 60 69 61 70 69 71 62 72 68 73 70 74 67 75
REMARK SMILES IDX 63 76 64 77 65 78 66 79 45 80 46 81 54 82 47 83 53 84 55 85
REMARK SMILES IDX 52 86 48 87 49 88 50 89 51 90
REMARK H PARENT 2 9 75 43 43 54
REMARK Flexibility Score: inf
ROOT
ATOM      1  C   UNL     1       0.064  -0.177  -2.271  1.00  0.00     0.274 C 
ENDROOT
BRANCH   1   2
ATOM      2  O   UNL     1       0.478  -0.648  -0.973  1.00  0.00    -0.462 OA
BRANCH   2   3
ATOM      3  C   UNL     1       0.841   0.276  -0.056  1.00  0.00     0.312 C 
ATOM      4  O   UNL     1       1.000   1.467  -0.300  1.00  0.00    -0.252 OA
BRANCH   3   5
ATOM      5  C   UNL     1       0.817  -0.266   1.353  1.00  0.00     0.192 C 
BRANCH   5   6
ATOM      6  C   UNL     1       1.600  -1.531   1.748  1.00  0.00     0.226 C 
BRANCH   6   7
ATOM      7  N   UNL     1       1.115  -2.830   1.227  1.00  0.00    -0.330 N 
ATOM      8  C   UNL     1       1.445  -3.189  -0.137  1.00  0.00     0.333 C 
ATOM      9  H   UNL     1       1.766  -3.480   1.668  1.00  0.00     0.348 HD
BRANCH   7  10
ATOM     10  C   UNL     1      -0.166  -3.292   1.779  1.00  0.00     0.278 C 
BRANCH  10  11
ATOM     11  C   UNL     1      -0.956  -4.385   1.058  1.00  0.00     0.197 C 
BRANCH  11  12
ATOM     12  S   UNL     1      -0.620  -6.041   1.611  1.00  0.00     0.152 S 
ATOM     13  C   UNL     1      -1.420  -6.133   3.198  1.00  0.00     0.158 C 
ATOM     14  O   UNL     1      -1.336  -6.939   0.720  1.00  0.00    -0.229 OA
ATOM     15  O   UNL     1       0.807  -6.208   1.805  1.00  0.00    -0.229 OA
ENDBRANCH  11  12
ENDBRANCH  10  11
ENDBRANCH   7  10
ENDBRANCH   6   7
BRANCH   6  16
ATOM     16  C   UNL     1       3.129  -1.417   1.803  1.00  0.00     0.010 A 
ATOM     17  C   UNL     1       3.884  -2.562   2.128  1.00  0.00     0.010 A 
ATOM     18  C   UNL     1       3.812  -0.193   1.715  1.00  0.00     0.010 A 
ATOM     19  C   UNL     1       5.258  -2.492   2.352  1.00  0.00     0.001 A 
ATOM     20  C   UNL     1       5.190  -0.120   1.953  1.00  0.00     0.001 A 
ATOM     21  C   UNL     1       5.911  -1.268   2.274  1.00  0.00     0.000 A 
ENDBRANCH   6  16
ENDBRANCH   5   6
ENDBRANCH   3   5
ENDBRANCH   2   3
ENDBRANCH   1   2
BRANCH   1  22
ATOM     22  C   UNL     1      -1.323  -0.746  -2.562  1.00  0.00     0.275 C 
BRANCH  22  23
ATOM     23  O   UNL     1      -2.215  -0.386  -1.488  1.00  0.00    -0.458 OA
BRANCH  23  24
ATOM     24  C   UNL     1      -2.723  -1.423  -0.785  1.00  0.00     0.338 C 
ATOM     25  O   UNL     1      -2.581  -2.616  -1.017  1.00  0.00    -0.246 OA
BRANCH  24  26
ATOM     26  C   UNL     1      -3.510  -0.942   0.362  1.00  0.00     0.060 A 
ATOM     27  C   UNL     1      -2.957  -0.049   1.279  1.00  0.00     0.016 A 
ATOM     28  C   UNL     1      -4.778  -1.481   0.585  1.00  0.00     0.016 A 
ATOM     29  C   UNL     1      -3.636   0.241   2.461  1.00  0.00     0.010 A 
ATOM     30  C   UNL     1      -5.507  -1.097   1.714  1.00  0.00     0.010 A 
ATOM     31  C   UNL     1      -4.938  -0.245   2.673  1.00  0.00    -0.014 A 
BRANCH  31  32
ATOM     32  C   UNL     1      -5.729   0.230   3.841  1.00  0.00     0.031 A 
ATOM     33  C   UNL     1      -6.240  -0.720   4.890  1.00  0.00     0.074 A 
ATOM     34  C   UNL     1      -6.011   1.545   3.928  1.00  0.00     0.049 A 
ATOM     35  N   UNL     1      -7.006  -0.474   5.923  1.00  0.00    -0.248 NA
ATOM     36  C   UNL     1      -5.854  -2.131   4.753  1.00  0.00     0.031 C 
ATOM     37  C   UNL     1      -5.593   2.561   2.957  1.00  0.00     0.029 A 
ATOM     38  N   UNL     1      -6.706   2.257   4.871  1.00  0.00    -0.354 N 
ATOM     39  C   UNL     1      -7.221  -1.699   6.546  1.00  0.00     0.074 A 
ATOM     40  C   UNL     1      -6.513  -2.690   5.760  1.00  0.00     0.031 C 
ATOM     41  C   UNL     1      -6.002   3.766   3.376  1.00  0.00     0.029 A 
ATOM     42  C   UNL     1      -6.775   3.603   4.599  1.00  0.00     0.049 A 
ATOM     43  H   UNL     1      -7.117   1.845   5.665  1.00  0.00     0.167 HD
ATOM     44  C   UNL     1      -7.943  -1.968   7.664  1.00  0.00     0.034 A 
ATOM     45  C   UNL     1      -7.414   4.599   5.240  1.00  0.00     0.034 A 
ATOM     46  C   UNL     1      -8.640  -0.965   8.437  1.00  0.00     0.049 A 
ATOM     47  C   UNL     1      -8.198   4.277   6.477  1.00  0.00     0.074 A 
ATOM     48  C   UNL     1      -9.379  -1.126   9.598  1.00  0.00     0.029 A 
ATOM     49  N   UNL     1      -8.692   0.390   8.127  1.00  0.00    -0.354 N 
ATOM     50  N   UNL     1      -8.395   3.111   7.046  1.00  0.00    -0.248 NA
ATOM     51  C   UNL     1      -8.844   5.404   7.157  1.00  0.00     0.031 C 
ATOM     52  C   UNL     1      -9.921   0.116   9.956  1.00  0.00     0.029 A 
ATOM     53  C   UNL     1      -9.468   1.067   9.057  1.00  0.00     0.049 A 
ATOM     54  H   UNL     1      -8.242   0.808   7.357  1.00  0.00     0.167 HD
ATOM     55  C   UNL     1      -9.195   3.365   8.153  1.00  0.00     0.074 A 
ATOM     56  C   UNL     1      -9.410   4.798   8.189  1.00  0.00     0.031 C 
ATOM     57  C   UNL     1      -9.711   2.491   9.056  1.00  0.00     0.034 A 
BRANCH  44  58
ATOM     58  C   UNL     1      -8.058  -3.415   8.085  1.00  0.00     0.023 A 
ATOM     59  C   UNL     1      -6.945  -4.155   8.519  1.00  0.00     0.031 A 
ATOM     60  C   UNL     1      -9.303  -4.070   8.034  1.00  0.00     0.131 A 
ATOM     61  C   UNL     1      -7.084  -5.519   8.822  1.00  0.00     0.055 A 
ATOM     62  C   UNL     1      -9.449  -5.408   8.406  1.00  0.00     0.041 A 
ATOM     63  F   UNL     1     -10.398  -3.421   7.609  1.00  0.00    -0.206 F 
ATOM     64  C   UNL     1      -8.333  -6.145   8.790  1.00  0.00     0.022 A 
BRANCH  61  65
ATOM     65  S   UNL     1      -5.587  -6.498   9.125  1.00  0.00     0.124 S 
ATOM     66  O   UNL     1      -4.821  -6.255   7.903  1.00  0.00    -0.237 OA
ATOM     67  O   UNL     1      -5.057  -5.894  10.341  1.00  0.00    -0.237 OA
ATOM     68  O   UNL     1      -6.092  -7.861   9.272  1.00  0.00    -0.744 OA
ENDBRANCH  61  65
ENDBRANCH  44  58
BRANCH  45  69
ATOM     69  C   UNL     1      -7.364   5.980   4.691  1.00  0.00     0.023 A 
ATOM     70  C   UNL     1      -6.673   7.001   5.358  1.00  0.00     0.031 A 
ATOM     71  C   UNL     1      -7.994   6.289   3.471  1.00  0.00     0.131 A 
ATOM     72  C   UNL     1      -6.644   8.293   4.812  1.00  0.00     0.055 A 
ATOM     73  C   UNL     1      -7.925   7.564   2.910  1.00  0.00     0.041 A 
ATOM     74  F   UNL     1      -8.654   5.340   2.789  1.00  0.00    -0.206 F 
ATOM     75  C   UNL     1      -7.253   8.577   3.586  1.00  0.00     0.022 A 
BRANCH  72  76
ATOM     76  S   UNL     1      -5.828   9.612   5.749  1.00  0.00     0.124 S 
ATOM     77  O   UNL     1      -6.597   9.618   6.988  1.00  0.00    -0.237 OA
ATOM     78  O   UNL     1      -4.460   9.114   5.845  1.00  0.00    -0.237 OA
ATOM     79  O   UNL     1      -6.001  10.789   4.900  1.00  0.00    -0.744 OA
ENDBRANCH  72  76
ENDBRANCH  45  69
BRANCH  57  80
ATOM     80  C   UNL     1     -10.552   3.091  10.153  1.00  0.00     0.023 A 
ATOM     81  C   UNL     1     -11.797   3.684   9.877  1.00  0.00     0.031 A 
ATOM     82  C   UNL     1     -10.073   3.133  11.473  1.00  0.00     0.131 A 
ATOM     83  C   UNL     1     -12.488   4.359  10.893  1.00  0.00     0.055 A 
ATOM     84  C   UNL     1     -10.793   3.758  12.493  1.00  0.00     0.041 A 
ATOM     85  F   UNL     1      -8.889   2.586  11.789  1.00  0.00    -0.206 F 
ATOM     86  C   UNL     1     -11.999   4.391  12.202  1.00  0.00     0.022 A 
BRANCH  83  87
ATOM     87  S   UNL     1     -13.974   5.303  10.454  1.00  0.00     0.124 S 
ATOM     88  O   UNL     1     -13.476   6.183   9.402  1.00  0.00    -0.237 OA
ATOM     89  O   UNL     1     -14.893   4.254  10.026  1.00  0.00    -0.237 OA
ATOM     90  O   UNL     1     -14.335   5.973  11.702  1.00  0.00    -0.744 OA
ENDBRANCH  83  87
ENDBRANCH  57  80
ENDBRANCH  31  32
ENDBRANCH  24  26
ENDBRANCH  23  24
ENDBRANCH  22  23
ENDBRANCH   1  22
TORSDOF 20
