REMARK SMILES Nc1nc(N2CCOC[C@H]2C(=O)OCCOC(=O)c2ccc(-c3c4nc(c(-c5cc(S(=O)(=O)[O-])ccc5F)c5ccc([nH]5)c(-c5cc(S(=O)(=O)[O-])ccc5F)c5nc(c(-c6cc(S(=O)(=O)[O-])ccc6F)c6ccc3[nH]6)C=C5)C=C4)cc2)ccc1[N+](=O)[O-]
REMARK SMILES IDX 15 1 14 2 13 3 11 4 12 5 10 6 5 7 6 8 7 9 9 10 8 11 4 12
REMARK SMILES IDX 2 13 3 14 84 15 83 16 82 17 1 18 85 21 86 22 87 23 16 24
REMARK SMILES IDX 17 25 18 26 19 27 20 28 81 29 21 30 80 31 22 32 23 33 24 34
REMARK SMILES IDX 74 35 25 36 79 37 73 38 75 39 26 40 78 41 72 42 71 43 27 45
REMARK SMILES IDX 59 46 39 47 58 48 40 49 43 50 57 51 76 52 41 53 42 54 56 56
REMARK SMILES IDX 77 57 44 58 28 59 29 60 37 61 30 62 36 63 38 64 35 65 31 66
REMARK SMILES IDX 32 67 33 68 34 69 60 70 61 71 69 72 62 73 68 74 70 75 67 76
REMARK SMILES IDX 63 77 64 78 65 79 66 80 45 81 46 82 54 83 47 84 53 85 55 86
REMARK SMILES IDX 52 87 48 88 49 89 50 90 51 91
REMARK H PARENT 1 19 1 20 75 44 43 55
REMARK Flexibility Score: inf
ROOT
ATOM      1  C   UNL     1       0.922   5.640   2.482  1.00  0.00     0.275 C 
ENDROOT
BRANCH   1   2
ATOM      2  C   UNL     1      -0.555   5.917   2.233  1.00  0.00     0.274 C 
BRANCH   2   3
ATOM      3  O   UNL     1      -1.179   4.780   1.607  1.00  0.00    -0.460 OA
BRANCH   3   4
ATOM      4  C   UNL     1      -1.327   4.848   0.256  1.00  0.00     0.331 C 
ATOM      5  O   UNL     1      -0.991   5.818  -0.421  1.00  0.00    -0.250 OA
BRANCH   4   6
ATOM      6  C   UNL     1      -2.018   3.633  -0.366  1.00  0.00     0.220 C 
ATOM      7  N   UNL     1      -2.178   2.447   0.499  1.00  0.00    -0.339 N 
ATOM      8  C   UNL     1      -3.181   2.518   1.557  1.00  0.00     0.147 C 
ATOM      9  C   UNL     1      -4.505   3.032   0.982  1.00  0.00     0.181 C 
ATOM     10  C   UNL     1      -3.413   4.103  -0.830  1.00  0.00     0.197 C 
ATOM     11  O   UNL     1      -4.335   4.266   0.270  1.00  0.00    -0.377 OA
BRANCH   7  12
ATOM     12  C   UNL     1      -1.472   1.296   0.240  1.00  0.00     0.132 A 
ATOM     13  C   UNL     1       0.593   0.230  -0.094  1.00  0.00     0.204 A 
ATOM     14  N   UNL     1      -0.142   1.374   0.015  1.00  0.00    -0.207 NA
ATOM     15  C   UNL     1      -0.011  -1.026  -0.058  1.00  0.00     0.311 A 
ATOM     16  C   UNL     1      -1.397  -1.108   0.067  1.00  0.00     0.093 A 
ATOM     17  C   UNL     1      -2.124   0.065   0.223  1.00  0.00     0.054 A 
BRANCH  13  18
ATOM     18  N   UNL     1       1.940   0.428  -0.321  1.00  0.00    -0.378 N 
ATOM     19  H   UNL     1       2.308   1.341  -0.335  1.00  0.00     0.158 HD
ATOM     20  H   UNL     1       2.532  -0.344  -0.470  1.00  0.00     0.158 HD
ENDBRANCH  13  18
BRANCH  15  21
ATOM     21  N   UNL     1       0.764  -2.263  -0.031  1.00  0.00     0.066 N 
ATOM     22  O   UNL     1       0.142  -3.323  -0.217  1.00  0.00    -0.258 OA
ATOM     23  O   UNL     1       1.962  -2.200   0.277  1.00  0.00    -0.258 OA
ENDBRANCH  15  21
ENDBRANCH   7  12
ENDBRANCH   4   6
ENDBRANCH   3   4
ENDBRANCH   2   3
ENDBRANCH   1   2
BRANCH   1  24
ATOM     24  O   UNL     1       1.581   5.427   1.225  1.00  0.00    -0.458 OA
BRANCH  24  25
ATOM     25  C   UNL     1       2.118   4.200   1.041  1.00  0.00     0.338 C 
ATOM     26  O   UNL     1       2.221   3.297   1.850  1.00  0.00    -0.246 OA
BRANCH  25  27
ATOM     27  C   UNL     1       2.654   4.135  -0.325  1.00  0.00     0.060 A 
ATOM     28  C   UNL     1       1.791   3.994  -1.413  1.00  0.00     0.016 A 
ATOM     29  C   UNL     1       4.034   4.138  -0.507  1.00  0.00     0.016 A 
ATOM     30  C   UNL     1       2.308   3.843  -2.698  1.00  0.00     0.010 A 
ATOM     31  C   UNL     1       4.551   4.027  -1.798  1.00  0.00     0.010 A 
ATOM     32  C   UNL     1       3.692   3.864  -2.900  1.00  0.00    -0.014 A 
BRANCH  32  33
ATOM     33  C   UNL     1       4.262   3.652  -4.252  1.00  0.00     0.031 A 
ATOM     34  C   UNL     1       5.018   2.387  -4.540  1.00  0.00     0.074 A 
ATOM     35  C   UNL     1       4.118   4.591  -5.205  1.00  0.00     0.049 A 
ATOM     36  N   UNL     1       5.748   2.073  -5.577  1.00  0.00    -0.248 NA
ATOM     37  C   UNL     1       4.949   1.343  -3.507  1.00  0.00     0.031 C 
ATOM     38  C   UNL     1       3.350   5.829  -5.062  1.00  0.00     0.029 A 
ATOM     39  N   UNL     1       4.620   4.655  -6.479  1.00  0.00    -0.354 N 
ATOM     40  C   UNL     1       6.252   0.804  -5.313  1.00  0.00     0.074 A 
ATOM     41  C   UNL     1       5.766   0.425  -4.001  1.00  0.00     0.031 C 
ATOM     42  C   UNL     1       3.428   6.526  -6.207  1.00  0.00     0.029 A 
ATOM     43  C   UNL     1       4.306   5.821  -7.136  1.00  0.00     0.049 A 
ATOM     44  H   UNL     1       5.155   3.934  -6.885  1.00  0.00     0.167 HD
ATOM     45  C   UNL     1       7.042   0.028  -6.097  1.00  0.00     0.034 A 
ATOM     46  C   UNL     1       4.714   6.284  -8.334  1.00  0.00     0.034 A 
ATOM     47  C   UNL     1       7.508   0.427  -7.404  1.00  0.00     0.049 A 
ATOM     48  C   UNL     1       5.673   5.451  -9.146  1.00  0.00     0.074 A 
ATOM     49  C   UNL     1       8.311  -0.274  -8.287  1.00  0.00     0.029 A 
ATOM     50  N   UNL     1       7.213   1.640  -8.016  1.00  0.00    -0.354 N 
ATOM     51  N   UNL     1       6.183   4.272  -8.870  1.00  0.00    -0.248 NA
ATOM     52  C   UNL     1       6.119   6.016 -10.425  1.00  0.00     0.031 C 
ATOM     53  C   UNL     1       8.552   0.539  -9.402  1.00  0.00     0.029 A 
ATOM     54  C   UNL     1       7.841   1.719  -9.250  1.00  0.00     0.049 A 
ATOM     55  H   UNL     1       6.641   2.341  -7.629  1.00  0.00     0.167 HD
ATOM     56  C   UNL     1       6.988   3.943  -9.957  1.00  0.00     0.074 A 
ATOM     57  C   UNL     1       6.886   5.043 -10.895  1.00  0.00     0.031 C 
ATOM     58  C   UNL     1       7.738   2.831 -10.166  1.00  0.00     0.034 A 
BRANCH  45  59
ATOM     59  C   UNL     1       7.491  -1.295  -5.525  1.00  0.00     0.023 A 
ATOM     60  C   UNL     1       6.574  -2.311  -5.204  1.00  0.00     0.031 A 
ATOM     61  C   UNL     1       8.849  -1.521  -5.238  1.00  0.00     0.131 A 
ATOM     62  C   UNL     1       7.013  -3.464  -4.535  1.00  0.00     0.055 A 
ATOM     63  C   UNL     1       9.291  -2.707  -4.649  1.00  0.00     0.041 A 
ATOM     64  F   UNL     1       9.769  -0.580  -5.503  1.00  0.00    -0.206 F 
ATOM     65  C   UNL     1       8.368  -3.680  -4.276  1.00  0.00     0.022 A 
BRANCH  62  66
ATOM     66  S   UNL     1       5.768  -4.594  -3.854  1.00  0.00     0.124 S 
ATOM     67  O   UNL     1       4.985  -3.693  -3.012  1.00  0.00    -0.237 OA
ATOM     68  O   UNL     1       5.102  -5.087  -5.054  1.00  0.00    -0.237 OA
ATOM     69  O   UNL     1       6.563  -5.582  -3.129  1.00  0.00    -0.744 OA
ENDBRANCH  62  66
ENDBRANCH  45  59
BRANCH  46  70
ATOM     70  C   UNL     1       4.263   7.618  -8.822  1.00  0.00     0.023 A 
ATOM     71  C   UNL     1       3.474   7.732  -9.978  1.00  0.00     0.031 A 
ATOM     72  C   UNL     1       4.647   8.800  -8.165  1.00  0.00     0.131 A 
ATOM     73  C   UNL     1       3.124   9.002 -10.462  1.00  0.00     0.055 A 
ATOM     74  C   UNL     1       4.253  10.059  -8.621  1.00  0.00     0.041 A 
ATOM     75  F   UNL     1       5.403   8.747  -7.057  1.00  0.00    -0.206 F 
ATOM     76  C   UNL     1       3.497  10.165  -9.784  1.00  0.00     0.022 A 
BRANCH  73  77
ATOM     77  S   UNL     1       2.234   9.116 -12.038  1.00  0.00     0.124 S 
ATOM     78  O   UNL     1       3.164   8.464 -12.953  1.00  0.00    -0.237 OA
ATOM     79  O   UNL     1       1.005   8.386 -11.745  1.00  0.00    -0.237 OA
ATOM     80  O   UNL     1       2.070  10.555 -12.233  1.00  0.00    -0.744 OA
ENDBRANCH  73  77
ENDBRANCH  46  70
BRANCH  58  81
ATOM     81  C   UNL     1       8.464   2.739 -11.486  1.00  0.00     0.023 A 
ATOM     82  C   UNL     1       9.539   3.588 -11.801  1.00  0.00     0.031 A 
ATOM     83  C   UNL     1       8.059   1.797 -12.448  1.00  0.00     0.131 A 
ATOM     84  C   UNL     1      10.136   3.516 -13.069  1.00  0.00     0.055 A 
ATOM     85  C   UNL     1       8.694   1.690 -13.685  1.00  0.00     0.041 A 
ATOM     86  F   UNL     1       7.036   0.963 -12.199  1.00  0.00    -0.206 F 
ATOM     87  C   UNL     1       9.731   2.562 -14.006  1.00  0.00     0.022 A 
BRANCH  84  88
ATOM     88  S   UNL     1      11.396   4.744 -13.511  1.00  0.00     0.124 S 
ATOM     89  O   UNL     1      10.661   5.996 -13.374  1.00  0.00    -0.237 OA
ATOM     90  O   UNL     1      12.434   4.501 -12.513  1.00  0.00    -0.237 OA
ATOM     91  O   UNL     1      11.760   4.385 -14.881  1.00  0.00    -0.744 OA
ENDBRANCH  84  88
ENDBRANCH  58  81
ENDBRANCH  32  33
ENDBRANCH  25  27
ENDBRANCH  24  25
ENDBRANCH   1  24
TORSDOF 17
