REMARK SMILES O=C(OCCOC(=O)[C@H]1CC[C@@H](CNc2ncccn2)O1)c1ccc(-c2c3nc(c(-c4cc(S(=O)(=O)[O-])ccc4F)c4ccc([nH]4)c(-c4cc(S(=O)(=O)[O-])ccc4F)c4nc(c(-c5cc(S(=O)(=O)[O-])ccc5F)c5ccc2[nH]5)C=C4)C=C3)cc1
REMARK SMILES IDX 4 1 3 2 2 3 1 4 22 5 23 6 84 7 24 8 83 9 25 10 26 11 27 12
REMARK SMILES IDX 77 13 28 14 82 15 76 16 78 17 29 18 81 19 75 20 74 21 30 23
REMARK SMILES IDX 62 24 42 25 61 26 43 27 46 28 60 29 79 30 44 31 45 32 59 34
REMARK SMILES IDX 80 35 47 36 31 37 32 38 40 39 33 40 39 41 41 42 38 43 34 44
REMARK SMILES IDX 35 45 36 46 37 47 63 48 64 49 72 50 65 51 71 52 73 53 70 54
REMARK SMILES IDX 66 55 67 56 68 57 69 58 48 59 49 60 57 61 50 62 56 63 58 64
REMARK SMILES IDX 55 65 51 66 52 67 53 68 54 69 5 70 6 71 7 72 8 73 9 74 10 75
REMARK SMILES IDX 21 76 11 77 12 78 13 79 14 80 15 82 16 83 20 84 17 85 19 86
REMARK SMILES IDX 18 87
REMARK H PARENT 78 22 46 33 14 81
REMARK Flexibility Score: inf
ROOT
ATOM      1  C   UNL     1       2.853   1.394   4.325  1.00  0.00     0.275 C 
ENDROOT
BRANCH   1   2
ATOM      2  O   UNL     1       3.941   2.136   3.740  1.00  0.00    -0.458 OA
BRANCH   2   3
ATOM      3  C   UNL     1       4.695   1.835   2.652  1.00  0.00     0.338 C 
ATOM      4  O   UNL     1       5.820   2.324   2.558  1.00  0.00    -0.246 OA
BRANCH   3   5
ATOM      5  C   UNL     1       4.151   1.093   1.470  1.00  0.00     0.060 A 
ATOM      6  C   UNL     1       3.235   0.041   1.520  1.00  0.00     0.016 A 
ATOM      7  C   UNL     1       4.608   1.508   0.201  1.00  0.00     0.016 A 
ATOM      8  C   UNL     1       2.720  -0.524   0.351  1.00  0.00     0.010 A 
ATOM      9  C   UNL     1       4.108   0.934  -0.977  1.00  0.00     0.010 A 
ATOM     10  C   UNL     1       3.155  -0.087  -0.902  1.00  0.00    -0.014 A 
BRANCH  10  11
ATOM     11  C   UNL     1       2.749  -0.874  -2.087  1.00  0.00     0.031 A 
ATOM     12  C   UNL     1       3.656  -1.990  -2.510  1.00  0.00     0.074 A 
ATOM     13  C   UNL     1       1.553  -0.685  -2.675  1.00  0.00     0.049 A 
ATOM     14  N   UNL     1       3.461  -2.930  -3.393  1.00  0.00    -0.248 NA
ATOM     15  C   UNL     1       4.952  -2.066  -1.816  1.00  0.00     0.031 C 
ATOM     16  C   UNL     1       0.572   0.327  -2.285  1.00  0.00     0.029 A 
ATOM     17  N   UNL     1       0.946  -1.353  -3.708  1.00  0.00    -0.354 N 
ATOM     18  C   UNL     1       4.596  -3.729  -3.340  1.00  0.00     0.074 A 
ATOM     19  C   UNL     1       5.496  -3.129  -2.381  1.00  0.00     0.031 C 
ATOM     20  C   UNL     1      -0.517   0.210  -3.065  1.00  0.00     0.029 A 
ATOM     21  C   UNL     1      -0.308  -0.876  -4.019  1.00  0.00     0.049 A 
ATOM     22  H   UNL     1       1.368  -2.104  -4.184  1.00  0.00     0.167 HD
ATOM     23  C   UNL     1       4.856  -4.871  -4.021  1.00  0.00     0.034 A 
ATOM     24  C   UNL     1      -1.182  -1.282  -4.963  1.00  0.00     0.034 A 
ATOM     25  C   UNL     1       3.969  -5.409  -5.019  1.00  0.00     0.049 A 
ATOM     26  C   UNL     1      -0.810  -2.479  -5.808  1.00  0.00     0.074 A 
ATOM     27  C   UNL     1       4.139  -6.523  -5.819  1.00  0.00     0.029 A 
ATOM     28  N   UNL     1       2.747  -4.845  -5.374  1.00  0.00    -0.354 N 
ATOM     29  N   UNL     1       0.260  -3.241  -5.738  1.00  0.00    -0.248 NA
ATOM     30  C   UNL     1      -1.770  -2.885  -6.840  1.00  0.00     0.031 C 
ATOM     31  C   UNL     1       3.061  -6.586  -6.710  1.00  0.00     0.029 A 
ATOM     32  C   UNL     1       2.170  -5.567  -6.405  1.00  0.00     0.049 A 
ATOM     33  H   UNL     1       2.350  -4.048  -4.953  1.00  0.00     0.167 HD
ATOM     34  C   UNL     1       0.075  -4.246  -6.685  1.00  0.00     0.074 A 
ATOM     35  C   UNL     1      -1.210  -3.992  -7.306  1.00  0.00     0.031 C 
ATOM     36  C   UNL     1       0.884  -5.290  -7.005  1.00  0.00     0.034 A 
BRANCH  23  37
ATOM     37  C   UNL     1       6.188  -5.526  -3.751  1.00  0.00     0.023 A 
ATOM     38  C   UNL     1       6.523  -6.016  -2.474  1.00  0.00     0.031 A 
ATOM     39  C   UNL     1       7.180  -5.549  -4.745  1.00  0.00     0.131 A 
ATOM     40  C   UNL     1       7.841  -6.409  -2.199  1.00  0.00     0.055 A 
ATOM     41  C   UNL     1       8.466  -6.026  -4.489  1.00  0.00     0.041 A 
ATOM     42  F   UNL     1       6.929  -5.066  -5.972  1.00  0.00    -0.206 F 
ATOM     43  C   UNL     1       8.810  -6.439  -3.205  1.00  0.00     0.022 A 
BRANCH  40  44
ATOM     44  S   UNL     1       8.320  -6.689  -0.470  1.00  0.00     0.124 S 
ATOM     45  O   UNL     1       8.002  -5.398   0.137  1.00  0.00    -0.237 OA
ATOM     46  O   UNL     1       7.464  -7.804  -0.083  1.00  0.00    -0.237 OA
ATOM     47  O   UNL     1       9.746  -6.995  -0.554  1.00  0.00    -0.744 OA
ENDBRANCH  40  44
ENDBRANCH  23  37
BRANCH  24  48
ATOM     48  C   UNL     1      -2.477  -0.567  -5.176  1.00  0.00     0.023 A 
ATOM     49  C   UNL     1      -3.712  -1.218  -5.009  1.00  0.00     0.031 A 
ATOM     50  C   UNL     1      -2.498   0.767  -5.622  1.00  0.00     0.131 A 
ATOM     51  C   UNL     1      -4.907  -0.552  -5.332  1.00  0.00     0.055 A 
ATOM     52  C   UNL     1      -3.691   1.441  -5.894  1.00  0.00     0.041 A 
ATOM     53  F   UNL     1      -1.350   1.441  -5.801  1.00  0.00    -0.206 F 
ATOM     54  C   UNL     1      -4.905   0.776  -5.763  1.00  0.00     0.022 A 
BRANCH  51  55
ATOM     55  S   UNL     1      -6.469  -1.476  -5.263  1.00  0.00     0.124 S 
ATOM     56  O   UNL     1      -6.207  -2.571  -6.190  1.00  0.00    -0.237 OA
ATOM     57  O   UNL     1      -6.545  -1.833  -3.850  1.00  0.00    -0.237 OA
ATOM     58  O   UNL     1      -7.461  -0.501  -5.710  1.00  0.00    -0.744 OA
ENDBRANCH  51  55
ENDBRANCH  24  48
BRANCH  36  59
ATOM     59  C   UNL     1       0.364  -6.270  -8.029  1.00  0.00     0.023 A 
ATOM     60  C   UNL     1       0.145  -5.906  -9.368  1.00  0.00     0.031 A 
ATOM     61  C   UNL     1       0.081  -7.595  -7.649  1.00  0.00     0.131 A 
ATOM     62  C   UNL     1      -0.402  -6.837 -10.263  1.00  0.00     0.055 A 
ATOM     63  C   UNL     1      -0.394  -8.537  -8.561  1.00  0.00     0.041 A 
ATOM     64  F   UNL     1       0.269  -7.997  -6.381  1.00  0.00    -0.206 F 
ATOM     65  C   UNL     1      -0.653  -8.155  -9.873  1.00  0.00     0.022 A 
BRANCH  62  66
ATOM     66  S   UNL     1      -0.887  -6.271 -11.916  1.00  0.00     0.124 S 
ATOM     67  O   UNL     1      -1.815  -5.189 -11.607  1.00  0.00    -0.237 OA
ATOM     68  O   UNL     1       0.391  -5.870 -12.495  1.00  0.00    -0.237 OA
ATOM     69  O   UNL     1      -1.495  -7.456 -12.519  1.00  0.00    -0.744 OA
ENDBRANCH  62  66
ENDBRANCH  36  59
ENDBRANCH  10  11
ENDBRANCH   3   5
ENDBRANCH   2   3
ENDBRANCH   1   2
BRANCH   1  70
ATOM     70  C   UNL     1       1.474   1.929   3.929  1.00  0.00     0.274 C 
BRANCH  70  71
ATOM     71  O   UNL     1       1.357   2.093   2.510  1.00  0.00    -0.460 OA
BRANCH  71  72
ATOM     72  C   UNL     1       1.482   3.369   2.040  1.00  0.00     0.335 C 
ATOM     73  O   UNL     1       1.459   4.379   2.736  1.00  0.00    -0.249 OA
BRANCH  72  74
ATOM     74  C   UNL     1       1.710   3.358   0.525  1.00  0.00     0.228 C 
ATOM     75  C   UNL     1       0.530   3.875  -0.265  1.00  0.00     0.047 C 
ATOM     76  O   UNL     1       2.822   4.196   0.185  1.00  0.00    -0.361 OA
ATOM     77  C   UNL     1       0.804   5.355  -0.330  1.00  0.00     0.037 C 
ATOM     78  C   UNL     1       2.324   5.423  -0.383  1.00  0.00     0.138 C 
BRANCH  78  79
ATOM     79  C   UNL     1       2.893   6.628   0.383  1.00  0.00     0.148 C 
BRANCH  79  80
ATOM     80  N   UNL     1       4.309   6.745   0.114  1.00  0.00    -0.352 N 
ATOM     81  H   UNL     1       4.895   5.973   0.288  1.00  0.00     0.163 HD
BRANCH  80  82
ATOM     82  C   UNL     1       4.854   7.895  -0.375  1.00  0.00     0.222 A 
ATOM     83  N   UNL     1       5.983   7.759  -1.082  1.00  0.00    -0.222 NA
ATOM     84  N   UNL     1       4.248   9.073  -0.163  1.00  0.00    -0.222 NA
ATOM     85  C   UNL     1       6.506   8.873  -1.624  1.00  0.00     0.117 A 
ATOM     86  C   UNL     1       4.824  10.164  -0.697  1.00  0.00     0.117 A 
ATOM     87  C   UNL     1       5.963  10.122  -1.459  1.00  0.00     0.040 A 
ENDBRANCH  80  82
ENDBRANCH  79  80
ENDBRANCH  78  79
ENDBRANCH  72  74
ENDBRANCH  71  72
ENDBRANCH  70  71
ENDBRANCH   1  70
TORSDOF 17
