REMARK SMILES O=C(Cc1ccc(-c2ccn(C(F)F)c(=O)c2)cc1)OCCOC(=O)c1ccc(-c2c3nc(c(-c4cc(S(=O)(=O)[O-])ccc4F)c4ccc([nH]4)c(-c4cc(S(=O)(=O)[O-])ccc4F)c4nc(c(-c5cc(S(=O)(=O)[O-])ccc5F)c5ccc2[nH]5)C=C4)C=C3)cc1
REMARK SMILES IDX 21 1 20 2 2 3 1 4 3 5 4 6 5 7 19 8 6 9 18 10 7 11 8 12 9 13
REMARK SMILES IDX 17 14 10 15 15 16 11 17 16 18 12 19 13 20 14 21 22 22 23 23
REMARK SMILES IDX 24 24 25 25 26 26 27 27 88 28 28 29 87 30 29 31 30 32 31 33
REMARK SMILES IDX 81 34 32 35 86 36 80 37 82 38 33 39 85 40 79 41 78 42 34 44
REMARK SMILES IDX 66 45 46 46 65 47 47 48 50 49 64 50 83 51 48 52 49 53 63 55
REMARK SMILES IDX 84 56 51 57 35 58 36 59 44 60 37 61 43 62 45 63 42 64 38 65
REMARK SMILES IDX 39 66 40 67 41 68 67 69 68 70 76 71 69 72 75 73 77 74 74 75
REMARK SMILES IDX 70 76 71 77 72 78 73 79 52 80 53 81 61 82 54 83 60 84 62 85
REMARK SMILES IDX 59 86 55 87 56 88 57 89 58 90
REMARK H PARENT 82 43 50 54
REMARK Flexibility Score: inf
ROOT
ATOM      1  C   UNL     1       4.348  -0.489  -0.776  1.00  0.00     0.274 C 
ENDROOT
BRANCH   1   2
ATOM      2  O   UNL     1       2.996  -0.948  -0.554  1.00  0.00    -0.462 OA
BRANCH   2   3
ATOM      3  C   UNL     1       2.165  -0.523   0.426  1.00  0.00     0.310 C 
ATOM      4  O   UNL     1       1.083  -1.083   0.596  1.00  0.00    -0.252 OA
BRANCH   3   5
ATOM      5  C   UNL     1       2.593   0.619   1.314  1.00  0.00     0.158 C 
BRANCH   5   6
ATOM      6  C   UNL     1       3.554   0.291   2.428  1.00  0.00    -0.037 A 
ATOM      7  C   UNL     1       3.682  -0.998   2.956  1.00  0.00     0.005 A 
ATOM      8  C   UNL     1       4.312   1.335   2.982  1.00  0.00     0.005 A 
ATOM      9  C   UNL     1       4.580  -1.245   3.995  1.00  0.00     0.009 A 
ATOM     10  C   UNL     1       5.205   1.090   4.023  1.00  0.00     0.009 A 
ATOM     11  C   UNL     1       5.349  -0.204   4.530  1.00  0.00    -0.018 A 
BRANCH  11  12
ATOM     12  C   UNL     1       6.265  -0.458   5.652  1.00  0.00    -0.011 A 
ATOM     13  C   UNL     1       5.997   0.024   6.991  1.00  0.00     0.027 A 
ATOM     14  C   UNL     1       7.382  -1.166   5.416  1.00  0.00     0.080 A 
ATOM     15  C   UNL     1       6.845  -0.247   7.989  1.00  0.00     0.095 A 
ATOM     16  C   UNL     1       8.335  -1.473   6.516  1.00  0.00     0.255 A 
ATOM     17  N   UNL     1       7.993  -0.984   7.767  1.00  0.00    -0.258 N 
ATOM     18  O   UNL     1       9.338  -2.131   6.255  1.00  0.00    -0.269 OA
BRANCH  17  19
ATOM     19  C   UNL     1       8.889  -1.279   8.853  1.00  0.00     0.451 C 
ATOM     20  F   UNL     1       9.015  -2.618   9.031  1.00  0.00    -0.185 F 
ATOM     21  F   UNL     1      10.125  -0.772   8.620  1.00  0.00    -0.185 F 
ENDBRANCH  17  19
ENDBRANCH  11  12
ENDBRANCH   5   6
ENDBRANCH   3   5
ENDBRANCH   2   3
ENDBRANCH   1   2
BRANCH   1  22
ATOM     22  C   UNL     1       4.427   0.450  -1.979  1.00  0.00     0.275 C 
BRANCH  22  23
ATOM     23  O   UNL     1       3.925   1.749  -1.620  1.00  0.00    -0.458 OA
BRANCH  23  24
ATOM     24  C   UNL     1       2.629   1.992  -1.944  1.00  0.00     0.338 C 
ATOM     25  O   UNL     1       1.905   1.273  -2.610  1.00  0.00    -0.246 OA
BRANCH  24  26
ATOM     26  C   UNL     1       2.154   3.162  -1.169  1.00  0.00     0.060 A 
ATOM     27  C   UNL     1       0.847   3.124  -0.667  1.00  0.00     0.016 A 
ATOM     28  C   UNL     1       2.986   4.249  -0.876  1.00  0.00     0.016 A 
ATOM     29  C   UNL     1       0.364   4.179   0.108  1.00  0.00     0.010 A 
ATOM     30  C   UNL     1       2.499   5.308  -0.103  1.00  0.00     0.010 A 
ATOM     31  C   UNL     1       1.178   5.288   0.376  1.00  0.00    -0.014 A 
BRANCH  31  32
ATOM     32  C   UNL     1       0.594   6.484   1.033  1.00  0.00     0.031 A 
ATOM     33  C   UNL     1       0.093   7.608   0.168  1.00  0.00     0.074 A 
ATOM     34  C   UNL     1       0.479   6.556   2.372  1.00  0.00     0.049 A 
ATOM     35  N   UNL     1      -0.491   8.725   0.515  1.00  0.00    -0.248 NA
ATOM     36  C   UNL     1       0.278   7.447  -1.283  1.00  0.00     0.031 C 
ATOM     37  C   UNL     1       0.914   5.527   3.316  1.00  0.00     0.029 A 
ATOM     38  N   UNL     1      -0.040   7.545   3.170  1.00  0.00    -0.354 N 
ATOM     39  C   UNL     1      -0.770   9.390  -0.674  1.00  0.00     0.074 A 
ATOM     40  C   UNL     1      -0.236   8.576  -1.746  1.00  0.00     0.031 C 
ATOM     41  C   UNL     1       0.651   5.944   4.567  1.00  0.00     0.029 A 
ATOM     42  C   UNL     1       0.045   7.274   4.516  1.00  0.00     0.049 A 
ATOM     43  H   UNL     1      -0.437   8.372   2.812  1.00  0.00     0.167 HD
ATOM     44  C   UNL     1      -1.429  10.559  -0.860  1.00  0.00     0.034 A 
ATOM     45  C   UNL     1      -0.318   8.018   5.581  1.00  0.00     0.034 A 
ATOM     46  C   UNL     1      -1.928  11.383   0.213  1.00  0.00     0.049 A 
ATOM     47  C   UNL     1      -0.975   9.361   5.350  1.00  0.00     0.074 A 
ATOM     48  C   UNL     1      -2.605  12.588   0.133  1.00  0.00     0.029 A 
ATOM     49  N   UNL     1      -1.792  11.095   1.564  1.00  0.00    -0.354 N 
ATOM     50  N   UNL     1      -1.267   9.957   4.217  1.00  0.00    -0.248 NA
ATOM     51  C   UNL     1      -1.366  10.121   6.546  1.00  0.00     0.031 C 
ATOM     52  C   UNL     1      -2.822  13.057   1.433  1.00  0.00     0.029 A 
ATOM     53  C   UNL     1      -2.345  12.112   2.327  1.00  0.00     0.049 A 
ATOM     54  H   UNL     1      -1.365  10.286   1.928  1.00  0.00     0.167 HD
ATOM     55  C   UNL     1      -1.906  11.146   4.568  1.00  0.00     0.074 A 
ATOM     56  C   UNL     1      -1.975  11.169   6.013  1.00  0.00     0.031 C 
ATOM     57  C   UNL     1      -2.396  12.129   3.769  1.00  0.00     0.034 A 
BRANCH  44  58
ATOM     58  C   UNL     1      -1.613  11.025  -2.281  1.00  0.00     0.023 A 
ATOM     59  C   UNL     1      -2.424  10.316  -3.184  1.00  0.00     0.031 A 
ATOM     60  C   UNL     1      -0.955  12.176  -2.746  1.00  0.00     0.131 A 
ATOM     61  C   UNL     1      -2.510  10.731  -4.521  1.00  0.00     0.055 A 
ATOM     62  C   UNL     1      -1.100  12.624  -4.060  1.00  0.00     0.041 A 
ATOM     63  F   UNL     1      -0.149  12.877  -1.934  1.00  0.00    -0.206 F 
ATOM     64  C   UNL     1      -1.873  11.894  -4.959  1.00  0.00     0.022 A 
BRANCH  61  65
ATOM     65  S   UNL     1      -3.373   9.664  -5.707  1.00  0.00     0.124 S 
ATOM     66  O   UNL     1      -2.575   8.443  -5.638  1.00  0.00    -0.237 OA
ATOM     67  O   UNL     1      -4.715   9.584  -5.143  1.00  0.00    -0.237 OA
ATOM     68  O   UNL     1      -3.268  10.399  -6.967  1.00  0.00    -0.744 OA
ENDBRANCH  61  65
ENDBRANCH  44  58
BRANCH  45  69
ATOM     69  C   UNL     1      -0.047   7.548   6.971  1.00  0.00     0.023 A 
ATOM     70  C   UNL     1      -1.092   7.310   7.878  1.00  0.00     0.031 A 
ATOM     71  C   UNL     1       1.273   7.427   7.441  1.00  0.00     0.131 A 
ATOM     72  C   UNL     1      -0.801   7.030   9.223  1.00  0.00     0.055 A 
ATOM     73  C   UNL     1       1.557   7.094   8.766  1.00  0.00     0.041 A 
ATOM     74  F   UNL     1       2.311   7.642   6.617  1.00  0.00    -0.206 F 
ATOM     75  C   UNL     1       0.516   6.911   9.671  1.00  0.00     0.022 A 
BRANCH  72  76
ATOM     76  S   UNL     1      -2.173   6.938  10.407  1.00  0.00     0.124 S 
ATOM     77  O   UNL     1      -2.815   8.234  10.221  1.00  0.00    -0.237 OA
ATOM     78  O   UNL     1      -2.913   5.778   9.920  1.00  0.00    -0.237 OA
ATOM     79  O   UNL     1      -1.500   6.751  11.691  1.00  0.00    -0.744 OA
ENDBRANCH  72  76
ENDBRANCH  45  69
BRANCH  57  80
ATOM     80  C   UNL     1      -3.081  13.290   4.451  1.00  0.00     0.023 A 
ATOM     81  C   UNL     1      -2.376  14.183   5.278  1.00  0.00     0.031 A 
ATOM     82  C   UNL     1      -4.464  13.489   4.293  1.00  0.00     0.131 A 
ATOM     83  C   UNL     1      -3.065  15.193   5.965  1.00  0.00     0.055 A 
ATOM     84  C   UNL     1      -5.134  14.534   4.931  1.00  0.00     0.041 A 
ATOM     85  F   UNL     1      -5.188  12.668   3.515  1.00  0.00    -0.206 F 
ATOM     86  C   UNL     1      -4.438  15.383   5.785  1.00  0.00     0.022 A 
BRANCH  83  87
ATOM     87  S   UNL     1      -2.162  16.192   7.180  1.00  0.00     0.124 S 
ATOM     88  O   UNL     1      -1.631  15.172   8.079  1.00  0.00    -0.237 OA
ATOM     89  O   UNL     1      -1.180  16.881   6.349  1.00  0.00    -0.237 OA
ATOM     90  O   UNL     1      -3.195  17.050   7.757  1.00  0.00    -0.744 OA
ENDBRANCH  83  87
ENDBRANCH  57  80
ENDBRANCH  31  32
ENDBRANCH  24  26
ENDBRANCH  23  24
ENDBRANCH  22  23
ENDBRANCH   1  22
TORSDOF 17
