REMARK SMILES COC[C@H]1CC[N@@H+]([C@H]2CCC[C@]([NH2+]C(C)C)(C(=O)OCCOC(=O)c3ccc(-c4c5nc(c(-c6cc(S(=O)(=O)[O-])ccc6F)c6ccc([nH]6)c(-c6cc(S(=O)(=O)[O-])ccc6F)c6nc(c(-c7cc(S(=O)(=O)[O-])ccc7F)c7ccc4[nH]7)C=C6)C=C5)cc3)C2)C1
REMARK SMILES IDX 20 1 19 2 17 3 18 4 12 5 8 6 9 7 88 8 10 9 11 10 7 11 4 12
REMARK SMILES IDX 5 13 89 14 6 15 3 17 2 18 1 19 13 20 14 23 15 24 16 25 21 26
REMARK SMILES IDX 22 27 23 28 24 29 25 30 26 31 87 32 27 33 86 34 28 35 29 36
REMARK SMILES IDX 30 37 80 38 31 39 85 40 79 41 81 42 32 43 84 44 78 45 77 46
REMARK SMILES IDX 33 48 65 49 45 50 64 51 46 52 49 53 63 54 82 55 47 56 48 57
REMARK SMILES IDX 62 59 83 60 50 61 34 62 35 63 43 64 36 65 42 66 44 67 41 68
REMARK SMILES IDX 37 69 38 70 39 71 40 72 66 73 67 74 75 75 68 76 74 77 76 78
REMARK SMILES IDX 73 79 69 80 70 81 71 82 72 83 51 84 52 85 60 86 53 87 59 88
REMARK SMILES IDX 61 89 58 90 54 91 55 92 56 93 57 94
REMARK H PARENT 7 16 13 21 13 22 81 47 49 58
REMARK Flexibility Score: inf
ROOT
ATOM      1  C   UNL     1       0.564  -8.094   0.834  1.00  0.00     0.274 C 
ENDROOT
BRANCH   1   2
ATOM      2  O   UNL     1      -0.035  -6.909   1.367  1.00  0.00    -0.457 OA
BRANCH   2   3
ATOM      3  C   UNL     1      -0.137  -5.778   0.607  1.00  0.00     0.368 C 
ATOM      4  O   UNL     1       0.297  -5.669  -0.531  1.00  0.00    -0.245 OA
BRANCH   3   5
ATOM      5  C   UNL     1      -0.940  -4.699   1.418  1.00  0.00     0.200 C 
ATOM      6  C   UNL     1      -1.145  -2.165   2.063  1.00  0.00     0.190 C 
ATOM      7  C   UNL     1      -0.227  -2.325   3.272  1.00  0.00     0.065 C 
ATOM      8  C   UNL     1      -0.686  -3.237   1.016  1.00  0.00     0.146 C 
ATOM      9  C   UNL     1      -0.315  -3.701   3.886  1.00  0.00     0.013 C 
ATOM     10  C   UNL     1      -0.399  -4.867   2.900  1.00  0.00     0.081 C 
BRANCH   6  11
ATOM     11  N   UNL     1      -2.603  -1.958   2.329  1.00  0.00    -0.332 N 
ATOM     12  C   UNL     1      -4.029  -2.105   4.338  1.00  0.00     0.076 C 
ATOM     13  C   UNL     1      -3.192  -0.846   4.388  1.00  0.00     0.073 C 
ATOM     14  C   UNL     1      -3.386  -2.883   3.190  1.00  0.00     0.268 C 
ATOM     15  C   UNL     1      -2.862  -0.623   2.917  1.00  0.00     0.263 C 
ATOM     16  H   UNL     1      -2.928  -2.127   1.377  1.00  0.00     0.348 HD
BRANCH  12  17
ATOM     17  C   UNL     1      -4.146  -2.900   5.642  1.00  0.00     0.169 C 
BRANCH  17  18
ATOM     18  O   UNL     1      -2.865  -3.293   6.130  1.00  0.00    -0.384 OA
ATOM     19  C   UNL     1      -2.808  -4.679   6.464  1.00  0.00     0.194 C 
ENDBRANCH  17  18
ENDBRANCH  12  17
ENDBRANCH   6  11
BRANCH   5  20
ATOM     20  N   UNL     1      -2.403  -4.965   1.268  1.00  0.00    -0.330 N 
ATOM     21  H   UNL     1      -2.885  -4.112   1.551  1.00  0.00     0.347 HD
ATOM     22  H   UNL     1      -2.541  -5.802   1.835  1.00  0.00     0.347 HD
BRANCH  20  23
ATOM     23  C   UNL     1      -2.968  -5.356  -0.044  1.00  0.00     0.176 C 
ATOM     24  C   UNL     1      -4.497  -5.402   0.133  1.00  0.00     0.075 C 
ATOM     25  C   UNL     1      -2.704  -4.409  -1.220  1.00  0.00     0.075 C 
ENDBRANCH  20  23
ENDBRANCH   5  20
ENDBRANCH   3   5
ENDBRANCH   2   3
ENDBRANCH   1   2
BRANCH   1  26
ATOM     26  C   UNL     1       0.339  -9.216   1.857  1.00  0.00     0.275 C 
BRANCH  26  27
ATOM     27  O   UNL     1      -1.070  -9.359   2.135  1.00  0.00    -0.458 OA
BRANCH  27  28
ATOM     28  C   UNL     1      -1.515  -8.705   3.237  1.00  0.00     0.338 C 
ATOM     29  O   UNL     1      -0.835  -8.144   4.089  1.00  0.00    -0.246 OA
BRANCH  28  30
ATOM     30  C   UNL     1      -2.987  -8.677   3.228  1.00  0.00     0.060 A 
ATOM     31  C   UNL     1      -3.640  -7.442   3.287  1.00  0.00     0.016 A 
ATOM     32  C   UNL     1      -3.725  -9.862   3.200  1.00  0.00     0.016 A 
ATOM     33  C   UNL     1      -5.034  -7.382   3.292  1.00  0.00     0.010 A 
ATOM     34  C   UNL     1      -5.121  -9.802   3.219  1.00  0.00     0.010 A 
ATOM     35  C   UNL     1      -5.783  -8.563   3.259  1.00  0.00    -0.014 A 
BRANCH  35  36
ATOM     36  C   UNL     1      -7.259  -8.522   3.371  1.00  0.00     0.031 A 
ATOM     37  C   UNL     1      -7.883  -8.665   4.725  1.00  0.00     0.074 A 
ATOM     38  C   UNL     1      -8.029  -8.392   2.277  1.00  0.00     0.049 A 
ATOM     39  N   UNL     1      -9.137  -8.836   5.049  1.00  0.00    -0.248 NA
ATOM     40  C   UNL     1      -6.959  -8.611   5.866  1.00  0.00     0.031 C 
ATOM     41  C   UNL     1      -7.532  -8.168   0.920  1.00  0.00     0.029 A 
ATOM     42  N   UNL     1      -9.392  -8.455   2.132  1.00  0.00    -0.354 N 
ATOM     43  C   UNL     1      -9.157  -8.924   6.436  1.00  0.00     0.074 A 
ATOM     44  C   UNL     1      -7.784  -8.803   6.883  1.00  0.00     0.031 C 
ATOM     45  C   UNL     1      -8.576  -8.147   0.074  1.00  0.00     0.029 A 
ATOM     46  C   UNL     1      -9.805  -8.413   0.821  1.00  0.00     0.049 A 
ATOM     47  H   UNL     1     -10.014  -8.523   2.893  1.00  0.00     0.167 HD
ATOM     48  C   UNL     1     -10.223  -9.102   7.256  1.00  0.00     0.034 A 
ATOM     49  C   UNL     1     -11.024  -8.623   0.283  1.00  0.00     0.034 A 
ATOM     50  C   UNL     1     -11.575  -9.269   6.782  1.00  0.00     0.049 A 
ATOM     51  C   UNL     1     -12.182  -8.942   1.198  1.00  0.00     0.074 A 
ATOM     52  C   UNL     1     -12.728  -9.489   7.514  1.00  0.00     0.029 A 
ATOM     53  N   UNL     1     -11.952  -9.257   5.443  1.00  0.00    -0.354 N 
ATOM     54  N   UNL     1     -12.193  -9.060   2.506  1.00  0.00    -0.248 NA
ATOM     55  C   UNL     1     -13.489  -9.164   0.565  1.00  0.00     0.031 C 
ATOM     56  C   UNL     1     -13.787  -9.680   6.617  1.00  0.00     0.029 A 
ATOM     57  C   UNL     1     -13.312  -9.499   5.327  1.00  0.00     0.049 A 
ATOM     58  H   UNL     1     -11.341  -9.099   4.687  1.00  0.00     0.167 HD
ATOM     59  C   UNL     1     -13.511  -9.341   2.854  1.00  0.00     0.074 A 
ATOM     60  C   UNL     1     -14.267  -9.377   1.618  1.00  0.00     0.031 C 
ATOM     61  C   UNL     1     -14.050  -9.539   4.085  1.00  0.00     0.034 A 
BRANCH  48  62
ATOM     62  C   UNL     1      -9.929  -9.215   8.732  1.00  0.00     0.023 A 
ATOM     63  C   UNL     1      -9.357  -8.152   9.453  1.00  0.00     0.031 A 
ATOM     64  C   UNL     1     -10.130 -10.433   9.403  1.00  0.00     0.131 A 
ATOM     65  C   UNL     1      -8.912  -8.359  10.767  1.00  0.00     0.055 A 
ATOM     66  C   UNL     1      -9.768 -10.605  10.740  1.00  0.00     0.041 A 
ATOM     67  F   UNL     1     -10.648 -11.491   8.760  1.00  0.00    -0.206 F 
ATOM     68  C   UNL     1      -9.134  -9.572  11.424  1.00  0.00     0.022 A 
BRANCH  65  69
ATOM     69  S   UNL     1      -7.864  -7.091  11.533  1.00  0.00     0.124 S 
ATOM     70  O   UNL     1      -6.792  -6.959  10.548  1.00  0.00    -0.237 OA
ATOM     71  O   UNL     1      -8.772  -5.956  11.643  1.00  0.00    -0.237 OA
ATOM     72  O   UNL     1      -7.462  -7.697  12.800  1.00  0.00    -0.744 OA
ENDBRANCH  65  69
ENDBRANCH  48  62
BRANCH  49  73
ATOM     73  C   UNL     1     -11.195  -8.623  -1.198  1.00  0.00     0.023 A 
ATOM     74  C   UNL     1     -11.970  -7.649  -1.847  1.00  0.00     0.031 A 
ATOM     75  C   UNL     1     -10.595  -9.622  -1.987  1.00  0.00     0.131 A 
ATOM     76  C   UNL     1     -12.145  -7.710  -3.239  1.00  0.00     0.055 A 
ATOM     77  C   UNL     1     -10.734  -9.652  -3.375  1.00  0.00     0.041 A 
ATOM     78  F   UNL     1      -9.846 -10.579  -1.415  1.00  0.00    -0.206 F 
ATOM     79  C   UNL     1     -11.520  -8.695  -4.008  1.00  0.00     0.022 A 
BRANCH  76  80
ATOM     80  S   UNL     1     -13.245  -6.507  -4.035  1.00  0.00     0.124 S 
ATOM     81  O   UNL     1     -14.526  -6.820  -3.412  1.00  0.00    -0.237 OA
ATOM     82  O   UNL     1     -12.637  -5.237  -3.650  1.00  0.00    -0.237 OA
ATOM     83  O   UNL     1     -13.143  -6.838  -5.454  1.00  0.00    -0.744 OA
ENDBRANCH  76  80
ENDBRANCH  49  73
BRANCH  61  84
ATOM     84  C   UNL     1     -15.542  -9.750   4.163  1.00  0.00     0.023 A 
ATOM     85  C   UNL     1     -16.155 -10.932   3.713  1.00  0.00     0.031 A 
ATOM     86  C   UNL     1     -16.357  -8.755   4.733  1.00  0.00     0.131 A 
ATOM     87  C   UNL     1     -17.548 -11.076   3.814  1.00  0.00     0.055 A 
ATOM     88  C   UNL     1     -17.735  -8.924   4.874  1.00  0.00     0.041 A 
ATOM     89  F   UNL     1     -15.822  -7.607   5.178  1.00  0.00    -0.206 F 
ATOM     90  C   UNL     1     -18.339 -10.087   4.407  1.00  0.00     0.022 A 
BRANCH  87  91
ATOM     91  S   UNL     1     -18.330 -12.558   3.116  1.00  0.00     0.124 S 
ATOM     92  O   UNL     1     -17.982 -12.448   1.704  1.00  0.00    -0.237 OA
ATOM     93  O   UNL     1     -17.677 -13.634   3.853  1.00  0.00    -0.237 OA
ATOM     94  O   UNL     1     -19.748 -12.373   3.421  1.00  0.00    -0.744 OA
ENDBRANCH  87  91
ENDBRANCH  61  84
ENDBRANCH  35  36
ENDBRANCH  28  30
ENDBRANCH  27  28
ENDBRANCH  26  27
ENDBRANCH   1  26
TORSDOF 19
