REMARK SMILES C=CCN1C(=O)/C(=C/c2ccc(OCC(=O)OCCOC(=O)c3ccc(-c4c5nc(c(-c6cc(S(=O)(=O)[O-])ccc6F)c6ccc([nH]6)c(-c6cc(S(=O)(=O)[O-])ccc6F)c6nc(c(-c7cc(S(=O)(=O)[O-])ccc7F)c7ccc4[nH]7)C=C6)C=C5)cc3)c(OC)c2)C(=O)[NH+]=C1S
REMARK SMILES IDX 18 1 17 2 15 3 16 4 14 5 13 6 12 7 9 8 10 9 89 10 11 11
REMARK SMILES IDX 86 12 8 13 4 14 5 15 93 16 6 17 7 18 92 19 90 20 91 22 3 23
REMARK SMILES IDX 2 24 1 25 94 26 87 28 88 29 19 30 20 31 21 32 22 33 23 34
REMARK SMILES IDX 24 35 85 36 25 37 84 38 26 39 27 40 28 41 78 42 29 43 83 44
REMARK SMILES IDX 77 45 79 46 30 47 82 48 76 49 75 50 31 52 63 53 43 54 62 55
REMARK SMILES IDX 44 56 47 57 61 58 80 59 45 60 46 61 60 63 81 64 48 65 32 66
REMARK SMILES IDX 33 67 41 68 34 69 40 70 42 71 39 72 35 73 36 74 37 75 38 76
REMARK SMILES IDX 64 77 65 78 73 79 66 80 72 81 74 82 71 83 67 84 68 85 69 86
REMARK SMILES IDX 70 87 49 88 50 89 58 90 51 91 57 92 59 93 56 94 52 95 53 96
REMARK SMILES IDX 54 97 55 98
REMARK H PARENT 92 21 94 27 79 51 47 62
REMARK Flexibility Score: inf
ROOT
ATOM      1  C   UNL     1      -4.225   3.615  10.097  1.00  0.00     0.274 C 
ENDROOT
BRANCH   1   2
ATOM      2  O   UNL     1      -4.223   2.168  10.055  1.00  0.00    -0.460 OA
BRANCH   2   3
ATOM      3  C   UNL     1      -5.403   1.563  10.351  1.00  0.00     0.344 C 
ATOM      4  O   UNL     1      -6.415   2.173  10.693  1.00  0.00    -0.248 OA
BRANCH   3   5
ATOM      5  C   UNL     1      -5.371   0.028  10.296  1.00  0.00     0.352 C 
BRANCH   5   6
ATOM      6  O   UNL     1      -4.216  -0.726   9.979  1.00  0.00    -0.478 OA
BRANCH   6   7
ATOM      7  C   UNL     1      -3.808  -0.841   8.678  1.00  0.00     0.162 A 
ATOM      8  C   UNL     1      -2.541  -0.870   6.162  1.00  0.00    -0.021 A 
ATOM      9  C   UNL     1      -1.818  -1.208   7.298  1.00  0.00     0.012 A 
ATOM     10  C   UNL     1      -3.913  -0.652   6.280  1.00  0.00     0.058 A 
ATOM     11  C   UNL     1      -2.448  -1.167   8.549  1.00  0.00     0.051 A 
ATOM     12  C   UNL     1      -4.571  -0.717   7.516  1.00  0.00     0.161 A 
BRANCH   8  13
ATOM     13  C   UNL     1      -1.969  -0.799   4.816  1.00  0.00     0.032 C 
ATOM     14  N   UNL     1      -1.429   1.268   1.870  1.00  0.00    -0.183 N 
ATOM     15  C   UNL     1      -1.518   0.120   2.637  1.00  0.00     0.349 C 
ATOM     16  C   UNL     1      -1.653   2.494   2.439  1.00  0.00     0.318 C 
ATOM     17  O   UNL     1      -1.351  -1.009   2.176  1.00  0.00    -0.240 OA
ATOM     18  C   UNL     1      -1.845   0.321   4.068  1.00  0.00     0.154 C 
ATOM     19  N   UNL     1      -1.946   2.711   3.670  1.00  0.00    -0.200 N 
ATOM     20  C   UNL     1      -2.023   1.702   4.580  1.00  0.00     0.347 C 
ATOM     21  H   UNL     1      -2.121   3.634   3.963  1.00  0.00     0.316 HD
ATOM     22  O   UNL     1      -2.140   1.956   5.775  1.00  0.00    -0.241 OA
BRANCH  14  23
ATOM     23  C   UNL     1      -1.087   1.071   0.460  1.00  0.00     0.275 C 
BRANCH  23  24
ATOM     24  C   UNL     1       0.413   1.047   0.338  1.00  0.00     0.011 C 
ATOM     25  C   UNL     1       1.117  -0.045   0.012  1.00  0.00     0.008 C 
ENDBRANCH  23  24
ENDBRANCH  14  23
BRANCH  16  26
ATOM     26  S   UNL     1      -1.502   3.943   1.467  1.00  0.00    -0.055 SA
ATOM     27  H   UNL     1      -1.191   3.600   0.188  1.00  0.00     0.116 HD
ENDBRANCH  16  26
ENDBRANCH   8  13
BRANCH  12  28
ATOM     28  O   UNL     1      -5.938  -0.700   7.600  1.00  0.00    -0.493 OA
ATOM     29  C   UNL     1      -6.620  -0.966   6.377  1.00  0.00     0.278 C 
ENDBRANCH  12  28
ENDBRANCH   6   7
ENDBRANCH   5   6
ENDBRANCH   3   5
ENDBRANCH   2   3
ENDBRANCH   1   2
BRANCH   1  30
ATOM     30  C   UNL     1      -4.361   4.238   8.704  1.00  0.00     0.275 C 
BRANCH  30  31
ATOM     31  O   UNL     1      -5.693   4.056   8.177  1.00  0.00    -0.458 OA
BRANCH  31  32
ATOM     32  C   UNL     1      -5.793   2.955   7.403  1.00  0.00     0.338 C 
ATOM     33  O   UNL     1      -4.887   2.193   7.110  1.00  0.00    -0.246 OA
BRANCH  32  34
ATOM     34  C   UNL     1      -7.140   2.690   6.894  1.00  0.00     0.060 A 
ATOM     35  C   UNL     1      -7.971   1.845   7.627  1.00  0.00     0.016 A 
ATOM     36  C   UNL     1      -7.379   2.920   5.535  1.00  0.00     0.016 A 
ATOM     37  C   UNL     1      -8.980   1.146   6.966  1.00  0.00     0.010 A 
ATOM     38  C   UNL     1      -8.430   2.258   4.891  1.00  0.00     0.010 A 
ATOM     39  C   UNL     1      -9.213   1.327   5.588  1.00  0.00    -0.014 A 
BRANCH  39  40
ATOM     40  C   UNL     1     -10.324   0.602   4.908  1.00  0.00     0.031 A 
ATOM     41  C   UNL     1     -10.102  -0.376   3.776  1.00  0.00     0.074 A 
ATOM     42  C   UNL     1     -11.575   0.854   5.336  1.00  0.00     0.049 A 
ATOM     43  N   UNL     1     -10.989  -0.981   3.022  1.00  0.00    -0.248 NA
ATOM     44  C   UNL     1      -8.716  -0.746   3.458  1.00  0.00     0.031 C 
ATOM     45  C   UNL     1     -11.918   1.727   6.463  1.00  0.00     0.029 A 
ATOM     46  N   UNL     1     -12.788   0.421   4.870  1.00  0.00    -0.354 N 
ATOM     47  C   UNL     1     -10.275  -1.812   2.159  1.00  0.00     0.074 A 
ATOM     48  C   UNL     1      -8.875  -1.628   2.477  1.00  0.00     0.031 C 
ATOM     49  C   UNL     1     -13.247   1.763   6.602  1.00  0.00     0.029 A 
ATOM     50  C   UNL     1     -13.849   1.020   5.506  1.00  0.00     0.049 A 
ATOM     51  H   UNL     1     -12.889  -0.248   4.155  1.00  0.00     0.167 HD
ATOM     52  C   UNL     1     -10.747  -2.632   1.183  1.00  0.00     0.034 A 
ATOM     53  C   UNL     1     -15.158   1.046   5.199  1.00  0.00     0.034 A 
ATOM     54  C   UNL     1     -12.149  -2.750   0.840  1.00  0.00     0.049 A 
ATOM     55  C   UNL     1     -15.637   0.275   4.005  1.00  0.00     0.074 A 
ATOM     56  C   UNL     1     -12.734  -3.528  -0.147  1.00  0.00     0.029 A 
ATOM     57  N   UNL     1     -13.184  -2.056   1.454  1.00  0.00    -0.354 N 
ATOM     58  N   UNL     1     -14.948  -0.475   3.177  1.00  0.00    -0.248 NA
ATOM     59  C   UNL     1     -17.071   0.349   3.708  1.00  0.00     0.031 C 
ATOM     60  C   UNL     1     -14.101  -3.235  -0.190  1.00  0.00     0.029 A 
ATOM     61  C   UNL     1     -14.391  -2.353   0.837  1.00  0.00     0.049 A 
ATOM     62  H   UNL     1     -13.076  -1.443   2.216  1.00  0.00     0.167 HD
ATOM     63  C   UNL     1     -15.877  -0.994   2.282  1.00  0.00     0.074 A 
ATOM     64  C   UNL     1     -17.171  -0.482   2.682  1.00  0.00     0.031 C 
ATOM     65  C   UNL     1     -15.676  -1.827   1.230  1.00  0.00     0.034 A 
BRANCH  52  66
ATOM     66  C   UNL     1      -9.754  -3.424   0.356  1.00  0.00     0.023 A 
ATOM     67  C   UNL     1      -8.987  -4.468   0.901  1.00  0.00     0.031 A 
ATOM     68  C   UNL     1      -9.626  -3.172  -1.025  1.00  0.00     0.131 A 
ATOM     69  C   UNL     1      -8.116  -5.204   0.077  1.00  0.00     0.055 A 
ATOM     70  C   UNL     1      -8.808  -3.948  -1.849  1.00  0.00     0.041 A 
ATOM     71  F   UNL     1     -10.315  -2.174  -1.602  1.00  0.00    -0.206 F 
ATOM     72  C   UNL     1      -8.042  -4.969  -1.298  1.00  0.00     0.022 A 
BRANCH  69  73
ATOM     73  S   UNL     1      -7.000  -6.415   0.841  1.00  0.00     0.124 S 
ATOM     74  O   UNL     1      -6.282  -5.587   1.806  1.00  0.00    -0.237 OA
ATOM     75  O   UNL     1      -7.928  -7.391   1.399  1.00  0.00    -0.237 OA
ATOM     76  O   UNL     1      -6.192  -6.893  -0.281  1.00  0.00    -0.744 OA
ENDBRANCH  69  73
ENDBRANCH  52  66
BRANCH  53  77
ATOM     77  C   UNL     1     -16.083   1.895   5.997  1.00  0.00     0.023 A 
ATOM     78  C   UNL     1     -17.152   1.324   6.696  1.00  0.00     0.031 A 
ATOM     79  C   UNL     1     -15.926   3.293   6.049  1.00  0.00     0.131 A 
ATOM     80  C   UNL     1     -18.056   2.150   7.375  1.00  0.00     0.055 A 
ATOM     81  C   UNL     1     -16.781   4.104   6.794  1.00  0.00     0.041 A 
ATOM     82  F   UNL     1     -14.918   3.892   5.393  1.00  0.00    -0.206 F 
ATOM     83  C   UNL     1     -17.866   3.533   7.449  1.00  0.00     0.022 A 
BRANCH  80  84
ATOM     84  S   UNL     1     -19.557   1.397   8.053  1.00  0.00     0.124 S 
ATOM     85  O   UNL     1     -20.114   0.741   6.875  1.00  0.00    -0.237 OA
ATOM     86  O   UNL     1     -19.015   0.517   9.082  1.00  0.00    -0.237 OA
ATOM     87  O   UNL     1     -20.316   2.543   8.548  1.00  0.00    -0.744 OA
ENDBRANCH  80  84
ENDBRANCH  53  77
BRANCH  65  88
ATOM     88  C   UNL     1     -16.905  -2.277   0.479  1.00  0.00     0.023 A 
ATOM     89  C   UNL     1     -17.703  -1.374  -0.244  1.00  0.00     0.031 A 
ATOM     90  C   UNL     1     -17.307  -3.623   0.528  1.00  0.00     0.131 A 
ATOM     91  C   UNL     1     -18.901  -1.813  -0.827  1.00  0.00     0.055 A 
ATOM     92  C   UNL     1     -18.462  -4.069  -0.116  1.00  0.00     0.041 A 
ATOM     93  F   UNL     1     -16.587  -4.528   1.210  1.00  0.00    -0.206 F 
ATOM     94  C   UNL     1     -19.276  -3.158  -0.784  1.00  0.00     0.022 A 
BRANCH  91  95
ATOM     95  S   UNL     1     -20.022  -0.579  -1.540  1.00  0.00     0.124 S 
ATOM     96  O   UNL     1     -20.291   0.284  -0.395  1.00  0.00    -0.237 OA
ATOM     97  O   UNL     1     -19.209   0.005  -2.602  1.00  0.00    -0.237 OA
ATOM     98  O   UNL     1     -21.160  -1.375  -1.999  1.00  0.00    -0.744 OA
ENDBRANCH  91  95
ENDBRANCH  65  88
ENDBRANCH  39  40
ENDBRANCH  32  34
ENDBRANCH  31  32
ENDBRANCH  30  31
ENDBRANCH   1  30
TORSDOF 21
