REMARK SMILES C[C@@H](C(=O)[C@H](C)[C@@H](C)C(=O)OCCOC(=O)c1ccc(-c2c3nc(c(-c4cc(S(=O)(=O)[O-])ccc4F)c4ccc([nH]4)c(-c4cc(S(=O)(=O)[O-])ccc4F)c4nc(c(-c5cc(S(=O)(=O)[O-])ccc5F)c5ccc2[nH]5)C=C4)C=C3)cc1)c1ccccc1
REMARK SMILES IDX 12 1 11 2 9 3 10 4 7 5 8 6 5 7 6 8 3 9 4 10 2 11 1 12 80 13
REMARK SMILES IDX 81 14 85 15 82 16 84 17 83 18 13 19 14 20 15 21 16 22 17 23
REMARK SMILES IDX 18 24 79 25 19 26 78 27 20 28 21 29 22 30 72 31 23 32 77 33
REMARK SMILES IDX 71 34 73 35 24 36 76 37 70 38 69 39 25 41 57 42 37 43 56 44
REMARK SMILES IDX 38 45 41 46 55 47 74 48 39 49 40 50 54 52 75 53 42 54 26 55
REMARK SMILES IDX 27 56 35 57 28 58 34 59 36 60 33 61 29 62 30 63 31 64 32 65
REMARK SMILES IDX 58 66 59 67 67 68 60 69 66 70 68 71 65 72 61 73 62 74 63 75
REMARK SMILES IDX 64 76 43 77 44 78 52 79 45 80 51 81 53 82 50 83 46 84 47 85
REMARK SMILES IDX 48 86 49 87
REMARK H PARENT 73 40 41 51
REMARK Flexibility Score: inf
ROOT
ATOM      1  C   UNL     1       6.304  -1.354  -3.265  1.00  0.00     0.274 C 
ENDROOT
BRANCH   1   2
ATOM      2  O   UNL     1       5.038  -0.676  -3.122  1.00  0.00    -0.462 OA
BRANCH   2   3
ATOM      3  C   UNL     1       4.292  -1.113  -2.080  1.00  0.00     0.309 C 
ATOM      4  O   UNL     1       4.677  -1.961  -1.277  1.00  0.00    -0.252 OA
BRANCH   3   5
ATOM      5  C   UNL     1       2.903  -0.490  -1.962  1.00  0.00     0.106 C 
ATOM      6  C   UNL     1       1.938  -1.692  -1.943  1.00  0.00     0.021 C 
BRANCH   5   7
ATOM      7  C   UNL     1       2.510   0.568  -3.024  1.00  0.00     0.067 C 
ATOM      8  C   UNL     1       0.996   0.672  -3.277  1.00  0.00     0.017 C 
BRANCH   7   9
ATOM      9  C   UNL     1       3.021   2.015  -2.824  1.00  0.00     0.143 C 
ATOM     10  O   UNL     1       3.353   2.632  -3.845  1.00  0.00    -0.299 OA
BRANCH   9  11
ATOM     11  C   UNL     1       3.068   2.670  -1.420  1.00  0.00     0.083 C 
ATOM     12  C   UNL     1       1.759   2.500  -0.641  1.00  0.00     0.021 C 
BRANCH  11  13
ATOM     13  C   UNL     1       3.558   4.131  -1.419  1.00  0.00    -0.038 A 
ATOM     14  C   UNL     1       4.846   4.431  -1.896  1.00  0.00     0.004 A 
ATOM     15  C   UNL     1       2.809   5.198  -0.892  1.00  0.00     0.004 A 
ATOM     16  C   UNL     1       5.380   5.721  -1.814  1.00  0.00     0.000 A 
ATOM     17  C   UNL     1       3.339   6.492  -0.813  1.00  0.00     0.000 A 
ATOM     18  C   UNL     1       4.628   6.751  -1.262  1.00  0.00     0.000 A 
ENDBRANCH  11  13
ENDBRANCH   9  11
ENDBRANCH   7   9
ENDBRANCH   5   7
ENDBRANCH   3   5
ENDBRANCH   2   3
ENDBRANCH   1   2
BRANCH   1  19
ATOM     19  C   UNL     1       7.453  -0.636  -2.554  1.00  0.00     0.275 C 
BRANCH  19  20
ATOM     20  O   UNL     1       7.118  -0.306  -1.193  1.00  0.00    -0.458 OA
BRANCH  20  21
ATOM     21  C   UNL     1       6.790   0.992  -1.019  1.00  0.00     0.338 C 
ATOM     22  O   UNL     1       6.811   1.857  -1.883  1.00  0.00    -0.246 OA
BRANCH  21  23
ATOM     23  C   UNL     1       6.376   1.300   0.360  1.00  0.00     0.060 A 
ATOM     24  C   UNL     1       5.264   0.679   0.930  1.00  0.00     0.016 A 
ATOM     25  C   UNL     1       6.980   2.383   1.004  1.00  0.00     0.016 A 
ATOM     26  C   UNL     1       4.702   1.206   2.094  1.00  0.00     0.010 A 
ATOM     27  C   UNL     1       6.472   2.845   2.221  1.00  0.00     0.010 A 
ATOM     28  C   UNL     1       5.306   2.286   2.763  1.00  0.00    -0.014 A 
BRANCH  28  29
ATOM     29  C   UNL     1       4.722   2.805   4.032  1.00  0.00     0.031 A 
ATOM     30  C   UNL     1       4.238   4.229   4.146  1.00  0.00     0.074 A 
ATOM     31  C   UNL     1       4.622   1.982   5.095  1.00  0.00     0.049 A 
ATOM     32  N   UNL     1       3.799   4.868   5.204  1.00  0.00    -0.248 NA
ATOM     33  C   UNL     1       4.260   5.043   2.922  1.00  0.00     0.031 C 
ATOM     34  C   UNL     1       5.053   0.583   5.123  1.00  0.00     0.029 A 
ATOM     35  N   UNL     1       4.117   2.196   6.353  1.00  0.00    -0.354 N 
ATOM     36  C   UNL     1       3.525   6.166   4.784  1.00  0.00     0.074 A 
ATOM     37  C   UNL     1       3.857   6.224   3.374  1.00  0.00     0.031 C 
ATOM     38  C   UNL     1       4.755   0.053   6.317  1.00  0.00     0.029 A 
ATOM     39  C   UNL     1       4.180   1.089   7.166  1.00  0.00     0.049 A 
ATOM     40  H   UNL     1       3.744   3.059   6.645  1.00  0.00     0.167 HD
ATOM     41  C   UNL     1       3.046   7.210   5.507  1.00  0.00     0.034 A 
ATOM     42  C   UNL     1       3.844   0.924   8.459  1.00  0.00     0.034 A 
ATOM     43  C   UNL     1       2.697   7.143   6.908  1.00  0.00     0.049 A 
ATOM     44  C   UNL     1       3.302   2.091   9.232  1.00  0.00     0.074 A 
ATOM     45  C   UNL     1       2.212   8.149   7.729  1.00  0.00     0.029 A 
ATOM     46  N   UNL     1       2.786   6.004   7.697  1.00  0.00    -0.354 N 
ATOM     47  N   UNL     1       3.114   3.326   8.832  1.00  0.00    -0.248 NA
ATOM     48  C   UNL     1       2.937   1.842  10.631  1.00  0.00     0.031 C 
ATOM     49  C   UNL     1       2.045   7.629   9.019  1.00  0.00     0.029 A 
ATOM     50  C   UNL     1       2.374   6.285   8.993  1.00  0.00     0.049 A 
ATOM     51  H   UNL     1       3.096   5.124   7.383  1.00  0.00     0.167 HD
ATOM     52  C   UNL     1       2.622   4.007   9.940  1.00  0.00     0.074 A 
ATOM     53  C   UNL     1       2.506   3.036  11.010  1.00  0.00     0.031 C 
ATOM     54  C   UNL     1       2.304   5.320  10.063  1.00  0.00     0.034 A 
BRANCH  41  55
ATOM     55  C   UNL     1       2.917   8.538   4.803  1.00  0.00     0.023 A 
ATOM     56  C   UNL     1       1.954   8.756   3.803  1.00  0.00     0.031 A 
ATOM     57  C   UNL     1       3.774   9.601   5.139  1.00  0.00     0.131 A 
ATOM     58  C   UNL     1       1.902   9.993   3.141  1.00  0.00     0.055 A 
ATOM     59  C   UNL     1       3.679  10.848   4.518  1.00  0.00     0.041 A 
ATOM     60  F   UNL     1       4.722   9.443   6.076  1.00  0.00    -0.206 F 
ATOM     61  C   UNL     1       2.745  11.047   3.506  1.00  0.00     0.022 A 
BRANCH  58  62
ATOM     62  S   UNL     1       0.785  10.177   1.725  1.00  0.00     0.124 S 
ATOM     63  O   UNL     1       1.283   9.144   0.820  1.00  0.00    -0.237 OA
ATOM     64  O   UNL     1      -0.523   9.927   2.320  1.00  0.00    -0.237 OA
ATOM     65  O   UNL     1       1.016  11.550   1.281  1.00  0.00    -0.744 OA
ENDBRANCH  58  62
ENDBRANCH  41  55
BRANCH  42  66
ATOM     66  C   UNL     1       4.071  -0.388   9.120  1.00  0.00     0.023 A 
ATOM     67  C   UNL     1       2.996  -1.204   9.499  1.00  0.00     0.031 A 
ATOM     68  C   UNL     1       5.377  -0.837   9.384  1.00  0.00     0.131 A 
ATOM     69  C   UNL     1       3.246  -2.425  10.144  1.00  0.00     0.055 A 
ATOM     70  C   UNL     1       5.621  -2.068   9.991  1.00  0.00     0.041 A 
ATOM     71  F   UNL     1       6.435  -0.092   9.028  1.00  0.00    -0.206 F 
ATOM     72  C   UNL     1       4.550  -2.866  10.383  1.00  0.00     0.022 A 
BRANCH  69  73
ATOM     73  S   UNL     1       1.834  -3.413  10.710  1.00  0.00     0.124 S 
ATOM     74  O   UNL     1       1.161  -2.485  11.612  1.00  0.00    -0.237 OA
ATOM     75  O   UNL     1       1.145  -3.701   9.456  1.00  0.00    -0.237 OA
ATOM     76  O   UNL     1       2.461  -4.565  11.353  1.00  0.00    -0.744 OA
ENDBRANCH  69  73
ENDBRANCH  42  66
BRANCH  54  77
ATOM     77  C   UNL     1       1.803   5.761  11.412  1.00  0.00     0.023 A 
ATOM     78  C   UNL     1       2.664   5.824  12.523  1.00  0.00     0.031 A 
ATOM     79  C   UNL     1       0.445   6.061  11.604  1.00  0.00     0.131 A 
ATOM     80  C   UNL     1       2.146   6.126  13.791  1.00  0.00     0.055 A 
ATOM     81  C   UNL     1      -0.058   6.403  12.861  1.00  0.00     0.041 A 
ATOM     82  F   UNL     1      -0.417   6.010  10.577  1.00  0.00    -0.206 F 
ATOM     83  C   UNL     1       0.791   6.423  13.965  1.00  0.00     0.022 A 
BRANCH  80  84
ATOM     84  S   UNL     1       3.246   6.025  15.230  1.00  0.00     0.124 S 
ATOM     85  O   UNL     1       3.777   4.670  15.116  1.00  0.00    -0.237 OA
ATOM     86  O   UNL     1       4.193   7.104  14.972  1.00  0.00    -0.237 OA
ATOM     87  O   UNL     1       2.350   6.244  16.363  1.00  0.00    -0.744 OA
ENDBRANCH  80  84
ENDBRANCH  54  77
ENDBRANCH  28  29
ENDBRANCH  21  23
ENDBRANCH  20  21
ENDBRANCH  19  20
ENDBRANCH   1  19
TORSDOF 18
