REMARK SMILES Cc1ccc(C)c(S(=O)(=O)N[C@H](CC2=c3ccccc3=NC2)C(=O)OCCOC(=O)c2ccc(-c3c4nc(c(-c5cc(S(=O)(=O)[O-])ccc5F)c5ccc([nH]5)c(-c5cc(S(=O)(=O)[O-])ccc5F)c5nc(c(-c6cc(S(=O)(=O)[O-])ccc6F)c6ccc3[nH]6)C=C5)C=C4)cc2)c1
REMARK SMILES IDX 26 1 25 2 23 3 24 4 12 5 11 6 8 8 9 9 10 10 7 11 1 12 2 13
REMARK SMILES IDX 3 14 94 15 4 16 5 17 6 18 13 19 14 20 15 21 22 22 16 23
REMARK SMILES IDX 20 24 21 25 17 26 19 27 18 28 27 29 28 30 29 31 30 32 31 33
REMARK SMILES IDX 32 34 93 35 33 36 92 37 34 38 35 39 36 40 86 41 37 42 91 43
REMARK SMILES IDX 85 44 87 45 38 46 90 47 84 48 83 49 39 51 71 52 51 53 70 54
REMARK SMILES IDX 52 55 55 56 69 57 88 58 53 59 54 60 68 62 89 63 56 64 40 65
REMARK SMILES IDX 41 66 49 67 42 68 48 69 50 70 47 71 43 72 44 73 45 74 46 75
REMARK SMILES IDX 72 76 73 77 81 78 74 79 80 80 82 81 79 82 75 83 76 84 77 85
REMARK SMILES IDX 78 86 57 87 58 88 66 89 59 90 65 91 67 92 64 93 60 94 61 95
REMARK SMILES IDX 62 96 63 97
REMARK H PARENT 11 7 87 50 55 61
REMARK Flexibility Score: inf
ROOT
ATOM      1  C   UNL     1       3.625   8.386  -0.682  1.00  0.00     0.274 C 
ENDROOT
BRANCH   1   2
ATOM      2  O   UNL     1       2.528   7.908  -1.470  1.00  0.00    -0.461 OA
BRANCH   2   3
ATOM      3  C   UNL     1       2.610   6.526  -1.920  1.00  0.00     0.324 C 
ATOM      4  O   UNL     1       3.829   6.382  -2.203  1.00  0.00    -0.250 OA
BRANCH   3   5
ATOM      5  C   UNL     1       0.893   5.143  -1.907  1.00  0.00     0.183 C 
BRANCH   5   6
ATOM      6  N   UNL     1      -0.104   4.511  -3.112  1.00  0.00    -0.197 NA
ATOM      7  H   UNL     1      -1.046   4.564  -2.725  1.00  0.00     0.142 HD
BRANCH   6   8
ATOM      8  S   UNL     1      -0.013   2.946  -3.840  1.00  0.00     0.241 S 
ATOM      9  O   UNL     1       1.359   2.734  -4.243  1.00  0.00    -0.207 OA
ATOM     10  O   UNL     1      -1.087   2.963  -4.816  1.00  0.00    -0.207 OA
BRANCH   8  11
ATOM     11  C   UNL     1      -0.413   1.451  -2.846  1.00  0.00     0.085 A 
ATOM     12  C   UNL     1      -1.634   0.280   0.618  1.00  0.00     0.044 C 
ATOM     13  C   UNL     1      -1.125   0.287  -0.798  1.00  0.00    -0.050 A 
ATOM     14  C   UNL     1      -0.814  -0.953  -1.363  1.00  0.00     0.004 A 
ATOM     15  C   UNL     1      -0.957   1.481  -1.554  1.00  0.00     0.025 A 
ATOM     16  C   UNL     1      -0.350  -1.012  -2.664  1.00  0.00     0.005 A 
ATOM     17  C   UNL     1      -0.150   0.166  -3.422  1.00  0.00    -0.031 A 
ATOM     18  C   UNL     1       0.318  -0.094  -4.833  1.00  0.00     0.046 C 
ENDBRANCH   8  11
ENDBRANCH   6   8
ENDBRANCH   5   6
BRANCH   5  19
ATOM     19  C   UNL     1      -0.412   4.824  -0.574  1.00  0.00     0.065 C 
BRANCH  19  20
ATOM     20  C   UNL     1      -0.789   5.568   0.730  1.00  0.00    -0.037 C 
ATOM     21  C   UNL     1      -0.325   5.396   1.978  1.00  0.00     0.001 A 
ATOM     22  C   UNL     1      -1.637   6.818   0.687  1.00  0.00     0.174 C 
ATOM     23  C   UNL     1       0.438   4.417   2.690  1.00  0.00     0.010 A 
ATOM     24  C   UNL     1      -0.519   6.748   2.557  1.00  0.00     0.065 A 
ATOM     25  N   UNL     1      -1.243   7.592   1.890  1.00  0.00    -0.280 NA
ATOM     26  C   UNL     1       1.010   4.749   3.861  1.00  0.00     0.001 A 
ATOM     27  C   UNL     1       0.256   7.076   3.777  1.00  0.00     0.028 A 
ATOM     28  C   UNL     1       0.977   6.110   4.367  1.00  0.00     0.002 A 
ENDBRANCH  19  20
ENDBRANCH   5  19
ENDBRANCH   3   5
ENDBRANCH   2   3
ENDBRANCH   1   2
BRANCH   1  29
ATOM     29  C   UNL     1       3.611   7.771   0.730  1.00  0.00     0.275 C 
BRANCH  29  30
ATOM     30  O   UNL     1       4.048   6.380   0.872  1.00  0.00    -0.458 OA
BRANCH  30  31
ATOM     31  C   UNL     1       3.285   5.257   0.770  1.00  0.00     0.338 C 
ATOM     32  O   UNL     1       3.471   4.235   1.412  1.00  0.00    -0.246 OA
BRANCH  31  33
ATOM     33  C   UNL     1       2.361   5.241  -0.365  1.00  0.00     0.060 A 
ATOM     34  C   UNL     1       2.933   4.464  -1.902  1.00  0.00     0.016 A 
ATOM     35  C   UNL     1       1.170   6.592  -0.460  1.00  0.00     0.016 A 
ATOM     36  C   UNL     1       2.415   5.195  -3.490  1.00  0.00     0.010 A 
ATOM     37  C   UNL     1       0.588   7.215  -2.055  1.00  0.00     0.010 A 
ATOM     38  C   UNL     1       1.373   6.657  -3.547  1.00  0.00    -0.014 A 
BRANCH  38  39
ATOM     39  C   UNL     1       1.528   7.840  -4.577  1.00  0.00     0.031 A 
ATOM     40  C   UNL     1       0.231   7.844  -5.269  1.00  0.00     0.074 A 
ATOM     41  C   UNL     1       2.357   8.929  -4.849  1.00  0.00     0.049 A 
ATOM     42  N   UNL     1      -0.078   6.950  -6.148  1.00  0.00    -0.248 NA
ATOM     43  C   UNL     1      -0.926   8.552  -4.697  1.00  0.00     0.031 C 
ATOM     44  C   UNL     1       3.578   9.427  -4.181  1.00  0.00     0.029 A 
ATOM     45  N   UNL     1       2.250   9.909  -5.867  1.00  0.00    -0.354 N 
ATOM     46  C   UNL     1      -1.378   7.248  -6.485  1.00  0.00     0.074 A 
ATOM     47  C   UNL     1      -1.920   7.925  -5.336  1.00  0.00     0.031 C 
ATOM     48  C   UNL     1       3.950  10.662  -4.643  1.00  0.00     0.029 A 
ATOM     49  C   UNL     1       3.111  11.051  -5.770  1.00  0.00     0.049 A 
ATOM     50  H   UNL     1       1.612   9.809  -6.611  1.00  0.00     0.167 HD
ATOM     51  C   UNL     1      -1.747   7.311  -7.794  1.00  0.00     0.034 A 
ATOM     52  C   UNL     1       3.301  12.116  -6.643  1.00  0.00     0.034 A 
ATOM     53  C   UNL     1      -0.622   6.967  -8.640  1.00  0.00     0.049 A 
ATOM     54  C   UNL     1       2.804  11.690  -7.959  1.00  0.00     0.074 A 
ATOM     55  C   UNL     1       0.144   5.845  -8.872  1.00  0.00     0.029 A 
ATOM     56  N   UNL     1       0.131   8.052  -9.018  1.00  0.00    -0.354 N 
ATOM     57  N   UNL     1       3.392  10.806  -8.703  1.00  0.00    -0.248 NA
ATOM     58  C   UNL     1       1.411  11.960  -8.249  1.00  0.00     0.031 C 
ATOM     59  C   UNL     1       1.457   6.318  -9.164  1.00  0.00     0.029 A 
ATOM     60  C   UNL     1       1.441   7.711  -9.216  1.00  0.00     0.049 A 
ATOM     61  H   UNL     1      -0.227   8.961  -9.132  1.00  0.00     0.167 HD
ATOM     62  C   UNL     1       2.339  10.031  -9.141  1.00  0.00     0.074 A 
ATOM     63  C   UNL     1       1.145  10.858  -8.949  1.00  0.00     0.031 C 
ATOM     64  C   UNL     1       2.511   8.688  -9.285  1.00  0.00     0.034 A 
BRANCH  51  65
ATOM     65  C   UNL     1      -2.915   8.108  -8.313  1.00  0.00     0.023 A 
ATOM     66  C   UNL     1      -3.586   9.102  -7.576  1.00  0.00     0.031 A 
ATOM     67  C   UNL     1      -3.300   7.974  -9.659  1.00  0.00     0.131 A 
ATOM     68  C   UNL     1      -4.630   9.851  -8.131  1.00  0.00     0.055 A 
ATOM     69  C   UNL     1      -4.288   8.777 -10.239  1.00  0.00     0.041 A 
ATOM     70  F   UNL     1      -2.705   7.075 -10.458  1.00  0.00    -0.206 F 
ATOM     71  C   UNL     1      -4.970   9.712  -9.471  1.00  0.00     0.022 A 
BRANCH  68  72
ATOM     72  S   UNL     1      -5.586  10.999  -7.102  1.00  0.00     0.124 S 
ATOM     73  O   UNL     1      -5.465  12.249  -7.844  1.00  0.00    -0.237 OA
ATOM     74  O   UNL     1      -6.907  10.376  -7.120  1.00  0.00    -0.237 OA
ATOM     75  O   UNL     1      -4.901  10.956  -5.813  1.00  0.00    -0.744 OA
ENDBRANCH  68  72
ENDBRANCH  51  65
BRANCH  52  76
ATOM     76  C   UNL     1       3.440  13.628  -6.484  1.00  0.00     0.023 A 
ATOM     77  C   UNL     1       2.822  14.244  -5.389  1.00  0.00     0.031 A 
ATOM     78  C   UNL     1       3.748  14.498  -7.579  1.00  0.00     0.131 A 
ATOM     79  C   UNL     1       2.462  15.613  -5.427  1.00  0.00     0.055 A 
ATOM     80  C   UNL     1       3.421  15.874  -7.598  1.00  0.00     0.041 A 
ATOM     81  F   UNL     1       4.292  14.014  -8.708  1.00  0.00    -0.206 F 
ATOM     82  C   UNL     1       2.751  16.434  -6.521  1.00  0.00     0.022 A 
BRANCH  79  83
ATOM     83  S   UNL     1       1.460  16.323  -4.090  1.00  0.00     0.124 S 
ATOM     84  O   UNL     1       2.217  17.521  -3.737  1.00  0.00    -0.237 OA
ATOM     85  O   UNL     1       0.188  16.559  -4.764  1.00  0.00    -0.237 OA
ATOM     86  O   UNL     1       1.460  15.270  -3.080  1.00  0.00    -0.744 OA
ENDBRANCH  79  83
ENDBRANCH  52  76
BRANCH  64  87
ATOM     87  C   UNL     1       3.923   8.150  -9.391  1.00  0.00     0.023 A 
ATOM     88  C   UNL     1       4.181   7.353 -10.515  1.00  0.00     0.031 A 
ATOM     89  C   UNL     1       4.920   8.217  -8.398  1.00  0.00     0.131 A 
ATOM     90  C   UNL     1       5.343   6.583 -10.591  1.00  0.00     0.055 A 
ATOM     91  C   UNL     1       6.123   7.505  -8.514  1.00  0.00     0.041 A 
ATOM     92  F   UNL     1       4.739   8.906  -7.263  1.00  0.00    -0.206 F 
ATOM     93  C   UNL     1       6.327   6.662  -9.603  1.00  0.00     0.022 A 
BRANCH  90  94
ATOM     94  S   UNL     1       5.507   5.337 -11.892  1.00  0.00     0.124 S 
ATOM     95  O   UNL     1       6.684   5.801 -12.619  1.00  0.00    -0.237 OA
ATOM     96  O   UNL     1       5.689   4.109 -11.121  1.00  0.00    -0.237 OA
ATOM     97  O   UNL     1       4.247   5.424 -12.626  1.00  0.00    -0.744 OA
ENDBRANCH  90  94
ENDBRANCH  64  87
ENDBRANCH  38  39
ENDBRANCH  31  33
ENDBRANCH  30  31
ENDBRANCH  29  30
ENDBRANCH   1  29
TORSDOF 19
