REMARK SMILES Cc1nn(-c2cccc(C(F)(F)F)c2)c(C)c1CC(=O)OCCOC(=O)c1ccc(-c2c3nc(c(-c4cc(S(=O)(=O)[O-])ccc4F)c4ccc([nH]4)c(-c4cc(S(=O)(=O)[O-])ccc4F)c4nc(c(-c5cc(S(=O)(=O)[O-])ccc5F)c5ccc2[nH]5)C=C4)C=C3)cc1
REMARK SMILES IDX 22 1 21 2 19 3 20 4 18 5 17 6 1 7 2 8 3 9 4 10 15 11 16 12
REMARK SMILES IDX 5 13 6 14 14 15 7 16 9 17 8 18 10 19 11 20 12 21 13 22 23 23
REMARK SMILES IDX 24 24 25 25 26 26 27 27 28 28 89 29 29 30 88 31 30 32 31 33
REMARK SMILES IDX 32 34 82 35 33 36 87 37 81 38 83 39 34 40 86 41 80 42 79 43
REMARK SMILES IDX 35 45 67 46 47 47 66 48 48 49 51 50 65 51 84 52 49 53 50 54
REMARK SMILES IDX 64 56 85 57 52 58 36 59 37 60 45 61 38 62 44 63 46 64 43 65
REMARK SMILES IDX 39 66 40 67 41 68 42 69 68 70 69 71 77 72 70 73 76 74 78 75
REMARK SMILES IDX 75 76 71 77 72 78 73 79 74 80 53 81 54 82 62 83 55 84 61 85
REMARK SMILES IDX 63 86 60 87 56 88 57 89 58 90 59 91
REMARK H PARENT 83 44 51 55
REMARK Flexibility Score: inf
ROOT
ATOM      1  C   UNL     1      -3.448   2.468   1.120  1.00  0.00     0.274 C 
ENDROOT
BRANCH   1   2
ATOM      2  O   UNL     1      -2.155   1.821   1.216  1.00  0.00    -0.462 OA
BRANCH   2   3
ATOM      3  C   UNL     1      -1.101   2.624   1.529  1.00  0.00     0.310 C 
ATOM      4  O   UNL     1      -1.171   3.854   1.547  1.00  0.00    -0.252 OA
BRANCH   3   5
ATOM      5  C   UNL     1       0.215   1.913   1.806  1.00  0.00     0.162 C 
BRANCH   5   6
ATOM      6  C   UNL     1       0.200   0.455   2.167  1.00  0.00     0.007 A 
ATOM      7  C   UNL     1       0.846  -0.628  -0.117  1.00  0.00     0.069 C 
ATOM      8  C   UNL     1       0.465  -0.658   1.317  1.00  0.00     0.064 A 
ATOM      9  N   UNL     1       0.464  -1.826   1.978  1.00  0.00    -0.173 NA
ATOM     10  N   UNL     1       0.059  -1.489   3.222  1.00  0.00    -0.238 N 
ATOM     11  C   UNL     1       0.159  -0.129   3.425  1.00  0.00     0.045 A 
ATOM     12  C   UNL     1       0.269   0.427   4.798  1.00  0.00     0.067 C 
BRANCH  10  13
ATOM     13  C   UNL     1      -0.319  -2.441   4.192  1.00  0.00     0.065 A 
ATOM     14  C   UNL     1       0.571  -3.442   4.579  1.00  0.00     0.028 A 
ATOM     15  C   UNL     1      -1.558  -2.288   4.837  1.00  0.00     0.041 A 
ATOM     16  C   UNL     1       0.236  -4.255   5.664  1.00  0.00     0.003 A 
ATOM     17  C   UNL     1      -1.926  -3.148   5.883  1.00  0.00     0.058 A 
ATOM     18  C   UNL     1      -1.001  -4.112   6.307  1.00  0.00     0.013 A 
BRANCH  17  19
ATOM     19  C   UNL     1      -3.289  -3.037   6.535  1.00  0.00     0.416 C 
ATOM     20  F   UNL     1      -3.954  -4.223   6.578  1.00  0.00    -0.166 F 
ATOM     21  F   UNL     1      -3.262  -2.518   7.784  1.00  0.00    -0.166 F 
ATOM     22  F   UNL     1      -4.118  -2.203   5.825  1.00  0.00    -0.166 F 
ENDBRANCH  17  19
ENDBRANCH  10  13
ENDBRANCH   5   6
ENDBRANCH   3   5
ENDBRANCH   2   3
ENDBRANCH   1   2
BRANCH   1  23
ATOM     23  C   UNL     1      -4.310   2.310   2.381  1.00  0.00     0.275 C 
BRANCH  23  24
ATOM     24  O   UNL     1      -3.946   3.179   3.466  1.00  0.00    -0.458 OA
BRANCH  24  25
ATOM     25  C   UNL     1      -2.912   2.689   4.178  1.00  0.00     0.338 C 
ATOM     26  O   UNL     1      -2.119   1.844   3.803  1.00  0.00    -0.246 OA
BRANCH  25  27
ATOM     27  C   UNL     1      -2.953   3.025   5.598  1.00  0.00     0.060 A 
ATOM     28  C   UNL     1      -1.775   2.738   6.294  1.00  0.00     0.016 A 
ATOM     29  C   UNL     1      -4.189   3.090   6.238  1.00  0.00     0.016 A 
ATOM     30  C   UNL     1      -1.869   2.229   7.567  1.00  0.00     0.010 A 
ATOM     31  C   UNL     1      -4.267   2.666   7.551  1.00  0.00     0.010 A 
ATOM     32  C   UNL     1      -3.127   2.141   8.171  1.00  0.00    -0.014 A 
BRANCH  32  33
ATOM     33  C   UNL     1      -3.163   1.655   9.545  1.00  0.00     0.031 A 
ATOM     34  C   UNL     1      -2.315   2.457  10.469  1.00  0.00     0.074 A 
ATOM     35  C   UNL     1      -4.014   0.701   9.967  1.00  0.00     0.049 A 
ATOM     36  N   UNL     1      -1.395   2.061  11.286  1.00  0.00    -0.248 NA
ATOM     37  C   UNL     1      -2.393   3.923  10.321  1.00  0.00     0.031 C 
ATOM     38  C   UNL     1      -5.065   0.042   9.189  1.00  0.00     0.029 A 
ATOM     39  N   UNL     1      -4.234   0.249  11.233  1.00  0.00    -0.354 N 
ATOM     40  C   UNL     1      -0.928   3.218  11.908  1.00  0.00     0.074 A 
ATOM     41  C   UNL     1      -1.409   4.317  11.123  1.00  0.00     0.031 C 
ATOM     42  C   UNL     1      -5.972  -0.482  10.039  1.00  0.00     0.029 A 
ATOM     43  C   UNL     1      -5.504  -0.293  11.403  1.00  0.00     0.049 A 
ATOM     44  H   UNL     1      -3.565   0.300  11.953  1.00  0.00     0.167 HD
ATOM     45  C   UNL     1      -0.398   3.197  13.159  1.00  0.00     0.034 A 
ATOM     46  C   UNL     1      -6.176  -0.448  12.574  1.00  0.00     0.034 A 
ATOM     47  C   UNL     1       0.087   1.877  13.495  1.00  0.00     0.049 A 
ATOM     48  C   UNL     1      -5.178  -0.399  13.672  1.00  0.00     0.074 A 
ATOM     49  C   UNL     1       1.013   1.021  12.928  1.00  0.00     0.029 A 
ATOM     50  N   UNL     1      -0.645   1.099  14.365  1.00  0.00    -0.354 N 
ATOM     51  N   UNL     1      -4.252  -1.300  13.851  1.00  0.00    -0.248 NA
ATOM     52  C   UNL     1      -4.918   0.884  14.310  1.00  0.00     0.031 C 
ATOM     53  C   UNL     1       0.471  -0.285  13.105  1.00  0.00     0.029 A 
ATOM     54  C   UNL     1      -0.720  -0.160  13.823  1.00  0.00     0.049 A 
ATOM     55  H   UNL     1      -1.041   1.391  15.218  1.00  0.00     0.167 HD
ATOM     56  C   UNL     1      -3.127  -0.590  14.242  1.00  0.00     0.074 A 
ATOM     57  C   UNL     1      -3.626   0.730  14.616  1.00  0.00     0.031 C 
ATOM     58  C   UNL     1      -1.868  -1.038  13.956  1.00  0.00     0.034 A 
BRANCH  45  59
ATOM     59  C   UNL     1      -0.684   4.263  14.203  1.00  0.00     0.023 A 
ATOM     60  C   UNL     1      -0.199   4.018  15.500  1.00  0.00     0.031 A 
ATOM     61  C   UNL     1      -1.629   5.314  14.101  1.00  0.00     0.131 A 
ATOM     62  C   UNL     1      -0.758   4.660  16.616  1.00  0.00     0.055 A 
ATOM     63  C   UNL     1      -2.130   6.002  15.210  1.00  0.00     0.041 A 
ATOM     64  F   UNL     1      -2.186   5.697  12.948  1.00  0.00    -0.206 F 
ATOM     65  C   UNL     1      -1.730   5.646  16.482  1.00  0.00     0.022 A 
BRANCH  62  66
ATOM     66  S   UNL     1      -0.346   4.017  18.255  1.00  0.00     0.124 S 
ATOM     67  O   UNL     1      -0.602   2.591  18.077  1.00  0.00    -0.237 OA
ATOM     68  O   UNL     1       1.053   4.411  18.384  1.00  0.00    -0.237 OA
ATOM     69  O   UNL     1      -1.278   4.716  19.136  1.00  0.00    -0.744 OA
ENDBRANCH  62  66
ENDBRANCH  45  59
BRANCH  46  70
ATOM     70  C   UNL     1      -7.643  -0.287  12.773  1.00  0.00     0.023 A 
ATOM     71  C   UNL     1      -8.322  -0.834  13.878  1.00  0.00     0.031 A 
ATOM     72  C   UNL     1      -8.381   0.600  11.953  1.00  0.00     0.131 A 
ATOM     73  C   UNL     1      -9.680  -0.509  14.110  1.00  0.00     0.055 A 
ATOM     74  C   UNL     1      -9.726   0.899  12.172  1.00  0.00     0.041 A 
ATOM     75  F   UNL     1      -7.796   1.275  10.950  1.00  0.00    -0.206 F 
ATOM     76  C   UNL     1     -10.382   0.347  13.258  1.00  0.00     0.022 A 
BRANCH  73  77
ATOM     77  S   UNL     1     -10.531  -1.126  15.597  1.00  0.00     0.124 S 
ATOM     78  O   UNL     1     -10.662  -2.550  15.312  1.00  0.00    -0.237 OA
ATOM     79  O   UNL     1      -9.607  -0.758  16.663  1.00  0.00    -0.237 OA
ATOM     80  O   UNL     1     -11.792  -0.381  15.600  1.00  0.00    -0.744 OA
ENDBRANCH  73  77
ENDBRANCH  46  70
BRANCH  58  81
ATOM     81  C   UNL     1      -1.682  -2.476  13.516  1.00  0.00     0.023 A 
ATOM     82  C   UNL     1      -2.324  -3.072  12.408  1.00  0.00     0.031 A 
ATOM     83  C   UNL     1      -0.703  -3.232  14.187  1.00  0.00     0.131 A 
ATOM     84  C   UNL     1      -1.980  -4.381  12.016  1.00  0.00     0.055 A 
ATOM     85  C   UNL     1      -0.351  -4.519  13.785  1.00  0.00     0.041 A 
ATOM     86  F   UNL     1      -0.037  -2.712  15.232  1.00  0.00    -0.206 F 
ATOM     87  C   UNL     1      -0.994  -5.101  12.700  1.00  0.00     0.022 A 
BRANCH  84  88
ATOM     88  S   UNL     1      -2.822  -5.201  10.625  1.00  0.00     0.124 S 
ATOM     89  O   UNL     1      -4.211  -4.782  10.758  1.00  0.00    -0.237 OA
ATOM     90  O   UNL     1      -2.098  -4.676   9.470  1.00  0.00    -0.237 OA
ATOM     91  O   UNL     1      -2.586  -6.624  10.883  1.00  0.00    -0.744 OA
ENDBRANCH  84  88
ENDBRANCH  58  81
ENDBRANCH  32  33
ENDBRANCH  25  27
ENDBRANCH  24  25
ENDBRANCH  23  24
ENDBRANCH   1  23
TORSDOF 17
