REMARK SMILES COc1ccc(C(=O)N2CC[C@@H](C(=O)OCCOC(=O)c3ccc(-c4c5nc(c(-c6cc(S(=O)(=O)[O-])ccc6F)c6ccc([nH]6)c(-c6cc(S(=O)(=O)[O-])ccc6F)c6nc(c(-c7cc(S(=O)(=O)[O-])ccc7F)c7ccc4[nH]7)C=C6)C=C5)cc3)[C@H]2C)cc1O
REMARK SMILES IDX 16 1 15 2 13 3 14 4 12 5 9 6 10 7 84 8 11 9 85 10 7 11 8 12
REMARK SMILES IDX 6 13 3 14 4 15 87 16 5 17 86 18 2 19 1 20 88 21 17 23 18 24
REMARK SMILES IDX 19 25 20 26 21 27 22 28 83 29 23 30 82 31 24 32 25 33 26 34
REMARK SMILES IDX 76 35 27 36 81 37 75 38 77 39 28 40 80 41 74 42 73 43 29 45
REMARK SMILES IDX 61 46 41 47 60 48 42 49 45 50 59 51 78 52 43 53 44 54 58 56
REMARK SMILES IDX 79 57 46 58 30 59 31 60 39 61 32 62 38 63 40 64 37 65 33 66
REMARK SMILES IDX 34 67 35 68 36 69 62 70 63 71 71 72 64 73 70 74 72 75 69 76
REMARK SMILES IDX 65 77 66 78 67 79 68 80 47 81 48 82 56 83 49 84 55 85 57 86
REMARK SMILES IDX 54 87 50 88 51 89 52 90 53 91
REMARK H PARENT 88 22 77 44 45 55
REMARK Flexibility Score: inf
ROOT
ATOM      1  C   UNL     1       2.026  -7.419   4.859  1.00  0.00     0.274 C 
ENDROOT
BRANCH   1   2
ATOM      2  O   UNL     1       2.143  -7.177   3.442  1.00  0.00    -0.462 OA
BRANCH   2   3
ATOM      3  C   UNL     1       2.366  -8.256   2.662  1.00  0.00     0.311 C 
ATOM      4  O   UNL     1       2.662  -9.364   3.101  1.00  0.00    -0.252 OA
BRANCH   3   5
ATOM      5  C   UNL     1       2.270  -7.999   1.174  1.00  0.00     0.123 C 
ATOM      6  N   UNL     1       2.255  -6.503  -0.675  1.00  0.00    -0.335 N 
ATOM      7  C   UNL     1       3.329  -7.457  -0.856  1.00  0.00     0.121 C 
ATOM      8  C   UNL     1       1.453  -6.845   0.536  1.00  0.00     0.096 C 
ATOM      9  C   UNL     1       3.662  -7.875   0.557  1.00  0.00     0.039 C 
ATOM     10  C   UNL     1       1.097  -5.661   1.421  1.00  0.00     0.032 C 
BRANCH   6  11
ATOM     11  C   UNL     1       1.820  -5.805  -1.795  1.00  0.00     0.254 C 
ATOM     12  O   UNL     1       1.948  -6.226  -2.942  1.00  0.00    -0.269 OA
BRANCH  11  13
ATOM     13  C   UNL     1       1.366  -4.409  -1.609  1.00  0.00     0.043 A 
ATOM     14  C   UNL     1       0.556  -1.740  -1.247  1.00  0.00     0.160 A 
ATOM     15  C   UNL     1      -0.022  -2.539  -2.244  1.00  0.00     0.051 A 
ATOM     16  C   UNL     1       1.563  -2.296  -0.455  1.00  0.00     0.158 A 
ATOM     17  C   UNL     1       0.370  -3.871  -2.424  1.00  0.00     0.018 A 
ATOM     18  C   UNL     1       2.010  -3.594  -0.675  1.00  0.00     0.064 A 
BRANCH  14  19
ATOM     19  O   UNL     1       0.031  -0.480  -1.174  1.00  0.00    -0.493 OA
ATOM     20  C   UNL     1       0.679   0.468  -0.337  1.00  0.00     0.278 C 
ENDBRANCH  14  19
BRANCH  16  21
ATOM     21  O   UNL     1       2.119  -1.660   0.618  1.00  0.00    -0.504 OA
ATOM     22  H   UNL     1       1.865  -0.783   0.827  1.00  0.00     0.293 HD
ENDBRANCH  16  21
ENDBRANCH  11  13
ENDBRANCH   6  11
ENDBRANCH   3   5
ENDBRANCH   2   3
ENDBRANCH   1   2
BRANCH   1  23
ATOM     23  C   UNL     1       0.559  -7.586   5.276  1.00  0.00     0.275 C 
BRANCH  23  24
ATOM     24  O   UNL     1       0.017  -8.853   4.858  1.00  0.00    -0.458 OA
BRANCH  24  25
ATOM     25  C   UNL     1      -0.601  -8.850   3.653  1.00  0.00     0.338 C 
ATOM     26  O   UNL     1      -0.757  -7.897   2.909  1.00  0.00    -0.246 OA
BRANCH  25  27
ATOM     27  C   UNL     1      -0.964 -10.217   3.264  1.00  0.00     0.060 A 
ATOM     28  C   UNL     1      -0.366 -10.754   2.122  1.00  0.00     0.016 A 
ATOM     29  C   UNL     1      -1.958 -10.919   3.945  1.00  0.00     0.016 A 
ATOM     30  C   UNL     1      -0.765 -11.993   1.639  1.00  0.00     0.010 A 
ATOM     31  C   UNL     1      -2.353 -12.169   3.464  1.00  0.00     0.010 A 
ATOM     32  C   UNL     1      -1.768 -12.706   2.303  1.00  0.00    -0.014 A 
BRANCH  32  33
ATOM     33  C   UNL     1      -2.253 -13.986   1.743  1.00  0.00     0.031 A 
ATOM     34  C   UNL     1      -3.598 -14.035   1.079  1.00  0.00     0.074 A 
ATOM     35  C   UNL     1      -1.485 -15.087   1.828  1.00  0.00     0.049 A 
ATOM     36  N   UNL     1      -4.284 -15.069   0.671  1.00  0.00    -0.248 NA
ATOM     37  C   UNL     1      -4.258 -12.740   0.854  1.00  0.00     0.031 C 
ATOM     38  C   UNL     1      -0.132 -15.130   2.385  1.00  0.00     0.029 A 
ATOM     39  N   UNL     1      -1.736 -16.382   1.457  1.00  0.00    -0.354 N 
ATOM     40  C   UNL     1      -5.472 -14.556   0.162  1.00  0.00     0.074 A 
ATOM     41  C   UNL     1      -5.416 -13.118   0.331  1.00  0.00     0.031 C 
ATOM     42  C   UNL     1       0.323 -16.392   2.329  1.00  0.00     0.029 A 
ATOM     43  C   UNL     1      -0.727 -17.253   1.792  1.00  0.00     0.049 A 
ATOM     44  H   UNL     1      -2.560 -16.662   0.995  1.00  0.00     0.167 HD
ATOM     45  C   UNL     1      -6.510 -15.230  -0.392  1.00  0.00     0.034 A 
ATOM     46  C   UNL     1      -0.677 -18.597   1.718  1.00  0.00     0.034 A 
ATOM     47  C   UNL     1      -6.536 -16.665  -0.545  1.00  0.00     0.049 A 
ATOM     48  C   UNL     1      -1.876 -19.333   1.175  1.00  0.00     0.074 A 
ATOM     49  C   UNL     1      -7.537 -17.462  -1.071  1.00  0.00     0.029 A 
ATOM     50  N   UNL     1      -5.506 -17.520  -0.169  1.00  0.00    -0.354 N 
ATOM     51  N   UNL     1      -3.018 -18.847   0.746  1.00  0.00    -0.248 NA
ATOM     52  C   UNL     1      -1.780 -20.796   1.108  1.00  0.00     0.031 C 
ATOM     53  C   UNL     1      -7.137 -18.799  -0.961  1.00  0.00     0.029 A 
ATOM     54  C   UNL     1      -5.856 -18.835  -0.432  1.00  0.00     0.049 A 
ATOM     55  H   UNL     1      -4.651 -17.233   0.226  1.00  0.00     0.167 HD
ATOM     56  C   UNL     1      -3.765 -19.945   0.329  1.00  0.00     0.074 A 
ATOM     57  C   UNL     1      -2.940 -21.116   0.553  1.00  0.00     0.031 C 
ATOM     58  C   UNL     1      -5.016 -19.985  -0.196  1.00  0.00     0.034 A 
BRANCH  45  59
ATOM     59  C   UNL     1      -7.718 -14.423  -0.800  1.00  0.00     0.023 A 
ATOM     60  C   UNL     1      -7.661 -13.464  -1.826  1.00  0.00     0.031 A 
ATOM     61  C   UNL     1      -8.938 -14.585  -0.119  1.00  0.00     0.131 A 
ATOM     62  C   UNL     1      -8.778 -12.656  -2.092  1.00  0.00     0.055 A 
ATOM     63  C   UNL     1     -10.069 -13.832  -0.441  1.00  0.00     0.041 A 
ATOM     64  F   UNL     1      -9.047 -15.467   0.887  1.00  0.00    -0.206 F 
ATOM     65  C   UNL     1      -9.988 -12.849  -1.423  1.00  0.00     0.022 A 
BRANCH  62  66
ATOM     66  S   UNL     1      -8.585 -11.252  -3.225  1.00  0.00     0.124 S 
ATOM     67  O   UNL     1      -7.540 -10.478  -2.560  1.00  0.00    -0.237 OA
ATOM     68  O   UNL     1      -8.203 -11.903  -4.473  1.00  0.00    -0.237 OA
ATOM     69  O   UNL     1      -9.907 -10.627  -3.226  1.00  0.00    -0.744 OA
ENDBRANCH  62  66
ENDBRANCH  45  59
BRANCH  46  70
ATOM     70  C   UNL     1       0.515 -19.337   2.220  1.00  0.00     0.023 A 
ATOM     71  C   UNL     1       1.318 -20.093   1.353  1.00  0.00     0.031 A 
ATOM     72  C   UNL     1       0.846 -19.327   3.587  1.00  0.00     0.131 A 
ATOM     73  C   UNL     1       2.389 -20.840   1.867  1.00  0.00     0.055 A 
ATOM     74  C   UNL     1       1.943 -20.030   4.086  1.00  0.00     0.041 A 
ATOM     75  F   UNL     1       0.111 -18.619   4.460  1.00  0.00    -0.206 F 
ATOM     76  C   UNL     1       2.715 -20.803   3.225  1.00  0.00     0.022 A 
BRANCH  73  77
ATOM     77  S   UNL     1       3.306 -21.929   0.744  1.00  0.00     0.124 S 
ATOM     78  O   UNL     1       2.246 -22.791   0.233  1.00  0.00    -0.237 OA
ATOM     79  O   UNL     1       3.873 -20.977  -0.205  1.00  0.00    -0.237 OA
ATOM     80  O   UNL     1       4.275 -22.584   1.621  1.00  0.00    -0.744 OA
ENDBRANCH  73  77
ENDBRANCH  46  70
BRANCH  58  81
ATOM     81  C   UNL     1      -5.532 -21.337  -0.619  1.00  0.00     0.023 A 
ATOM     82  C   UNL     1      -5.865 -22.329   0.319  1.00  0.00     0.031 A 
ATOM     83  C   UNL     1      -5.682 -21.633  -1.985  1.00  0.00     0.131 A 
ATOM     84  C   UNL     1      -6.287 -23.591  -0.125  1.00  0.00     0.055 A 
ATOM     85  C   UNL     1      -6.152 -22.873  -2.418  1.00  0.00     0.041 A 
ATOM     86  F   UNL     1      -5.377 -20.719  -2.920  1.00  0.00    -0.206 F 
ATOM     87  C   UNL     1      -6.446 -23.864  -1.487  1.00  0.00     0.022 A 
BRANCH  84  88
ATOM     88  S   UNL     1      -6.556 -24.902   1.100  1.00  0.00     0.124 S 
ATOM     89  O   UNL     1      -5.239 -25.014   1.719  1.00  0.00    -0.237 OA
ATOM     90  O   UNL     1      -7.607 -24.335   1.938  1.00  0.00    -0.237 OA
ATOM     91  O   UNL     1      -6.961 -26.050   0.291  1.00  0.00    -0.744 OA
ENDBRANCH  84  88
ENDBRANCH  58  81
ENDBRANCH  32  33
ENDBRANCH  25  27
ENDBRANCH  24  25
ENDBRANCH  23  24
ENDBRANCH   1  23
TORSDOF 18
