REMARK SMILES Cc1coc2c(C)c3oc(=O)c(CCC(=O)N[C@H](CC(C)C)C(=O)OCCOC(=O)c4ccc(-c5c6nc(c(-c7cc(S(=O)(=O)[O-])ccc7F)c7ccc([nH]7)c(-c7cc(S(=O)(=O)[O-])ccc7F)c7nc(c(-c8cc(S(=O)(=O)[O-])ccc8F)c8ccc5[nH]8)C=C7)C=C6)cc4)c(C)c3cc12
REMARK SMILES IDX 26 1 25 2 23 3 24 4 18 5 17 6 15 7 16 8 14 10 13 11 12 12
REMARK SMILES IDX 1 13 2 14 3 15 98 16 4 17 5 18 97 19 6 20 96 21 7 22 8 23
REMARK SMILES IDX 94 24 9 25 95 26 10 27 11 28 19 29 20 30 21 31 22 32 27 33
REMARK SMILES IDX 28 34 29 35 30 36 31 37 32 38 93 39 33 40 92 41 34 42 35 43
REMARK SMILES IDX 36 44 86 45 37 46 91 47 85 48 87 49 38 50 90 51 84 52 83 53
REMARK SMILES IDX 39 55 71 56 51 57 70 58 52 59 55 60 69 61 88 62 53 63 54 64
REMARK SMILES IDX 68 66 89 67 56 68 40 69 41 70 49 71 42 72 48 73 50 74 47 75
REMARK SMILES IDX 43 76 44 77 45 78 46 79 72 80 73 81 81 82 74 83 80 84 82 85
REMARK SMILES IDX 79 86 75 87 76 88 77 89 78 90 57 91 58 92 66 93 59 94 65 95
REMARK SMILES IDX 67 96 64 97 60 98 61 99 62 100 63 101
REMARK H PARENT 17 9 87 54 55 65
REMARK Flexibility Score: inf
ROOT
ATOM      1  C   UNL     1      -3.103   4.251   1.978  1.00  0.00     0.274 C 
ENDROOT
BRANCH   1   2
ATOM      2  O   UNL     1      -1.704   4.082   2.361  1.00  0.00    -0.461 OA
BRANCH   2   3
ATOM      3  C   UNL     1      -0.730   5.123   2.167  1.00  0.00     0.328 C 
ATOM      4  O   UNL     1      -1.391   6.135   1.820  1.00  0.00    -0.250 OA
BRANCH   3   5
ATOM      5  C   UNL     1       1.456   4.862   2.172  1.00  0.00     0.192 C 
BRANCH   5   6
ATOM      6  N   UNL     1       2.515   4.624   0.876  1.00  0.00    -0.343 N 
ATOM      7  C   UNL     1       2.958   5.369  -0.184  1.00  0.00     0.221 C 
ATOM      8  O   UNL     1       3.807   4.891  -0.936  1.00  0.00    -0.275 OA
ATOM      9  H   UNL     1       2.913   3.723   0.886  1.00  0.00     0.164 HD
BRANCH   7  10
ATOM     10  C   UNL     1       2.288   6.689  -0.490  1.00  0.00     0.105 C 
BRANCH  10  11
ATOM     11  C   UNL     1       0.791   6.450  -0.681  1.00  0.00     0.053 C 
BRANCH  11  12
ATOM     12  C   UNL     1       0.378   5.633   0.495  1.00  0.00     0.042 A 
ATOM     13  C   UNL     1      -0.953  -1.098   3.350  1.00  0.00     0.048 C 
ATOM     14  C   UNL     1      -0.918   0.127   4.173  1.00  0.00    -0.005 A 
ATOM     15  C   UNL     1      -1.314   0.284   5.480  1.00  0.00     0.199 A 
ATOM     16  C   UNL     1      -0.468   1.411   3.720  1.00  0.00     0.024 A 
ATOM     17  O   UNL     1      -1.050   1.535   5.910  1.00  0.00    -0.464 OA
ATOM     18  C   UNL     1      -0.516   2.246   4.867  1.00  0.00     0.140 A 
ATOM     19  C   UNL     1      -0.075   1.825   2.399  1.00  0.00     0.024 A 
ATOM     20  C   UNL     1      -0.141   3.597   5.032  1.00  0.00     0.036 A 
ATOM     21  C   UNL     1       0.215   3.155   2.264  1.00  0.00     0.022 A 
ATOM     22  C   UNL     1      -0.283   4.349   6.311  1.00  0.00     0.052 C 
ATOM     23  C   UNL     1       0.183   4.048   3.762  1.00  0.00     0.145 A 
ATOM     24  C   UNL     1       0.203   4.062   0.601  1.00  0.00    -0.030 A 
ATOM     25  O   UNL     1       0.407   5.838   3.540  1.00  0.00    -0.422 OA
ATOM     26  C   UNL     1       0.235   3.111  -0.550  1.00  0.00     0.046 C 
ATOM     27  C   UNL     1       0.531   6.817   2.038  1.00  0.00     0.339 A 
ATOM     28  O   UNL     1       0.799   8.005   2.051  1.00  0.00    -0.246 OA
ENDBRANCH  11  12
ENDBRANCH  10  11
ENDBRANCH   7  10
ENDBRANCH   5   6
BRANCH   5  29
ATOM     29  C   UNL     1       2.598   4.153   3.324  1.00  0.00     0.040 C 
BRANCH  29  30
ATOM     30  C   UNL     1       3.169   2.725   3.035  1.00  0.00    -0.015 C 
ATOM     31  C   UNL     1       4.589   2.753   2.442  1.00  0.00     0.007 C 
ATOM     32  C   UNL     1       3.230   1.883   4.313  1.00  0.00     0.007 C 
ENDBRANCH  29  30
ENDBRANCH   5  29
ENDBRANCH   3   5
ENDBRANCH   2   3
ENDBRANCH   1   2
BRANCH   1  33
ATOM     33  C   UNL     1      -4.014   4.888   3.032  1.00  0.00     0.275 C 
BRANCH  33  34
ATOM     34  O   UNL     1      -3.679   6.257   3.279  1.00  0.00    -0.458 OA
BRANCH  34  35
ATOM     35  C   UNL     1      -2.677   6.301   4.180  1.00  0.00     0.338 C 
ATOM     36  O   UNL     1      -2.168   5.327   4.700  1.00  0.00    -0.246 OA
BRANCH  35  37
ATOM     37  C   UNL     1      -2.409   7.601   4.752  1.00  0.00     0.060 A 
ATOM     38  C   UNL     1      -1.088   7.892   5.134  1.00  0.00     0.016 A 
ATOM     39  C   UNL     1      -3.498   8.009   5.502  1.00  0.00     0.016 A 
ATOM     40  C   UNL     1      -0.843   8.301   6.425  1.00  0.00     0.010 A 
ATOM     41  C   UNL     1      -3.250   8.558   6.724  1.00  0.00     0.010 A 
ATOM     42  C   UNL     1      -1.944   8.559   7.235  1.00  0.00    -0.014 A 
BRANCH  42  43
ATOM     43  C   UNL     1      -1.772   9.279   8.484  1.00  0.00     0.031 A 
ATOM     44  C   UNL     1      -1.333  10.662   8.118  1.00  0.00     0.074 A 
ATOM     45  C   UNL     1      -2.266   8.778   9.640  1.00  0.00     0.049 A 
ATOM     46  N   UNL     1      -0.153  11.184   8.245  1.00  0.00    -0.248 NA
ATOM     47  C   UNL     1      -2.166  11.405   7.132  1.00  0.00     0.031 C 
ATOM     48  C   UNL     1      -2.827   7.447   9.900  1.00  0.00     0.029 A 
ATOM     49  N   UNL     1      -2.508   9.418  10.822  1.00  0.00    -0.354 N 
ATOM     50  C   UNL     1      -0.306  12.456   7.695  1.00  0.00     0.074 A 
ATOM     51  C   UNL     1      -1.311  12.329   6.692  1.00  0.00     0.031 C 
ATOM     52  C   UNL     1      -3.560   7.468  11.042  1.00  0.00     0.029 A 
ATOM     53  C   UNL     1      -3.455   8.778  11.655  1.00  0.00     0.049 A 
ATOM     54  H   UNL     1      -2.060  10.258  11.074  1.00  0.00     0.167 HD
ATOM     55  C   UNL     1      -0.089  13.552   8.477  1.00  0.00     0.034 A 
ATOM     56  C   UNL     1      -4.123   9.371  12.699  1.00  0.00     0.034 A 
ATOM     57  C   UNL     1       0.789  13.205   9.575  1.00  0.00     0.049 A 
ATOM     58  C   UNL     1      -3.305  10.571  13.051  1.00  0.00     0.074 A 
ATOM     59  C   UNL     1       2.010  12.559   9.653  1.00  0.00     0.029 A 
ATOM     60  N   UNL     1       0.215  13.080  10.819  1.00  0.00    -0.354 N 
ATOM     61  N   UNL     1      -2.077  10.478  13.494  1.00  0.00    -0.248 NA
ATOM     62  C   UNL     1      -3.630  11.797  12.332  1.00  0.00     0.031 C 
ATOM     63  C   UNL     1       1.883  11.665  10.756  1.00  0.00     0.029 A 
ATOM     64  C   UNL     1       0.668  11.918  11.395  1.00  0.00     0.049 A 
ATOM     65  H   UNL     1      -0.415  13.716  11.228  1.00  0.00     0.167 HD
ATOM     66  C   UNL     1      -1.366  11.392  12.729  1.00  0.00     0.074 A 
ATOM     67  C   UNL     1      -2.386  12.190  12.038  1.00  0.00     0.031 C 
ATOM     68  C   UNL     1      -0.042  11.208  12.441  1.00  0.00     0.034 A 
BRANCH  55  69
ATOM     69  C   UNL     1      -1.037  14.746   8.527  1.00  0.00     0.023 A 
ATOM     70  C   UNL     1      -0.611  15.851   9.278  1.00  0.00     0.031 A 
ATOM     71  C   UNL     1      -2.398  14.791   8.112  1.00  0.00     0.131 A 
ATOM     72  C   UNL     1      -1.509  16.875   9.631  1.00  0.00     0.055 A 
ATOM     73  C   UNL     1      -3.274  15.828   8.434  1.00  0.00     0.041 A 
ATOM     74  F   UNL     1      -3.009  13.820   7.428  1.00  0.00    -0.206 F 
ATOM     75  C   UNL     1      -2.838  16.870   9.219  1.00  0.00     0.022 A 
BRANCH  72  76
ATOM     76  S   UNL     1      -0.924  18.188  10.723  1.00  0.00     0.124 S 
ATOM     77  O   UNL     1      -0.578  17.437  11.924  1.00  0.00    -0.237 OA
ATOM     78  O   UNL     1       0.192  18.734   9.958  1.00  0.00    -0.237 OA
ATOM     79  O   UNL     1      -2.083  19.069  10.842  1.00  0.00    -0.744 OA
ENDBRANCH  72  76
ENDBRANCH  55  69
BRANCH  56  80
ATOM     80  C   UNL     1      -5.565   9.239  13.130  1.00  0.00     0.023 A 
ATOM     81  C   UNL     1      -6.101   9.855  14.300  1.00  0.00     0.031 A 
ATOM     82  C   UNL     1      -6.517   8.721  12.226  1.00  0.00     0.131 A 
ATOM     83  C   UNL     1      -7.509   9.940  14.502  1.00  0.00     0.055 A 
ATOM     84  C   UNL     1      -7.899   8.820  12.425  1.00  0.00     0.041 A 
ATOM     85  F   UNL     1      -6.145   8.174  11.061  1.00  0.00    -0.206 F 
ATOM     86  C   UNL     1      -8.402   9.441  13.555  1.00  0.00     0.022 A 
BRANCH  83  87
ATOM     87  S   UNL     1      -8.236  10.796  15.953  1.00  0.00     0.124 S 
ATOM     88  O   UNL     1      -8.014   9.831  17.024  1.00  0.00    -0.237 OA
ATOM     89  O   UNL     1      -7.463  12.030  16.021  1.00  0.00    -0.237 OA
ATOM     90  O   UNL     1      -9.639  10.976  15.576  1.00  0.00    -0.744 OA
ENDBRANCH  83  87
ENDBRANCH  56  80
BRANCH  68  91
ATOM     91  C   UNL     1       0.746  10.131  13.166  1.00  0.00     0.023 A 
ATOM     92  C   UNL     1       0.608   8.726  13.014  1.00  0.00     0.031 A 
ATOM     93  C   UNL     1       1.845  10.601  13.905  1.00  0.00     0.131 A 
ATOM     94  C   UNL     1       1.570   7.863  13.592  1.00  0.00     0.055 A 
ATOM     95  C   UNL     1       2.801   9.748  14.445  1.00  0.00     0.041 A 
ATOM     96  F   UNL     1       2.043  11.922  14.051  1.00  0.00    -0.206 F 
ATOM     97  C   UNL     1       2.668   8.375  14.291  1.00  0.00     0.022 A 
BRANCH  94  98
ATOM     98  S   UNL     1       1.443   6.045  13.426  1.00  0.00     0.124 S 
ATOM     99  O   UNL     1       0.132   5.752  13.994  1.00  0.00    -0.237 OA
ATOM    100  O   UNL     1       1.579   5.841  11.987  1.00  0.00    -0.237 OA
ATOM    101  O   UNL     1       2.572   5.546  14.216  1.00  0.00    -0.744 OA
ENDBRANCH  94  98
ENDBRANCH  68  91
ENDBRANCH  42  43
ENDBRANCH  35  37
ENDBRANCH  34  35
ENDBRANCH  33  34
ENDBRANCH   1  33
TORSDOF 20
