REMARK SMILES CC1(C)CC[N@H+](CCOc2ccc(C(=O)OCCOC(=O)c3ccc(-c4c5nc(c(-c6cc(S(=O)(=O)[O-])ccc6F)c6ccc([nH]6)c(-c6cc(S(=O)(=O)[O-])ccc6F)c6nc(c(-c7cc(S(=O)(=O)[O-])ccc7F)c7ccc4[nH]7)C=C6)C=C5)cc3)cc2)C1
REMARK SMILES IDX 17 1 16 2 14 3 15 4 13 5 10 6 11 7 86 8 12 9 85 10 9 11 8 12
REMARK SMILES IDX 7 13 6 14 1 15 2 16 3 17 4 18 87 19 5 20 18 22 19 23 20 24
REMARK SMILES IDX 21 25 22 26 23 27 84 28 24 29 83 30 25 31 26 32 27 33 77 34
REMARK SMILES IDX 28 35 82 36 76 37 78 38 29 39 81 40 75 41 74 42 30 44 62 45
REMARK SMILES IDX 42 46 61 47 43 48 46 49 60 50 79 51 44 52 45 53 59 55 80 56
REMARK SMILES IDX 47 57 31 58 32 59 40 60 33 61 39 62 41 63 38 64 34 65 35 66
REMARK SMILES IDX 36 67 37 68 63 69 64 70 72 71 65 72 71 73 73 74 70 75 66 76
REMARK SMILES IDX 67 77 68 78 69 79 48 80 49 81 57 82 50 83 56 84 58 85 55 86
REMARK SMILES IDX 51 87 52 88 53 89 54 90
REMARK H PARENT 6 21 78 43 46 54
REMARK Flexibility Score: inf
ROOT
ATOM      1  C   UNL     1      -1.602  -3.793  -2.880  1.00  0.00     0.275 C 
ENDROOT
BRANCH   1   2
ATOM      2  O   UNL     1      -0.483  -3.642  -1.985  1.00  0.00    -0.458 OA
BRANCH   2   3
ATOM      3  C   UNL     1      -0.819  -3.379  -0.699  1.00  0.00     0.338 C 
ATOM      4  O   UNL     1      -1.956  -3.187  -0.288  1.00  0.00    -0.246 OA
BRANCH   3   5
ATOM      5  C   UNL     1       0.370  -3.237   0.186  1.00  0.00     0.060 A 
ATOM      6  C   UNL     1       2.204  -1.791   1.634  1.00  0.00     0.119 A 
ATOM      7  C   UNL     1       1.060  -2.249   2.282  1.00  0.00     0.047 A 
ATOM      8  C   UNL     1       2.585  -2.326   0.403  1.00  0.00     0.047 A 
ATOM      9  C   UNL     1       0.124  -2.966   1.544  1.00  0.00     0.019 A 
ATOM     10  C   UNL     1       1.651  -3.046  -0.343  1.00  0.00     0.019 A 
BRANCH   6  11
ATOM     11  O   UNL     1       2.894  -0.693   2.076  1.00  0.00    -0.488 OA
BRANCH  11  12
ATOM     12  C   UNL     1       2.048   0.481   2.192  1.00  0.00     0.290 C 
BRANCH  12  13
ATOM     13  C   UNL     1       2.321   1.540   1.086  1.00  0.00     0.304 C 
BRANCH  13  14
ATOM     14  N   UNL     1       1.405   1.727  -0.067  1.00  0.00    -0.332 N 
ATOM     15  C   UNL     1      -1.575   1.536  -1.660  1.00  0.00     0.017 C 
ATOM     16  C   UNL     1      -0.944   1.105  -0.327  1.00  0.00     0.019 C 
ATOM     17  C   UNL     1      -2.059   0.732   0.658  1.00  0.00     0.017 C 
ATOM     18  C   UNL     1      -0.020  -0.070  -0.588  1.00  0.00     0.073 C 
ATOM     19  C   UNL     1       0.029   2.146   0.271  1.00  0.00     0.268 C 
ATOM     20  C   UNL     1       1.308   0.564  -0.941  1.00  0.00     0.263 C 
ATOM     21  H   UNL     1       1.864   2.496  -0.554  1.00  0.00     0.348 HD
ENDBRANCH  13  14
ENDBRANCH  12  13
ENDBRANCH  11  12
ENDBRANCH   6  11
ENDBRANCH   3   5
ENDBRANCH   2   3
ENDBRANCH   1   2
BRANCH   1  22
ATOM     22  C   UNL     1      -1.848  -5.270  -3.170  1.00  0.00     0.275 C 
BRANCH  22  23
ATOM     23  O   UNL     1      -2.027  -5.982  -1.933  1.00  0.00    -0.458 OA
BRANCH  23  24
ATOM     24  C   UNL     1      -0.979  -6.755  -1.558  1.00  0.00     0.338 C 
ATOM     25  O   UNL     1       0.007  -7.024  -2.223  1.00  0.00    -0.246 OA
BRANCH  24  26
ATOM     26  C   UNL     1      -1.149  -7.207  -0.164  1.00  0.00     0.060 A 
ATOM     27  C   UNL     1      -1.399  -6.280   0.844  1.00  0.00     0.016 A 
ATOM     28  C   UNL     1      -0.897  -8.534   0.169  1.00  0.00     0.016 A 
ATOM     29  C   UNL     1      -1.256  -6.632   2.180  1.00  0.00     0.010 A 
ATOM     30  C   UNL     1      -0.905  -8.919   1.514  1.00  0.00     0.010 A 
ATOM     31  C   UNL     1      -1.039  -7.964   2.540  1.00  0.00    -0.014 A 
BRANCH  31  32
ATOM     32  C   UNL     1      -0.899  -8.348   3.974  1.00  0.00     0.031 A 
ATOM     33  C   UNL     1       0.320  -9.111   4.420  1.00  0.00     0.074 A 
ATOM     34  C   UNL     1      -1.843  -8.011   4.877  1.00  0.00     0.049 A 
ATOM     35  N   UNL     1       0.523  -9.780   5.525  1.00  0.00    -0.248 NA
ATOM     36  C   UNL     1       1.451  -9.149   3.480  1.00  0.00     0.031 C 
ATOM     37  C   UNL     1      -3.036  -7.203   4.606  1.00  0.00     0.029 A 
ATOM     38  N   UNL     1      -1.949  -8.305   6.215  1.00  0.00    -0.354 N 
ATOM     39  C   UNL     1       1.770 -10.382   5.382  1.00  0.00     0.074 A 
ATOM     40  C   UNL     1       2.270 -10.002   4.077  1.00  0.00     0.031 C 
ATOM     41  C   UNL     1      -3.723  -7.029   5.744  1.00  0.00     0.029 A 
ATOM     42  C   UNL     1      -3.098  -7.817   6.797  1.00  0.00     0.049 A 
ATOM     43  H   UNL     1      -1.269  -8.815   6.711  1.00  0.00     0.167 HD
ATOM     44  C   UNL     1       2.426 -11.182   6.259  1.00  0.00     0.034 A 
ATOM     45  C   UNL     1      -3.630  -8.034   8.016  1.00  0.00     0.034 A 
ATOM     46  C   UNL     1       1.924 -11.496   7.576  1.00  0.00     0.049 A 
ATOM     47  C   UNL     1      -2.913  -8.966   8.955  1.00  0.00     0.074 A 
ATOM     48  C   UNL     1       2.496 -12.294   8.552  1.00  0.00     0.029 A 
ATOM     49  N   UNL     1       0.737 -11.009   8.111  1.00  0.00    -0.354 N 
ATOM     50  N   UNL     1      -1.788  -9.619   8.772  1.00  0.00    -0.248 NA
ATOM     51  C   UNL     1      -3.545  -9.205  10.258  1.00  0.00     0.031 C 
ATOM     52  C   UNL     1       1.630 -12.336   9.650  1.00  0.00     0.029 A 
ATOM     53  C   UNL     1       0.552 -11.503   9.394  1.00  0.00     0.049 A 
ATOM     54  H   UNL     1       0.117 -10.401   7.647  1.00  0.00     0.167 HD
ATOM     55  C   UNL     1      -1.569 -10.331   9.946  1.00  0.00     0.074 A 
ATOM     56  C   UNL     1      -2.667 -10.011  10.836  1.00  0.00     0.031 C 
ATOM     57  C   UNL     1      -0.554 -11.175  10.262  1.00  0.00     0.034 A 
BRANCH  44  58
ATOM     58  C   UNL     1       3.710 -11.827   5.791  1.00  0.00     0.023 A 
ATOM     59  C   UNL     1       4.852 -11.079   5.456  1.00  0.00     0.031 A 
ATOM     60  C   UNL     1       3.778 -13.225   5.642  1.00  0.00     0.131 A 
ATOM     61  C   UNL     1       5.979 -11.722   4.920  1.00  0.00     0.055 A 
ATOM     62  C   UNL     1       4.932 -13.867   5.189  1.00  0.00     0.041 A 
ATOM     63  F   UNL     1       2.713 -13.995   5.923  1.00  0.00    -0.206 F 
ATOM     64  C   UNL     1       6.037 -13.113   4.809  1.00  0.00     0.022 A 
BRANCH  61  65
ATOM     65  S   UNL     1       7.314 -10.705   4.231  1.00  0.00     0.124 S 
ATOM     66  O   UNL     1       6.606  -9.946   3.202  1.00  0.00    -0.237 OA
ATOM     67  O   UNL     1       7.763  -9.944   5.391  1.00  0.00    -0.237 OA
ATOM     68  O   UNL     1       8.268 -11.689   3.723  1.00  0.00    -0.744 OA
ENDBRANCH  61  65
ENDBRANCH  44  58
BRANCH  45  69
ATOM     69  C   UNL     1      -4.945  -7.430   8.386  1.00  0.00     0.023 A 
ATOM     70  C   UNL     1      -5.053  -6.531   9.458  1.00  0.00     0.031 A 
ATOM     71  C   UNL     1      -6.121  -7.770   7.691  1.00  0.00     0.131 A 
ATOM     72  C   UNL     1      -6.313  -6.029   9.825  1.00  0.00     0.055 A 
ATOM     73  C   UNL     1      -7.361  -7.220   8.021  1.00  0.00     0.041 A 
ATOM     74  F   UNL     1      -6.079  -8.630   6.661  1.00  0.00    -0.206 F 
ATOM     75  C   UNL     1      -7.463  -6.353   9.102  1.00  0.00     0.022 A 
BRANCH  72  76
ATOM     76  S   UNL     1      -6.440  -5.011  11.321  1.00  0.00     0.124 S 
ATOM     77  O   UNL     1      -5.902  -5.908  12.337  1.00  0.00    -0.237 OA
ATOM     78  O   UNL     1      -5.611  -3.861  10.975  1.00  0.00    -0.237 OA
ATOM     79  O   UNL     1      -7.871  -4.736  11.425  1.00  0.00    -0.744 OA
ENDBRANCH  72  76
ENDBRANCH  45  69
BRANCH  57  80
ATOM     80  C   UNL     1      -0.567 -11.758  11.653  1.00  0.00     0.023 A 
ATOM     81  C   UNL     1      -1.549 -12.675  12.064  1.00  0.00     0.031 A 
ATOM     82  C   UNL     1       0.407 -11.365  12.588  1.00  0.00     0.131 A 
ATOM     83  C   UNL     1      -1.573 -13.122  13.393  1.00  0.00     0.055 A 
ATOM     84  C   UNL     1       0.416 -11.861  13.891  1.00  0.00     0.041 A 
ATOM     85  F   UNL     1       1.367 -10.489  12.248  1.00  0.00    -0.206 F 
ATOM     86  C   UNL     1      -0.587 -12.734  14.305  1.00  0.00     0.022 A 
BRANCH  83  87
ATOM     87  S   UNL     1      -2.969 -14.140  13.945  1.00  0.00     0.124 S 
ATOM     88  O   UNL     1      -4.107 -13.270  13.667  1.00  0.00    -0.237 OA
ATOM     89  O   UNL     1      -2.847 -15.322  13.098  1.00  0.00    -0.237 OA
ATOM     90  O   UNL     1      -2.691 -14.363  15.363  1.00  0.00    -0.744 OA
ENDBRANCH  83  87
ENDBRANCH  57  80
ENDBRANCH  31  32
ENDBRANCH  24  26
ENDBRANCH  23  24
ENDBRANCH  22  23
ENDBRANCH   1  22
TORSDOF 18
