REMARK SMILES O=C(OCCOC(=O)c1cc(S(=O)(=O)Nc2cc(F)ccc2F)cc2c1OCCO2)c1ccc(-c2c3nc(c(-c4cc(S(=O)(=O)[O-])ccc4F)c4ccc([nH]4)c(-c4cc(S(=O)(=O)[O-])ccc4F)c4nc(c(-c5cc(S(=O)(=O)[O-])ccc5F)c5ccc2[nH]5)C=C4)C=C3)cc1
REMARK SMILES IDX 4 1 3 2 2 3 1 4 31 5 32 6 93 7 33 8 92 9 34 10 35 11 36 12
REMARK SMILES IDX 86 13 37 14 91 15 85 16 87 17 38 18 90 19 84 20 83 21 39 23
REMARK SMILES IDX 71 24 51 25 70 26 52 27 55 28 69 29 88 30 53 31 54 32 68 34
REMARK SMILES IDX 89 35 56 36 40 37 41 38 49 39 42 40 48 41 50 42 47 43 43 44
REMARK SMILES IDX 44 45 45 46 46 47 72 48 73 49 81 50 74 51 80 52 82 53 79 54
REMARK SMILES IDX 75 55 76 56 77 57 78 58 57 59 58 60 66 61 59 62 65 63 67 64
REMARK SMILES IDX 64 65 60 66 61 67 62 68 63 69 5 70 6 71 7 72 8 73 9 74 10 75
REMARK SMILES IDX 26 76 11 77 25 78 27 79 24 80 30 81 28 82 29 83 12 84 13 85
REMARK SMILES IDX 14 86 15 87 16 89 17 90 22 91 18 92 21 93 23 94 19 95 20 96
REMARK H PARENT 87 22 55 33 15 88
REMARK Flexibility Score: inf
ROOT
ATOM      1  C   UNL     1       4.810   0.416   1.516  1.00  0.00     0.275 C 
ENDROOT
BRANCH   1   2
ATOM      2  O   UNL     1       4.240   1.115   0.397  1.00  0.00    -0.458 OA
BRANCH   2   3
ATOM      3  C   UNL     1       3.519   0.472  -0.543  1.00  0.00     0.338 C 
ATOM      4  O   UNL     1       2.331   0.723  -0.700  1.00  0.00    -0.246 OA
BRANCH   3   5
ATOM      5  C   UNL     1       4.222  -0.450  -1.485  1.00  0.00     0.060 A 
ATOM      6  C   UNL     1       5.301  -1.271  -1.145  1.00  0.00     0.016 A 
ATOM      7  C   UNL     1       3.652  -0.595  -2.755  1.00  0.00     0.016 A 
ATOM      8  C   UNL     1       5.767  -2.244  -2.031  1.00  0.00     0.010 A 
ATOM      9  C   UNL     1       4.093  -1.588  -3.628  1.00  0.00     0.010 A 
ATOM     10  C   UNL     1       5.145  -2.431  -3.266  1.00  0.00    -0.014 A 
BRANCH  10  11
ATOM     11  C   UNL     1       5.611  -3.489  -4.190  1.00  0.00     0.031 A 
ATOM     12  C   UNL     1       6.301  -3.096  -5.449  1.00  0.00     0.074 A 
ATOM     13  C   UNL     1       5.403  -4.787  -3.896  1.00  0.00     0.049 A 
ATOM     14  N   UNL     1       6.822  -3.868  -6.361  1.00  0.00    -0.248 NA
ATOM     15  C   UNL     1       6.423  -1.656  -5.721  1.00  0.00     0.031 C 
ATOM     16  C   UNL     1       4.717  -5.239  -2.695  1.00  0.00     0.029 A 
ATOM     17  N   UNL     1       5.723  -5.953  -4.544  1.00  0.00    -0.354 N 
ATOM     18  C   UNL     1       7.339  -3.010  -7.316  1.00  0.00     0.074 A 
ATOM     19  C   UNL     1       7.020  -1.661  -6.902  1.00  0.00     0.031 C 
ATOM     20  C   UNL     1       4.670  -6.578  -2.686  1.00  0.00     0.029 A 
ATOM     21  C   UNL     1       5.281  -7.087  -3.894  1.00  0.00     0.049 A 
ATOM     22  H   UNL     1       6.220  -5.978  -5.393  1.00  0.00     0.167 HD
ATOM     23  C   UNL     1       8.040  -3.334  -8.425  1.00  0.00     0.034 A 
ATOM     24  C   UNL     1       5.343  -8.392  -4.226  1.00  0.00     0.034 A 
ATOM     25  C   UNL     1       8.317  -4.693  -8.810  1.00  0.00     0.049 A 
ATOM     26  C   UNL     1       6.083  -8.723  -5.488  1.00  0.00     0.074 A 
ATOM     27  C   UNL     1       9.055  -5.148  -9.885  1.00  0.00     0.029 A 
ATOM     28  N   UNL     1       7.841  -5.819  -8.144  1.00  0.00    -0.354 N 
ATOM     29  N   UNL     1       6.668  -7.895  -6.323  1.00  0.00    -0.248 NA
ATOM     30  C   UNL     1       6.202 -10.138  -5.847  1.00  0.00     0.031 C 
ATOM     31  C   UNL     1       8.963  -6.544  -9.912  1.00  0.00     0.029 A 
ATOM     32  C   UNL     1       8.228  -6.967  -8.815  1.00  0.00     0.049 A 
ATOM     33  H   UNL     1       7.307  -5.801  -7.317  1.00  0.00     0.167 HD
ATOM     34  C   UNL     1       7.232  -8.689  -7.306  1.00  0.00     0.074 A 
ATOM     35  C   UNL     1       6.957 -10.065  -6.933  1.00  0.00     0.031 C 
ATOM     36  C   UNL     1       7.907  -8.319  -8.423  1.00  0.00     0.034 A 
BRANCH  23  37
ATOM     37  C   UNL     1       8.489  -2.195  -9.295  1.00  0.00     0.023 A 
ATOM     38  C   UNL     1       9.416  -1.242  -8.838  1.00  0.00     0.031 A 
ATOM     39  C   UNL     1       7.925  -2.018 -10.568  1.00  0.00     0.131 A 
ATOM     40  C   UNL     1       9.698  -0.114  -9.621  1.00  0.00     0.055 A 
ATOM     41  C   UNL     1       8.268  -0.933 -11.375  1.00  0.00     0.041 A 
ATOM     42  F   UNL     1       7.007  -2.879 -11.035  1.00  0.00    -0.206 F 
ATOM     43  C   UNL     1       9.150   0.034 -10.897  1.00  0.00     0.022 A 
BRANCH  40  44
ATOM     44  S   UNL     1      10.686   1.222  -8.894  1.00  0.00     0.124 S 
ATOM     45  O   UNL     1       9.815   1.679  -7.814  1.00  0.00    -0.237 OA
ATOM     46  O   UNL     1      11.903   0.531  -8.482  1.00  0.00    -0.237 OA
ATOM     47  O   UNL     1      10.850   2.166  -9.998  1.00  0.00    -0.744 OA
ENDBRANCH  40  44
ENDBRANCH  23  37
BRANCH  24  48
ATOM     48  C   UNL     1       4.692  -9.450  -3.387  1.00  0.00     0.023 A 
ATOM     49  C   UNL     1       5.431 -10.495  -2.807  1.00  0.00     0.031 A 
ATOM     50  C   UNL     1       3.298  -9.454  -3.182  1.00  0.00     0.131 A 
ATOM     51  C   UNL     1       4.775 -11.516  -2.094  1.00  0.00     0.055 A 
ATOM     52  C   UNL     1       2.657 -10.437  -2.423  1.00  0.00     0.041 A 
ATOM     53  F   UNL     1       2.532  -8.486  -3.710  1.00  0.00    -0.206 F 
ATOM     54  C   UNL     1       3.395 -11.486  -1.886  1.00  0.00     0.022 A 
BRANCH  51  55
ATOM     55  S   UNL     1       5.738 -12.947  -1.527  1.00  0.00     0.124 S 
ATOM     56  O   UNL     1       6.438 -13.341  -2.744  1.00  0.00    -0.237 OA
ATOM     57  O   UNL     1       6.560 -12.356  -0.476  1.00  0.00    -0.237 OA
ATOM     58  O   UNL     1       4.716 -13.884  -1.064  1.00  0.00    -0.744 OA
ENDBRANCH  51  55
ENDBRANCH  24  48
BRANCH  36  59
ATOM     59  C   UNL     1       8.371  -9.441  -9.306  1.00  0.00     0.023 A 
ATOM     60  C   UNL     1       7.447 -10.242  -9.995  1.00  0.00     0.031 A 
ATOM     61  C   UNL     1       9.739  -9.730  -9.432  1.00  0.00     0.131 A 
ATOM     62  C   UNL     1       7.899 -11.343 -10.729  1.00  0.00     0.055 A 
ATOM     63  C   UNL     1      10.188 -10.783 -10.226  1.00  0.00     0.041 A 
ATOM     64  F   UNL     1      10.657  -8.996  -8.783  1.00  0.00    -0.206 F 
ATOM     65  C   UNL     1       9.265 -11.605 -10.869  1.00  0.00     0.022 A 
BRANCH  62  66
ATOM     66  S   UNL     1       6.671 -12.486 -11.411  1.00  0.00     0.124 S 
ATOM     67  O   UNL     1       6.044 -13.008 -10.201  1.00  0.00    -0.237 OA
ATOM     68  O   UNL     1       5.843 -11.607 -12.230  1.00  0.00    -0.237 OA
ATOM     69  O   UNL     1       7.479 -13.448 -12.158  1.00  0.00    -0.744 OA
ENDBRANCH  62  66
ENDBRANCH  36  59
ENDBRANCH  10  11
ENDBRANCH   3   5
ENDBRANCH   2   3
ENDBRANCH   1   2
BRANCH   1  70
ATOM     70  C   UNL     1       3.990  -0.716   2.157  1.00  0.00     0.275 C 
BRANCH  70  71
ATOM     71  O   UNL     1       3.472  -1.662   1.210  1.00  0.00    -0.458 OA
BRANCH  71  72
ATOM     72  C   UNL     1       2.116  -1.797   1.155  1.00  0.00     0.342 C 
ATOM     73  O   UNL     1       1.291  -1.204   1.816  1.00  0.00    -0.246 OA
BRANCH  72  74
ATOM     74  C   UNL     1       1.771  -2.743   0.070  1.00  0.00     0.107 A 
ATOM     75  C   UNL     1       1.036  -2.281  -1.040  1.00  0.00     0.042 A 
ATOM     76  C   UNL     1       2.194  -4.069   0.144  1.00  0.00     0.175 A 
ATOM     77  C   UNL     1       0.753  -3.147  -2.102  1.00  0.00     0.092 A 
ATOM     78  C   UNL     1       1.809  -4.957  -0.864  1.00  0.00     0.163 A 
ATOM     79  O   UNL     1       2.986  -4.454   1.198  1.00  0.00    -0.485 OA
ATOM     80  C   UNL     1       1.119  -4.498  -1.994  1.00  0.00     0.072 A 
ATOM     81  O   UNL     1       2.132  -6.288  -0.845  1.00  0.00    -0.486 OA
ATOM     82  C   UNL     1       3.747  -5.620   0.864  1.00  0.00     0.271 C 
ATOM     83  C   UNL     1       2.810  -6.698   0.351  1.00  0.00     0.271 C 
BRANCH  77  84
ATOM     84  S   UNL     1       0.103  -2.591  -3.674  1.00  0.00     0.262 S 
ATOM     85  O   UNL     1       1.178  -1.962  -4.407  1.00  0.00    -0.201 OA
ATOM     86  O   UNL     1      -0.619  -3.705  -4.253  1.00  0.00    -0.201 OA
BRANCH  84  87
ATOM     87  N   UNL     1      -1.091  -1.427  -3.432  1.00  0.00    -0.277 N 
ATOM     88  H   UNL     1      -2.012  -1.617  -3.723  1.00  0.00     0.180 HD
BRANCH  87  89
ATOM     89  C   UNL     1      -0.803  -0.172  -2.817  1.00  0.00     0.087 A 
ATOM     90  C   UNL     1       0.148   0.722  -3.303  1.00  0.00     0.069 A 
ATOM     91  C   UNL     1      -1.574   0.186  -1.703  1.00  0.00     0.147 A 
ATOM     92  C   UNL     1       0.403   1.891  -2.585  1.00  0.00     0.125 A 
ATOM     93  C   UNL     1      -1.316   1.351  -0.991  1.00  0.00     0.044 A 
ATOM     94  F   UNL     1      -2.557  -0.625  -1.283  1.00  0.00    -0.205 F 
ATOM     95  F   UNL     1       1.381   2.712  -2.993  1.00  0.00    -0.207 F 
ATOM     96  C   UNL     1      -0.301   2.200  -1.423  1.00  0.00     0.042 A 
ENDBRANCH  87  89
ENDBRANCH  84  87
ENDBRANCH  77  84
ENDBRANCH  72  74
ENDBRANCH  71  72
ENDBRANCH  70  71
ENDBRANCH   1  70
TORSDOF 17
