REMARK SMILES Cc1ccccc1O[C@@H](C)C(=O)Oc1ccccc1C(=O)OCCOC(=O)c1ccc(-c2c3nc(c(-c4cc(S(=O)(=O)[O-])ccc4F)c4ccc([nH]4)c(-c4cc(S(=O)(=O)[O-])ccc4F)c4nc(c(-c5cc(S(=O)(=O)[O-])ccc5F)c5ccc2[nH]5)C=C4)C=C3)cc1
REMARK SMILES IDX 23 1 22 2 20 3 21 4 19 5 14 6 15 7 16 8 18 9 17 10 13 11
REMARK SMILES IDX 11 12 12 13 9 14 10 15 8 16 7 17 1 18 2 19 3 20 4 21 6 22
REMARK SMILES IDX 5 23 24 24 25 25 26 26 27 27 28 28 29 29 90 30 30 31 89 32
REMARK SMILES IDX 31 33 32 34 33 35 83 36 34 37 88 38 82 39 84 40 35 41 87 42
REMARK SMILES IDX 81 43 80 44 36 46 68 47 48 48 67 49 49 50 52 51 66 52 85 53
REMARK SMILES IDX 50 54 51 55 65 57 86 58 53 59 37 60 38 61 46 62 39 63 45 64
REMARK SMILES IDX 47 65 44 66 40 67 41 68 42 69 43 70 69 71 70 72 78 73 71 74
REMARK SMILES IDX 77 75 79 76 76 77 72 78 73 79 74 80 75 81 54 82 55 83 63 84
REMARK SMILES IDX 56 85 62 86 64 87 61 88 57 89 58 90 59 91 60 92
REMARK H PARENT 84 45 52 56
REMARK Flexibility Score: inf
ROOT
ATOM      1  C   UNL     1       8.027   2.973  -2.081  1.00  0.00     0.275 C 
ENDROOT
BRANCH   1   2
ATOM      2  O   UNL     1       7.598   1.745  -2.701  1.00  0.00    -0.458 OA
BRANCH   2   3
ATOM      3  C   UNL     1       6.229   1.296  -2.318  1.00  0.00     0.342 C 
ATOM      4  O   UNL     1       6.094   1.929  -1.235  1.00  0.00    -0.246 OA
BRANCH   3   5
ATOM      5  C   UNL     1       4.874  -0.023  -3.374  1.00  0.00     0.102 A 
ATOM      6  C   UNL     1       3.239  -0.226  -3.170  1.00  0.00     0.145 A 
ATOM      7  C   UNL     1       2.345  -1.161  -3.758  1.00  0.00     0.048 A 
ATOM      8  C   UNL     1       2.840  -2.060  -4.676  1.00  0.00     0.004 A 
ATOM      9  C   UNL     1       5.111  -1.081  -4.424  1.00  0.00     0.019 A 
ATOM     10  C   UNL     1       4.187  -2.017  -5.006  1.00  0.00     0.001 A 
BRANCH   6  11
ATOM     11  O   UNL     1       2.369   0.460  -1.974  1.00  0.00    -0.423 OA
BRANCH  11  12
ATOM     12  C   UNL     1       1.529   1.597  -1.920  1.00  0.00     0.352 C 
ATOM     13  O   UNL     1       1.194   2.143  -2.976  1.00  0.00    -0.247 OA
BRANCH  12  14
ATOM     14  C   UNL     1       0.981   2.144  -0.519  1.00  0.00     0.280 C 
ATOM     15  C   UNL     1       1.279   2.287   0.980  1.00  0.00     0.066 C 
BRANCH  14  16
ATOM     16  O   UNL     1      -0.392   1.802  -0.517  1.00  0.00    -0.479 OA
BRANCH  16  17
ATOM     17  C   UNL     1      -0.769   0.531  -0.205  1.00  0.00     0.123 A 
ATOM     18  C   UNL     1       1.407  -0.850   0.395  1.00  0.00     0.048 C 
ATOM     19  C   UNL     1      -0.048  -0.647   0.066  1.00  0.00    -0.009 A 
ATOM     20  C   UNL     1      -0.782  -1.845   0.137  1.00  0.00     0.007 A 
ATOM     21  C   UNL     1      -2.170  -1.863   0.032  1.00  0.00     0.001 A 
ATOM     22  C   UNL     1      -2.169   0.508  -0.222  1.00  0.00     0.047 A 
ATOM     23  C   UNL     1      -2.869  -0.676  -0.104  1.00  0.00     0.004 A 
ENDBRANCH  16  17
ENDBRANCH  14  16
ENDBRANCH  12  14
ENDBRANCH  11  12
ENDBRANCH   6  11
ENDBRANCH   3   5
ENDBRANCH   2   3
ENDBRANCH   1   2
BRANCH   1  24
ATOM     24  C   UNL     1       7.358   4.175  -2.777  1.00  0.00     0.275 C 
BRANCH  24  25
ATOM     25  O   UNL     1       5.947   4.039  -3.102  1.00  0.00    -0.458 OA
BRANCH  25  26
ATOM     26  C   UNL     1       5.597   3.458  -4.280  1.00  0.00     0.338 C 
ATOM     27  O   UNL     1       5.580   3.961  -5.385  1.00  0.00    -0.246 OA
BRANCH  26  28
ATOM     28  C   UNL     1       5.267   2.047  -3.989  1.00  0.00     0.060 A 
ATOM     29  C   UNL     1       4.298   1.810  -2.490  1.00  0.00     0.016 A 
ATOM     30  C   UNL     1       6.596   0.905  -4.375  1.00  0.00     0.016 A 
ATOM     31  C   UNL     1       4.694   0.377  -1.354  1.00  0.00     0.010 A 
ATOM     32  C   UNL     1       7.067  -0.385  -3.168  1.00  0.00     0.010 A 
ATOM     33  C   UNL     1       6.120  -0.642  -1.656  1.00  0.00    -0.014 A 
BRANCH  33  34
ATOM     34  C   UNL     1       6.934  -1.145  -0.526  1.00  0.00     0.031 A 
ATOM     35  C   UNL     1       7.530  -2.461  -0.818  1.00  0.00     0.074 A 
ATOM     36  C   UNL     1       7.301  -0.427   0.588  1.00  0.00     0.049 A 
ATOM     37  N   UNL     1       8.218  -3.132   0.020  1.00  0.00    -0.248 NA
ATOM     38  C   UNL     1       7.375  -3.173  -2.091  1.00  0.00     0.031 C 
ATOM     39  C   UNL     1       8.436  -0.672   1.492  1.00  0.00     0.029 A 
ATOM     40  N   UNL     1       6.696   0.670   1.218  1.00  0.00    -0.354 N 
ATOM     41  C   UNL     1       8.839  -4.153  -0.652  1.00  0.00     0.074 A 
ATOM     42  C   UNL     1       8.244  -4.175  -1.954  1.00  0.00     0.031 C 
ATOM     43  C   UNL     1       8.311   0.041   2.628  1.00  0.00     0.029 A 
ATOM     44  C   UNL     1       7.039   0.736   2.600  1.00  0.00     0.049 A 
ATOM     45  H   UNL     1       6.108   1.315   0.762  1.00  0.00     0.167 HD
ATOM     46  C   UNL     1       9.863  -4.760  -0.006  1.00  0.00     0.034 A 
ATOM     47  C   UNL     1       6.125   0.650   3.633  1.00  0.00     0.034 A 
ATOM     48  C   UNL     1       9.783  -4.431   1.423  1.00  0.00     0.049 A 
ATOM     49  C   UNL     1       6.057  -0.828   4.139  1.00  0.00     0.074 A 
ATOM     50  C   UNL     1      10.450  -3.546   2.250  1.00  0.00     0.029 A 
ATOM     51  N   UNL     1       8.599  -4.751   2.083  1.00  0.00    -0.354 N 
ATOM     52  N   UNL     1       6.866  -1.783   3.755  1.00  0.00    -0.248 NA
ATOM     53  C   UNL     1       5.062  -1.331   5.088  1.00  0.00     0.031 C 
ATOM     54  C   UNL     1       9.588  -3.257   3.356  1.00  0.00     0.029 A 
ATOM     55  C   UNL     1       8.427  -4.003   3.232  1.00  0.00     0.049 A 
ATOM     56  H   UNL     1       7.960  -5.431   1.768  1.00  0.00     0.167 HD
ATOM     57  C   UNL     1       6.525  -2.987   4.321  1.00  0.00     0.074 A 
ATOM     58  C   UNL     1       5.405  -2.630   5.184  1.00  0.00     0.031 C 
ATOM     59  C   UNL     1       7.197  -4.154   4.020  1.00  0.00     0.034 A 
BRANCH  46  60
ATOM     60  C   UNL     1      11.017  -5.468  -0.664  1.00  0.00     0.023 A 
ATOM     61  C   UNL     1      12.100  -5.816   0.162  1.00  0.00     0.031 A 
ATOM     62  C   UNL     1      11.208  -5.713  -2.043  1.00  0.00     0.131 A 
ATOM     63  C   UNL     1      13.291  -6.340  -0.364  1.00  0.00     0.055 A 
ATOM     64  C   UNL     1      12.388  -6.262  -2.566  1.00  0.00     0.041 A 
ATOM     65  F   UNL     1      10.293  -5.410  -2.969  1.00  0.00    -0.206 F 
ATOM     66  C   UNL     1      13.443  -6.573  -1.726  1.00  0.00     0.022 A 
BRANCH  63  67
ATOM     67  S   UNL     1      14.652  -6.675   0.778  1.00  0.00     0.124 S 
ATOM     68  O   UNL     1      14.961  -5.340   1.281  1.00  0.00    -0.237 OA
ATOM     69  O   UNL     1      14.037  -7.598   1.724  1.00  0.00    -0.237 OA
ATOM     70  O   UNL     1      15.677  -7.264  -0.083  1.00  0.00    -0.744 OA
ENDBRANCH  63  67
ENDBRANCH  46  60
BRANCH  47  71
ATOM     71  C   UNL     1       4.863   1.509   3.479  1.00  0.00     0.023 A 
ATOM     72  C   UNL     1       4.940   2.946   3.370  1.00  0.00     0.031 A 
ATOM     73  C   UNL     1       4.028   0.896   2.593  1.00  0.00     0.131 A 
ATOM     74  C   UNL     1       4.643   3.590   2.147  1.00  0.00     0.055 A 
ATOM     75  C   UNL     1       4.069   1.490   1.364  1.00  0.00     0.041 A 
ATOM     76  F   UNL     1       3.793  -0.427   2.603  1.00  0.00    -0.206 F 
ATOM     77  C   UNL     1       4.394   2.799   1.070  1.00  0.00     0.022 A 
BRANCH  74  78
ATOM     78  S   UNL     1       4.631   5.368   1.840  1.00  0.00     0.124 S 
ATOM     79  O   UNL     1       3.767   5.861   2.906  1.00  0.00    -0.237 OA
ATOM     80  O   UNL     1       6.044   5.711   1.932  1.00  0.00    -0.237 OA
ATOM     81  O   UNL     1       4.051   5.484   0.498  1.00  0.00    -0.744 OA
ENDBRANCH  74  78
ENDBRANCH  47  71
BRANCH  59  82
ATOM     82  C   UNL     1       6.828  -5.557   4.508  1.00  0.00     0.023 A 
ATOM     83  C   UNL     1       5.673  -5.821   5.244  1.00  0.00     0.031 A 
ATOM     84  C   UNL     1       7.644  -6.699   4.274  1.00  0.00     0.131 A 
ATOM     85  C   UNL     1       5.450  -7.068   5.851  1.00  0.00     0.055 A 
ATOM     86  C   UNL     1       7.355  -7.976   4.769  1.00  0.00     0.041 A 
ATOM     87  F   UNL     1       8.772  -6.651   3.555  1.00  0.00    -0.206 F 
ATOM     88  C   UNL     1       6.273  -8.159   5.607  1.00  0.00     0.022 A 
BRANCH  85  89
ATOM     89  S   UNL     1       4.126  -7.159   7.078  1.00  0.00     0.124 S 
ATOM     90  O   UNL     1       4.567  -6.177   8.065  1.00  0.00    -0.237 OA
ATOM     91  O   UNL     1       2.954  -6.784   6.294  1.00  0.00    -0.237 OA
ATOM     92  O   UNL     1       4.164  -8.550   7.523  1.00  0.00    -0.744 OA
ENDBRANCH  85  89
ENDBRANCH  59  82
ENDBRANCH  33  34
ENDBRANCH  26  28
ENDBRANCH  25  26
ENDBRANCH  24  25
ENDBRANCH   1  24
TORSDOF 19
