REMARK SMILES CCCN(CC)c1ccnc(C(=O)OCCOC(=O)c2ccc(-c3c4nc(c(-c5cc(S(=O)(=O)[O-])ccc5F)c5ccc([nH]5)c(-c5cc(S(=O)(=O)[O-])ccc5F)c5nc(c(-c6cc(S(=O)(=O)[O-])ccc6F)c6ccc3[nH]6)C=C5)C=C4)cc2)c1
REMARK SMILES IDX 15 1 14 2 12 3 13 4 11 5 7 6 8 7 83 8 9 9 10 10 4 11 3 12
REMARK SMILES IDX 2 13 1 14 5 15 6 16 16 17 17 18 18 19 19 20 20 21 21 22
REMARK SMILES IDX 82 23 22 24 81 25 23 26 24 27 25 28 75 29 26 30 80 31 74 32
REMARK SMILES IDX 76 33 27 34 79 35 73 36 72 37 28 39 60 40 40 41 59 42 41 43
REMARK SMILES IDX 44 44 58 45 77 46 42 47 43 48 57 50 78 51 45 52 29 53 30 54
REMARK SMILES IDX 38 55 31 56 37 57 39 58 36 59 32 60 33 61 34 62 35 63 61 64
REMARK SMILES IDX 62 65 70 66 63 67 69 68 71 69 68 70 64 71 65 72 66 73 67 74
REMARK SMILES IDX 46 75 47 76 55 77 48 78 54 79 56 80 53 81 49 82 50 83 51 84
REMARK SMILES IDX 52 85
REMARK H PARENT 76 38 44 49
REMARK Flexibility Score: inf
ROOT
ATOM      1  C   UNL     1       3.352  -2.462   7.331  1.00  0.00     0.275 C 
ENDROOT
BRANCH   1   2
ATOM      2  O   UNL     1       2.616  -2.216   6.118  1.00  0.00    -0.457 OA
BRANCH   2   3
ATOM      3  C   UNL     1       1.829  -1.105   6.128  1.00  0.00     0.357 C 
ATOM      4  O   UNL     1       1.663  -0.380   7.100  1.00  0.00    -0.244 OA
BRANCH   3   5
ATOM      5  C   UNL     1       1.208  -0.855   4.787  1.00  0.00     0.150 A 
ATOM      6  C   UNL     1       0.570  -1.524   2.567  1.00  0.00     0.041 A 
ATOM      7  C   UNL     1      -0.025  -0.270   2.423  1.00  0.00     0.046 A 
ATOM      8  C   UNL     1       1.224  -1.802   3.770  1.00  0.00     0.062 A 
ATOM      9  C   UNL     1       0.035   0.633   3.469  1.00  0.00     0.114 A 
ATOM     10  N   UNL     1       0.612   0.359   4.652  1.00  0.00    -0.249 NA
BRANCH   6  11
ATOM     11  N   UNL     1       0.457  -2.488   1.580  1.00  0.00    -0.372 N 
BRANCH  11  12
ATOM     12  C   UNL     1       1.254  -2.417   0.352  1.00  0.00     0.116 C 
BRANCH  12  13
ATOM     13  C   UNL     1       0.690  -1.423  -0.669  1.00  0.00     0.018 C 
ATOM     14  C   UNL     1       1.519  -0.146  -0.750  1.00  0.00     0.006 C 
ENDBRANCH  12  13
ENDBRANCH  11  12
BRANCH  11  15
ATOM     15  C   UNL     1      -0.549  -3.535   1.742  1.00  0.00     0.113 C 
ATOM     16  C   UNL     1      -0.065  -4.648   2.660  1.00  0.00     0.027 C 
ENDBRANCH  11  15
ENDBRANCH   6  11
ENDBRANCH   3   5
ENDBRANCH   2   3
ENDBRANCH   1   2
BRANCH   1  17
ATOM     17  C   UNL     1       4.804  -1.981   7.230  1.00  0.00     0.275 C 
BRANCH  17  18
ATOM     18  O   UNL     1       4.904  -0.552   7.096  1.00  0.00    -0.458 OA
BRANCH  18  19
ATOM     19  C   UNL     1       4.916  -0.101   5.817  1.00  0.00     0.338 C 
ATOM     20  O   UNL     1       4.889  -0.782   4.806  1.00  0.00    -0.246 OA
BRANCH  19  21
ATOM     21  C   UNL     1       4.836   1.370   5.797  1.00  0.00     0.060 A 
ATOM     22  C   UNL     1       3.764   1.950   5.118  1.00  0.00     0.016 A 
ATOM     23  C   UNL     1       5.832   2.173   6.359  1.00  0.00     0.016 A 
ATOM     24  C   UNL     1       3.676   3.333   4.992  1.00  0.00     0.010 A 
ATOM     25  C   UNL     1       5.745   3.566   6.229  1.00  0.00     0.010 A 
ATOM     26  C   UNL     1       4.671   4.154   5.536  1.00  0.00    -0.014 A 
BRANCH  26  27
ATOM     27  C   UNL     1       4.610   5.621   5.309  1.00  0.00     0.031 A 
ATOM     28  C   UNL     1       5.554   6.261   4.331  1.00  0.00     0.074 A 
ATOM     29  C   UNL     1       3.683   6.365   5.941  1.00  0.00     0.049 A 
ATOM     30  N   UNL     1       5.724   7.527   4.046  1.00  0.00    -0.248 NA
ATOM     31  C   UNL     1       6.424   5.351   3.572  1.00  0.00     0.031 C 
ATOM     32  C   UNL     1       2.670   5.845   6.860  1.00  0.00     0.029 A 
ATOM     33  N   UNL     1       3.438   7.715   5.902  1.00  0.00    -0.354 N 
ATOM     34  C   UNL     1       6.734   7.570   3.091  1.00  0.00     0.074 A 
ATOM     35  C   UNL     1       7.152   6.201   2.863  1.00  0.00     0.031 C 
ATOM     36  C   UNL     1       1.910   6.864   7.294  1.00  0.00     0.029 A 
ATOM     37  C   UNL     1       2.415   8.113   6.731  1.00  0.00     0.049 A 
ATOM     38  H   UNL     1       3.945   8.339   5.334  1.00  0.00     0.167 HD
ATOM     39  C   UNL     1       7.262   8.651   2.465  1.00  0.00     0.034 A 
ATOM     40  C   UNL     1       1.960   9.347   7.029  1.00  0.00     0.034 A 
ATOM     41  C   UNL     1       6.829  10.008   2.703  1.00  0.00     0.049 A 
ATOM     42  C   UNL     1       2.614  10.540   6.379  1.00  0.00     0.074 A 
ATOM     43  C   UNL     1       7.297  11.178   2.128  1.00  0.00     0.029 A 
ATOM     44  N   UNL     1       5.826  10.379   3.590  1.00  0.00    -0.354 N 
ATOM     45  N   UNL     1       3.599  10.572   5.510  1.00  0.00    -0.248 NA
ATOM     46  C   UNL     1       2.098  11.864   6.753  1.00  0.00     0.031 C 
ATOM     47  C   UNL     1       6.620  12.257   2.711  1.00  0.00     0.029 A 
ATOM     48  C   UNL     1       5.680  11.759   3.599  1.00  0.00     0.049 A 
ATOM     49  H   UNL     1       5.295   9.753   4.134  1.00  0.00     0.167 HD
ATOM     50  C   UNL     1       3.805  11.918   5.220  1.00  0.00     0.074 A 
ATOM     51  C   UNL     1       2.833  12.663   5.993  1.00  0.00     0.031 C 
ATOM     52  C   UNL     1       4.715  12.487   4.388  1.00  0.00     0.034 A 
BRANCH  39  53
ATOM     53  C   UNL     1       8.411   8.407   1.517  1.00  0.00     0.023 A 
ATOM     54  C   UNL     1       8.252   7.681   0.324  1.00  0.00     0.031 A 
ATOM     55  C   UNL     1       9.698   8.879   1.834  1.00  0.00     0.131 A 
ATOM     56  C   UNL     1       9.372   7.388  -0.471  1.00  0.00     0.055 A 
ATOM     57  C   UNL     1      10.794   8.648   1.001  1.00  0.00     0.041 A 
ATOM     58  F   UNL     1       9.915   9.559   2.971  1.00  0.00    -0.206 F 
ATOM     59  C   UNL     1      10.637   7.886  -0.152  1.00  0.00     0.022 A 
BRANCH  56  60
ATOM     60  S   UNL     1       9.177   6.231  -1.856  1.00  0.00     0.124 S 
ATOM     61  O   UNL     1       8.691   5.033  -1.175  1.00  0.00    -0.237 OA
ATOM     62  O   UNL     1       8.214   6.917  -2.708  1.00  0.00    -0.237 OA
ATOM     63  O   UNL     1      10.528   6.122  -2.404  1.00  0.00    -0.744 OA
ENDBRANCH  56  60
ENDBRANCH  39  53
BRANCH  40  64
ATOM     64  C   UNL     1       0.875   9.528   8.035  1.00  0.00     0.023 A 
ATOM     65  C   UNL     1      -0.367  10.077   7.678  1.00  0.00     0.031 A 
ATOM     66  C   UNL     1       1.085   9.195   9.385  1.00  0.00     0.131 A 
ATOM     67  C   UNL     1      -1.337  10.311   8.666  1.00  0.00     0.055 A 
ATOM     68  C   UNL     1       0.099   9.380  10.355  1.00  0.00     0.041 A 
ATOM     69  F   UNL     1       2.257   8.673   9.781  1.00  0.00    -0.206 F 
ATOM     70  C   UNL     1      -1.118   9.953   9.999  1.00  0.00     0.022 A 
BRANCH  67  71
ATOM     71  S   UNL     1      -2.867  11.167   8.200  1.00  0.00     0.124 S 
ATOM     72  O   UNL     1      -2.355  12.423   7.663  1.00  0.00    -0.237 OA
ATOM     73  O   UNL     1      -3.449  10.245   7.230  1.00  0.00    -0.237 OA
ATOM     74  O   UNL     1      -3.594  11.279   9.463  1.00  0.00    -0.744 OA
ENDBRANCH  67  71
ENDBRANCH  40  64
BRANCH  52  75
ATOM     75  C   UNL     1       4.664  13.989   4.250  1.00  0.00     0.023 A 
ATOM     76  C   UNL     1       5.025  14.842   5.308  1.00  0.00     0.031 A 
ATOM     77  C   UNL     1       4.229  14.572   3.046  1.00  0.00     0.131 A 
ATOM     78  C   UNL     1       4.894  16.231   5.159  1.00  0.00     0.055 A 
ATOM     79  C   UNL     1       4.152  15.956   2.887  1.00  0.00     0.041 A 
ATOM     80  F   UNL     1       3.872  13.803   2.005  1.00  0.00    -0.206 F 
ATOM     81  C   UNL     1       4.474  16.793   3.951  1.00  0.00     0.022 A 
BRANCH  78  82
ATOM     82  S   UNL     1       5.203  17.296   6.595  1.00  0.00     0.124 S 
ATOM     83  O   UNL     1       4.226  16.798   7.559  1.00  0.00    -0.237 OA
ATOM     84  O   UNL     1       6.602  17.012   6.901  1.00  0.00    -0.237 OA
ATOM     85  O   UNL     1       4.943  18.642   6.088  1.00  0.00    -0.744 OA
ENDBRANCH  78  82
ENDBRANCH  52  75
ENDBRANCH  26  27
ENDBRANCH  19  21
ENDBRANCH  18  19
ENDBRANCH  17  18
ENDBRANCH   1  17
TORSDOF 18
