REMARK SMILES CC1=C(C(=O)OCCOC(=O)c2ccc(-c3c4nc(c(-c5cc(S(=O)(=O)[O-])ccc5F)c5ccc([nH]5)c(-c5cc(S(=O)(=O)[O-])ccc5F)c5nc(c(-c6cc(S(=O)(=O)[O-])ccc6F)c6ccc3[nH]6)C=C5)C=C4)cc2)N2C(=O)[C@H](NC(=O)c3cc(C(F)(F)F)nn3C)[C@@H]2SC1
REMARK SMILES IDX 7 1 6 2 4 3 5 4 3 5 1 6 2 7 94 8 75 9 93 10 76 11 92 12
REMARK SMILES IDX 77 13 78 14 79 15 80 16 81 18 82 19 83 20 90 21 84 22 89 23
REMARK SMILES IDX 91 24 85 25 86 26 87 27 88 28 8 29 9 30 10 31 11 32 12 33
REMARK SMILES IDX 13 34 74 35 14 36 73 37 15 38 16 39 17 40 67 41 18 42 72 43
REMARK SMILES IDX 66 44 68 45 19 46 71 47 65 48 64 49 20 51 52 52 32 53 51 54
REMARK SMILES IDX 33 55 36 56 50 57 69 58 34 59 35 60 49 62 70 63 37 64 21 65
REMARK SMILES IDX 22 66 30 67 23 68 29 69 31 70 28 71 24 72 25 73 26 74 27 75
REMARK SMILES IDX 53 76 54 77 62 78 55 79 61 80 63 81 60 82 56 83 57 84 58 85
REMARK SMILES IDX 59 86 38 87 39 88 47 89 40 90 46 91 48 92 45 93 41 94 42 95
REMARK SMILES IDX 43 96 44 97
REMARK H PARENT 79 17 68 50 36 61
REMARK Flexibility Score: inf
ROOT
ATOM      1  C   UNL     1       3.302  -1.701  -2.171  1.00  0.00     0.275 C 
ENDROOT
BRANCH   1   2
ATOM      2  O   UNL     1       2.386  -1.494  -1.075  1.00  0.00    -0.457 OA
BRANCH   2   3
ATOM      3  C   UNL     1       1.353  -2.372  -0.948  1.00  0.00     0.355 C 
ATOM      4  O   UNL     1       1.161  -3.315  -1.697  1.00  0.00    -0.244 OA
BRANCH   3   5
ATOM      5  C   UNL     1       0.526  -2.080   0.292  1.00  0.00     0.131 C 
ATOM      6  C   UNL     1       0.849   0.426   0.127  1.00  0.00     0.043 C 
ATOM      7  C   UNL     1       0.296  -0.826   0.767  1.00  0.00    -0.032 C 
ATOM      8  C   UNL     1      -0.586  -0.513   1.972  1.00  0.00     0.105 C 
ATOM      9  N   UNL     1      -0.009  -3.145   0.964  1.00  0.00    -0.289 N 
ATOM     10  S   UNL     1      -1.679  -1.867   2.504  1.00  0.00    -0.129 SA
ATOM     11  C   UNL     1      -0.265  -4.461   0.786  1.00  0.00     0.253 C 
ATOM     12  C   UNL     1      -0.364  -3.088   2.369  1.00  0.00     0.181 C 
ATOM     13  O   UNL     1      -0.171  -5.215  -0.148  1.00  0.00    -0.272 OA
ATOM     14  C   UNL     1      -0.721  -4.591   2.277  1.00  0.00     0.206 C 
BRANCH  14  15
ATOM     15  N   UNL     1      -2.114  -5.036   2.486  1.00  0.00    -0.336 N 
ATOM     16  C   UNL     1      -2.553  -6.112   3.228  1.00  0.00     0.270 C 
ATOM     17  H   UNL     1      -2.811  -4.502   2.042  1.00  0.00     0.164 HD
ATOM     18  O   UNL     1      -3.693  -6.517   3.014  1.00  0.00    -0.268 OA
BRANCH  16  19
ATOM     19  C   UNL     1      -1.690  -6.686   4.233  1.00  0.00     0.126 A 
ATOM     20  C   UNL     1      -0.876  -6.071   5.171  1.00  0.00     0.069 A 
ATOM     21  N   UNL     1      -1.607  -8.026   4.534  1.00  0.00    -0.262 N 
ATOM     22  C   UNL     1      -0.355  -7.102   5.998  1.00  0.00     0.167 A 
ATOM     23  N   UNL     1      -0.817  -8.294   5.592  1.00  0.00    -0.168 NA
ATOM     24  C   UNL     1      -2.248  -9.140   3.868  1.00  0.00     0.174 C 
BRANCH  22  25
ATOM     25  C   UNL     1       0.539  -6.931   7.202  1.00  0.00     0.435 C 
ATOM     26  F   UNL     1      -0.074  -7.292   8.360  1.00  0.00    -0.164 F 
ATOM     27  F   UNL     1       1.700  -7.621   7.113  1.00  0.00    -0.164 F 
ATOM     28  F   UNL     1       0.885  -5.618   7.353  1.00  0.00    -0.164 F 
ENDBRANCH  22  25
ENDBRANCH  16  19
ENDBRANCH  14  15
ENDBRANCH   3   5
ENDBRANCH   2   3
ENDBRANCH   1   2
BRANCH   1  29
ATOM     29  C   UNL     1       4.722  -1.958  -1.657  1.00  0.00     0.275 C 
BRANCH  29  30
ATOM     30  O   UNL     1       4.817  -3.239  -1.006  1.00  0.00    -0.458 OA
BRANCH  30  31
ATOM     31  C   UNL     1       4.614  -3.206   0.332  1.00  0.00     0.338 C 
ATOM     32  O   UNL     1       4.449  -2.213   1.023  1.00  0.00    -0.246 OA
BRANCH  31  33
ATOM     33  C   UNL     1       4.364  -4.567   0.834  1.00  0.00     0.060 A 
ATOM     34  C   UNL     1       3.078  -4.799   1.307  1.00  0.00     0.016 A 
ATOM     35  C   UNL     1       5.335  -5.561   0.938  1.00  0.00     0.016 A 
ATOM     36  C   UNL     1       2.745  -6.011   1.893  1.00  0.00     0.010 A 
ATOM     37  C   UNL     1       4.997  -6.790   1.536  1.00  0.00     0.010 A 
ATOM     38  C   UNL     1       3.699  -7.018   2.032  1.00  0.00    -0.014 A 
BRANCH  38  39
ATOM     39  C   UNL     1       3.313  -8.222   2.821  1.00  0.00     0.031 A 
ATOM     40  C   UNL     1       3.885  -8.412   4.200  1.00  0.00     0.074 A 
ATOM     41  C   UNL     1       2.351  -9.057   2.380  1.00  0.00     0.049 A 
ATOM     42  N   UNL     1       3.707  -9.391   5.048  1.00  0.00    -0.248 NA
ATOM     43  C   UNL     1       4.770  -7.345   4.688  1.00  0.00     0.031 C 
ATOM     44  C   UNL     1       1.623  -8.916   1.117  1.00  0.00     0.029 A 
ATOM     45  N   UNL     1       1.801 -10.177   2.954  1.00  0.00    -0.354 N 
ATOM     46  C   UNL     1       4.471  -9.070   6.166  1.00  0.00     0.074 A 
ATOM     47  C   UNL     1       5.143  -7.823   5.865  1.00  0.00     0.031 C 
ATOM     48  C   UNL     1       0.724  -9.908   1.016  1.00  0.00     0.029 A 
ATOM     49  C   UNL     1       0.852 -10.793   2.170  1.00  0.00     0.049 A 
ATOM     50  H   UNL     1       2.061 -10.509   3.844  1.00  0.00     0.167 HD
ATOM     51  C   UNL     1       4.596  -9.749   7.335  1.00  0.00     0.034 A 
ATOM     52  C   UNL     1       0.183 -11.952   2.345  1.00  0.00     0.034 A 
ATOM     53  C   UNL     1       3.911 -10.987   7.624  1.00  0.00     0.049 A 
ATOM     54  C   UNL     1       0.429 -12.753   3.601  1.00  0.00     0.074 A 
ATOM     55  C   UNL     1       3.997 -11.775   8.759  1.00  0.00     0.029 A 
ATOM     56  N   UNL     1       3.012 -11.620   6.773  1.00  0.00    -0.354 N 
ATOM     57  N   UNL     1       1.208 -12.476   4.622  1.00  0.00    -0.248 NA
ATOM     58  C   UNL     1      -0.303 -14.019   3.730  1.00  0.00     0.031 C 
ATOM     59  C   UNL     1       3.231 -12.929   8.553  1.00  0.00     0.029 A 
ATOM     60  C   UNL     1       2.580 -12.815   7.335  1.00  0.00     0.049 A 
ATOM     61  H   UNL     1       2.723 -11.272   5.899  1.00  0.00     0.167 HD
ATOM     62  C   UNL     1       1.031 -13.519   5.530  1.00  0.00     0.074 A 
ATOM     63  C   UNL     1       0.055 -14.414   4.942  1.00  0.00     0.031 C 
ATOM     64  C   UNL     1       1.621 -13.717   6.738  1.00  0.00     0.034 A 
BRANCH  51  65
ATOM     65  C   UNL     1       5.586  -9.207   8.342  1.00  0.00     0.023 A 
ATOM     66  C   UNL     1       5.437  -7.941   8.938  1.00  0.00     0.031 A 
ATOM     67  C   UNL     1       6.738  -9.949   8.659  1.00  0.00     0.131 A 
ATOM     68  C   UNL     1       6.465  -7.422   9.740  1.00  0.00     0.055 A 
ATOM     69  C   UNL     1       7.710  -9.467   9.537  1.00  0.00     0.041 A 
ATOM     70  F   UNL     1       6.954 -11.151   8.100  1.00  0.00    -0.206 F 
ATOM     71  C   UNL     1       7.587  -8.188  10.067  1.00  0.00     0.022 A 
BRANCH  68  72
ATOM     72  S   UNL     1       6.411  -5.665  10.193  1.00  0.00     0.124 S 
ATOM     73  O   UNL     1       6.327  -5.023   8.882  1.00  0.00    -0.237 OA
ATOM     74  O   UNL     1       5.214  -5.586  11.021  1.00  0.00    -0.237 OA
ATOM     75  O   UNL     1       7.674  -5.452  10.898  1.00  0.00    -0.744 OA
ENDBRANCH  68  72
ENDBRANCH  51  65
BRANCH  52  76
ATOM     76  C   UNL     1      -0.745 -12.459   1.290  1.00  0.00     0.023 A 
ATOM     77  C   UNL     1      -2.108 -12.677   1.552  1.00  0.00     0.031 A 
ATOM     78  C   UNL     1      -0.262 -12.794   0.011  1.00  0.00     0.131 A 
ATOM     79  C   UNL     1      -2.926 -13.256   0.568  1.00  0.00     0.055 A 
ATOM     80  C   UNL     1      -1.094 -13.308  -0.984  1.00  0.00     0.041 A 
ATOM     81  F   UNL     1       1.034 -12.620  -0.292  1.00  0.00    -0.206 F 
ATOM     82  C   UNL     1      -2.433 -13.555  -0.704  1.00  0.00     0.022 A 
BRANCH  79  83
ATOM     83  S   UNL     1      -4.630 -13.701   1.004  1.00  0.00     0.124 S 
ATOM     84  O   UNL     1      -4.419 -14.642   2.098  1.00  0.00    -0.237 OA
ATOM     85  O   UNL     1      -5.194 -12.406   1.372  1.00  0.00    -0.237 OA
ATOM     86  O   UNL     1      -5.157 -14.283  -0.229  1.00  0.00    -0.744 OA
ENDBRANCH  79  83
ENDBRANCH  52  76
BRANCH  64  87
ATOM     87  C   UNL     1       1.188 -14.937   7.523  1.00  0.00     0.023 A 
ATOM     88  C   UNL     1       1.380 -16.243   7.035  1.00  0.00     0.031 A 
ATOM     89  C   UNL     1       0.535 -14.791   8.761  1.00  0.00     0.131 A 
ATOM     90  C   UNL     1       0.847 -17.338   7.732  1.00  0.00     0.055 A 
ATOM     91  C   UNL     1       0.082 -15.891   9.491  1.00  0.00     0.041 A 
ATOM     92  F   UNL     1       0.317 -13.573   9.281  1.00  0.00    -0.206 F 
ATOM     93  C   UNL     1       0.217 -17.173   8.968  1.00  0.00     0.022 A 
BRANCH  90  94
ATOM     94  S   UNL     1       0.852 -18.966   6.929  1.00  0.00     0.124 S 
ATOM     95  O   UNL     1       0.173 -18.683   5.669  1.00  0.00    -0.237 OA
ATOM     96  O   UNL     1       2.277 -19.262   6.833  1.00  0.00    -0.237 OA
ATOM     97  O   UNL     1       0.105 -19.810   7.860  1.00  0.00    -0.744 OA
ENDBRANCH  90  94
ENDBRANCH  64  87
ENDBRANCH  38  39
ENDBRANCH  31  33
ENDBRANCH  30  31
ENDBRANCH  29  30
ENDBRANCH   1  29
TORSDOF 17
