REMARK SMILES Cc1ccccc1C(=O)Nc1cc(C(=O)OCCOC(=O)c2ccc(-c3c4nc(c(-c5cc(S(=O)(=O)[O-])ccc5F)c5ccc([nH]5)c(-c5cc(S(=O)(=O)[O-])ccc5F)c5nc(c(-c6cc(S(=O)(=O)[O-])ccc6F)c6ccc3[nH]6)C=C5)C=C4)cc2)ccc1N1CC[NH+](CC(=O)Nc2ccc(F)cc2)CC1
REMARK SMILES IDX 17 1 16 2 14 3 15 4 13 5 11 6 12 7 87 8 86 9 85 10 10 11
REMARK SMILES IDX 8 12 9 13 7 15 1 16 2 17 3 18 4 19 6 20 5 21 88 22 89 23
REMARK SMILES IDX 104 24 90 25 103 26 91 27 92 29 93 30 94 31 95 32 96 34
REMARK SMILES IDX 97 35 102 36 98 37 101 38 99 39 100 40 18 41 19 42 20 43
REMARK SMILES IDX 21 44 22 45 23 46 84 47 24 48 83 49 25 50 26 51 27 52 77 53
REMARK SMILES IDX 28 54 82 55 76 56 78 57 29 58 81 59 75 60 74 61 30 63 62 64
REMARK SMILES IDX 42 65 61 66 43 67 46 68 60 69 79 70 44 71 45 72 59 74 80 75
REMARK SMILES IDX 47 76 31 77 32 78 40 79 33 80 39 81 41 82 38 83 34 84 35 85
REMARK SMILES IDX 36 86 37 87 63 88 64 89 72 90 65 91 71 92 73 93 70 94 66 95
REMARK SMILES IDX 67 96 68 97 69 98 48 99 49 100 57 101 50 102 56 103 58 104
REMARK SMILES IDX 55 105 51 106 52 107 53 108 54 109
REMARK H PARENT 10 14 91 28 95 33 78 62 46 73
REMARK Flexibility Score: inf
ROOT
ATOM      1  C   UNL     1       1.653  -3.245  -4.303  1.00  0.00     0.275 C 
ENDROOT
BRANCH   1   2
ATOM      2  O   UNL     1       1.518  -2.538  -3.095  1.00  0.00    -0.458 OA
BRANCH   2   3
ATOM      3  C   UNL     1       2.397  -1.557  -3.075  1.00  0.00     0.338 C 
ATOM      4  O   UNL     1       2.678  -0.824  -4.019  1.00  0.00    -0.246 OA
BRANCH   3   5
ATOM      5  C   UNL     1       3.002  -1.403  -1.692  1.00  0.00     0.062 A 
ATOM      6  C   UNL     1       3.312   1.411  -0.753  1.00  0.00     0.065 A 
ATOM      7  C   UNL     1       2.531   0.301  -1.672  1.00  0.00     0.044 A 
ATOM      8  C   UNL     1       4.797   1.049   0.183  1.00  0.00     0.061 A 
ATOM      9  C   UNL     1       5.467  -0.613   0.334  1.00  0.00     0.029 A 
ATOM     10  C   UNL     1       4.617  -1.986  -0.574  1.00  0.00     0.018 A 
BRANCH   6  11
ATOM     11  N   UNL     1       2.520   2.630  -0.585  1.00  0.00    -0.320 N 
ATOM     12  C   UNL     1       1.086   2.907  -0.664  1.00  0.00     0.255 C 
ATOM     13  O   UNL     1       0.739   4.088  -0.545  1.00  0.00    -0.269 OA
ATOM     14  H   UNL     1       3.063   3.425  -0.376  1.00  0.00     0.170 HD
BRANCH  12  15
ATOM     15  C   UNL     1      -0.070   1.871  -0.740  1.00  0.00     0.043 A 
ATOM     16  C   UNL     1       1.024   0.612   0.969  1.00  0.00     0.045 C 
ATOM     17  C   UNL     1       0.089   0.656  -0.145  1.00  0.00    -0.038 A 
ATOM     18  C   UNL     1      -0.548  -0.468  -0.670  1.00  0.00     0.004 A 
ATOM     19  C   UNL     1      -1.828  -0.325  -1.135  1.00  0.00     0.000 A 
ATOM     20  C   UNL     1      -1.412   2.070  -1.077  1.00  0.00     0.014 A 
ATOM     21  C   UNL     1      -2.313   0.969  -1.190  1.00  0.00     0.001 A 
ENDBRANCH  12  15
ENDBRANCH   6  11
BRANCH   8  22
ATOM     22  N   UNL     1       5.331   2.177   0.858  1.00  0.00    -0.359 N 
ATOM     23  C   UNL     1       6.721   2.595   1.187  1.00  0.00     0.178 C 
ATOM     24  C   UNL     1       4.418   2.648   1.881  1.00  0.00     0.178 C 
ATOM     25  C   UNL     1       6.764   4.152   1.544  1.00  0.00     0.284 C 
ATOM     26  C   UNL     1       4.478   4.218   1.950  1.00  0.00     0.284 C 
ATOM     27  N   UNL     1       5.738   4.707   2.440  1.00  0.00    -0.324 N 
ATOM     28  H   UNL     1       5.953   5.703   2.378  1.00  0.00     0.348 HD
BRANCH  27  29
ATOM     29  C   UNL     1       5.755   4.619   3.922  1.00  0.00     0.364 C 
BRANCH  29  30
ATOM     30  C   UNL     1       5.296   3.314   4.620  1.00  0.00     0.279 C 
ATOM     31  O   UNL     1       6.199   2.585   5.070  1.00  0.00    -0.268 OA
ATOM     32  N   UNL     1       4.011   2.868   4.887  1.00  0.00    -0.321 N 
ATOM     33  H   UNL     1       4.075   2.124   5.529  1.00  0.00     0.170 HD
BRANCH  32  34
ATOM     34  C   UNL     1       2.617   3.076   4.586  1.00  0.00     0.041 A 
ATOM     35  C   UNL     1       1.695   2.473   5.451  1.00  0.00     0.029 A 
ATOM     36  C   UNL     1       2.000   3.676   3.480  1.00  0.00     0.029 A 
ATOM     37  C   UNL     1       0.297   2.620   5.277  1.00  0.00     0.041 A 
ATOM     38  C   UNL     1       0.632   3.896   3.311  1.00  0.00     0.041 A 
ATOM     39  C   UNL     1      -0.220   3.378   4.237  1.00  0.00     0.123 A 
ATOM     40  F   UNL     1      -1.535   3.548   4.081  1.00  0.00    -0.207 F 
ENDBRANCH  32  34
ENDBRANCH  29  30
ENDBRANCH  27  29
ENDBRANCH   8  22
ENDBRANCH   3   5
ENDBRANCH   2   3
ENDBRANCH   1   2
BRANCH   1  41
ATOM     41  C   UNL     1       2.986  -3.143  -5.167  1.00  0.00     0.275 C 
BRANCH  41  42
ATOM     42  O   UNL     1       4.428  -3.053  -4.733  1.00  0.00    -0.458 OA
BRANCH  42  43
ATOM     43  C   UNL     1       5.216  -2.099  -4.087  1.00  0.00     0.338 C 
ATOM     44  O   UNL     1       6.309  -1.728  -4.487  1.00  0.00    -0.246 OA
BRANCH  43  45
ATOM     45  C   UNL     1       4.843  -1.904  -2.671  1.00  0.00     0.060 A 
ATOM     46  C   UNL     1       4.588  -0.442  -1.573  1.00  0.00     0.016 A 
ATOM     47  C   UNL     1       4.054  -3.390  -2.273  1.00  0.00     0.016 A 
ATOM     48  C   UNL     1       3.378  -0.799   0.047  1.00  0.00     0.010 A 
ATOM     49  C   UNL     1       2.977  -3.540  -1.043  1.00  0.00     0.010 A 
ATOM     50  C   UNL     1       2.579  -2.449   0.201  1.00  0.00    -0.014 A 
BRANCH  50  51
ATOM     51  C   UNL     1       1.401  -3.351   0.967  1.00  0.00     0.031 A 
ATOM     52  C   UNL     1       0.109  -2.736   1.518  1.00  0.00     0.074 A 
ATOM     53  C   UNL     1       1.370  -4.746   0.716  1.00  0.00     0.049 A 
ATOM     54  N   UNL     1      -1.062  -2.923   0.963  1.00  0.00    -0.248 NA
ATOM     55  C   UNL     1       0.025  -1.741   2.616  1.00  0.00     0.031 C 
ATOM     56  C   UNL     1       0.328  -5.815   0.743  1.00  0.00     0.029 A 
ATOM     57  N   UNL     1       2.466  -5.585   0.351  1.00  0.00    -0.354 N 
ATOM     58  C   UNL     1      -2.009  -2.092   1.590  1.00  0.00     0.074 A 
ATOM     59  C   UNL     1      -1.209  -1.225   2.443  1.00  0.00     0.031 C 
ATOM     60  C   UNL     1       0.894  -7.046   0.880  1.00  0.00     0.029 A 
ATOM     61  C   UNL     1       2.327  -6.869   0.900  1.00  0.00     0.049 A 
ATOM     62  H   UNL     1       3.222  -5.300  -0.213  1.00  0.00     0.167 HD
ATOM     63  C   UNL     1      -3.135  -2.627   2.143  1.00  0.00     0.034 A 
ATOM     64  C   UNL     1       3.224  -7.228   1.856  1.00  0.00     0.034 A 
ATOM     65  C   UNL     1      -2.855  -3.978   2.557  1.00  0.00     0.049 A 
ATOM     66  C   UNL     1       2.500  -6.881   3.162  1.00  0.00     0.074 A 
ATOM     67  C   UNL     1      -2.991  -5.210   1.963  1.00  0.00     0.029 A 
ATOM     68  N   UNL     1      -1.978  -4.130   3.613  1.00  0.00    -0.354 N 
ATOM     69  N   UNL     1       1.487  -6.045   3.239  1.00  0.00    -0.248 NA
ATOM     70  C   UNL     1       2.704  -7.617   4.399  1.00  0.00     0.031 C 
ATOM     71  C   UNL     1      -2.073  -6.083   2.632  1.00  0.00     0.029 A 
ATOM     72  C   UNL     1      -1.392  -5.377   3.623  1.00  0.00     0.049 A 
ATOM     73  H   UNL     1      -1.792  -3.429   4.280  1.00  0.00     0.167 HD
ATOM     74  C   UNL     1       0.781  -6.275   4.378  1.00  0.00     0.074 A 
ATOM     75  C   UNL     1       1.613  -7.245   5.088  1.00  0.00     0.031 C 
ATOM     76  C   UNL     1      -0.435  -5.711   4.683  1.00  0.00     0.034 A 
BRANCH  63  77
ATOM     77  C   UNL     1      -4.495  -1.966   2.161  1.00  0.00     0.023 A 
ATOM     78  C   UNL     1      -5.593  -2.775   2.504  1.00  0.00     0.031 A 
ATOM     79  C   UNL     1      -4.815  -0.647   1.770  1.00  0.00     0.131 A 
ATOM     80  C   UNL     1      -6.921  -2.328   2.389  1.00  0.00     0.055 A 
ATOM     81  C   UNL     1      -6.150  -0.189   1.665  1.00  0.00     0.041 A 
ATOM     82  F   UNL     1      -3.854   0.240   1.469  1.00  0.00    -0.206 F 
ATOM     83  C   UNL     1      -7.214  -1.039   1.959  1.00  0.00     0.022 A 
BRANCH  80  84
ATOM     84  S   UNL     1      -8.236  -3.514   2.773  1.00  0.00     0.124 S 
ATOM     85  O   UNL     1      -7.990  -4.567   1.793  1.00  0.00    -0.237 OA
ATOM     86  O   UNL     1      -7.948  -3.848   4.164  1.00  0.00    -0.237 OA
ATOM     87  O   UNL     1      -9.464  -2.748   2.562  1.00  0.00    -0.744 OA
ENDBRANCH  80  84
ENDBRANCH  63  77
BRANCH  64  88
ATOM     88  C   UNL     1       4.590  -6.780   1.364  1.00  0.00     0.023 A 
ATOM     89  C   UNL     1       5.064  -7.280   0.095  1.00  0.00     0.031 A 
ATOM     90  C   UNL     1       5.038  -5.523   1.775  1.00  0.00     0.131 A 
ATOM     91  C   UNL     1       5.777  -6.438  -0.784  1.00  0.00     0.055 A 
ATOM     92  C   UNL     1       5.780  -4.721   0.913  1.00  0.00     0.041 A 
ATOM     93  F   UNL     1       4.569  -4.959   2.897  1.00  0.00    -0.206 F 
ATOM     94  C   UNL     1       6.123  -5.156  -0.375  1.00  0.00     0.022 A 
BRANCH  91  95
ATOM     95  S   UNL     1       5.972  -6.863  -2.564  1.00  0.00     0.124 S 
ATOM     96  O   UNL     1       7.014  -7.882  -2.530  1.00  0.00    -0.237 OA
ATOM     97  O   UNL     1       4.633  -7.318  -2.928  1.00  0.00    -0.237 OA
ATOM     98  O   UNL     1       6.361  -5.597  -3.181  1.00  0.00    -0.744 OA
ENDBRANCH  91  95
ENDBRANCH  64  88
BRANCH  76  99
ATOM     99  C   UNL     1      -0.822  -5.488   6.126  1.00  0.00     0.023 A 
ATOM    100  C   UNL     1       0.128  -5.650   7.134  1.00  0.00     0.031 A 
ATOM    101  C   UNL     1      -2.083  -5.025   6.560  1.00  0.00     0.131 A 
ATOM    102  C   UNL     1      -0.225  -5.632   8.479  1.00  0.00     0.055 A 
ATOM    103  C   UNL     1      -2.389  -4.827   7.909  1.00  0.00     0.041 A 
ATOM    104  F   UNL     1      -3.069  -4.708   5.711  1.00  0.00    -0.206 F 
ATOM    105  C   UNL     1      -1.476  -5.193   8.885  1.00  0.00     0.022 A 
BRANCH 102 106
ATOM    106  S   UNL     1       0.971  -6.345   9.622  1.00  0.00     0.124 S 
ATOM    107  O   UNL     1       1.034  -7.728   9.154  1.00  0.00    -0.237 OA
ATOM    108  O   UNL     1       2.162  -5.541   9.368  1.00  0.00    -0.237 OA
ATOM    109  O   UNL     1       0.347  -6.151  10.927  1.00  0.00    -0.744 OA
ENDBRANCH 102 106
ENDBRANCH  76  99
ENDBRANCH  50  51
ENDBRANCH  43  45
ENDBRANCH  42  43
ENDBRANCH  41  42
ENDBRANCH   1  41
TORSDOF 20
