REMARK SMILES CCOc1cc(/C=C(/F)C(=O)OCCOC(=O)c2ccc(-c3c4nc(c(-c5cc(S(=O)(=O)[O-])ccc5F)c5ccc([nH]5)c(-c5cc(S(=O)(=O)[O-])ccc5F)c5nc(c(-c6cc(S(=O)(=O)[O-])ccc6F)c6ccc3[nH]6)C=C5)C=C4)cc2)ccc1O
REMARK SMILES IDX 13 1 12 2 10 3 11 4 8 5 7 6 9 7 6 8 4 9 5 10 83 11 82 12
REMARK SMILES IDX 81 13 3 14 2 15 1 16 84 17 14 19 15 20 16 21 17 22 18 23
REMARK SMILES IDX 19 24 80 25 20 26 79 27 21 28 22 29 23 30 73 31 24 32 78 33
REMARK SMILES IDX 72 34 74 35 25 36 77 37 71 38 70 39 26 41 58 42 38 43 57 44
REMARK SMILES IDX 39 45 42 46 56 47 75 48 40 49 41 50 55 52 76 53 43 54 27 55
REMARK SMILES IDX 28 56 36 57 29 58 35 59 37 60 34 61 30 62 31 63 32 64 33 65
REMARK SMILES IDX 59 66 60 67 68 68 61 69 67 70 69 71 66 72 62 73 63 74 64 75
REMARK SMILES IDX 65 76 44 77 45 78 53 79 46 80 52 81 54 82 51 83 47 84 48 85
REMARK SMILES IDX 49 86 50 87
REMARK H PARENT 84 18 74 40 42 51
REMARK Flexibility Score: inf
ROOT
ATOM      1  C   UNL     1       3.024  -1.014  -5.483  1.00  0.00     0.275 C 
ENDROOT
BRANCH   1   2
ATOM      2  O   UNL     1       3.099   0.159  -6.304  1.00  0.00    -0.457 OA
BRANCH   2   3
ATOM      3  C   UNL     1       1.975   0.477  -6.992  1.00  0.00     0.367 C 
ATOM      4  O   UNL     1       1.029  -0.256  -7.230  1.00  0.00    -0.243 OA
BRANCH   3   5
ATOM      5  C   UNL     1       2.022   1.922  -7.275  1.00  0.00     0.208 C 
ATOM      6  C   UNL     1       1.515   2.889  -6.495  1.00  0.00     0.055 C 
ATOM      7  F   UNL     1       2.675   2.249  -8.412  1.00  0.00    -0.199 F 
BRANCH   6   8
ATOM      8  C   UNL     1       0.779   2.797  -5.217  1.00  0.00    -0.019 A 
ATOM      9  C   UNL     1       0.144   1.651  -3.126  1.00  0.00     0.161 A 
ATOM     10  C   UNL     1       0.769   1.673  -4.380  1.00  0.00     0.058 A 
ATOM     11  C   UNL     1      -0.591   2.763  -2.743  1.00  0.00     0.157 A 
ATOM     12  C   UNL     1      -0.616   3.896  -3.563  1.00  0.00     0.051 A 
ATOM     13  C   UNL     1       0.096   3.928  -4.766  1.00  0.00     0.012 A 
BRANCH   9  14
ATOM     14  O   UNL     1       0.341   0.486  -2.430  1.00  0.00    -0.490 OA
BRANCH  14  15
ATOM     15  C   UNL     1       0.266   0.560  -1.005  1.00  0.00     0.226 C 
ATOM     16  C   UNL     1       0.945  -0.673  -0.425  1.00  0.00     0.049 C 
ENDBRANCH  14  15
ENDBRANCH   9  14
BRANCH  11  17
ATOM     17  O   UNL     1      -1.292   2.766  -1.571  1.00  0.00    -0.504 OA
ATOM     18  H   UNL     1      -1.280   2.011  -1.016  1.00  0.00     0.293 HD
ENDBRANCH  11  17
ENDBRANCH   6   8
ENDBRANCH   3   5
ENDBRANCH   2   3
ENDBRANCH   1   2
BRANCH   1  19
ATOM     19  C   UNL     1       3.943  -0.833  -4.266  1.00  0.00     0.275 C 
BRANCH  19  20
ATOM     20  O   UNL     1       3.579   0.303  -3.442  1.00  0.00    -0.458 OA
BRANCH  20  21
ATOM     21  C   UNL     1       4.208   1.476  -3.728  1.00  0.00     0.338 C 
ATOM     22  O   UNL     1       5.032   1.640  -4.616  1.00  0.00    -0.246 OA
BRANCH  21  23
ATOM     23  C   UNL     1       3.719   2.597  -2.874  1.00  0.00     0.060 A 
ATOM     24  C   UNL     1       3.649   3.875  -3.442  1.00  0.00     0.016 A 
ATOM     25  C   UNL     1       3.361   2.433  -1.530  1.00  0.00     0.016 A 
ATOM     26  C   UNL     1       3.204   4.971  -2.688  1.00  0.00     0.010 A 
ATOM     27  C   UNL     1       2.929   3.538  -0.768  1.00  0.00     0.010 A 
ATOM     28  C   UNL     1       2.850   4.819  -1.338  1.00  0.00    -0.014 A 
BRANCH  28  29
ATOM     29  C   UNL     1       2.539   6.041  -0.532  1.00  0.00     0.031 A 
ATOM     30  C   UNL     1       3.666   6.802   0.089  1.00  0.00     0.074 A 
ATOM     31  C   UNL     1       1.287   6.523  -0.404  1.00  0.00     0.049 A 
ATOM     32  N   UNL     1       3.640   7.952   0.709  1.00  0.00    -0.248 NA
ATOM     33  C   UNL     1       4.987   6.168   0.020  1.00  0.00     0.031 C 
ATOM     34  C   UNL     1       0.112   5.832  -0.891  1.00  0.00     0.029 A 
ATOM     35  N   UNL     1       0.779   7.679   0.140  1.00  0.00    -0.354 N 
ATOM     36  C   UNL     1       4.949   8.193   1.097  1.00  0.00     0.074 A 
ATOM     37  C   UNL     1       5.731   7.047   0.673  1.00  0.00     0.031 C 
ATOM     38  C   UNL     1      -0.978   6.594  -0.712  1.00  0.00     0.029 A 
ATOM     39  C   UNL     1      -0.586   7.819  -0.021  1.00  0.00     0.049 A 
ATOM     40  H   UNL     1       1.337   8.346   0.601  1.00  0.00     0.167 HD
ATOM     41  C   UNL     1       5.450   9.271   1.748  1.00  0.00     0.034 A 
ATOM     42  C   UNL     1      -1.429   8.804   0.358  1.00  0.00     0.034 A 
ATOM     43  C   UNL     1       4.647  10.368   2.231  1.00  0.00     0.049 A 
ATOM     44  C   UNL     1      -0.852   9.978   1.109  1.00  0.00     0.074 A 
ATOM     45  C   UNL     1       5.052  11.491   2.931  1.00  0.00     0.029 A 
ATOM     46  N   UNL     1       3.267  10.471   2.088  1.00  0.00    -0.354 N 
ATOM     47  N   UNL     1       0.397  10.202   1.448  1.00  0.00    -0.248 NA
ATOM     48  C   UNL     1      -1.792  11.019   1.541  1.00  0.00     0.031 C 
ATOM     49  C   UNL     1       3.914  12.238   3.264  1.00  0.00     0.029 A 
ATOM     50  C   UNL     1       2.804  11.625   2.706  1.00  0.00     0.049 A 
ATOM     51  H   UNL     1       2.700   9.818   1.618  1.00  0.00     0.167 HD
ATOM     52  C   UNL     1       0.394  11.413   2.132  1.00  0.00     0.074 A 
ATOM     53  C   UNL     1      -0.977  11.886   2.124  1.00  0.00     0.031 C 
ATOM     54  C   UNL     1       1.428  12.070   2.718  1.00  0.00     0.034 A 
BRANCH  41  55
ATOM     55  C   UNL     1       6.931   9.247   2.023  1.00  0.00     0.023 A 
ATOM     56  C   UNL     1       7.870   9.252   0.975  1.00  0.00     0.031 A 
ATOM     57  C   UNL     1       7.408   9.117   3.338  1.00  0.00     0.131 A 
ATOM     58  C   UNL     1       9.227   9.038   1.254  1.00  0.00     0.055 A 
ATOM     59  C   UNL     1       8.770   8.989   3.615  1.00  0.00     0.041 A 
ATOM     60  F   UNL     1       6.554   9.073   4.373  1.00  0.00    -0.206 F 
ATOM     61  C   UNL     1       9.687   8.931   2.568  1.00  0.00     0.022 A 
BRANCH  58  62
ATOM     62  S   UNL     1      10.358   8.735  -0.132  1.00  0.00     0.124 S 
ATOM     63  O   UNL     1       9.790   7.521  -0.713  1.00  0.00    -0.237 OA
ATOM     64  O   UNL     1      10.217   9.950  -0.926  1.00  0.00    -0.237 OA
ATOM     65  O   UNL     1      11.655   8.560   0.517  1.00  0.00    -0.744 OA
ENDBRANCH  58  62
ENDBRANCH  41  55
BRANCH  42  66
ATOM     66  C   UNL     1      -2.902   8.709   0.100  1.00  0.00     0.023 A 
ATOM     67  C   UNL     1      -3.583   9.652  -0.693  1.00  0.00     0.031 A 
ATOM     68  C   UNL     1      -3.665   7.681   0.685  1.00  0.00     0.131 A 
ATOM     69  C   UNL     1      -4.977   9.558  -0.858  1.00  0.00     0.055 A 
ATOM     70  C   UNL     1      -5.041   7.562   0.474  1.00  0.00     0.041 A 
ATOM     71  F   UNL     1      -3.076   6.756   1.459  1.00  0.00    -0.206 F 
ATOM     72  C   UNL     1      -5.706   8.509  -0.294  1.00  0.00     0.022 A 
BRANCH  69  73
ATOM     73  S   UNL     1      -5.850  10.868  -1.766  1.00  0.00     0.124 S 
ATOM     74  O   UNL     1      -5.489  12.055  -1.000  1.00  0.00    -0.237 OA
ATOM     75  O   UNL     1      -5.260  10.756  -3.096  1.00  0.00    -0.237 OA
ATOM     76  O   UNL     1      -7.253  10.468  -1.675  1.00  0.00    -0.744 OA
ENDBRANCH  69  73
ENDBRANCH  42  66
BRANCH  54  77
ATOM     77  C   UNL     1       1.099  13.394   3.365  1.00  0.00     0.023 A 
ATOM     78  C   UNL     1       0.258  13.480   4.489  1.00  0.00     0.031 A 
ATOM     79  C   UNL     1       1.577  14.591   2.804  1.00  0.00     0.131 A 
ATOM     80  C   UNL     1      -0.148  14.737   4.962  1.00  0.00     0.055 A 
ATOM     81  C   UNL     1       1.226  15.837   3.322  1.00  0.00     0.041 A 
ATOM     82  F   UNL     1       2.380  14.567   1.728  1.00  0.00    -0.206 F 
ATOM     83  C   UNL     1       0.343  15.916   4.395  1.00  0.00     0.022 A 
BRANCH  80  84
ATOM     84  S   UNL     1      -1.437  14.811   6.237  1.00  0.00     0.124 S 
ATOM     85  O   UNL     1      -2.533  14.087   5.600  1.00  0.00    -0.237 OA
ATOM     86  O   UNL     1      -0.800  14.139   7.365  1.00  0.00    -0.237 OA
ATOM     87  O   UNL     1      -1.661  16.244   6.415  1.00  0.00    -0.744 OA
ENDBRANCH  80  84
ENDBRANCH  54  77
ENDBRANCH  28  29
ENDBRANCH  21  23
ENDBRANCH  20  21
ENDBRANCH  19  20
ENDBRANCH   1  19
TORSDOF 18
