REMARK SMILES CCc1cccc2c3c([nH]c12)[C@](CC)(CC(=O)OCCOC(=O)c1ccc(-c2c4nc(c(-c5cc(S(=O)(=O)[O-])ccc5F)c5ccc([nH]5)c(-c5cc(S(=O)(=O)[O-])ccc5F)c5nc(c(-c6cc(S(=O)(=O)[O-])ccc6F)c6ccc2[nH]6)C=C5)C=C4)cc1)OCC3
REMARK SMILES IDX 20 1 19 2 18 3 16 4 17 5 15 6 12 7 3 8 4 9 11 10 5 11 7 12
REMARK SMILES IDX 10 13 6 14 8 15 9 16 89 18 88 19 87 20 2 21 1 22 13 23 14 24
REMARK SMILES IDX 21 25 22 26 23 27 24 28 25 29 86 30 26 31 85 32 27 33 28 34
REMARK SMILES IDX 29 35 79 36 30 37 84 38 78 39 80 40 31 41 83 42 77 43 76 44
REMARK SMILES IDX 32 46 64 47 44 48 63 49 45 50 48 51 62 52 81 53 46 54 47 55
REMARK SMILES IDX 61 57 82 58 49 59 33 60 34 61 42 62 35 63 41 64 43 65 40 66
REMARK SMILES IDX 36 67 37 68 38 69 39 70 65 71 66 72 74 73 67 74 73 75 75 76
REMARK SMILES IDX 72 77 68 78 69 79 70 80 71 81 50 82 51 83 59 84 52 85 58 86
REMARK SMILES IDX 60 87 57 88 53 89 54 90 55 91 56 92
REMARK H PARENT 10 17 80 45 48 56
REMARK Flexibility Score: inf
ROOT
ATOM      1  C   UNL     1       0.274   2.326   8.588  1.00  0.00     0.275 C 
ENDROOT
BRANCH   1   2
ATOM      2  C   UNL     1       1.422   1.601   9.292  1.00  0.00     0.274 C 
BRANCH   2   3
ATOM      3  O   UNL     1       2.226   0.870   8.332  1.00  0.00    -0.462 OA
BRANCH   3   4
ATOM      4  C   UNL     1       2.284  -0.468   8.497  1.00  0.00     0.309 C 
ATOM      5  O   UNL     1       1.657  -1.065   9.370  1.00  0.00    -0.252 OA
BRANCH   4   6
ATOM      6  C   UNL     1       3.271  -1.222   7.633  1.00  0.00     0.164 C 
BRANCH   6   7
ATOM      7  C   UNL     1       3.985  -0.759   6.345  1.00  0.00     0.118 C 
ATOM      8  C   UNL     1       1.217   0.862   2.390  1.00  0.00    -0.024 A 
ATOM      9  C   UNL     1       0.796   2.156   2.011  1.00  0.00     0.006 A 
ATOM     10  C   UNL     1       2.029   0.790   3.548  1.00  0.00     0.049 A 
ATOM     11  C   UNL     1       1.200   3.298   2.695  1.00  0.00     0.001 A 
ATOM     12  C   UNL     1       2.444   1.925   4.253  1.00  0.00     0.003 A 
ATOM     13  N   UNL     1       2.571  -0.298   4.215  1.00  0.00    -0.356 N 
ATOM     14  C   UNL     1       2.041   3.196   3.803  1.00  0.00     0.010 A 
ATOM     15  C   UNL     1       3.263   1.478   5.328  1.00  0.00    -0.014 A 
ATOM     16  C   UNL     1       3.228   0.101   5.359  1.00  0.00     0.052 A 
ATOM     17  H   UNL     1       2.497  -1.232   3.911  1.00  0.00     0.166 HD
ATOM     18  C   UNL     1       4.116   2.251   6.263  1.00  0.00     0.066 C 
ATOM     19  C   UNL     1       4.947   1.330   7.180  1.00  0.00     0.166 C 
ATOM     20  O   UNL     1       5.178   0.008   6.670  1.00  0.00    -0.368 OA
BRANCH   8  21
ATOM     21  C   UNL     1       0.752  -0.327   1.579  1.00  0.00     0.034 C 
ATOM     22  C   UNL     1       1.184  -0.259   0.116  1.00  0.00     0.009 C 
ENDBRANCH   8  21
BRANCH   7  23
ATOM     23  C   UNL     1       4.511  -2.037   5.605  1.00  0.00     0.039 C 
ATOM     24  C   UNL     1       5.261  -3.039   6.482  1.00  0.00     0.007 C 
ENDBRANCH   7  23
ENDBRANCH   6   7
ENDBRANCH   4   6
ENDBRANCH   3   4
ENDBRANCH   2   3
ENDBRANCH   1   2
BRANCH   1  25
ATOM     25  O   UNL     1      -0.734   1.365   8.251  1.00  0.00    -0.458 OA
BRANCH  25  26
ATOM     26  C   UNL     1      -0.703   0.905   6.976  1.00  0.00     0.338 C 
ATOM     27  O   UNL     1      -0.352   1.524   5.989  1.00  0.00    -0.246 OA
BRANCH  26  28
ATOM     28  C   UNL     1      -0.849  -0.561   7.069  1.00  0.00     0.060 A 
ATOM     29  C   UNL     1      -1.659  -1.137   8.043  1.00  0.00     0.016 A 
ATOM     30  C   UNL     1       0.033  -1.347   6.322  1.00  0.00     0.016 A 
ATOM     31  C   UNL     1      -1.478  -2.475   8.359  1.00  0.00     0.010 A 
ATOM     32  C   UNL     1       0.238  -2.679   6.655  1.00  0.00     0.010 A 
ATOM     33  C   UNL     1      -0.483  -3.227   7.712  1.00  0.00    -0.014 A 
BRANCH  33  34
ATOM     34  C   UNL     1      -0.454  -4.655   7.988  1.00  0.00     0.031 A 
ATOM     35  C   UNL     1      -1.491  -5.383   7.227  1.00  0.00     0.074 A 
ATOM     36  C   UNL     1       0.364  -5.345   8.802  1.00  0.00     0.049 A 
ATOM     37  N   UNL     1      -2.653  -5.744   7.656  1.00  0.00    -0.248 NA
ATOM     38  C   UNL     1      -1.285  -5.556   5.786  1.00  0.00     0.031 C 
ATOM     39  C   UNL     1       1.640  -4.955   9.396  1.00  0.00     0.029 A 
ATOM     40  N   UNL     1       0.201  -6.633   9.223  1.00  0.00    -0.354 N 
ATOM     41  C   UNL     1      -3.277  -6.352   6.576  1.00  0.00     0.074 A 
ATOM     42  C   UNL     1      -2.471  -6.040   5.420  1.00  0.00     0.031 C 
ATOM     43  C   UNL     1       2.228  -6.053   9.938  1.00  0.00     0.029 A 
ATOM     44  C   UNL     1       1.295  -7.171   9.878  1.00  0.00     0.049 A 
ATOM     45  H   UNL     1      -0.630  -7.140   9.072  1.00  0.00     0.167 HD
ATOM     46  C   UNL     1      -4.304  -7.230   6.746  1.00  0.00     0.034 A 
ATOM     47  C   UNL     1       1.423  -8.455  10.293  1.00  0.00     0.034 A 
ATOM     48  C   UNL     1      -4.812  -7.192   8.092  1.00  0.00     0.049 A 
ATOM     49  C   UNL     1       0.070  -9.054  10.409  1.00  0.00     0.074 A 
ATOM     50  C   UNL     1      -5.435  -6.243   8.876  1.00  0.00     0.029 A 
ATOM     51  N   UNL     1      -4.369  -8.167   8.953  1.00  0.00    -0.354 N 
ATOM     52  N   UNL     1      -0.795  -8.758  11.336  1.00  0.00    -0.248 NA
ATOM     53  C   UNL     1      -0.469  -9.768   9.262  1.00  0.00     0.031 C 
ATOM     54  C   UNL     1      -4.972  -6.484  10.202  1.00  0.00     0.029 A 
ATOM     55  C   UNL     1      -4.113  -7.586  10.168  1.00  0.00     0.049 A 
ATOM     56  H   UNL     1      -4.256  -9.120   8.735  1.00  0.00     0.167 HD
ATOM     57  C   UNL     1      -2.022  -8.822  10.698  1.00  0.00     0.074 A 
ATOM     58  C   UNL     1      -1.773  -9.593   9.485  1.00  0.00     0.031 C 
ATOM     59  C   UNL     1      -3.055  -8.009  11.069  1.00  0.00     0.034 A 
BRANCH  46  60
ATOM     60  C   UNL     1      -4.612  -8.351   5.787  1.00  0.00     0.023 A 
ATOM     61  C   UNL     1      -3.729  -8.746   4.765  1.00  0.00     0.031 A 
ATOM     62  C   UNL     1      -5.714  -9.201   6.005  1.00  0.00     0.131 A 
ATOM     63  C   UNL     1      -3.954  -9.890   3.992  1.00  0.00     0.055 A 
ATOM     64  C   UNL     1      -5.901 -10.387   5.285  1.00  0.00     0.041 A 
ATOM     65  F   UNL     1      -6.613  -8.934   6.965  1.00  0.00    -0.206 F 
ATOM     66  C   UNL     1      -5.020 -10.736   4.268  1.00  0.00     0.022 A 
BRANCH  63  67
ATOM     67  S   UNL     1      -2.842 -10.288   2.616  1.00  0.00     0.124 S 
ATOM     68  O   UNL     1      -2.311 -11.583   3.024  1.00  0.00    -0.237 OA
ATOM     69  O   UNL     1      -3.767 -10.308   1.485  1.00  0.00    -0.237 OA
ATOM     70  O   UNL     1      -1.891  -9.180   2.613  1.00  0.00    -0.744 OA
ENDBRANCH  63  67
ENDBRANCH  46  60
BRANCH  47  71
ATOM     71  C   UNL     1       2.619  -9.322  10.210  1.00  0.00     0.023 A 
ATOM     72  C   UNL     1       3.543  -9.122   9.171  1.00  0.00     0.031 A 
ATOM     73  C   UNL     1       2.672 -10.547  10.902  1.00  0.00     0.131 A 
ATOM     74  C   UNL     1       4.422 -10.149   8.800  1.00  0.00     0.055 A 
ATOM     75  C   UNL     1       3.563 -11.563  10.542  1.00  0.00     0.041 A 
ATOM     76  F   UNL     1       1.798 -10.813  11.886  1.00  0.00    -0.206 F 
ATOM     77  C   UNL     1       4.432 -11.373   9.473  1.00  0.00     0.022 A 
BRANCH  74  78
ATOM     78  S   UNL     1       5.510  -9.943   7.364  1.00  0.00     0.124 S 
ATOM     79  O   UNL     1       6.779 -10.472   7.857  1.00  0.00    -0.237 OA
ATOM     80  O   UNL     1       4.835 -10.759   6.362  1.00  0.00    -0.237 OA
ATOM     81  O   UNL     1       5.492  -8.502   7.129  1.00  0.00    -0.744 OA
ENDBRANCH  74  78
ENDBRANCH  47  71
BRANCH  59  82
ATOM     82  C   UNL     1      -2.979  -7.298  12.405  1.00  0.00     0.023 A 
ATOM     83  C   UNL     1      -4.123  -7.347  13.226  1.00  0.00     0.031 A 
ATOM     84  C   UNL     1      -1.927  -6.456  12.815  1.00  0.00     0.131 A 
ATOM     85  C   UNL     1      -4.203  -6.565  14.385  1.00  0.00     0.055 A 
ATOM     86  C   UNL     1      -1.980  -5.736  14.014  1.00  0.00     0.041 A 
ATOM     87  F   UNL     1      -0.854  -6.240  12.040  1.00  0.00    -0.206 F 
ATOM     88  C   UNL     1      -3.128  -5.776  14.798  1.00  0.00     0.022 A 
BRANCH  85  89
ATOM     89  S   UNL     1      -5.763  -6.436  15.297  1.00  0.00     0.124 S 
ATOM     90  O   UNL     1      -5.435  -7.084  16.564  1.00  0.00    -0.237 OA
ATOM     91  O   UNL     1      -5.965  -4.990  15.369  1.00  0.00    -0.237 OA
ATOM     92  O   UNL     1      -6.723  -7.150  14.460  1.00  0.00    -0.744 OA
ENDBRANCH  85  89
ENDBRANCH  59  82
ENDBRANCH  33  34
ENDBRANCH  26  28
ENDBRANCH  25  26
ENDBRANCH   1  25
TORSDOF 17
