REMARK SMILES Cc1ccc(S(=O)(=O)N2C[C@@H](CC(=O)OCCOC(=O)c3ccc(-c4c5nc(c(-c6cc(S(=O)(=O)[O-])ccc6F)c6ccc([nH]6)c(-c6cc(S(=O)(=O)[O-])ccc6F)c6nc(c(-c7cc(S(=O)(=O)[O-])ccc7F)c7ccc4[nH]7)C=C6)C=C5)cc3)c3ccccc32)c(C)c1
REMARK SMILES IDX 16 1 15 2 13 3 14 4 12 5 11 6 9 7 10 8 89 9 84 10 88 11
REMARK SMILES IDX 85 12 87 13 86 14 6 15 7 16 8 17 5 18 1 19 2 20 3 21 92 22
REMARK SMILES IDX 4 23 90 24 91 25 17 26 18 27 19 28 20 29 21 30 22 31 83 32
REMARK SMILES IDX 23 33 82 34 24 35 25 36 26 37 76 38 27 39 81 40 75 41 77 42
REMARK SMILES IDX 28 43 80 44 74 45 73 46 29 48 61 49 41 50 60 51 42 52 45 53
REMARK SMILES IDX 59 54 78 55 43 56 44 57 58 59 79 60 46 61 30 62 31 63 39 64
REMARK SMILES IDX 32 65 38 66 40 67 37 68 33 69 34 70 35 71 36 72 62 73 63 74
REMARK SMILES IDX 71 75 64 76 70 77 72 78 69 79 65 80 66 81 67 82 68 83 47 84
REMARK SMILES IDX 48 85 56 86 49 87 55 88 57 89 54 90 50 91 51 92 52 93 53 94
REMARK H PARENT 77 47 45 58
REMARK Flexibility Score: inf
ROOT
ATOM      1  C   UNL     1      -0.593  -9.940   0.367  1.00  0.00     0.274 C 
ENDROOT
BRANCH   1   2
ATOM      2  O   UNL     1      -0.689  -8.522   0.127  1.00  0.00    -0.462 OA
BRANCH   2   3
ATOM      3  C   UNL     1      -1.010  -8.122  -1.126  1.00  0.00     0.306 C 
ATOM      4  O   UNL     1      -1.141  -8.873  -2.083  1.00  0.00    -0.252 OA
BRANCH   3   5
ATOM      5  C   UNL     1      -1.142  -6.619  -1.232  1.00  0.00     0.133 C 
BRANCH   5   6
ATOM      6  C   UNL     1      -2.217  -6.015  -0.316  1.00  0.00     0.053 C 
ATOM      7  N   UNL     1      -1.950  -3.620  -0.152  1.00  0.00    -0.265 N 
ATOM      8  C   UNL     1      -2.735  -4.662  -0.871  1.00  0.00     0.144 C 
ATOM      9  C   UNL     1      -1.539  -4.196   1.090  1.00  0.00     0.055 A 
ATOM     10  C   UNL     1      -1.678  -5.583   1.027  1.00  0.00    -0.018 A 
ATOM     11  C   UNL     1      -0.957  -3.587   2.190  1.00  0.00     0.027 A 
ATOM     12  C   UNL     1      -1.319  -6.375   2.108  1.00  0.00     0.006 A 
ATOM     13  C   UNL     1      -0.548  -4.386   3.261  1.00  0.00     0.002 A 
ATOM     14  C   UNL     1      -0.735  -5.772   3.222  1.00  0.00     0.000 A 
BRANCH   7  15
ATOM     15  S   UNL     1      -2.541  -2.037  -0.225  1.00  0.00     0.264 S 
ATOM     16  O   UNL     1      -3.276  -1.765   0.993  1.00  0.00    -0.201 OA
ATOM     17  O   UNL     1      -3.131  -1.838  -1.534  1.00  0.00    -0.201 OA
BRANCH  15  18
ATOM     18  C   UNL     1      -1.071  -1.014  -0.207  1.00  0.00     0.090 A 
ATOM     19  C   UNL     1       2.549   1.308   0.000  1.00  0.00     0.044 C 
ATOM     20  C   UNL     1       1.293   0.493  -0.074  1.00  0.00    -0.051 A 
ATOM     21  C   UNL     1       1.353  -0.882  -0.297  1.00  0.00     0.005 A 
ATOM     22  C   UNL     1       0.041   1.114   0.037  1.00  0.00     0.008 A 
ATOM     23  C   UNL     1       0.180  -1.628  -0.375  1.00  0.00     0.023 A 
ATOM     24  C   UNL     1      -1.159   0.378  -0.028  1.00  0.00    -0.030 A 
ATOM     25  C   UNL     1      -2.447   1.153   0.036  1.00  0.00     0.046 C 
ENDBRANCH  15  18
ENDBRANCH   7  15
ENDBRANCH   5   6
ENDBRANCH   3   5
ENDBRANCH   2   3
ENDBRANCH   1   2
BRANCH   1  26
ATOM     26  C   UNL     1      -1.896 -10.490   0.951  1.00  0.00     0.275 C 
BRANCH  26  27
ATOM     27  O   UNL     1      -2.901 -10.601  -0.071  1.00  0.00    -0.458 OA
BRANCH  27  28
ATOM     28  C   UNL     1      -3.824  -9.613  -0.096  1.00  0.00     0.338 C 
ATOM     29  O   UNL     1      -3.938  -8.692   0.692  1.00  0.00    -0.246 OA
BRANCH  28  30
ATOM     30  C   UNL     1      -4.630  -9.754  -1.317  1.00  0.00     0.060 A 
ATOM     31  C   UNL     1      -4.443  -8.845  -2.363  1.00  0.00     0.016 A 
ATOM     32  C   UNL     1      -5.586 -10.765  -1.412  1.00  0.00     0.016 A 
ATOM     33  C   UNL     1      -5.211  -8.953  -3.521  1.00  0.00     0.010 A 
ATOM     34  C   UNL     1      -6.350 -10.874  -2.576  1.00  0.00     0.010 A 
ATOM     35  C   UNL     1      -6.169  -9.968  -3.636  1.00  0.00    -0.014 A 
BRANCH  35  36
ATOM     36  C   UNL     1      -7.014 -10.067  -4.851  1.00  0.00     0.031 A 
ATOM     37  C   UNL     1      -8.457  -9.658  -4.785  1.00  0.00     0.074 A 
ATOM     38  C   UNL     1      -6.489 -10.534  -5.998  1.00  0.00     0.049 A 
ATOM     39  N   UNL     1      -9.392  -9.765  -5.691  1.00  0.00    -0.248 NA
ATOM     40  C   UNL     1      -8.904  -9.054  -3.521  1.00  0.00     0.031 C 
ATOM     41  C   UNL     1      -5.090 -10.921  -6.188  1.00  0.00     0.029 A 
ATOM     42  N   UNL     1      -7.070 -10.772  -7.217  1.00  0.00    -0.354 N 
ATOM     43  C   UNL     1     -10.545  -9.251  -5.108  1.00  0.00     0.074 A 
ATOM     44  C   UNL     1     -10.194  -8.868  -3.756  1.00  0.00     0.031 C 
ATOM     45  C   UNL     1      -4.923 -11.350  -7.449  1.00  0.00     0.029 A 
ATOM     46  C   UNL     1      -6.210 -11.319  -8.140  1.00  0.00     0.049 A 
ATOM     47  H   UNL     1      -8.014 -10.570  -7.413  1.00  0.00     0.167 HD
ATOM     48  C   UNL     1     -11.779  -9.109  -5.655  1.00  0.00     0.034 A 
ATOM     49  C   UNL     1      -6.441 -11.774  -9.387  1.00  0.00     0.034 A 
ATOM     50  C   UNL     1     -12.108  -9.512  -7.002  1.00  0.00     0.049 A 
ATOM     51  C   UNL     1      -7.841 -11.691  -9.943  1.00  0.00     0.074 A 
ATOM     52  C   UNL     1     -13.321  -9.412  -7.662  1.00  0.00     0.029 A 
ATOM     53  N   UNL     1     -11.222 -10.104  -7.895  1.00  0.00    -0.354 N 
ATOM     54  N   UNL     1      -8.928 -11.216  -9.379  1.00  0.00    -0.248 NA
ATOM     55  C   UNL     1      -8.044 -12.207 -11.303  1.00  0.00     0.031 C 
ATOM     56  C   UNL     1     -13.187 -10.004  -8.923  1.00  0.00     0.029 A 
ATOM     57  C   UNL     1     -11.870 -10.404  -9.085  1.00  0.00     0.049 A 
ATOM     58  H   UNL     1     -10.272 -10.284  -7.710  1.00  0.00     0.167 HD
ATOM     59  C   UNL     1      -9.938 -11.349 -10.328  1.00  0.00     0.074 A 
ATOM     60  C   UNL     1      -9.327 -11.940 -11.502  1.00  0.00     0.031 C 
ATOM     61  C   UNL     1     -11.249 -11.008 -10.241  1.00  0.00     0.034 A 
BRANCH  48  62
ATOM     62  C   UNL     1     -12.865  -8.547  -4.769  1.00  0.00     0.023 A 
ATOM     63  C   UNL     1     -12.797  -7.241  -4.251  1.00  0.00     0.031 A 
ATOM     64  C   UNL     1     -13.961  -9.344  -4.397  1.00  0.00     0.131 A 
ATOM     65  C   UNL     1     -13.760  -6.802  -3.330  1.00  0.00     0.055 A 
ATOM     66  C   UNL     1     -14.961  -8.872  -3.544  1.00  0.00     0.041 A 
ATOM     67  F   UNL     1     -14.070 -10.607  -4.840  1.00  0.00    -0.206 F 
ATOM     68  C   UNL     1     -14.855  -7.600  -2.991  1.00  0.00     0.022 A 
BRANCH  65  69
ATOM     69  S   UNL     1     -13.476  -5.236  -2.459  1.00  0.00     0.124 S 
ATOM     70  O   UNL     1     -12.182  -5.481  -1.826  1.00  0.00    -0.237 OA
ATOM     71  O   UNL     1     -13.483  -4.265  -3.547  1.00  0.00    -0.237 OA
ATOM     72  O   UNL     1     -14.605  -5.147  -1.536  1.00  0.00    -0.744 OA
ENDBRANCH  65  69
ENDBRANCH  48  62
BRANCH  49  73
ATOM     73  C   UNL     1      -5.340 -12.388 -10.182  1.00  0.00     0.023 A 
ATOM     74  C   UNL     1      -4.889 -11.797 -11.373  1.00  0.00     0.031 A 
ATOM     75  C   UNL     1      -4.747 -13.598  -9.780  1.00  0.00     0.131 A 
ATOM     76  C   UNL     1      -3.903 -12.437 -12.141  1.00  0.00     0.055 A 
ATOM     77  C   UNL     1      -3.731 -14.204 -10.520  1.00  0.00     0.041 A 
ATOM     78  F   UNL     1      -5.142 -14.206  -8.650  1.00  0.00    -0.206 F 
ATOM     79  C   UNL     1      -3.311 -13.628 -11.715  1.00  0.00     0.022 A 
BRANCH  76  80
ATOM     80  S   UNL     1      -3.454 -11.725 -13.748  1.00  0.00     0.124 S 
ATOM     81  O   UNL     1      -4.734 -11.741 -14.447  1.00  0.00    -0.237 OA
ATOM     82  O   UNL     1      -2.947 -10.411 -13.367  1.00  0.00    -0.237 OA
ATOM     83  O   UNL     1      -2.450 -12.653 -14.262  1.00  0.00    -0.744 OA
ENDBRANCH  76  80
ENDBRANCH  49  73
BRANCH  61  84
ATOM     84  C   UNL     1     -12.095 -11.228 -11.472  1.00  0.00     0.023 A 
ATOM     85  C   UNL     1     -12.399 -12.517 -11.944  1.00  0.00     0.031 A 
ATOM     86  C   UNL     1     -12.593 -10.125 -12.190  1.00  0.00     0.131 A 
ATOM     87  C   UNL     1     -13.134 -12.671 -13.129  1.00  0.00     0.055 A 
ATOM     88  C   UNL     1     -13.373 -10.286 -13.336  1.00  0.00     0.041 A 
ATOM     89  F   UNL     1     -12.331  -8.872 -11.786  1.00  0.00    -0.206 F 
ATOM     90  C   UNL     1     -13.637 -11.564 -13.819  1.00  0.00     0.022 A 
BRANCH  87  91
ATOM     91  S   UNL     1     -13.355 -14.339 -13.809  1.00  0.00     0.124 S 
ATOM     92  O   UNL     1     -11.976 -14.770 -14.011  1.00  0.00    -0.237 OA
ATOM     93  O   UNL     1     -14.085 -15.017 -12.742  1.00  0.00    -0.237 OA
ATOM     94  O   UNL     1     -14.120 -14.112 -15.034  1.00  0.00    -0.744 OA
ENDBRANCH  87  91
ENDBRANCH  61  84
ENDBRANCH  35  36
ENDBRANCH  28  30
ENDBRANCH  27  28
ENDBRANCH  26  27
ENDBRANCH   1  26
TORSDOF 17
