REMARK SMILES Nc1c(Nc2ccc(I)cc2)ncnc1Nc1ccc(C(=O)OCCOC(=O)c2ccc(-c3c4nc(c(-c5cc(S(=O)(=O)[O-])ccc5F)c5ccc([nH]5)c(-c5cc(S(=O)(=O)[O-])ccc5F)c5nc(c(-c6cc(S(=O)(=O)[O-])ccc6F)c6ccc3[nH]6)C=C5)C=C4)cc2)cc1
REMARK SMILES IDX 24 1 23 2 21 3 22 4 20 5 17 6 18 7 93 8 19 9 92 10 16 11
REMARK SMILES IDX 15 13 2 14 3 15 12 16 14 17 13 18 1 19 4 22 5 24 6 25 11 26
REMARK SMILES IDX 7 27 10 28 8 29 9 30 25 31 26 32 27 33 28 34 29 35 30 36
REMARK SMILES IDX 91 37 31 38 90 39 32 40 33 41 34 42 84 43 35 44 89 45 83 46
REMARK SMILES IDX 85 47 36 48 88 49 82 50 81 51 37 53 69 54 49 55 68 56 50 57
REMARK SMILES IDX 53 58 67 59 86 60 51 61 52 62 66 64 87 65 54 66 38 67 39 68
REMARK SMILES IDX 47 69 40 70 46 71 48 72 45 73 41 74 42 75 43 76 44 77 70 78
REMARK SMILES IDX 71 79 79 80 72 81 78 82 80 83 77 84 73 85 74 86 75 87 76 88
REMARK SMILES IDX 55 89 56 90 64 91 57 92 63 93 65 94 62 95 58 96 59 97 60 98
REMARK SMILES IDX 61 99
REMARK H PARENT 16 12 1 20 1 21 4 23 85 52 53 63
REMARK Flexibility Score: inf
ROOT
ATOM      1  C   UNL     1       3.526   8.473   5.779  1.00  0.00     0.275 C 
ENDROOT
BRANCH   1   2
ATOM      2  O   UNL     1       3.457   7.168   5.171  1.00  0.00    -0.458 OA
BRANCH   2   3
ATOM      3  C   UNL     1       2.362   6.960   4.401  1.00  0.00     0.338 C 
ATOM      4  O   UNL     1       1.424   7.728   4.246  1.00  0.00    -0.246 OA
BRANCH   3   5
ATOM      5  C   UNL     1       2.468   5.678   3.674  1.00  0.00     0.060 A 
ATOM      6  C   UNL     1       2.331   3.238   2.307  1.00  0.00     0.040 A 
ATOM      7  C   UNL     1       1.956   4.422   1.668  1.00  0.00     0.027 A 
ATOM      8  C   UNL     1       2.819   3.293   3.622  1.00  0.00     0.027 A 
ATOM      9  C   UNL     1       1.995   5.627   2.359  1.00  0.00     0.018 A 
ATOM     10  C   UNL     1       2.912   4.513   4.301  1.00  0.00     0.018 A 
BRANCH   6  11
ATOM     11  N   UNL     1       1.957   2.011   1.714  1.00  0.00    -0.338 N 
ATOM     12  H   UNL     1       2.507   1.643   0.986  1.00  0.00     0.168 HD
BRANCH  11  13
ATOM     13  C   UNL     1       0.804   1.295   2.143  1.00  0.00     0.159 A 
ATOM     14  C   UNL     1       0.379   0.179   1.414  1.00  0.00     0.118 A 
ATOM     15  C   UNL     1      -0.755  -0.467   1.930  1.00  0.00     0.159 A 
ATOM     16  N   UNL     1      -1.446   0.000   2.988  1.00  0.00    -0.217 NA
ATOM     17  N   UNL     1       0.147   1.738   3.235  1.00  0.00    -0.217 NA
ATOM     18  C   UNL     1      -0.960   1.087   3.583  1.00  0.00     0.226 A 
BRANCH  14  19
ATOM     19  N   UNL     1       1.074  -0.327   0.303  1.00  0.00    -0.393 N 
ATOM     20  H   UNL     1       0.730  -1.116  -0.174  1.00  0.00     0.156 HD
ATOM     21  H   UNL     1       1.904   0.107   0.002  1.00  0.00     0.156 HD
ENDBRANCH  14  19
BRANCH  15  22
ATOM     22  N   UNL     1      -1.163  -1.683   1.324  1.00  0.00    -0.338 N 
ATOM     23  H   UNL     1      -0.624  -2.002   0.564  1.00  0.00     0.168 HD
BRANCH  22  24
ATOM     24  C   UNL     1      -2.258  -2.477   1.699  1.00  0.00     0.040 A 
ATOM     25  C   UNL     1      -2.062  -3.839   1.958  1.00  0.00     0.027 A 
ATOM     26  C   UNL     1      -3.523  -1.926   1.943  1.00  0.00     0.027 A 
ATOM     27  C   UNL     1      -3.095  -4.627   2.473  1.00  0.00     0.017 A 
ATOM     28  C   UNL     1      -4.566  -2.710   2.445  1.00  0.00     0.017 A 
ATOM     29  C   UNL     1      -4.343  -4.056   2.720  1.00  0.00     0.013 A 
ATOM     30  I   UNL     1      -5.865  -5.214   3.533  1.00  0.00    -0.044 I 
ENDBRANCH  22  24
ENDBRANCH  15  22
ENDBRANCH  11  13
ENDBRANCH   6  11
ENDBRANCH   3   5
ENDBRANCH   2   3
ENDBRANCH   1   2
BRANCH   1  31
ATOM     31  C   UNL     1       4.383   9.413   4.932  1.00  0.00     0.275 C 
BRANCH  31  32
ATOM     32  O   UNL     1       3.761   9.615   3.651  1.00  0.00    -0.458 OA
BRANCH  32  33
ATOM     33  C   UNL     1       4.581   9.566   2.577  1.00  0.00     0.338 C 
ATOM     34  O   UNL     1       5.799   9.449   2.596  1.00  0.00    -0.246 OA
BRANCH  33  35
ATOM     35  C   UNL     1       3.802   9.688   1.325  1.00  0.00     0.060 A 
ATOM     36  C   UNL     1       2.572   9.049   1.181  1.00  0.00     0.016 A 
ATOM     37  C   UNL     1       4.349  10.373   0.240  1.00  0.00     0.016 A 
ATOM     38  C   UNL     1       1.948   8.990  -0.068  1.00  0.00     0.010 A 
ATOM     39  C   UNL     1       3.662  10.412  -0.981  1.00  0.00     0.010 A 
ATOM     40  C   UNL     1       2.474   9.683  -1.168  1.00  0.00    -0.014 A 
BRANCH  40  41
ATOM     41  C   UNL     1       1.825   9.611  -2.514  1.00  0.00     0.031 A 
ATOM     42  C   UNL     1       2.626   9.167  -3.717  1.00  0.00     0.074 A 
ATOM     43  C   UNL     1       0.521   9.917  -2.681  1.00  0.00     0.049 A 
ATOM     44  N   UNL     1       2.327   9.248  -4.990  1.00  0.00    -0.248 NA
ATOM     45  C   UNL     1       3.943   8.569  -3.452  1.00  0.00     0.031 C 
ATOM     46  C   UNL     1      -0.407  10.303  -1.616  1.00  0.00     0.029 A 
ATOM     47  N   UNL     1      -0.259   9.936  -3.814  1.00  0.00    -0.354 N 
ATOM     48  C   UNL     1       3.441   8.775  -5.676  1.00  0.00     0.074 A 
ATOM     49  C   UNL     1       4.423   8.410  -4.678  1.00  0.00     0.031 C 
ATOM     50  C   UNL     1      -1.637  10.452  -2.133  1.00  0.00     0.029 A 
ATOM     51  C   UNL     1      -1.570  10.282  -3.580  1.00  0.00     0.049 A 
ATOM     52  H   UNL     1       0.089   9.722  -4.710  1.00  0.00     0.167 HD
ATOM     53  C   UNL     1       3.630   8.659  -7.015  1.00  0.00     0.034 A 
ATOM     54  C   UNL     1      -2.597  10.488  -4.429  1.00  0.00     0.034 A 
ATOM     55  C   UNL     1       2.626   8.964  -8.004  1.00  0.00     0.049 A 
ATOM     56  C   UNL     1      -2.357  10.396  -5.910  1.00  0.00     0.074 A 
ATOM     57  C   UNL     1       2.721   8.886  -9.383  1.00  0.00     0.029 A 
ATOM     58  N   UNL     1       1.333   9.382  -7.720  1.00  0.00    -0.354 N 
ATOM     59  N   UNL     1      -1.254  10.084  -6.547  1.00  0.00    -0.248 NA
ATOM     60  C   UNL     1      -3.491  10.721  -6.787  1.00  0.00     0.031 C 
ATOM     61  C   UNL     1       1.501   9.293  -9.934  1.00  0.00     0.029 A 
ATOM     62  C   UNL     1       0.627   9.574  -8.897  1.00  0.00     0.049 A 
ATOM     63  H   UNL     1       0.971   9.522  -6.815  1.00  0.00     0.167 HD
ATOM     64  C   UNL     1      -1.559  10.183  -7.901  1.00  0.00     0.074 A 
ATOM     65  C   UNL     1      -2.954  10.562  -7.989  1.00  0.00     0.031 C 
ATOM     66  C   UNL     1      -0.754   9.980  -8.973  1.00  0.00     0.034 A 
BRANCH  53  67
ATOM     67  C   UNL     1       4.994   8.231  -7.492  1.00  0.00     0.023 A 
ATOM     68  C   UNL     1       5.473   6.925  -7.303  1.00  0.00     0.031 A 
ATOM     69  C   UNL     1       5.826   9.155  -8.150  1.00  0.00     0.131 A 
ATOM     70  C   UNL     1       6.770   6.591  -7.724  1.00  0.00     0.055 A 
ATOM     71  C   UNL     1       7.090   8.799  -8.624  1.00  0.00     0.041 A 
ATOM     72  F   UNL     1       5.423  10.421  -8.342  1.00  0.00    -0.206 F 
ATOM     73  C   UNL     1       7.572   7.513  -8.404  1.00  0.00     0.022 A 
BRANCH  70  74
ATOM     74  S   UNL     1       7.432   4.958  -7.296  1.00  0.00     0.124 S 
ATOM     75  O   UNL     1       7.493   5.039  -5.839  1.00  0.00    -0.237 OA
ATOM     76  O   UNL     1       6.426   4.054  -7.842  1.00  0.00    -0.237 OA
ATOM     77  O   UNL     1       8.729   4.926  -7.969  1.00  0.00    -0.744 OA
ENDBRANCH  70  74
ENDBRANCH  53  67
BRANCH  54  78
ATOM     78  C   UNL     1      -3.933  10.878  -3.899  1.00  0.00     0.023 A 
ATOM     79  C   UNL     1      -5.025  10.000  -3.978  1.00  0.00     0.031 A 
ATOM     80  C   UNL     1      -4.133  12.135  -3.301  1.00  0.00     0.131 A 
ATOM     81  C   UNL     1      -6.274  10.396  -3.476  1.00  0.00     0.055 A 
ATOM     82  C   UNL     1      -5.367  12.508  -2.766  1.00  0.00     0.041 A 
ATOM     83  F   UNL     1      -3.118  13.008  -3.201  1.00  0.00    -0.206 F 
ATOM     84  C   UNL     1      -6.448  11.637  -2.856  1.00  0.00     0.022 A 
BRANCH  81  85
ATOM     85  S   UNL     1      -7.686   9.272  -3.657  1.00  0.00     0.124 S 
ATOM     86  O   UNL     1      -7.874   9.263  -5.103  1.00  0.00    -0.237 OA
ATOM     87  O   UNL     1      -7.174   8.038  -3.068  1.00  0.00    -0.237 OA
ATOM     88  O   UNL     1      -8.744   9.929  -2.892  1.00  0.00    -0.744 OA
ENDBRANCH  81  85
ENDBRANCH  54  78
BRANCH  66  89
ATOM     89  C   UNL     1      -1.370  10.152 -10.334  1.00  0.00     0.023 A 
ATOM     90  C   UNL     1      -1.658  11.427 -10.849  1.00  0.00     0.031 A 
ATOM     91  C   UNL     1      -1.655   9.029 -11.129  1.00  0.00     0.131 A 
ATOM     92  C   UNL     1      -2.246  11.548 -12.117  1.00  0.00     0.055 A 
ATOM     93  C   UNL     1      -2.204   9.157 -12.405  1.00  0.00     0.041 A 
ATOM     94  F   UNL     1      -1.396   7.791 -10.678  1.00  0.00    -0.206 F 
ATOM     95  C   UNL     1      -2.508  10.422 -12.903  1.00  0.00     0.022 A 
BRANCH  92  96
ATOM     96  S   UNL     1      -2.696  13.198 -12.719  1.00  0.00     0.124 S 
ATOM     97  O   UNL     1      -3.750  13.583 -11.786  1.00  0.00    -0.237 OA
ATOM     98  O   UNL     1      -1.440  13.932 -12.600  1.00  0.00    -0.237 OA
ATOM     99  O   UNL     1      -3.140  12.954 -14.090  1.00  0.00    -0.744 OA
ENDBRANCH  92  96
ENDBRANCH  66  89
ENDBRANCH  40  41
ENDBRANCH  33  35
ENDBRANCH  32  33
ENDBRANCH  31  32
ENDBRANCH   1  31
TORSDOF 19
