REMARK SMILES COC[C@@H](C)N(C)C(=O)N1CCC(CC(=O)OCCOC(=O)c2ccc(-c3c4nc(c(-c5cc(S(=O)(=O)[O-])ccc5F)c5ccc([nH]5)c(-c5cc(S(=O)(=O)[O-])ccc5F)c5nc(c(-c6cc(S(=O)(=O)[O-])ccc6F)c6ccc3[nH]6)C=C5)C=C4)cc2)CC1
REMARK SMILES IDX 18 1 17 2 15 3 16 4 14 5 13 6 8 7 9 8 10 9 11 10 87 11 12 12
REMARK SMILES IDX 86 13 6 14 7 15 4 16 5 17 3 18 2 19 1 20 19 21 20 22 21 23
REMARK SMILES IDX 22 24 23 25 24 26 85 27 25 28 84 29 26 30 27 31 28 32 78 33
REMARK SMILES IDX 29 34 83 35 77 36 79 37 30 38 82 39 76 40 75 41 31 43 63 44
REMARK SMILES IDX 43 45 62 46 44 47 47 48 61 49 80 50 45 51 46 52 60 54 81 55
REMARK SMILES IDX 48 56 32 57 33 58 41 59 34 60 40 61 42 62 39 63 35 64 36 65
REMARK SMILES IDX 37 66 38 67 64 68 65 69 73 70 66 71 72 72 74 73 71 74 67 75
REMARK SMILES IDX 68 76 69 77 70 78 49 79 50 80 58 81 51 82 57 83 59 84 56 85
REMARK SMILES IDX 52 86 53 87 54 88 55 89
REMARK H PARENT 79 42 47 53
REMARK Flexibility Score: inf
ROOT
ATOM      1  C   UNL     1       8.992   1.810   8.188  1.00  0.00     0.274 C 
ENDROOT
BRANCH   1   2
ATOM      2  O   UNL     1       7.798   1.221   7.639  1.00  0.00    -0.462 OA
BRANCH   2   3
ATOM      3  C   UNL     1       7.415   0.024   8.150  1.00  0.00     0.306 C 
ATOM      4  O   UNL     1       8.030  -0.592   9.012  1.00  0.00    -0.252 OA
BRANCH   3   5
ATOM      5  C   UNL     1       6.178  -0.532   7.473  1.00  0.00     0.126 C 
BRANCH   5   6
ATOM      6  C   UNL     1       4.992   0.437   7.320  1.00  0.00     0.003 C 
ATOM      7  C   UNL     1       2.411   1.105   4.413  1.00  0.00     0.320 C 
ATOM      8  O   UNL     1       3.248   1.103   3.508  1.00  0.00    -0.248 OA
ATOM      9  N   UNL     1       2.776   1.413   5.708  1.00  0.00    -0.325 N 
ATOM     10  C   UNL     1       3.945   2.253   5.908  1.00  0.00     0.121 C 
ATOM     11  C   UNL     1       2.473   0.532   6.832  1.00  0.00     0.121 C 
ATOM     12  C   UNL     1       5.187   1.400   6.134  1.00  0.00     0.026 C 
ATOM     13  C   UNL     1       3.679  -0.363   7.145  1.00  0.00     0.026 C 
BRANCH   7  14
ATOM     14  N   UNL     1       1.071   0.849   4.170  1.00  0.00    -0.323 N 
ATOM     15  C   UNL     1      -0.006   1.247   5.070  1.00  0.00     0.149 C 
BRANCH  14  16
ATOM     16  C   UNL     1       0.656   0.338   2.844  1.00  0.00     0.109 C 
ATOM     17  C   UNL     1       1.204  -1.072   2.609  1.00  0.00     0.033 C 
BRANCH  16  18
ATOM     18  C   UNL     1       0.990   1.328   1.702  1.00  0.00     0.184 C 
BRANCH  18  19
ATOM     19  O   UNL     1       0.256   1.081   0.496  1.00  0.00    -0.383 OA
ATOM     20  C   UNL     1       0.940   0.246  -0.427  1.00  0.00     0.194 C 
ENDBRANCH  18  19
ENDBRANCH  16  18
ENDBRANCH  14  16
ENDBRANCH   7  14
ENDBRANCH   5   6
ENDBRANCH   3   5
ENDBRANCH   2   3
ENDBRANCH   1   2
BRANCH   1  21
ATOM     21  C   UNL     1       8.671   2.869   9.246  1.00  0.00     0.275 C 
BRANCH  21  22
ATOM     22  O   UNL     1       8.162   2.271  10.452  1.00  0.00    -0.458 OA
BRANCH  22  23
ATOM     23  C   UNL     1       6.814   2.195  10.523  1.00  0.00     0.338 C 
ATOM     24  O   UNL     1       6.013   2.643   9.715  1.00  0.00    -0.246 OA
BRANCH  23  25
ATOM     25  C   UNL     1       6.415   1.368  11.672  1.00  0.00     0.060 A 
ATOM     26  C   UNL     1       5.622   0.242  11.429  1.00  0.00     0.016 A 
ATOM     27  C   UNL     1       6.738   1.740  12.979  1.00  0.00     0.016 A 
ATOM     28  C   UNL     1       5.122  -0.501  12.495  1.00  0.00     0.010 A 
ATOM     29  C   UNL     1       6.235   0.991  14.049  1.00  0.00     0.010 A 
ATOM     30  C   UNL     1       5.404  -0.118  13.813  1.00  0.00    -0.014 A 
BRANCH  30  31
ATOM     31  C   UNL     1       4.736  -0.827  14.933  1.00  0.00     0.031 A 
ATOM     32  C   UNL     1       3.563  -0.184  15.620  1.00  0.00     0.074 A 
ATOM     33  C   UNL     1       5.147  -2.055  15.299  1.00  0.00     0.049 A 
ATOM     34  N   UNL     1       2.839  -0.625  16.616  1.00  0.00    -0.248 NA
ATOM     35  C   UNL     1       3.158   1.137  15.118  1.00  0.00     0.031 C 
ATOM     36  C   UNL     1       6.252  -2.791  14.685  1.00  0.00     0.029 A 
ATOM     37  N   UNL     1       4.678  -2.902  16.271  1.00  0.00    -0.354 N 
ATOM     38  C   UNL     1       1.893   0.363  16.865  1.00  0.00     0.074 A 
ATOM     39  C   UNL     1       2.164   1.443  15.939  1.00  0.00     0.031 C 
ATOM     40  C   UNL     1       6.374  -3.983  15.294  1.00  0.00     0.029 A 
ATOM     41  C   UNL     1       5.379  -4.081  16.360  1.00  0.00     0.049 A 
ATOM     42  H   UNL     1       3.912  -2.685  16.850  1.00  0.00     0.167 HD
ATOM     43  C   UNL     1       0.887   0.366  17.776  1.00  0.00     0.034 A 
ATOM     44  C   UNL     1       5.242  -5.116  17.212  1.00  0.00     0.034 A 
ATOM     45  C   UNL     1       0.635  -0.713  18.700  1.00  0.00     0.049 A 
ATOM     46  C   UNL     1       4.144  -5.072  18.246  1.00  0.00     0.074 A 
ATOM     47  C   UNL     1      -0.350  -0.811  19.668  1.00  0.00     0.029 A 
ATOM     48  N   UNL     1       1.379  -1.885  18.776  1.00  0.00    -0.354 N 
ATOM     49  N   UNL     1       3.259  -4.129  18.473  1.00  0.00    -0.248 NA
ATOM     50  C   UNL     1       4.020  -6.239  19.128  1.00  0.00     0.031 C 
ATOM     51  C   UNL     1      -0.169  -2.014  20.363  1.00  0.00     0.029 A 
ATOM     52  C   UNL     1       0.887  -2.700  19.785  1.00  0.00     0.049 A 
ATOM     53  H   UNL     1       2.144  -2.104  18.197  1.00  0.00     0.167 HD
ATOM     54  C   UNL     1       2.456  -4.604  19.507  1.00  0.00     0.074 A 
ATOM     55  C   UNL     1       2.953  -5.922  19.845  1.00  0.00     0.031 C 
ATOM     56  C   UNL     1       1.400  -4.008  20.118  1.00  0.00     0.034 A 
BRANCH  43  57
ATOM     57  C   UNL     1       0.025   1.604  17.842  1.00  0.00     0.023 A 
ATOM     58  C   UNL     1      -0.797   1.991  16.769  1.00  0.00     0.031 A 
ATOM     59  C   UNL     1       0.061   2.434  18.977  1.00  0.00     0.131 A 
ATOM     60  C   UNL     1      -1.491   3.210  16.823  1.00  0.00     0.055 A 
ATOM     61  C   UNL     1      -0.692   3.607  19.055  1.00  0.00     0.041 A 
ATOM     62  F   UNL     1       0.845   2.127  20.023  1.00  0.00    -0.206 F 
ATOM     63  C   UNL     1      -1.462   4.009  17.968  1.00  0.00     0.022 A 
BRANCH  60  64
ATOM     64  S   UNL     1      -2.316   3.805  15.321  1.00  0.00     0.124 S 
ATOM     65  O   UNL     1      -1.202   3.874  14.379  1.00  0.00    -0.237 OA
ATOM     66  O   UNL     1      -3.303   2.762  15.068  1.00  0.00    -0.237 OA
ATOM     67  O   UNL     1      -2.865   5.100  15.721  1.00  0.00    -0.744 OA
ENDBRANCH  60  64
ENDBRANCH  43  57
BRANCH  44  68
ATOM     68  C   UNL     1       6.179  -6.272  17.150  1.00  0.00     0.023 A 
ATOM     69  C   UNL     1       5.732  -7.555  16.800  1.00  0.00     0.031 A 
ATOM     70  C   UNL     1       7.535  -6.114  17.489  1.00  0.00     0.131 A 
ATOM     71  C   UNL     1       6.622  -8.640  16.839  1.00  0.00     0.055 A 
ATOM     72  C   UNL     1       8.427  -7.186  17.480  1.00  0.00     0.041 A 
ATOM     73  F   UNL     1       8.013  -4.906  17.829  1.00  0.00    -0.206 F 
ATOM     74  C   UNL     1       7.969  -8.462  17.165  1.00  0.00     0.022 A 
BRANCH  71  75
ATOM     75  S   UNL     1       5.976 -10.306  16.529  1.00  0.00     0.124 S 
ATOM     76  O   UNL     1       4.961 -10.430  17.568  1.00  0.00    -0.237 OA
ATOM     77  O   UNL     1       5.484 -10.191  15.161  1.00  0.00    -0.237 OA
ATOM     78  O   UNL     1       7.149 -11.162  16.697  1.00  0.00    -0.744 OA
ENDBRANCH  71  75
ENDBRANCH  44  68
BRANCH  56  79
ATOM     79  C   UNL     1       0.688  -4.808  21.182  1.00  0.00     0.023 A 
ATOM     80  C   UNL     1       1.304  -5.130  22.404  1.00  0.00     0.031 A 
ATOM     81  C   UNL     1      -0.616  -5.280  20.953  1.00  0.00     0.131 A 
ATOM     82  C   UNL     1       0.639  -5.954  23.326  1.00  0.00     0.055 A 
ATOM     83  C   UNL     1      -1.294  -6.053  21.897  1.00  0.00     0.041 A 
ATOM     84  F   UNL     1      -1.252  -5.003  19.803  1.00  0.00    -0.206 F 
ATOM     85  C   UNL     1      -0.661  -6.406  23.085  1.00  0.00     0.022 A 
BRANCH  82  86
ATOM     86  S   UNL     1       1.535  -6.512  24.801  1.00  0.00     0.124 S 
ATOM     87  O   UNL     1       2.713  -7.149  24.220  1.00  0.00    -0.237 OA
ATOM     88  O   UNL     1       1.773  -5.260  25.513  1.00  0.00    -0.237 OA
ATOM     89  O   UNL     1       0.595  -7.424  25.449  1.00  0.00    -0.744 OA
ENDBRANCH  82  86
ENDBRANCH  56  79
ENDBRANCH  30  31
ENDBRANCH  23  25
ENDBRANCH  22  23
ENDBRANCH  21  22
ENDBRANCH   1  21
TORSDOF 19
