REMARK SMILES CC(C)C[N@H+](CC[NH+](C)C)[C@@H]1CCC[C@]([NH3+])(C(=O)OCCOC(=O)c2ccc(-c3c4nc(c(-c5cc(S(=O)(=O)[O-])ccc5F)c5ccc([nH]5)c(-c5cc(S(=O)(=O)[O-])ccc5F)c5nc(c(-c6cc(S(=O)(=O)[O-])ccc6F)c6ccc3[nH]6)C=C5)C=C4)cc2)C1
REMARK SMILES IDX 20 1 19 2 17 3 18 4 15 5 11 6 12 7 88 8 13 9 14 10 5 11 4 13
REMARK SMILES IDX 2 14 1 15 3 16 6 17 7 18 8 19 9 20 10 21 16 23 21 27 22 28
REMARK SMILES IDX 23 29 24 30 25 31 26 32 87 33 27 34 86 35 28 36 29 37 30 38
REMARK SMILES IDX 80 39 31 40 85 41 79 42 81 43 32 44 84 45 78 46 77 47 33 49
REMARK SMILES IDX 65 50 45 51 64 52 46 53 49 54 63 55 82 56 47 57 48 58 62 60
REMARK SMILES IDX 83 61 50 62 34 63 35 64 43 65 36 66 42 67 44 68 41 69 37 70
REMARK SMILES IDX 38 71 39 72 40 73 66 74 67 75 75 76 68 77 74 78 76 79 73 80
REMARK SMILES IDX 69 81 70 82 71 83 72 84 51 85 52 86 60 87 53 88 59 89 61 90
REMARK SMILES IDX 58 91 54 92 55 93 56 94 57 95
REMARK H PARENT 5 12 8 22 16 24 16 25 16 26 81 48 49 59
REMARK Flexibility Score: inf
ROOT
ATOM      1  C   UNL     1      -7.349   1.345  -2.585  1.00  0.00     0.274 C 
ENDROOT
BRANCH   1   2
ATOM      2  O   UNL     1      -6.830   0.903  -1.311  1.00  0.00    -0.457 OA
BRANCH   2   3
ATOM      3  C   UNL     1      -6.205   1.825  -0.533  1.00  0.00     0.368 C 
ATOM      4  O   UNL     1      -6.373   3.030  -0.654  1.00  0.00    -0.245 OA
BRANCH   3   5
ATOM      5  C   UNL     1      -5.226   1.250   0.523  1.00  0.00     0.198 C 
ATOM      6  C   UNL     1      -3.011   1.376  -0.908  1.00  0.00     0.191 C 
ATOM      7  C   UNL     1      -3.064  -0.184  -0.955  1.00  0.00     0.065 C 
ATOM      8  C   UNL     1      -3.789   1.793   0.360  1.00  0.00     0.145 C 
ATOM      9  C   UNL     1      -4.434  -0.829  -0.692  1.00  0.00     0.013 C 
ATOM     10  C   UNL     1      -5.162  -0.277   0.539  1.00  0.00     0.081 C 
BRANCH   6  11
ATOM     11  N   UNL     1      -3.264   2.007  -2.240  1.00  0.00    -0.327 N 
ATOM     12  H   UNL     1      -3.925   1.336  -2.633  1.00  0.00     0.348 HD
BRANCH  11  13
ATOM     13  C   UNL     1      -2.031   2.085  -3.065  1.00  0.00     0.265 C 
BRANCH  13  14
ATOM     14  C   UNL     1      -2.020   2.514  -4.583  1.00  0.00     0.038 C 
ATOM     15  C   UNL     1      -3.336   2.735  -5.339  1.00  0.00     0.013 C 
ATOM     16  C   UNL     1      -1.121   3.743  -4.782  1.00  0.00     0.013 C 
ENDBRANCH  13  14
ENDBRANCH  11  13
BRANCH  11  17
ATOM     17  C   UNL     1      -4.045   3.248  -2.325  1.00  0.00     0.324 C 
BRANCH  17  18
ATOM     18  C   UNL     1      -4.035   4.530  -1.462  1.00  0.00     0.323 C 
BRANCH  18  19
ATOM     19  N   UNL     1      -2.917   5.449  -1.717  1.00  0.00    -0.335 N 
ATOM     20  C   UNL     1      -3.366   6.819  -1.427  1.00  0.00     0.332 C 
ATOM     21  C   UNL     1      -1.778   5.133  -0.857  1.00  0.00     0.332 C 
ATOM     22  H   UNL     1      -2.625   5.358  -2.690  1.00  0.00     0.347 HD
ENDBRANCH  18  19
ENDBRANCH  17  18
ENDBRANCH  11  17
ENDBRANCH   6  11
BRANCH   5  23
ATOM     23  N   UNL     1      -5.686   1.721   1.865  1.00  0.00    -0.343 N 
ATOM     24  H   UNL     1      -5.061   1.358   2.585  1.00  0.00     0.345 HD
ATOM     25  H   UNL     1      -6.633   1.385   2.037  1.00  0.00     0.345 HD
ATOM     26  H   UNL     1      -5.676   2.740   1.888  1.00  0.00     0.345 HD
ENDBRANCH   5  23
ENDBRANCH   3   5
ENDBRANCH   2   3
ENDBRANCH   1   2
BRANCH   1  27
ATOM     27  C   UNL     1      -8.765   1.929  -2.589  1.00  0.00     0.275 C 
BRANCH  27  28
ATOM     28  O   UNL     1      -8.825   3.260  -2.046  1.00  0.00    -0.458 OA
BRANCH  28  29
ATOM     29  C   UNL     1      -9.168   3.322  -0.744  1.00  0.00     0.338 C 
ATOM     30  O   UNL     1      -9.474   2.369  -0.020  1.00  0.00    -0.246 OA
BRANCH  29  31
ATOM     31  C   UNL     1      -8.992   4.684  -0.227  1.00  0.00     0.060 A 
ATOM     32  C   UNL     1      -8.001   4.887   0.739  1.00  0.00     0.016 A 
ATOM     33  C   UNL     1      -9.856   5.721  -0.582  1.00  0.00     0.016 A 
ATOM     34  C   UNL     1      -7.849   6.116   1.354  1.00  0.00     0.010 A 
ATOM     35  C   UNL     1      -9.745   6.949   0.079  1.00  0.00     0.010 A 
ATOM     36  C   UNL     1      -8.758   7.133   1.067  1.00  0.00    -0.014 A 
BRANCH  36  37
ATOM     37  C   UNL     1      -8.816   8.270   2.005  1.00  0.00     0.031 A 
ATOM     38  C   UNL     1      -9.841   8.214   3.100  1.00  0.00     0.074 A 
ATOM     39  C   UNL     1      -7.898   9.248   1.953  1.00  0.00     0.049 A 
ATOM     40  N   UNL     1     -10.188   9.128   3.964  1.00  0.00    -0.248 NA
ATOM     41  C   UNL     1     -10.572   6.943   3.239  1.00  0.00     0.031 C 
ATOM     42  C   UNL     1      -6.766   9.294   1.027  1.00  0.00     0.029 A 
ATOM     43  N   UNL     1      -7.767  10.384   2.705  1.00  0.00    -0.354 N 
ATOM     44  C   UNL     1     -11.209   8.561   4.719  1.00  0.00     0.074 A 
ATOM     45  C   UNL     1     -11.420   7.222   4.216  1.00  0.00     0.031 C 
ATOM     46  C   UNL     1      -6.060  10.414   1.261  1.00  0.00     0.029 A 
ATOM     47  C   UNL     1      -6.733  11.192   2.297  1.00  0.00     0.049 A 
ATOM     48  H   UNL     1      -8.355  10.602   3.464  1.00  0.00     0.167 HD
ATOM     49  C   UNL     1     -11.913   9.126   5.729  1.00  0.00     0.034 A 
ATOM     50  C   UNL     1      -6.413  12.442   2.684  1.00  0.00     0.034 A 
ATOM     51  C   UNL     1     -11.659  10.464   6.201  1.00  0.00     0.049 A 
ATOM     52  C   UNL     1      -7.281  13.099   3.731  1.00  0.00     0.074 A 
ATOM     53  C   UNL     1     -12.318  11.178   7.184  1.00  0.00     0.029 A 
ATOM     54  N   UNL     1     -10.654  11.293   5.711  1.00  0.00    -0.354 N 
ATOM     55  N   UNL     1      -8.314  12.604   4.377  1.00  0.00    -0.248 NA
ATOM     56  C   UNL     1      -6.951  14.482   4.090  1.00  0.00     0.031 C 
ATOM     57  C   UNL     1     -11.754  12.459   7.242  1.00  0.00     0.029 A 
ATOM     58  C   UNL     1     -10.692  12.520   6.351  1.00  0.00     0.049 A 
ATOM     59  H   UNL     1     -10.009  11.043   5.011  1.00  0.00     0.167 HD
ATOM     60  C   UNL     1      -8.744  13.611   5.236  1.00  0.00     0.074 A 
ATOM     61  C   UNL     1      -7.846  14.732   5.034  1.00  0.00     0.031 C 
ATOM     62  C   UNL     1      -9.782  13.617   6.113  1.00  0.00     0.034 A 
BRANCH  49  63
ATOM     63  C   UNL     1     -13.073   8.338   6.288  1.00  0.00     0.023 A 
ATOM     64  C   UNL     1     -12.901   7.115   6.962  1.00  0.00     0.031 A 
ATOM     65  C   UNL     1     -14.388   8.788   6.071  1.00  0.00     0.131 A 
ATOM     66  C   UNL     1     -14.024   6.352   7.324  1.00  0.00     0.055 A 
ATOM     67  C   UNL     1     -15.499   8.063   6.505  1.00  0.00     0.041 A 
ATOM     68  F   UNL     1     -14.618   9.931   5.405  1.00  0.00    -0.206 F 
ATOM     69  C   UNL     1     -15.321   6.829   7.122  1.00  0.00     0.022 A 
BRANCH  66  70
ATOM     70  S   UNL     1     -13.770   4.659   7.926  1.00  0.00     0.124 S 
ATOM     71  O   UNL     1     -13.071   4.047   6.798  1.00  0.00    -0.237 OA
ATOM     72  O   UNL     1     -12.978   4.867   9.132  1.00  0.00    -0.237 OA
ATOM     73  O   UNL     1     -15.128   4.166   8.149  1.00  0.00    -0.744 OA
ENDBRANCH  66  70
ENDBRANCH  49  63
BRANCH  50  74
ATOM     74  C   UNL     1      -5.295  13.180   2.030  1.00  0.00     0.023 A 
ATOM     75  C   UNL     1      -4.185  13.623   2.766  1.00  0.00     0.031 A 
ATOM     76  C   UNL     1      -5.340  13.492   0.658  1.00  0.00     0.131 A 
ATOM     77  C   UNL     1      -3.185  14.382   2.135  1.00  0.00     0.055 A 
ATOM     78  C   UNL     1      -4.318  14.200   0.025  1.00  0.00     0.041 A 
ATOM     79  F   UNL     1      -6.381  13.100  -0.094  1.00  0.00    -0.206 F 
ATOM     80  C   UNL     1      -3.237  14.660   0.767  1.00  0.00     0.022 A 
BRANCH  77  81
ATOM     81  S   UNL     1      -1.847  15.071   3.148  1.00  0.00     0.124 S 
ATOM     82  O   UNL     1      -2.589  15.867   4.119  1.00  0.00    -0.237 OA
ATOM     83  O   UNL     1      -1.206  13.865   3.662  1.00  0.00    -0.237 OA
ATOM     84  O   UNL     1      -1.053  15.836   2.189  1.00  0.00    -0.744 OA
ENDBRANCH  77  81
ENDBRANCH  50  74
BRANCH  62  85
ATOM     85  C   UNL     1      -9.955  14.862   6.944  1.00  0.00     0.023 A 
ATOM     86  C   UNL     1     -10.354  16.081   6.372  1.00  0.00     0.031 A 
ATOM     87  C   UNL     1      -9.703  14.825   8.327  1.00  0.00     0.131 A 
ATOM     88  C   UNL     1     -10.434  17.231   7.170  1.00  0.00     0.055 A 
ATOM     89  C   UNL     1      -9.845  15.958   9.127  1.00  0.00     0.041 A 
ATOM     90  F   UNL     1      -9.318  13.684   8.921  1.00  0.00    -0.206 F 
ATOM     91  C   UNL     1     -10.199  17.173   8.547  1.00  0.00     0.022 A 
BRANCH  88  92
ATOM     92  S   UNL     1     -10.757  18.824   6.369  1.00  0.00     0.124 S 
ATOM     93  O   UNL     1      -9.641  18.926   5.435  1.00  0.00    -0.237 OA
ATOM     94  O   UNL     1     -12.072  18.613   5.771  1.00  0.00    -0.237 OA
ATOM     95  O   UNL     1     -10.727  19.777   7.477  1.00  0.00    -0.744 OA
ENDBRANCH  88  92
ENDBRANCH  62  85
ENDBRANCH  36  37
ENDBRANCH  29  31
ENDBRANCH  28  29
ENDBRANCH  27  28
ENDBRANCH   1  27
TORSDOF 21
