REMARK SMILES Cc1ccc(F)cc1S(=O)(=O)Nc1ccc(N(C)C)c(C(=O)OCCOC(=O)c2ccc(-c3c4nc(c(-c5cc(S(=O)(=O)[O-])ccc5F)c5ccc([nH]5)c(-c5cc(S(=O)(=O)[O-])ccc5F)c5nc(c(-c6cc(S(=O)(=O)[O-])ccc6F)c6ccc3[nH]6)C=C5)C=C4)cc2)c1
REMARK SMILES IDX 24 1 23 2 21 3 22 4 20 5 13 6 14 7 92 8 15 9 16 10 12 11
REMARK SMILES IDX 9 13 10 14 11 15 8 16 1 17 2 18 3 19 4 20 7 21 5 22 6 23
REMARK SMILES IDX 17 24 18 25 19 26 25 27 26 28 27 29 28 30 29 31 30 32 91 33
REMARK SMILES IDX 31 34 90 35 32 36 33 37 34 38 84 39 35 40 89 41 83 42 85 43
REMARK SMILES IDX 36 44 88 45 82 46 81 47 37 49 69 50 49 51 68 52 50 53 53 54
REMARK SMILES IDX 67 55 86 56 51 57 52 58 66 60 87 61 54 62 38 63 39 64 47 65
REMARK SMILES IDX 40 66 46 67 48 68 45 69 41 70 42 71 43 72 44 73 70 74 71 75
REMARK SMILES IDX 79 76 72 77 78 78 80 79 77 80 73 81 74 82 75 83 76 84 55 85
REMARK SMILES IDX 56 86 64 87 57 88 63 89 65 90 62 91 58 92 59 93 60 94 61 95
REMARK H PARENT 12 12 85 48 53 59
REMARK Flexibility Score: inf
ROOT
ATOM      1  C   UNL     1       2.429   2.749   3.862  1.00  0.00     0.275 C 
ENDROOT
BRANCH   1   2
ATOM      2  O   UNL     1       3.162   1.913   2.952  1.00  0.00    -0.458 OA
BRANCH   2   3
ATOM      3  C   UNL     1       2.948   2.120   1.629  1.00  0.00     0.340 C 
ATOM      4  O   UNL     1       2.147   2.895   1.136  1.00  0.00    -0.246 OA
BRANCH   3   5
ATOM      5  C   UNL     1       3.736   1.114   0.884  1.00  0.00     0.085 A 
ATOM      6  C   UNL     1       3.789  -1.284   0.479  1.00  0.00     0.050 A 
ATOM      7  C   UNL     1       4.854  -1.105  -0.385  1.00  0.00     0.029 A 
ATOM      8  C   UNL     1       3.291  -0.195   1.169  1.00  0.00     0.044 A 
ATOM      9  C   UNL     1       5.327   0.194  -0.636  1.00  0.00     0.029 A 
ATOM     10  C   UNL     1       4.737   1.366  -0.091  1.00  0.00     0.051 A 
BRANCH   6  11
ATOM     11  N   UNL     1       3.110  -2.536   0.599  1.00  0.00    -0.280 N 
ATOM     12  H   UNL     1       3.442  -3.234   1.209  1.00  0.00     0.180 HD
BRANCH  11  13
ATOM     13  S   UNL     1       1.701  -2.792  -0.346  1.00  0.00     0.262 S 
ATOM     14  O   UNL     1       0.968  -3.833   0.351  1.00  0.00    -0.201 OA
ATOM     15  O   UNL     1       2.119  -3.027  -1.711  1.00  0.00    -0.201 OA
BRANCH  13  16
ATOM     16  C   UNL     1       0.699  -1.304  -0.297  1.00  0.00     0.093 A 
ATOM     17  C   UNL     1       2.036  -0.007  -2.111  1.00  0.00     0.046 C 
ATOM     18  C   UNL     1       0.958  -0.154  -1.074  1.00  0.00    -0.030 A 
ATOM     19  C   UNL     1       0.122   0.973  -0.910  1.00  0.00     0.008 A 
ATOM     20  C   UNL     1      -0.994   0.933  -0.079  1.00  0.00     0.039 A 
ATOM     21  C   UNL     1      -0.448  -1.343   0.517  1.00  0.00     0.061 A 
ATOM     22  C   UNL     1      -1.285  -0.236   0.602  1.00  0.00     0.124 A 
ATOM     23  F   UNL     1      -2.395  -0.302   1.350  1.00  0.00    -0.207 F 
ENDBRANCH  13  16
ENDBRANCH  11  13
ENDBRANCH   6  11
BRANCH  10  24
ATOM     24  N   UNL     1       5.168   2.615  -0.547  1.00  0.00    -0.377 N 
ATOM     25  C   UNL     1       6.118   2.719  -1.666  1.00  0.00     0.143 C 
ATOM     26  C   UNL     1       4.471   3.860  -0.232  1.00  0.00     0.143 C 
ENDBRANCH  10  24
ENDBRANCH   3   5
ENDBRANCH   2   3
ENDBRANCH   1   2
BRANCH   1  27
ATOM     27  C   UNL     1       3.327   3.122   5.042  1.00  0.00     0.275 C 
BRANCH  27  28
ATOM     28  O   UNL     1       4.485   3.831   4.567  1.00  0.00    -0.458 OA
BRANCH  28  29
ATOM     29  C   UNL     1       5.550   3.038   4.282  1.00  0.00     0.338 C 
ATOM     30  O   UNL     1       5.678   1.855   4.553  1.00  0.00    -0.246 OA
BRANCH  29  31
ATOM     31  C   UNL     1       6.480   3.783   3.413  1.00  0.00     0.060 A 
ATOM     32  C   UNL     1       6.923   3.148   2.252  1.00  0.00     0.016 A 
ATOM     33  C   UNL     1       6.915   5.075   3.722  1.00  0.00     0.016 A 
ATOM     34  C   UNL     1       7.776   3.815   1.376  1.00  0.00     0.010 A 
ATOM     35  C   UNL     1       7.801   5.730   2.857  1.00  0.00     0.010 A 
ATOM     36  C   UNL     1       8.233   5.103   1.678  1.00  0.00    -0.014 A 
BRANCH  36  37
ATOM     37  C   UNL     1       9.285   5.706   0.827  1.00  0.00     0.031 A 
ATOM     38  C   UNL     1      10.713   5.320   1.079  1.00  0.00     0.074 A 
ATOM     39  C   UNL     1       8.975   6.514  -0.203  1.00  0.00     0.049 A 
ATOM     40  N   UNL     1      11.803   5.738   0.492  1.00  0.00    -0.248 NA
ATOM     41  C   UNL     1      10.933   4.306   2.121  1.00  0.00     0.031 C 
ATOM     42  C   UNL     1       7.619   6.855  -0.628  1.00  0.00     0.029 A 
ATOM     43  N   UNL     1       9.783   7.181  -1.090  1.00  0.00    -0.354 N 
ATOM     44  C   UNL     1      12.841   5.026   1.081  1.00  0.00     0.074 A 
ATOM     45  C   UNL     1      12.248   4.165   2.082  1.00  0.00     0.031 C 
ATOM     46  C   UNL     1       7.689   7.669  -1.697  1.00  0.00     0.029 A 
ATOM     47  C   UNL     1       9.093   7.954  -1.996  1.00  0.00     0.049 A 
ATOM     48  H   UNL     1      10.765   7.113  -1.079  1.00  0.00     0.167 HD
ATOM     49  C   UNL     1      14.169   5.091   0.818  1.00  0.00     0.034 A 
ATOM     50  C   UNL     1       9.547   8.818  -2.928  1.00  0.00     0.034 A 
ATOM     51  C   UNL     1      14.754   6.011  -0.124  1.00  0.00     0.049 A 
ATOM     52  C   UNL     1      11.040   9.024  -3.064  1.00  0.00     0.074 A 
ATOM     53  C   UNL     1      16.091   6.239  -0.395  1.00  0.00     0.029 A 
ATOM     54  N   UNL     1      14.031   6.877  -0.936  1.00  0.00    -0.354 N 
ATOM     55  N   UNL     1      12.021   8.404  -2.449  1.00  0.00    -0.248 NA
ATOM     56  C   UNL     1      11.485  10.059  -4.008  1.00  0.00     0.031 C 
ATOM     57  C   UNL     1      16.178   7.290  -1.317  1.00  0.00     0.029 A 
ATOM     58  C   UNL     1      14.895   7.663  -1.683  1.00  0.00     0.049 A 
ATOM     59  H   UNL     1      13.049   6.925  -0.976  1.00  0.00     0.167 HD
ATOM     60  C   UNL     1      13.197   8.954  -2.954  1.00  0.00     0.074 A 
ATOM     61  C   UNL     1      12.803   9.950  -3.930  1.00  0.00     0.031 C 
ATOM     62  C   UNL     1      14.486   8.659  -2.647  1.00  0.00     0.034 A 
BRANCH  49  63
ATOM     63  C   UNL     1      15.060   4.207   1.653  1.00  0.00     0.023 A 
ATOM     64  C   UNL     1      14.992   2.805   1.568  1.00  0.00     0.031 A 
ATOM     65  C   UNL     1      15.909   4.771   2.620  1.00  0.00     0.131 A 
ATOM     66  C   UNL     1      15.691   2.017   2.494  1.00  0.00     0.055 A 
ATOM     67  C   UNL     1      16.666   3.979   3.485  1.00  0.00     0.041 A 
ATOM     68  F   UNL     1      15.989   6.103   2.767  1.00  0.00    -0.206 F 
ATOM     69  C   UNL     1      16.544   2.593   3.438  1.00  0.00     0.022 A 
BRANCH  66  70
ATOM     70  S   UNL     1      15.325   0.241   2.568  1.00  0.00     0.124 S 
ATOM     71  O   UNL     1      13.882   0.245   2.800  1.00  0.00    -0.237 OA
ATOM     72  O   UNL     1      15.760  -0.226   1.258  1.00  0.00    -0.237 OA
ATOM     73  O   UNL     1      16.126  -0.227   3.697  1.00  0.00    -0.744 OA
ENDBRANCH  66  70
ENDBRANCH  49  63
BRANCH  50  74
ATOM     74  C   UNL     1       8.599   9.621  -3.757  1.00  0.00     0.023 A 
ATOM     75  C   UNL     1       8.593   9.523  -5.158  1.00  0.00     0.031 A 
ATOM     76  C   UNL     1       7.741  10.563  -3.162  1.00  0.00     0.131 A 
ATOM     77  C   UNL     1       7.780  10.381  -5.917  1.00  0.00     0.055 A 
ATOM     78  C   UNL     1       6.894  11.376  -3.918  1.00  0.00     0.041 A 
ATOM     79  F   UNL     1       7.714  10.711  -1.828  1.00  0.00    -0.206 F 
ATOM     80  C   UNL     1       6.921  11.297  -5.306  1.00  0.00     0.022 A 
BRANCH  77  81
ATOM     81  S   UNL     1       7.923  10.346  -7.726  1.00  0.00     0.124 S 
ATOM     82  O   UNL     1       9.324  10.706  -7.918  1.00  0.00    -0.237 OA
ATOM     83  O   UNL     1       7.566   8.965  -8.032  1.00  0.00    -0.237 OA
ATOM     84  O   UNL     1       6.955  11.349  -8.164  1.00  0.00    -0.744 OA
ENDBRANCH  77  81
ENDBRANCH  50  74
BRANCH  62  85
ATOM     85  C   UNL     1      15.566   9.387  -3.411  1.00  0.00     0.023 A 
ATOM     86  C   UNL     1      15.803  10.762  -3.241  1.00  0.00     0.031 A 
ATOM     87  C   UNL     1      16.383   8.681  -4.314  1.00  0.00     0.131 A 
ATOM     88  C   UNL     1      16.805  11.396  -3.993  1.00  0.00     0.055 A 
ATOM     89  C   UNL     1      17.412   9.307  -5.019  1.00  0.00     0.041 A 
ATOM     90  F   UNL     1      16.200   7.367  -4.516  1.00  0.00    -0.206 F 
ATOM     91  C   UNL     1      17.622  10.674  -4.867  1.00  0.00     0.022 A 
BRANCH  88  92
ATOM     92  S   UNL     1      16.988  13.197  -3.864  1.00  0.00     0.124 S 
ATOM     93  O   UNL     1      15.676  13.668  -4.294  1.00  0.00    -0.237 OA
ATOM     94  O   UNL     1      17.299  13.380  -2.450  1.00  0.00    -0.237 OA
ATOM     95  O   UNL     1      18.086  13.497  -4.782  1.00  0.00    -0.744 OA
ENDBRANCH  88  92
ENDBRANCH  62  85
ENDBRANCH  36  37
ENDBRANCH  29  31
ENDBRANCH  28  29
ENDBRANCH  27  28
ENDBRANCH   1  27
TORSDOF 18
