REMARK SMILES CC(C)[NH2+][C@]1(C(=O)OCCOC(=O)c2ccc(-c3c4nc(c(-c5cc(S(=O)(=O)[O-])ccc5F)c5ccc([nH]5)c(-c5cc(S(=O)(=O)[O-])ccc5F)c5nc(c(-c6cc(S(=O)(=O)[O-])ccc6F)c6ccc3[nH]6)C=C5)C=C4)cc2)CC[C@H]([N@H+](C)C2CCCC2)C1
REMARK SMILES IDX 10 1 9 2 8 3 6 4 7 5 5 6 77 7 87 8 78 9 79 10 4 11 2 14 1 15
REMARK SMILES IDX 3 16 80 17 81 18 82 20 83 21 86 22 84 23 85 24 11 25 12 26
REMARK SMILES IDX 13 27 14 28 15 29 76 30 16 31 75 32 17 33 18 34 19 35 69 36
REMARK SMILES IDX 20 37 74 38 68 39 70 40 21 41 73 42 67 43 66 44 22 46 54 47
REMARK SMILES IDX 34 48 53 49 35 50 38 51 52 52 71 53 36 54 37 55 51 57 72 58
REMARK SMILES IDX 39 59 23 60 24 61 32 62 25 63 31 64 33 65 30 66 26 67 27 68
REMARK SMILES IDX 28 69 29 70 55 71 56 72 64 73 57 74 63 75 65 76 62 77 58 78
REMARK SMILES IDX 59 79 60 80 61 81 40 82 41 83 49 84 42 85 48 86 50 87 47 88
REMARK SMILES IDX 43 89 44 90 45 91 46 92
REMARK H PARENT 4 12 4 13 80 19 70 45 38 56
REMARK Flexibility Score: inf
ROOT
ATOM      1  C   UNL     1       0.104  -1.082  -0.946  1.00  0.00     0.275 C 
ENDROOT
BRANCH   1   2
ATOM      2  C   UNL     1       0.598   0.098  -0.119  1.00  0.00     0.274 C 
BRANCH   2   3
ATOM      3  O   UNL     1       0.106  -0.024   1.228  1.00  0.00    -0.457 OA
BRANCH   3   4
ATOM      4  C   UNL     1      -0.870   0.852   1.621  1.00  0.00     0.368 C 
ATOM      5  O   UNL     1      -1.321   1.752   0.924  1.00  0.00    -0.245 OA
BRANCH   4   6
ATOM      6  C   UNL     1      -1.231   0.631   3.120  1.00  0.00     0.200 C 
ATOM      7  C   UNL     1      -2.583   1.278   3.457  1.00  0.00     0.087 C 
ATOM      8  C   UNL     1      -1.582  -0.859   3.309  1.00  0.00     0.146 C 
ATOM      9  C   UNL     1      -3.154   0.467   4.621  1.00  0.00     0.072 C 
ATOM     10  C   UNL     1      -2.622  -0.982   4.435  1.00  0.00     0.191 C 
BRANCH   6  11
ATOM     11  N   UNL     1      -0.043   1.103   3.877  1.00  0.00    -0.330 N 
ATOM     12  H   UNL     1       0.690   0.410   3.727  1.00  0.00     0.347 HD
ATOM     13  H   UNL     1       0.098   2.043   3.509  1.00  0.00     0.347 HD
BRANCH  11  14
ATOM     14  C   UNL     1      -0.108   1.329   5.314  1.00  0.00     0.176 C 
ATOM     15  C   UNL     1       1.246   0.918   5.900  1.00  0.00     0.075 C 
ATOM     16  C   UNL     1      -0.379   2.794   5.659  1.00  0.00     0.075 C 
ENDBRANCH  11  14
ENDBRANCH   6  11
BRANCH  10  17
ATOM     17  N   UNL     1      -2.399  -1.822   5.634  1.00  0.00    -0.332 N 
ATOM     18  C   UNL     1      -3.349  -1.500   6.706  1.00  0.00     0.333 C 
ATOM     19  H   UNL     1      -2.588  -2.738   5.226  1.00  0.00     0.348 HD
BRANCH  17  20
ATOM     20  C   UNL     1      -1.047  -2.113   6.137  1.00  0.00     0.184 C 
ATOM     21  C   UNL     1      -1.012  -3.064   7.354  1.00  0.00     0.065 C 
ATOM     22  C   UNL     1      -0.073  -2.838   5.186  1.00  0.00     0.065 C 
ATOM     23  C   UNL     1       0.455  -3.443   7.473  1.00  0.00     0.006 C 
ATOM     24  C   UNL     1       0.898  -3.651   6.039  1.00  0.00     0.006 C 
ENDBRANCH  17  20
ENDBRANCH  10  17
ENDBRANCH   4   6
ENDBRANCH   3   4
ENDBRANCH   2   3
ENDBRANCH   1   2
BRANCH   1  25
ATOM     25  O   UNL     1      -1.329  -1.030  -0.982  1.00  0.00    -0.458 OA
BRANCH  25  26
ATOM     26  C   UNL     1      -1.967  -2.199  -0.753  1.00  0.00     0.338 C 
ATOM     27  O   UNL     1      -1.465  -3.309  -0.660  1.00  0.00    -0.246 OA
BRANCH  26  28
ATOM     28  C   UNL     1      -3.409  -1.936  -0.621  1.00  0.00     0.060 A 
ATOM     29  C   UNL     1      -3.865  -0.953   0.259  1.00  0.00     0.016 A 
ATOM     30  C   UNL     1      -4.319  -2.732  -1.312  1.00  0.00     0.016 A 
ATOM     31  C   UNL     1      -5.225  -0.823   0.522  1.00  0.00     0.010 A 
ATOM     32  C   UNL     1      -5.689  -2.526  -1.129  1.00  0.00     0.010 A 
ATOM     33  C   UNL     1      -6.158  -1.593  -0.184  1.00  0.00    -0.014 A 
BRANCH  33  34
ATOM     34  C   UNL     1      -7.616  -1.465   0.090  1.00  0.00     0.031 A 
ATOM     35  C   UNL     1      -8.399  -2.676   0.523  1.00  0.00     0.074 A 
ATOM     36  C   UNL     1      -8.241  -0.278  -0.044  1.00  0.00     0.049 A 
ATOM     37  N   UNL     1      -9.694  -2.854   0.575  1.00  0.00    -0.248 NA
ATOM     38  C   UNL     1      -7.614  -3.852   0.930  1.00  0.00     0.031 C 
ATOM     39  C   UNL     1      -7.594   0.989  -0.393  1.00  0.00     0.029 A 
ATOM     40  N   UNL     1      -9.565   0.057   0.097  1.00  0.00    -0.354 N 
ATOM     41  C   UNL     1      -9.880  -4.179   0.959  1.00  0.00     0.074 A 
ATOM     42  C   UNL     1      -8.563  -4.757   1.119  1.00  0.00     0.031 C 
ATOM     43  C   UNL     1      -8.514   1.965  -0.404  1.00  0.00     0.029 A 
ATOM     44  C   UNL     1      -9.829   1.381  -0.168  1.00  0.00     0.049 A 
ATOM     45  H   UNL     1     -10.259  -0.588   0.362  1.00  0.00     0.167 HD
ATOM     46  C   UNL     1     -11.045  -4.847   1.150  1.00  0.00     0.034 A 
ATOM     47  C   UNL     1     -10.998   2.042  -0.269  1.00  0.00     0.034 A 
ATOM     48  C   UNL     1     -12.348  -4.236   1.026  1.00  0.00     0.049 A 
ATOM     49  C   UNL     1     -12.281   1.274  -0.095  1.00  0.00     0.074 A 
ATOM     50  C   UNL     1     -13.595  -4.815   1.189  1.00  0.00     0.029 A 
ATOM     51  N   UNL     1     -12.570  -2.898   0.724  1.00  0.00    -0.354 N 
ATOM     52  N   UNL     1     -12.449  -0.002   0.165  1.00  0.00    -0.248 NA
ATOM     53  C   UNL     1     -13.529   2.030  -0.247  1.00  0.00     0.031 C 
ATOM     54  C   UNL     1     -14.569  -3.841   0.938  1.00  0.00     0.029 A 
ATOM     55  C   UNL     1     -13.931  -2.638   0.681  1.00  0.00     0.049 A 
ATOM     56  H   UNL     1     -11.863  -2.232   0.563  1.00  0.00     0.167 HD
ATOM     57  C   UNL     1     -13.825  -0.200   0.212  1.00  0.00     0.074 A 
ATOM     58  C   UNL     1     -14.438   1.093  -0.022  1.00  0.00     0.031 C 
ATOM     59  C   UNL     1     -14.521  -1.345   0.426  1.00  0.00     0.034 A 
BRANCH  46  60
ATOM     60  C   UNL     1     -10.955  -6.326   1.442  1.00  0.00     0.023 A 
ATOM     61  C   UNL     1     -10.377  -6.824   2.622  1.00  0.00     0.031 A 
ATOM     62  C   UNL     1     -11.421  -7.257   0.494  1.00  0.00     0.131 A 
ATOM     63  C   UNL     1     -10.214  -8.209   2.791  1.00  0.00     0.055 A 
ATOM     64  C   UNL     1     -11.326  -8.634   0.703  1.00  0.00     0.041 A 
ATOM     65  F   UNL     1     -11.964  -6.841  -0.661  1.00  0.00    -0.206 F 
ATOM     66  C   UNL     1     -10.706  -9.117   1.851  1.00  0.00     0.022 A 
BRANCH  63  67
ATOM     67  S   UNL     1      -9.228  -8.803   4.193  1.00  0.00     0.124 S 
ATOM     68  O   UNL     1      -7.940  -8.163   3.940  1.00  0.00    -0.237 OA
ATOM     69  O   UNL     1      -9.976  -8.303   5.340  1.00  0.00    -0.237 OA
ATOM     70  O   UNL     1      -9.237 -10.256   4.027  1.00  0.00    -0.744 OA
ENDBRANCH  63  67
ENDBRANCH  46  60
BRANCH  47  71
ATOM     71  C   UNL     1     -11.016   3.488  -0.631  1.00  0.00     0.023 A 
ATOM     72  C   UNL     1     -11.492   4.455   0.267  1.00  0.00     0.031 A 
ATOM     73  C   UNL     1     -10.576   3.921  -1.896  1.00  0.00     0.131 A 
ATOM     74  C   UNL     1     -11.542   5.804  -0.121  1.00  0.00     0.055 A 
ATOM     75  C   UNL     1     -10.580   5.268  -2.258  1.00  0.00     0.041 A 
ATOM     76  F   UNL     1     -10.112   3.036  -2.793  1.00  0.00    -0.206 F 
ATOM     77  C   UNL     1     -11.075   6.218  -1.371  1.00  0.00     0.022 A 
BRANCH  74  78
ATOM     78  S   UNL     1     -12.288   7.008   1.012  1.00  0.00     0.124 S 
ATOM     79  O   UNL     1     -13.637   6.476   1.166  1.00  0.00    -0.237 OA
ATOM     80  O   UNL     1     -11.420   6.904   2.180  1.00  0.00    -0.237 OA
ATOM     81  O   UNL     1     -12.193   8.269   0.279  1.00  0.00    -0.744 OA
ENDBRANCH  74  78
ENDBRANCH  47  71
BRANCH  59  82
ATOM     82  C   UNL     1     -16.022  -1.226   0.449  1.00  0.00     0.023 A 
ATOM     83  C   UNL     1     -16.757  -0.958  -0.719  1.00  0.00     0.031 A 
ATOM     84  C   UNL     1     -16.722  -1.355   1.661  1.00  0.00     0.131 A 
ATOM     85  C   UNL     1     -18.145  -0.774  -0.642  1.00  0.00     0.055 A 
ATOM     86  C   UNL     1     -18.109  -1.221   1.724  1.00  0.00     0.041 A 
ATOM     87  F   UNL     1     -16.065  -1.608   2.804  1.00  0.00    -0.206 F 
ATOM     88  C   UNL     1     -18.827  -0.917   0.570  1.00  0.00     0.022 A 
BRANCH  85  89
ATOM     89  S   UNL     1     -19.041  -0.263  -2.133  1.00  0.00     0.124 S 
ATOM     90  O   UNL     1     -18.387   0.999  -2.463  1.00  0.00    -0.237 OA
ATOM     91  O   UNL     1     -18.787  -1.372  -3.047  1.00  0.00    -0.237 OA
ATOM     92  O   UNL     1     -20.425  -0.142  -1.678  1.00  0.00    -0.744 OA
ENDBRANCH  85  89
ENDBRANCH  59  82
ENDBRANCH  33  34
ENDBRANCH  26  28
ENDBRANCH  25  26
ENDBRANCH   1  25
TORSDOF 18
