REMARK SMILES CC(C)n1cncc1[C@@H](NC(=O)OC(C)(C)C)C(=O)OCCOC(=O)c1ccc(-c2c3nc(c(-c4cc(S(=O)(=O)[O-])ccc4F)c4ccc([nH]4)c(-c4cc(S(=O)(=O)[O-])ccc4F)c4nc(c(-c5cc(S(=O)(=O)[O-])ccc5F)c5ccc2[nH]5)C=C4)C=C3)cc1
REMARK SMILES IDX 21 1 20 2 18 3 19 4 9 5 8 6 4 7 5 8 6 9 7 10 2 11 1 12 3 13
REMARK SMILES IDX 10 14 11 15 12 17 13 18 14 19 15 20 16 21 17 22 22 23 23 24
REMARK SMILES IDX 24 25 25 26 26 27 27 28 88 29 28 30 87 31 29 32 30 33 31 34
REMARK SMILES IDX 81 35 32 36 86 37 80 38 82 39 33 40 85 41 79 42 78 43 34 45
REMARK SMILES IDX 66 46 46 47 65 48 47 49 50 50 64 51 83 52 48 53 49 54 63 56
REMARK SMILES IDX 84 57 51 58 35 59 36 60 44 61 37 62 43 63 45 64 42 65 38 66
REMARK SMILES IDX 39 67 40 68 41 69 67 70 68 71 76 72 69 73 75 74 77 75 74 76
REMARK SMILES IDX 70 77 71 78 72 79 73 80 52 81 53 82 61 83 54 84 60 85 62 86
REMARK SMILES IDX 59 87 55 88 56 89 57 90 58 91
REMARK H PARENT 10 16 82 44 50 55
REMARK Flexibility Score: inf
ROOT
ATOM      1  C   UNL     1      -3.711   2.954   3.838  1.00  0.00     0.274 C 
ENDROOT
BRANCH   1   2
ATOM      2  O   UNL     1      -3.200   2.297   2.672  1.00  0.00    -0.460 OA
BRANCH   2   3
ATOM      3  C   UNL     1      -1.960   2.674   2.232  1.00  0.00     0.335 C 
ATOM      4  O   UNL     1      -1.276   3.566   2.736  1.00  0.00    -0.249 OA
BRANCH   3   5
ATOM      5  C   UNL     1      -1.590   2.002   0.900  1.00  0.00     0.244 C 
BRANCH   5   6
ATOM      6  C   UNL     1      -2.007   0.555   0.799  1.00  0.00     0.072 A 
ATOM      7  N   UNL     1      -1.199  -0.573   0.754  1.00  0.00    -0.330 N 
ATOM      8  C   UNL     1      -2.033  -1.668   0.811  1.00  0.00     0.199 A 
ATOM      9  N   UNL     1      -3.296  -1.329   0.769  1.00  0.00    -0.245 NA
ATOM     10  C   UNL     1      -3.292   0.034   0.790  1.00  0.00     0.137 A 
BRANCH   7  11
ATOM     11  C   UNL     1       0.252  -0.736   0.689  1.00  0.00     0.082 C 
ATOM     12  C   UNL     1       0.900  -0.097  -0.536  1.00  0.00     0.031 C 
ATOM     13  C   UNL     1       0.944  -0.311   1.967  1.00  0.00     0.031 C 
ENDBRANCH   7  11
ENDBRANCH   5   6
BRANCH   5  14
ATOM     14  N   UNL     1      -2.104   2.713  -0.273  1.00  0.00    -0.302 N 
ATOM     15  C   UNL     1      -2.832   3.867  -0.341  1.00  0.00     0.408 C 
ATOM     16  H   UNL     1      -1.893   2.298  -1.141  1.00  0.00     0.168 HD
ATOM     17  O   UNL     1      -3.160   4.319  -1.437  1.00  0.00    -0.225 OA
BRANCH  15  18
ATOM     18  O   UNL     1      -3.150   4.426   0.851  1.00  0.00    -0.444 OA
BRANCH  18  19
ATOM     19  C   UNL     1      -3.962   5.627   0.956  1.00  0.00     0.106 C 
ATOM     20  C   UNL     1      -3.265   6.814   0.289  1.00  0.00     0.056 C 
ATOM     21  C   UNL     1      -5.368   5.354   0.418  1.00  0.00     0.056 C 
ATOM     22  C   UNL     1      -4.099   5.977   2.450  1.00  0.00     0.056 C 
ENDBRANCH  18  19
ENDBRANCH  15  18
ENDBRANCH   5  14
ENDBRANCH   3   5
ENDBRANCH   2   3
ENDBRANCH   1   2
BRANCH   1  23
ATOM     23  C   UNL     1      -3.387   2.201   5.107  1.00  0.00     0.275 C 
BRANCH  23  24
ATOM     24  O   UNL     1      -2.043   2.487   5.475  1.00  0.00    -0.458 OA
BRANCH  24  25
ATOM     25  C   UNL     1      -1.129   1.681   4.897  1.00  0.00     0.338 C 
ATOM     26  O   UNL     1      -1.302   0.877   3.995  1.00  0.00    -0.246 OA
BRANCH  25  27
ATOM     27  C   UNL     1       0.098   1.721   5.686  1.00  0.00     0.060 A 
ATOM     28  C   UNL     1       1.107   0.904   5.189  1.00  0.00     0.016 A 
ATOM     29  C   UNL     1      -0.057   1.981   7.049  1.00  0.00     0.016 A 
ATOM     30  C   UNL     1       1.691   0.025   6.052  1.00  0.00     0.010 A 
ATOM     31  C   UNL     1       0.582   1.151   7.926  1.00  0.00     0.010 A 
ATOM     32  C   UNL     1       1.362   0.119   7.407  1.00  0.00    -0.014 A 
BRANCH  32  33
ATOM     33  C   UNL     1       2.119  -0.706   8.318  1.00  0.00     0.031 A 
ATOM     34  C   UNL     1       3.561  -0.371   8.188  1.00  0.00     0.074 A 
ATOM     35  C   UNL     1       1.514  -1.501   9.218  1.00  0.00     0.049 A 
ATOM     36  N   UNL     1       4.507  -1.118   7.727  1.00  0.00    -0.248 NA
ATOM     37  C   UNL     1       3.931   1.064   8.264  1.00  0.00     0.031 C 
ATOM     38  C   UNL     1       0.078  -1.634   9.482  1.00  0.00     0.029 A 
ATOM     39  N   UNL     1       2.061  -2.269  10.190  1.00  0.00    -0.354 N 
ATOM     40  C   UNL     1       5.643  -0.316   7.766  1.00  0.00     0.074 A 
ATOM     41  C   UNL     1       5.177   1.036   7.796  1.00  0.00     0.031 C 
ATOM     42  C   UNL     1      -0.102  -2.201  10.697  1.00  0.00     0.029 A 
ATOM     43  C   UNL     1       1.193  -2.589  11.230  1.00  0.00     0.049 A 
ATOM     44  H   UNL     1       2.997  -2.575  10.164  1.00  0.00     0.167 HD
ATOM     45  C   UNL     1       6.828  -0.845   8.167  1.00  0.00     0.034 A 
ATOM     46  C   UNL     1       1.548  -3.041  12.466  1.00  0.00     0.034 A 
ATOM     47  C   UNL     1       6.813  -2.283   7.995  1.00  0.00     0.049 A 
ATOM     48  C   UNL     1       2.938  -3.558  12.329  1.00  0.00     0.074 A 
ATOM     49  C   UNL     1       6.656  -3.124   6.911  1.00  0.00     0.029 A 
ATOM     50  N   UNL     1       6.540  -3.041   9.112  1.00  0.00    -0.354 N 
ATOM     51  N   UNL     1       3.253  -4.574  11.568  1.00  0.00    -0.248 NA
ATOM     52  C   UNL     1       4.035  -2.645  12.617  1.00  0.00     0.031 C 
ATOM     53  C   UNL     1       5.877  -4.215   7.397  1.00  0.00     0.029 A 
ATOM     54  C   UNL     1       5.675  -4.049   8.770  1.00  0.00     0.049 A 
ATOM     55  H   UNL     1       6.907  -2.884  10.012  1.00  0.00     0.167 HD
ATOM     56  C   UNL     1       4.439  -4.209  10.943  1.00  0.00     0.074 A 
ATOM     57  C   UNL     1       4.918  -3.053  11.701  1.00  0.00     0.031 C 
ATOM     58  C   UNL     1       4.754  -4.686   9.701  1.00  0.00     0.034 A 
BRANCH  45  59
ATOM     59  C   UNL     1       7.749  -0.150   9.155  1.00  0.00     0.023 A 
ATOM     60  C   UNL     1       8.873  -0.881   9.574  1.00  0.00     0.031 A 
ATOM     61  C   UNL     1       7.454   1.004   9.923  1.00  0.00     0.131 A 
ATOM     62  C   UNL     1       9.551  -0.548  10.758  1.00  0.00     0.055 A 
ATOM     63  C   UNL     1       8.165   1.362  11.070  1.00  0.00     0.041 A 
ATOM     64  F   UNL     1       6.425   1.819   9.672  1.00  0.00    -0.206 F 
ATOM     65  C   UNL     1       9.199   0.565  11.516  1.00  0.00     0.022 A 
BRANCH  62  66
ATOM     66  S   UNL     1      10.791  -1.704  11.382  1.00  0.00     0.124 S 
ATOM     67  O   UNL     1      10.016  -2.936  11.477  1.00  0.00    -0.237 OA
ATOM     68  O   UNL     1      11.799  -1.654  10.328  1.00  0.00    -0.237 OA
ATOM     69  O   UNL     1      11.191  -1.114  12.657  1.00  0.00    -0.744 OA
ENDBRANCH  62  66
ENDBRANCH  45  59
BRANCH  46  70
ATOM     70  C   UNL     1       0.945  -2.627  13.772  1.00  0.00     0.023 A 
ATOM     71  C   UNL     1       1.100  -3.364  14.969  1.00  0.00     0.031 A 
ATOM     72  C   UNL     1       0.381  -1.335  13.903  1.00  0.00     0.131 A 
ATOM     73  C   UNL     1       0.695  -2.809  16.211  1.00  0.00     0.055 A 
ATOM     74  C   UNL     1      -0.015  -0.794  15.129  1.00  0.00     0.041 A 
ATOM     75  F   UNL     1       0.270  -0.514  12.847  1.00  0.00    -0.206 F 
ATOM     76  C   UNL     1       0.148  -1.527  16.291  1.00  0.00     0.022 A 
BRANCH  73  77
ATOM     77  S   UNL     1       0.928  -3.729  17.771  1.00  0.00     0.124 S 
ATOM     78  O   UNL     1       0.068  -4.891  17.579  1.00  0.00    -0.237 OA
ATOM     79  O   UNL     1       2.365  -3.977  17.776  1.00  0.00    -0.237 OA
ATOM     80  O   UNL     1       0.467  -2.791  18.796  1.00  0.00    -0.744 OA
ENDBRANCH  73  77
ENDBRANCH  46  70
BRANCH  58  81
ATOM     81  C   UNL     1       4.000  -5.896   9.180  1.00  0.00     0.023 A 
ATOM     82  C   UNL     1       2.612  -5.968   8.911  1.00  0.00     0.031 A 
ATOM     83  C   UNL     1       4.792  -7.003   8.822  1.00  0.00     0.131 A 
ATOM     84  C   UNL     1       2.076  -7.126   8.301  1.00  0.00     0.055 A 
ATOM     85  C   UNL     1       4.263  -8.129   8.199  1.00  0.00     0.041 A 
ATOM     86  F   UNL     1       6.118  -6.985   9.035  1.00  0.00    -0.206 F 
ATOM     87  C   UNL     1       2.901  -8.197   7.939  1.00  0.00     0.022 A 
BRANCH  84  88
ATOM     88  S   UNL     1       0.287  -7.282   7.974  1.00  0.00     0.124 S 
ATOM     89  O   UNL     1      -0.324  -6.898   9.240  1.00  0.00    -0.237 OA
ATOM     90  O   UNL     1       0.089  -6.360   6.859  1.00  0.00    -0.237 OA
ATOM     91  O   UNL     1       0.127  -8.696   7.625  1.00  0.00    -0.744 OA
ENDBRANCH  84  88
ENDBRANCH  58  81
ENDBRANCH  32  33
ENDBRANCH  25  27
ENDBRANCH  24  25
ENDBRANCH  23  24
ENDBRANCH   1  23
TORSDOF 19
