REMARK SMILES CC(=O)Nc1ccc(/C=C2/CCc3oc(C(=O)OCCOC(=O)c4ccc(-c5c6nc(c(-c7cc(S(=O)(=O)[O-])ccc7F)c7ccc([nH]7)c(-c7cc(S(=O)(=O)[O-])ccc7F)c7nc(c(-c8cc(S(=O)(=O)[O-])ccc8F)c8ccc5[nH]8)C=C7)C=C6)cc4)c(C)c3C2=O)cc1
REMARK SMILES IDX 20 1 19 2 18 3 16 4 17 5 15 6 9 7 10 8 11 9 90 10 12 11
REMARK SMILES IDX 89 12 91 13 13 14 87 15 14 16 88 17 8 18 5 19 6 20 93 21
REMARK SMILES IDX 7 22 92 23 4 24 1 25 2 26 3 27 21 29 22 30 23 31 24 32 25 33
REMARK SMILES IDX 86 34 26 35 85 36 27 37 28 38 29 39 79 40 30 41 84 42 78 43
REMARK SMILES IDX 80 44 31 45 83 46 77 47 76 48 32 50 64 51 44 52 63 53 45 54
REMARK SMILES IDX 48 55 62 56 81 57 46 58 47 59 61 61 82 62 49 63 33 64 34 65
REMARK SMILES IDX 42 66 35 67 41 68 43 69 40 70 36 71 37 72 38 73 39 74 65 75
REMARK SMILES IDX 66 76 74 77 67 78 73 79 75 80 72 81 68 82 69 83 70 84 71 85
REMARK SMILES IDX 50 86 51 87 59 88 52 89 58 90 60 91 57 92 53 93 54 94 55 95
REMARK SMILES IDX 56 96
REMARK H PARENT 4 28 80 49 48 60
REMARK Flexibility Score: inf
ROOT
ATOM      1  C   UNL     1      -1.159 -13.637   2.846  1.00  0.00     0.275 C 
ENDROOT
BRANCH   1   2
ATOM      2  C   UNL     1      -1.188 -12.832   1.552  1.00  0.00     0.275 C 
BRANCH   2   3
ATOM      3  O   UNL     1      -0.227 -11.765   1.558  1.00  0.00    -0.456 OA
BRANCH   3   4
ATOM      4  C   UNL     1      -0.636 -10.575   2.091  1.00  0.00     0.374 C 
ATOM      5  O   UNL     1      -1.802 -10.314   2.388  1.00  0.00    -0.242 OA
BRANCH   4   6
ATOM      6  C   UNL     1       0.498  -9.701   2.304  1.00  0.00     0.215 A 
ATOM      7  C   UNL     1       3.968  -5.406   1.908  1.00  0.00     0.016 C 
ATOM      8  C   UNL     1       3.844  -6.641   2.438  1.00  0.00     0.001 C 
ATOM      9  C   UNL     1       4.705  -7.824   2.008  1.00  0.00     0.048 C 
ATOM     10  C   UNL     1       2.776  -7.035   3.418  1.00  0.00     0.192 C 
ATOM     11  C   UNL     1       3.870  -8.932   1.323  1.00  0.00     0.081 C 
ATOM     12  C   UNL     1       2.007  -8.146   2.902  1.00  0.00     0.067 A 
ATOM     13  O   UNL     1       2.588  -6.483   4.492  1.00  0.00    -0.289 OA
ATOM     14  C   UNL     1       2.537  -8.996   1.963  1.00  0.00     0.116 A 
ATOM     15  C   UNL     1       0.675  -8.591   3.134  1.00  0.00     0.014 A 
ATOM     16  O   UNL     1       1.652  -9.940   1.591  1.00  0.00    -0.453 OA
ATOM     17  C   UNL     1      -0.299  -7.958   4.063  1.00  0.00     0.049 C 
BRANCH   7  18
ATOM     18  C   UNL     1       3.150  -4.177   2.058  1.00  0.00    -0.025 A 
ATOM     19  C   UNL     1       1.633  -1.774   2.143  1.00  0.00     0.041 A 
ATOM     20  C   UNL     1       1.208  -2.906   2.826  1.00  0.00     0.027 A 
ATOM     21  C   UNL     1       2.839  -1.822   1.449  1.00  0.00     0.027 A 
ATOM     22  C   UNL     1       1.933  -4.099   2.742  1.00  0.00     0.010 A 
ATOM     23  C   UNL     1       3.593  -3.007   1.419  1.00  0.00     0.010 A 
BRANCH  19  24
ATOM     24  N   UNL     1       0.823  -0.634   2.236  1.00  0.00    -0.326 N 
ATOM     25  C   UNL     1       0.975   0.135  -0.115  1.00  0.00     0.114 C 
ATOM     26  C   UNL     1       0.567   0.343   1.318  1.00  0.00     0.221 C 
ATOM     27  O   UNL     1      -0.070   1.342   1.655  1.00  0.00    -0.275 OA
ATOM     28  H   UNL     1       0.366  -0.520   3.101  1.00  0.00     0.169 HD
ENDBRANCH  19  24
ENDBRANCH   7  18
ENDBRANCH   4   6
ENDBRANCH   3   4
ENDBRANCH   2   3
ENDBRANCH   1   2
BRANCH   1  29
ATOM     29  O   UNL     1      -1.690 -12.886   3.935  1.00  0.00    -0.458 OA
BRANCH  29  30
ATOM     30  C   UNL     1      -0.770 -12.209   4.660  1.00  0.00     0.338 C 
ATOM     31  O   UNL     1       0.377 -11.957   4.332  1.00  0.00    -0.246 OA
BRANCH  30  32
ATOM     32  C   UNL     1      -1.285 -11.990   6.013  1.00  0.00     0.060 A 
ATOM     33  C   UNL     1      -0.431 -11.353   6.917  1.00  0.00     0.016 A 
ATOM     34  C   UNL     1      -2.441 -12.664   6.430  1.00  0.00     0.016 A 
ATOM     35  C   UNL     1      -0.629 -11.567   8.263  1.00  0.00     0.010 A 
ATOM     36  C   UNL     1      -2.625 -12.892   7.771  1.00  0.00     0.010 A 
ATOM     37  C   UNL     1      -1.672 -12.409   8.664  1.00  0.00    -0.014 A 
BRANCH  37  38
ATOM     38  C   UNL     1      -1.865 -12.641  10.080  1.00  0.00     0.031 A 
ATOM     39  C   UNL     1      -2.381 -11.428  10.755  1.00  0.00     0.074 A 
ATOM     40  C   UNL     1      -1.709 -13.854  10.646  1.00  0.00     0.049 A 
ATOM     41  N   UNL     1      -1.751 -10.665  11.583  1.00  0.00    -0.248 NA
ATOM     42  C   UNL     1      -3.649 -10.852  10.265  1.00  0.00     0.031 C 
ATOM     43  C   UNL     1      -1.429 -15.134   9.992  1.00  0.00     0.029 A 
ATOM     44  N   UNL     1      -1.862 -14.216  11.947  1.00  0.00    -0.354 N 
ATOM     45  C   UNL     1      -2.659  -9.671  11.927  1.00  0.00     0.074 A 
ATOM     46  C   UNL     1      -3.670  -9.686  10.910  1.00  0.00     0.031 C 
ATOM     47  C   UNL     1      -1.672 -16.145  10.861  1.00  0.00     0.029 A 
ATOM     48  C   UNL     1      -2.005 -15.587  12.162  1.00  0.00     0.049 A 
ATOM     49  H   UNL     1      -1.871 -13.561  12.682  1.00  0.00     0.167 HD
ATOM     50  C   UNL     1      -2.665  -9.150  13.184  1.00  0.00     0.034 A 
ATOM     51  C   UNL     1      -2.439 -16.191  13.306  1.00  0.00     0.034 A 
ATOM     52  C   UNL     1      -1.400  -9.399  13.844  1.00  0.00     0.049 A 
ATOM     53  C   UNL     1      -2.240 -15.204  14.402  1.00  0.00     0.074 A 
ATOM     54  C   UNL     1      -0.086  -9.087  13.549  1.00  0.00     0.029 A 
ATOM     55  N   UNL     1      -1.340 -10.425  14.763  1.00  0.00    -0.354 N 
ATOM     56  N   UNL     1      -1.057 -14.801  14.785  1.00  0.00    -0.248 NA
ATOM     57  C   UNL     1      -3.327 -14.274  14.683  1.00  0.00     0.031 C 
ATOM     58  C   UNL     1       0.655 -10.254  13.899  1.00  0.00     0.029 A 
ATOM     59  C   UNL     1      -0.220 -11.172  14.484  1.00  0.00     0.049 A 
ATOM     60  H   UNL     1      -1.983 -10.592  15.489  1.00  0.00     0.167 HD
ATOM     61  C   UNL     1      -1.175 -13.427  14.940  1.00  0.00     0.074 A 
ATOM     62  C   UNL     1      -2.616 -13.169  14.934  1.00  0.00     0.031 C 
ATOM     63  C   UNL     1      -0.106 -12.595  14.751  1.00  0.00     0.034 A 
BRANCH  50  64
ATOM     64  C   UNL     1      -3.931  -8.820  13.946  1.00  0.00     0.023 A 
ATOM     65  C   UNL     1      -3.769  -8.355  15.263  1.00  0.00     0.031 A 
ATOM     66  C   UNL     1      -5.247  -9.208  13.592  1.00  0.00     0.131 A 
ATOM     67  C   UNL     1      -4.828  -8.414  16.184  1.00  0.00     0.055 A 
ATOM     68  C   UNL     1      -6.312  -9.201  14.495  1.00  0.00     0.041 A 
ATOM     69  F   UNL     1      -5.573  -9.698  12.393  1.00  0.00    -0.206 F 
ATOM     70  C   UNL     1      -6.099  -8.839  15.811  1.00  0.00     0.022 A 
BRANCH  67  71
ATOM     71  S   UNL     1      -4.457  -8.106  17.927  1.00  0.00     0.124 S 
ATOM     72  O   UNL     1      -3.385  -9.066  18.169  1.00  0.00    -0.237 OA
ATOM     73  O   UNL     1      -4.071  -6.699  17.905  1.00  0.00    -0.237 OA
ATOM     74  O   UNL     1      -5.722  -8.396  18.597  1.00  0.00    -0.744 OA
ENDBRANCH  67  71
ENDBRANCH  50  64
BRANCH  51  75
ATOM     75  C   UNL     1      -3.364 -17.367  13.414  1.00  0.00     0.023 A 
ATOM     76  C   UNL     1      -3.531 -18.133  14.594  1.00  0.00     0.031 A 
ATOM     77  C   UNL     1      -4.301 -17.604  12.381  1.00  0.00     0.131 A 
ATOM     78  C   UNL     1      -4.587 -19.080  14.694  1.00  0.00     0.055 A 
ATOM     79  C   UNL     1      -5.338 -18.534  12.487  1.00  0.00     0.041 A 
ATOM     80  F   UNL     1      -4.294 -16.874  11.255  1.00  0.00    -0.206 F 
ATOM     81  C   UNL     1      -5.491 -19.270  13.648  1.00  0.00     0.022 A 
BRANCH  78  82
ATOM     82  S   UNL     1      -4.856 -20.045  16.223  1.00  0.00     0.124 S 
ATOM     83  O   UNL     1      -3.675 -20.900  16.265  1.00  0.00    -0.237 OA
ATOM     84  O   UNL     1      -4.943 -19.006  17.242  1.00  0.00    -0.237 OA
ATOM     85  O   UNL     1      -6.112 -20.752  15.966  1.00  0.00    -0.744 OA
ENDBRANCH  78  82
ENDBRANCH  51  75
BRANCH  63  86
ATOM     86  C   UNL     1       1.279 -13.207  14.635  1.00  0.00     0.023 A 
ATOM     87  C   UNL     1       1.681 -14.156  13.664  1.00  0.00     0.031 A 
ATOM     88  C   UNL     1       2.270 -12.694  15.491  1.00  0.00     0.131 A 
ATOM     89  C   UNL     1       3.032 -14.560  13.591  1.00  0.00     0.055 A 
ATOM     90  C   UNL     1       3.606 -13.078  15.399  1.00  0.00     0.041 A 
ATOM     91  F   UNL     1       1.957 -11.774  16.418  1.00  0.00    -0.206 F 
ATOM     92  C   UNL     1       3.992 -14.017  14.452  1.00  0.00     0.022 A 
BRANCH  89  93
ATOM     93  S   UNL     1       3.574 -15.824  12.391  1.00  0.00     0.124 S 
ATOM     94  O   UNL     1       2.584 -16.884  12.541  1.00  0.00    -0.237 OA
ATOM     95  O   UNL     1       3.543 -15.095  11.126  1.00  0.00    -0.237 OA
ATOM     96  O   UNL     1       4.918 -16.178  12.853  1.00  0.00    -0.744 OA
ENDBRANCH  89  93
ENDBRANCH  63  86
ENDBRANCH  37  38
ENDBRANCH  30  32
ENDBRANCH  29  30
ENDBRANCH   1  29
TORSDOF 16
