REMARK SMILES CCN(c1cccc(C)c1)c1nc(OCC(=O)OCCOC(=O)c2ccc(-c3c4nc(c(-c5cc(S(=O)(=O)[O-])ccc5F)c5ccc([nH]5)c(-c5cc(S(=O)(=O)[O-])ccc5F)c5nc(c(-c6cc(S(=O)(=O)[O-])ccc6F)c6ccc3[nH]6)C=C5)C=C4)cc2)cc(-c2ccc(C)cc2)n1
REMARK SMILES IDX 19 1 18 2 16 3 17 4 15 5 14 6 13 7 11 8 12 9 96 10 88 11
REMARK SMILES IDX 87 12 3 13 2 14 1 15 4 16 5 17 10 18 6 19 8 20 7 21 9 22
REMARK SMILES IDX 89 23 90 24 95 25 91 26 94 27 92 28 93 29 20 30 21 31 22 32
REMARK SMILES IDX 23 33 24 34 25 35 86 36 26 37 85 38 27 39 28 40 29 41 79 42
REMARK SMILES IDX 30 43 84 44 78 45 80 46 31 47 83 48 77 49 76 50 32 52 64 53
REMARK SMILES IDX 44 54 63 55 45 56 48 57 62 58 81 59 46 60 47 61 61 63 82 64
REMARK SMILES IDX 49 65 33 66 34 67 42 68 35 69 41 70 43 71 40 72 36 73 37 74
REMARK SMILES IDX 38 75 39 76 65 77 66 78 74 79 67 80 73 81 75 82 72 83 68 84
REMARK SMILES IDX 69 85 70 86 71 87 50 88 51 89 59 90 52 91 58 92 60 93 57 94
REMARK SMILES IDX 53 95 54 96 55 97 56 98
REMARK H PARENT 80 51 48 62
REMARK Flexibility Score: inf
ROOT
ATOM      1  C   UNL     1       5.236   2.330   3.826  1.00  0.00     0.274 C 
ENDROOT
BRANCH   1   2
ATOM      2  O   UNL     1       4.839   3.267   2.831  1.00  0.00    -0.460 OA
BRANCH   2   3
ATOM      3  C   UNL     1       4.743   4.561   3.220  1.00  0.00     0.344 C 
ATOM      4  O   UNL     1       4.838   4.951   4.379  1.00  0.00    -0.248 OA
BRANCH   3   5
ATOM      5  C   UNL     1       4.670   5.503   2.003  1.00  0.00     0.353 C 
BRANCH   5   6
ATOM      6  O   UNL     1       3.991   5.301   0.776  1.00  0.00    -0.466 OA
BRANCH   6   7
ATOM      7  C   UNL     1       3.631   4.009   0.523  1.00  0.00     0.219 A 
ATOM      8  C   UNL     1       1.948   2.462   0.518  1.00  0.00     0.233 A 
ATOM      9  N   UNL     1       2.391   3.681   0.880  1.00  0.00    -0.177 NA
ATOM     10  N   UNL     1       2.725   1.538  -0.060  1.00  0.00    -0.212 NA
ATOM     11  C   UNL     1       3.950   1.919  -0.461  1.00  0.00     0.080 A 
ATOM     12  C   UNL     1       4.437   3.192  -0.220  1.00  0.00     0.097 A 
BRANCH   8  13
ATOM     13  N   UNL     1       0.564   2.245   0.565  1.00  0.00    -0.311 N 
BRANCH  13  14
ATOM     14  C   UNL     1       0.107   0.923   0.994  1.00  0.00     0.122 C 
ATOM     15  C   UNL     1       0.414  -0.195   0.001  1.00  0.00     0.028 C 
ENDBRANCH  13  14
BRANCH  13  16
ATOM     16  C   UNL     1      -0.353   3.272   0.283  1.00  0.00     0.044 A 
ATOM     17  C   UNL     1      -1.454   3.550   1.097  1.00  0.00     0.026 A 
ATOM     18  C   UNL     1      -0.111   4.137  -0.806  1.00  0.00     0.029 A 
ATOM     19  C   UNL     1      -2.259   4.668   0.850  1.00  0.00     0.002 A 
ATOM     20  C   UNL     1      -0.908   5.258  -1.067  1.00  0.00    -0.049 A 
ATOM     21  C   UNL     1      -1.985   5.521  -0.222  1.00  0.00     0.003 A 
ATOM     22  C   UNL     1      -0.553   6.167  -2.205  1.00  0.00     0.044 C 
ENDBRANCH  13  16
ENDBRANCH   8  13
BRANCH  11  23
ATOM     23  C   UNL     1       4.709   0.924  -1.233  1.00  0.00     0.000 A 
ATOM     24  C   UNL     1       5.306  -0.183  -0.611  1.00  0.00     0.010 A 
ATOM     25  C   UNL     1       4.965   1.122  -2.596  1.00  0.00     0.010 A 
ATOM     26  C   UNL     1       6.295  -0.928  -1.260  1.00  0.00     0.004 A 
ATOM     27  C   UNL     1       5.892   0.324  -3.274  1.00  0.00     0.004 A 
ATOM     28  C   UNL     1       6.617  -0.656  -2.590  1.00  0.00    -0.051 A 
ATOM     29  C   UNL     1       7.735  -1.393  -3.265  1.00  0.00     0.044 C 
ENDBRANCH  11  23
ENDBRANCH   6   7
ENDBRANCH   5   6
ENDBRANCH   3   5
ENDBRANCH   2   3
ENDBRANCH   1   2
BRANCH   1  30
ATOM     30  C   UNL     1       5.736   1.046   3.148  1.00  0.00     0.275 C 
BRANCH  30  31
ATOM     31  O   UNL     1       6.235   1.131   1.769  1.00  0.00    -0.458 OA
BRANCH  31  32
ATOM     32  C   UNL     1       7.140   1.925   1.123  1.00  0.00     0.338 C 
ATOM     33  O   UNL     1       7.284   1.986  -0.067  1.00  0.00    -0.246 OA
BRANCH  32  34
ATOM     34  C   UNL     1       7.830   2.893   1.948  1.00  0.00     0.060 A 
ATOM     35  C   UNL     1       8.009   4.207   1.480  1.00  0.00     0.016 A 
ATOM     36  C   UNL     1       8.213   2.475   3.201  1.00  0.00     0.016 A 
ATOM     37  C   UNL     1       8.567   5.136   2.333  1.00  0.00     0.010 A 
ATOM     38  C   UNL     1       8.474   3.434   4.117  1.00  0.00     0.010 A 
ATOM     39  C   UNL     1       8.789   4.712   3.639  1.00  0.00    -0.014 A 
BRANCH  39  40
ATOM     40  C   UNL     1       9.714   5.347   4.538  1.00  0.00     0.031 A 
ATOM     41  C   UNL     1       9.245   6.436   5.390  1.00  0.00     0.074 A 
ATOM     42  C   UNL     1      10.840   4.602   4.661  1.00  0.00     0.049 A 
ATOM     43  N   UNL     1      10.001   7.351   5.874  1.00  0.00    -0.248 NA
ATOM     44  C   UNL     1       7.834   6.614   5.743  1.00  0.00     0.031 C 
ATOM     45  C   UNL     1      11.825   4.535   5.719  1.00  0.00     0.029 A 
ATOM     46  N   UNL     1      11.312   3.625   3.779  1.00  0.00    -0.354 N 
ATOM     47  C   UNL     1       9.298   7.893   6.928  1.00  0.00     0.074 A 
ATOM     48  C   UNL     1       7.915   7.580   6.666  1.00  0.00     0.031 C 
ATOM     49  C   UNL     1      12.909   3.876   5.251  1.00  0.00     0.029 A 
ATOM     50  C   UNL     1      12.691   3.614   3.830  1.00  0.00     0.049 A 
ATOM     51  H   UNL     1      10.754   3.042   3.216  1.00  0.00     0.167 HD
ATOM     52  C   UNL     1       9.988   8.274   8.042  1.00  0.00     0.034 A 
ATOM     53  C   UNL     1      13.398   4.156   2.789  1.00  0.00     0.034 A 
ATOM     54  C   UNL     1      11.406   7.922   7.887  1.00  0.00     0.049 A 
ATOM     55  C   UNL     1      14.013   5.467   3.243  1.00  0.00     0.074 A 
ATOM     56  C   UNL     1      12.158   6.873   8.393  1.00  0.00     0.029 A 
ATOM     57  N   UNL     1      12.143   8.460   6.838  1.00  0.00    -0.354 N 
ATOM     58  N   UNL     1      13.502   6.230   4.175  1.00  0.00    -0.248 NA
ATOM     59  C   UNL     1      15.303   5.947   2.768  1.00  0.00     0.031 C 
ATOM     60  C   UNL     1      13.320   6.739   7.583  1.00  0.00     0.029 A 
ATOM     61  C   UNL     1      13.270   7.701   6.587  1.00  0.00     0.049 A 
ATOM     62  H   UNL     1      11.895   9.272   6.341  1.00  0.00     0.167 HD
ATOM     63  C   UNL     1      14.399   7.207   4.510  1.00  0.00     0.074 A 
ATOM     64  C   UNL     1      15.502   7.000   3.580  1.00  0.00     0.031 C 
ATOM     65  C   UNL     1      14.199   8.091   5.537  1.00  0.00     0.034 A 
BRANCH  52  66
ATOM     66  C   UNL     1       9.375   8.600   9.386  1.00  0.00     0.023 A 
ATOM     67  C   UNL     1      10.170   8.455  10.542  1.00  0.00     0.031 A 
ATOM     68  C   UNL     1       8.066   9.068   9.613  1.00  0.00     0.131 A 
ATOM     69  C   UNL     1       9.659   8.684  11.831  1.00  0.00     0.055 A 
ATOM     70  C   UNL     1       7.541   9.263  10.901  1.00  0.00     0.041 A 
ATOM     71  F   UNL     1       7.253   9.411   8.604  1.00  0.00    -0.206 F 
ATOM     72  C   UNL     1       8.337   9.066  12.020  1.00  0.00     0.022 A 
BRANCH  69  73
ATOM     73  S   UNL     1      10.772   8.500  13.249  1.00  0.00     0.124 S 
ATOM     74  O   UNL     1      11.097   7.078  13.201  1.00  0.00    -0.237 OA
ATOM     75  O   UNL     1      11.854   9.421  12.918  1.00  0.00    -0.237 OA
ATOM     76  O   UNL     1       9.944   8.907  14.384  1.00  0.00    -0.744 OA
ENDBRANCH  69  73
ENDBRANCH  52  66
BRANCH  53  77
ATOM     77  C   UNL     1      12.805   3.868   1.436  1.00  0.00     0.023 A 
ATOM     78  C   UNL     1      12.680   2.510   1.056  1.00  0.00     0.031 A 
ATOM     79  C   UNL     1      12.053   4.801   0.706  1.00  0.00     0.131 A 
ATOM     80  C   UNL     1      11.729   2.108   0.098  1.00  0.00     0.055 A 
ATOM     81  C   UNL     1      11.139   4.399  -0.286  1.00  0.00     0.041 A 
ATOM     82  F   UNL     1      12.099   6.106   1.010  1.00  0.00    -0.206 F 
ATOM     83  C   UNL     1      10.945   3.045  -0.569  1.00  0.00     0.022 A 
BRANCH  80  84
ATOM     84  S   UNL     1      11.417   0.327  -0.107  1.00  0.00     0.124 S 
ATOM     85  O   UNL     1      12.731  -0.174  -0.498  1.00  0.00    -0.237 OA
ATOM     86  O   UNL     1      10.964  -0.046   1.232  1.00  0.00    -0.237 OA
ATOM     87  O   UNL     1      10.398   0.260  -1.149  1.00  0.00    -0.744 OA
ENDBRANCH  80  84
ENDBRANCH  53  77
BRANCH  65  88
ATOM     88  C   UNL     1      14.953   9.386   5.700  1.00  0.00     0.023 A 
ATOM     89  C   UNL     1      15.709   9.935   4.663  1.00  0.00     0.031 A 
ATOM     90  C   UNL     1      14.854  10.175   6.874  1.00  0.00     0.131 A 
ATOM     91  C   UNL     1      16.436  11.116   4.845  1.00  0.00     0.055 A 
ATOM     92  C   UNL     1      15.473  11.419   7.004  1.00  0.00     0.041 A 
ATOM     93  F   UNL     1      14.143   9.784   7.941  1.00  0.00    -0.206 F 
ATOM     94  C   UNL     1      16.299  11.885   5.995  1.00  0.00     0.022 A 
BRANCH  91  95
ATOM     95  S   UNL     1      17.659  11.531   3.583  1.00  0.00     0.124 S 
ATOM     96  O   UNL     1      18.537  10.364   3.627  1.00  0.00    -0.237 OA
ATOM     97  O   UNL     1      16.841  11.659   2.381  1.00  0.00    -0.237 OA
ATOM     98  O   UNL     1      18.250  12.773   4.074  1.00  0.00    -0.744 OA
ENDBRANCH  91  95
ENDBRANCH  65  88
ENDBRANCH  39  40
ENDBRANCH  32  34
ENDBRANCH  31  32
ENDBRANCH  30  31
ENDBRANCH   1  30
TORSDOF 20
