REMARK SMILES O=C(COc1ccc(S(=O)(=O)NC[C@@H]2CCCO2)cc1)OCCOC(=O)c1ccc(-c2c3nc(c(-c4cc(S(=O)(=O)[O-])ccc4F)c4ccc([nH]4)c(-c4cc(S(=O)(=O)[O-])ccc4F)c4nc(c(-c5cc(S(=O)(=O)[O-])ccc5F)c5ccc2[nH]5)C=C4)C=C3)cc1
REMARK SMILES IDX 21 1 2 2 1 3 3 4 4 5 5 6 6 7 20 8 7 9 19 10 8 11 9 12 10 13
REMARK SMILES IDX 11 14 12 15 13 17 14 18 15 19 18 20 16 21 17 22 22 23 23 24
REMARK SMILES IDX 24 25 25 26 26 27 27 28 28 29 89 30 29 31 88 32 30 33 31 34
REMARK SMILES IDX 32 35 82 36 33 37 87 38 81 39 83 40 34 41 86 42 80 43 79 44
REMARK SMILES IDX 35 46 67 47 47 48 66 49 48 50 51 51 65 52 84 53 49 54 50 55
REMARK SMILES IDX 64 57 85 58 52 59 36 60 37 61 45 62 38 63 44 64 46 65 43 66
REMARK SMILES IDX 39 67 40 68 41 69 42 70 68 71 69 72 77 73 70 74 76 75 78 76
REMARK SMILES IDX 75 77 71 78 72 79 73 80 74 81 53 82 54 83 62 84 55 85 61 86
REMARK SMILES IDX 63 87 60 88 56 89 57 90 58 91 59 92
REMARK H PARENT 12 16 83 45 51 56
REMARK Flexibility Score: inf
ROOT
ATOM      1  O   UNL     1       3.366   0.901  -0.473  1.00  0.00    -0.460 OA
ENDROOT
BRANCH   1   2
ATOM      2  C   UNL     1       2.617  -0.171  -0.114  1.00  0.00     0.344 C 
ATOM      3  O   UNL     1       1.390  -0.099  -0.128  1.00  0.00    -0.248 OA
BRANCH   2   4
ATOM      4  C   UNL     1       3.338  -1.481   0.193  1.00  0.00     0.351 C 
BRANCH   4   5
ATOM      5  O   UNL     1       4.074  -2.016  -0.906  1.00  0.00    -0.482 OA
BRANCH   5   6
ATOM      6  C   UNL     1       3.272  -2.798  -1.693  1.00  0.00     0.120 A 
ATOM      7  C   UNL     1       3.612  -4.140  -1.840  1.00  0.00     0.048 A 
ATOM      8  C   UNL     1       2.160  -2.272  -2.351  1.00  0.00     0.048 A 
ATOM      9  C   UNL     1       2.825  -4.963  -2.647  1.00  0.00     0.025 A 
ATOM     10  C   UNL     1       1.338  -3.100  -3.101  1.00  0.00     0.025 A 
ATOM     11  C   UNL     1       1.693  -4.434  -3.280  1.00  0.00     0.082 A 
BRANCH  11  12
ATOM     12  S   UNL     1       0.831  -5.457  -4.439  1.00  0.00     0.240 S 
ATOM     13  O   UNL     1       1.815  -5.940  -5.381  1.00  0.00    -0.207 OA
ATOM     14  O   UNL     1       0.005  -6.361  -3.671  1.00  0.00    -0.207 OA
BRANCH  12  15
ATOM     15  N   UNL     1      -0.232  -4.428  -5.233  1.00  0.00    -0.209 NA
ATOM     16  H   UNL     1      -0.723  -3.914  -4.501  1.00  0.00     0.141 HD
BRANCH  15  17
ATOM     17  C   UNL     1       0.198  -3.418  -6.214  1.00  0.00     0.130 C 
BRANCH  17  18
ATOM     18  C   UNL     1       0.908  -3.991  -7.431  1.00  0.00     0.133 C 
ATOM     19  C   UNL     1       1.039  -2.994  -8.568  1.00  0.00     0.036 C 
ATOM     20  O   UNL     1       0.163  -5.064  -8.023  1.00  0.00    -0.377 OA
ATOM     21  C   UNL     1       1.354  -3.912  -9.728  1.00  0.00     0.031 C 
ATOM     22  C   UNL     1       0.667  -5.218  -9.356  1.00  0.00     0.160 C 
ENDBRANCH  17  18
ENDBRANCH  15  17
ENDBRANCH  12  15
ENDBRANCH  11  12
ENDBRANCH   5   6
ENDBRANCH   4   5
ENDBRANCH   2   4
ENDBRANCH   1   2
BRANCH   1  23
ATOM     23  C   UNL     1       4.716   1.087  -0.004  1.00  0.00     0.274 C 
BRANCH  23  24
ATOM     24  C   UNL     1       4.721   1.702   1.398  1.00  0.00     0.275 C 
BRANCH  24  25
ATOM     25  O   UNL     1       4.204   0.750   2.347  1.00  0.00    -0.458 OA
BRANCH  25  26
ATOM     26  C   UNL     1       2.920   0.949   2.746  1.00  0.00     0.338 C 
ATOM     27  O   UNL     1       2.230   1.919   2.487  1.00  0.00    -0.246 OA
BRANCH  26  28
ATOM     28  C   UNL     1       2.411  -0.293   3.378  1.00  0.00     0.060 A 
ATOM     29  C   UNL     1       1.069  -0.639   3.172  1.00  0.00     0.016 A 
ATOM     30  C   UNL     1       3.233  -1.117   4.156  1.00  0.00     0.016 A 
ATOM     31  C   UNL     1       0.530  -1.765   3.797  1.00  0.00     0.010 A 
ATOM     32  C   UNL     1       2.693  -2.245   4.783  1.00  0.00     0.010 A 
ATOM     33  C   UNL     1       1.327  -2.545   4.646  1.00  0.00    -0.014 A 
BRANCH  33  34
ATOM     34  C   UNL     1       0.675  -3.501   5.576  1.00  0.00     0.031 A 
ATOM     35  C   UNL     1       0.296  -3.000   6.946  1.00  0.00     0.074 A 
ATOM     36  C   UNL     1       0.398  -4.768   5.219  1.00  0.00     0.049 A 
ATOM     37  N   UNL     1      -0.336  -3.611   7.913  1.00  0.00    -0.248 NA
ATOM     38  C   UNL     1       0.694  -1.619   7.263  1.00  0.00     0.031 C 
ATOM     39  C   UNL     1       0.706  -5.373   3.925  1.00  0.00     0.029 A 
ATOM     40  N   UNL     1      -0.213  -5.775   5.925  1.00  0.00    -0.354 N 
ATOM     41  C   UNL     1      -0.430  -2.683   8.946  1.00  0.00     0.074 A 
ATOM     42  C   UNL     1       0.264  -1.492   8.507  1.00  0.00     0.031 C 
ATOM     43  C   UNL     1       0.286  -6.651   3.932  1.00  0.00     0.029 A 
ATOM     44  C   UNL     1      -0.314  -6.957   5.231  1.00  0.00     0.049 A 
ATOM     45  H   UNL     1      -0.547  -5.661   6.844  1.00  0.00     0.167 HD
ATOM     46  C   UNL     1      -1.055  -2.801  10.143  1.00  0.00     0.034 A 
ATOM     47  C   UNL     1      -0.834  -8.144   5.604  1.00  0.00     0.034 A 
ATOM     48  C   UNL     1      -1.718  -4.000  10.588  1.00  0.00     0.049 A 
ATOM     49  C   UNL     1      -1.470  -8.276   6.969  1.00  0.00     0.074 A 
ATOM     50  C   UNL     1      -2.384  -4.229  11.779  1.00  0.00     0.029 A 
ATOM     51  N   UNL     1      -1.782  -5.183   9.863  1.00  0.00    -0.354 N 
ATOM     52  N   UNL     1      -1.598  -7.375   7.915  1.00  0.00    -0.248 NA
ATOM     53  C   UNL     1      -2.051  -9.584   7.304  1.00  0.00     0.031 C 
ATOM     54  C   UNL     1      -2.802  -5.566  11.798  1.00  0.00     0.029 A 
ATOM     55  C   UNL     1      -2.453  -6.152  10.591  1.00  0.00     0.049 A 
ATOM     56  H   UNL     1      -1.406  -5.314   8.963  1.00  0.00     0.167 HD
ATOM     57  C   UNL     1      -2.316  -7.996   8.936  1.00  0.00     0.074 A 
ATOM     58  C   UNL     1      -2.590  -9.345   8.490  1.00  0.00     0.031 C 
ATOM     59  C   UNL     1      -2.722  -7.493  10.131  1.00  0.00     0.034 A 
BRANCH  46  60
ATOM     60  C   UNL     1      -0.998  -1.604  11.059  1.00  0.00     0.023 A 
ATOM     61  C   UNL     1      -1.617  -0.389  10.715  1.00  0.00     0.031 A 
ATOM     62  C   UNL     1      -0.261  -1.656  12.253  1.00  0.00     0.131 A 
ATOM     63  C   UNL     1      -1.420   0.746  11.515  1.00  0.00     0.055 A 
ATOM     64  C   UNL     1      -0.133  -0.543  13.086  1.00  0.00     0.041 A 
ATOM     65  F   UNL     1       0.372  -2.782  12.617  1.00  0.00    -0.206 F 
ATOM     66  C   UNL     1      -0.701   0.672  12.710  1.00  0.00     0.022 A 
BRANCH  63  67
ATOM     67  S   UNL     1      -1.986   2.354  10.894  1.00  0.00     0.124 S 
ATOM     68  O   UNL     1      -1.239   2.466   9.643  1.00  0.00    -0.237 OA
ATOM     69  O   UNL     1      -3.424   2.155  10.766  1.00  0.00    -0.237 OA
ATOM     70  O   UNL     1      -1.575   3.289  11.940  1.00  0.00    -0.744 OA
ENDBRANCH  63  67
ENDBRANCH  46  60
BRANCH  47  71
ATOM     71  C   UNL     1      -0.780  -9.318   4.688  1.00  0.00     0.023 A 
ATOM     72  C   UNL     1      -1.952  -9.884   4.162  1.00  0.00     0.031 A 
ATOM     73  C   UNL     1       0.446  -9.940   4.390  1.00  0.00     0.131 A 
ATOM     74  C   UNL     1      -1.881 -11.069   3.412  1.00  0.00     0.055 A 
ATOM     75  C   UNL     1       0.516 -11.091   3.603  1.00  0.00     0.041 A 
ATOM     76  F   UNL     1       1.595  -9.438   4.869  1.00  0.00    -0.206 F 
ATOM     77  C   UNL     1      -0.654 -11.670   3.121  1.00  0.00     0.022 A 
BRANCH  74  78
ATOM     78  S   UNL     1      -3.428 -11.867   2.899  1.00  0.00     0.124 S 
ATOM     79  O   UNL     1      -4.076 -12.110   4.182  1.00  0.00    -0.237 OA
ATOM     80  O   UNL     1      -4.035 -10.840   2.058  1.00  0.00    -0.237 OA
ATOM     81  O   UNL     1      -2.976 -13.063   2.191  1.00  0.00    -0.744 OA
ENDBRANCH  74  78
ENDBRANCH  47  71
BRANCH  59  82
ATOM     82  C   UNL     1      -3.563  -8.390  11.005  1.00  0.00     0.023 A 
ATOM     83  C   UNL     1      -3.036  -9.540  11.617  1.00  0.00     0.031 A 
ATOM     84  C   UNL     1      -4.921  -8.090  11.216  1.00  0.00     0.131 A 
ATOM     85  C   UNL     1      -3.875 -10.377  12.370  1.00  0.00     0.055 A 
ATOM     86  C   UNL     1      -5.738  -8.898  12.007  1.00  0.00     0.041 A 
ATOM     87  F   UNL     1      -5.475  -7.002  10.656  1.00  0.00    -0.206 F 
ATOM     88  C   UNL     1      -5.220 -10.056  12.578  1.00  0.00     0.022 A 
BRANCH  85  89
ATOM     89  S   UNL     1      -3.209 -11.941  13.003  1.00  0.00     0.124 S 
ATOM     90  O   UNL     1      -2.715 -12.579  11.787  1.00  0.00    -0.237 OA
ATOM     91  O   UNL     1      -2.189 -11.486  13.943  1.00  0.00    -0.237 OA
ATOM     92  O   UNL     1      -4.369 -12.587  13.614  1.00  0.00    -0.744 OA
ENDBRANCH  85  89
ENDBRANCH  59  82
ENDBRANCH  33  34
ENDBRANCH  26  28
ENDBRANCH  25  26
ENDBRANCH  24  25
ENDBRANCH  23  24
ENDBRANCH   1  23
TORSDOF 20
