REMARK SMILES CC[C@@H](NC(=O)N1CCO[C@H](CC(=O)OCCOC(=O)c2ccc(-c3c4nc(c(-c5cc(S(=O)(=O)[O-])ccc5F)c5ccc([nH]5)c(-c5cc(S(=O)(=O)[O-])ccc5F)c5nc(c(-c6cc(S(=O)(=O)[O-])ccc6F)c6ccc3[nH]6)C=C5)C=C4)cc2)C1)c1cccs1
REMARK SMILES IDX 16 1 15 2 13 3 14 4 12 5 11 6 7 7 8 8 84 9 9 10 10 11 5 12
REMARK SMILES IDX 4 13 6 15 3 16 2 17 1 18 85 19 86 20 89 21 87 22 88 23 17 24
REMARK SMILES IDX 18 25 19 26 20 27 21 28 22 29 83 30 23 31 82 32 24 33 25 34
REMARK SMILES IDX 26 35 76 36 27 37 81 38 75 39 77 40 28 41 80 42 74 43 73 44
REMARK SMILES IDX 29 46 61 47 41 48 60 49 42 50 45 51 59 52 78 53 43 54 44 55
REMARK SMILES IDX 58 57 79 58 46 59 30 60 31 61 39 62 32 63 38 64 40 65 37 66
REMARK SMILES IDX 33 67 34 68 35 69 36 70 62 71 63 72 71 73 64 74 70 75 72 76
REMARK SMILES IDX 69 77 65 78 66 79 67 80 68 81 47 82 48 83 56 84 49 85 55 86
REMARK SMILES IDX 57 87 54 88 50 89 51 90 52 91 53 92
REMARK H PARENT 4 14 77 45 45 56
REMARK Flexibility Score: inf
ROOT
ATOM      1  C   UNL     1      -5.588  -0.990   3.772  1.00  0.00     0.274 C 
ENDROOT
BRANCH   1   2
ATOM      2  O   UNL     1      -5.210  -2.279   4.335  1.00  0.00    -0.462 OA
BRANCH   2   3
ATOM      3  C   UNL     1      -5.244  -3.332   3.462  1.00  0.00     0.308 C 
ATOM      4  O   UNL     1      -5.960  -3.362   2.464  1.00  0.00    -0.252 OA
BRANCH   3   5
ATOM      5  C   UNL     1      -4.210  -4.416   3.745  1.00  0.00     0.156 C 
BRANCH   5   6
ATOM      6  C   UNL     1      -3.505  -4.425   5.107  1.00  0.00     0.149 C 
ATOM      7  N   UNL     1      -1.279  -3.421   4.529  1.00  0.00    -0.320 N 
ATOM      8  C   UNL     1      -0.659  -4.737   4.690  1.00  0.00     0.150 C 
ATOM      9  C   UNL     1      -2.471  -3.316   5.378  1.00  0.00     0.154 C 
ATOM     10  C   UNL     1      -1.671  -5.886   4.536  1.00  0.00     0.182 C 
ATOM     11  O   UNL     1      -2.860  -5.710   5.336  1.00  0.00    -0.374 OA
BRANCH   7  12
ATOM     12  C   UNL     1      -0.444  -2.342   4.542  1.00  0.00     0.318 C 
ATOM     13  N   UNL     1       0.212  -1.912   3.448  1.00  0.00    -0.330 N 
ATOM     14  H   UNL     1       1.008  -1.417   3.749  1.00  0.00     0.166 HD
ATOM     15  O   UNL     1      -0.254  -1.698   5.580  1.00  0.00    -0.249 OA
BRANCH  13  16
ATOM     16  C   UNL     1       0.199  -1.893   1.781  1.00  0.00     0.124 C 
BRANCH  16  17
ATOM     17  C   UNL     1      -0.415  -0.281   0.403  1.00  0.00     0.027 C 
ATOM     18  C   UNL     1       0.261   1.206  -0.152  1.00  0.00     0.006 C 
ENDBRANCH  16  17
BRANCH  16  19
ATOM     19  C   UNL     1       0.304  -3.667   1.541  1.00  0.00     0.027 A 
ATOM     20  C   UNL     1       1.493  -4.397   1.622  1.00  0.00     0.017 A 
ATOM     21  S   UNL     1      -1.000  -4.767   1.222  1.00  0.00    -0.147 S 
ATOM     22  C   UNL     1       1.343  -5.780   1.316  1.00  0.00     0.012 A 
ATOM     23  C   UNL     1       0.037  -6.105   1.047  1.00  0.00     0.065 A 
ENDBRANCH  16  19
ENDBRANCH  13  16
ENDBRANCH   7  12
ENDBRANCH   5   6
ENDBRANCH   3   5
ENDBRANCH   2   3
ENDBRANCH   1   2
BRANCH   1  24
ATOM     24  C   UNL     1      -4.534   0.099   4.121  1.00  0.00     0.275 C 
BRANCH  24  25
ATOM     25  O   UNL     1      -3.376   0.263   3.251  1.00  0.00    -0.458 OA
BRANCH  25  26
ATOM     26  C   UNL     1      -2.810  -0.868   2.818  1.00  0.00     0.338 C 
ATOM     27  O   UNL     1      -3.245  -1.995   2.924  1.00  0.00    -0.246 OA
BRANCH  26  28
ATOM     28  C   UNL     1      -1.604  -0.812   2.048  1.00  0.00     0.060 A 
ATOM     29  C   UNL     1      -1.590  -1.959   0.666  1.00  0.00     0.016 A 
ATOM     30  C   UNL     1      -0.145   0.161   2.414  1.00  0.00     0.016 A 
ATOM     31  C   UNL     1      -0.086  -2.209  -0.314  1.00  0.00     0.010 A 
ATOM     32  C   UNL     1       1.365  -0.106   1.469  1.00  0.00     0.010 A 
ATOM     33  C   UNL     1       1.392  -1.266   0.067  1.00  0.00    -0.014 A 
BRANCH  33  34
ATOM     34  C   UNL     1       2.600  -1.366  -0.798  1.00  0.00     0.031 A 
ATOM     35  C   UNL     1       3.973  -1.455  -0.182  1.00  0.00     0.074 A 
ATOM     36  C   UNL     1       2.454  -1.261  -2.137  1.00  0.00     0.049 A 
ATOM     37  N   UNL     1       5.147  -1.327  -0.745  1.00  0.00    -0.248 NA
ATOM     38  C   UNL     1       4.043  -1.699   1.265  1.00  0.00     0.031 C 
ATOM     39  C   UNL     1       1.185  -1.142  -2.862  1.00  0.00     0.029 A 
ATOM     40  N   UNL     1       3.393  -1.179  -3.138  1.00  0.00    -0.354 N 
ATOM     41  C   UNL     1       6.082  -1.457   0.281  1.00  0.00     0.074 A 
ATOM     42  C   UNL     1       5.341  -1.635   1.505  1.00  0.00     0.031 C 
ATOM     43  C   UNL     1       1.417  -0.995  -4.170  1.00  0.00     0.029 A 
ATOM     44  C   UNL     1       2.849  -0.919  -4.378  1.00  0.00     0.049 A 
ATOM     45  H   UNL     1       4.358  -1.295  -2.984  1.00  0.00     0.167 HD
ATOM     46  C   UNL     1       7.436  -1.434   0.213  1.00  0.00     0.034 A 
ATOM     47  C   UNL     1       3.423  -0.591  -5.550  1.00  0.00     0.034 A 
ATOM     48  C   UNL     1       8.155  -1.231  -1.018  1.00  0.00     0.049 A 
ATOM     49  C   UNL     1       4.917  -0.528  -5.606  1.00  0.00     0.074 A 
ATOM     50  C   UNL     1       9.520  -1.183  -1.228  1.00  0.00     0.029 A 
ATOM     51  N   UNL     1       7.552  -1.032  -2.254  1.00  0.00    -0.354 N 
ATOM     52  N   UNL     1       5.778  -0.662  -4.623  1.00  0.00    -0.248 NA
ATOM     53  C   UNL     1       5.519  -0.296  -6.920  1.00  0.00     0.031 C 
ATOM     54  C   UNL     1       9.742  -0.907  -2.583  1.00  0.00     0.029 A 
ATOM     55  C   UNL     1       8.517  -0.848  -3.228  1.00  0.00     0.049 A 
ATOM     56  H   UNL     1       6.580  -1.022  -2.413  1.00  0.00     0.167 HD
ATOM     57  C   UNL     1       7.032  -0.569  -5.210  1.00  0.00     0.074 A 
ATOM     58  C   UNL     1       6.810  -0.365  -6.630  1.00  0.00     0.031 C 
ATOM     59  C   UNL     1       8.257  -0.653  -4.633  1.00  0.00     0.034 A 
BRANCH  46  60
ATOM     60  C   UNL     1       8.199  -1.577   1.512  1.00  0.00     0.023 A 
ATOM     61  C   UNL     1       8.110  -2.742   2.298  1.00  0.00     0.031 A 
ATOM     62  C   UNL     1       8.972  -0.513   2.008  1.00  0.00     0.131 A 
ATOM     63  C   UNL     1       8.707  -2.780   3.568  1.00  0.00     0.055 A 
ATOM     64  C   UNL     1       9.635  -0.590   3.236  1.00  0.00     0.041 A 
ATOM     65  F   UNL     1       9.075   0.635   1.320  1.00  0.00    -0.206 F 
ATOM     66  C   UNL     1       9.490  -1.722   4.033  1.00  0.00     0.022 A 
BRANCH  63  67
ATOM     67  S   UNL     1       8.312  -4.168   4.669  1.00  0.00     0.124 S 
ATOM     68  O   UNL     1       6.865  -4.024   4.811  1.00  0.00    -0.237 OA
ATOM     69  O   UNL     1       8.764  -5.321   3.899  1.00  0.00    -0.237 OA
ATOM     70  O   UNL     1       9.084  -3.880   5.875  1.00  0.00    -0.744 OA
ENDBRANCH  63  67
ENDBRANCH  46  60
BRANCH  47  71
ATOM     71  C   UNL     1       2.569  -0.276  -6.731  1.00  0.00     0.023 A 
ATOM     72  C   UNL     1       2.517  -1.133  -7.839  1.00  0.00     0.031 A 
ATOM     73  C   UNL     1       1.746   0.868  -6.742  1.00  0.00     0.131 A 
ATOM     74  C   UNL     1       1.673  -0.829  -8.919  1.00  0.00     0.055 A 
ATOM     75  C   UNL     1       0.877   1.143  -7.799  1.00  0.00     0.041 A 
ATOM     76  F   UNL     1       1.741   1.710  -5.696  1.00  0.00    -0.206 F 
ATOM     77  C   UNL     1       0.843   0.295  -8.901  1.00  0.00     0.022 A 
BRANCH  74  78
ATOM     78  S   UNL     1       1.706  -1.907 -10.377  1.00  0.00     0.124 S 
ATOM     79  O   UNL     1       3.125  -1.910 -10.716  1.00  0.00    -0.237 OA
ATOM     80  O   UNL     1       1.171  -3.154  -9.841  1.00  0.00    -0.237 OA
ATOM     81  O   UNL     1       0.839  -1.217 -11.330  1.00  0.00    -0.744 OA
ENDBRANCH  74  78
ENDBRANCH  47  71
BRANCH  59  82
ATOM     82  C   UNL     1       9.434  -0.597  -5.562  1.00  0.00     0.023 A 
ATOM     83  C   UNL     1       9.801   0.593  -6.209  1.00  0.00     0.031 A 
ATOM     84  C   UNL     1      10.181  -1.760  -5.814  1.00  0.00     0.131 A 
ATOM     85  C   UNL     1      10.856   0.580  -7.129  1.00  0.00     0.055 A 
ATOM     86  C   UNL     1      11.265  -1.754  -6.689  1.00  0.00     0.041 A 
ATOM     87  F   UNL     1       9.862  -2.919  -5.216  1.00  0.00    -0.206 F 
ATOM     88  C   UNL     1      11.600  -0.582  -7.362  1.00  0.00     0.022 A 
BRANCH  85  89
ATOM     89  S   UNL     1      11.193   2.085  -8.078  1.00  0.00     0.124 S 
ATOM     90  O   UNL     1       9.948   2.258  -8.820  1.00  0.00    -0.237 OA
ATOM     91  O   UNL     1      11.451   3.066  -7.029  1.00  0.00    -0.237 OA
ATOM     92  O   UNL     1      12.354   1.726  -8.889  1.00  0.00    -0.744 OA
ENDBRANCH  85  89
ENDBRANCH  59  82
ENDBRANCH  33  34
ENDBRANCH  26  28
ENDBRANCH  25  26
ENDBRANCH  24  25
ENDBRANCH   1  24
TORSDOF 19
