REMARK SMILES CCCc1cc2c(cc1Cl)C=C(C(=O)OCCOC(=O)c1ccc(-c3c4nc(c(-c5cc(S(=O)(=O)[O-])ccc5F)c5ccc([nH]5)c(-c5cc(S(=O)(=O)[O-])ccc5F)c5nc(c(-c6cc(S(=O)(=O)[O-])ccc6F)c6ccc3[nH]6)C=C5)C=C4)cc1)[C@@H](C(F)(F)F)O2
REMARK SMILES IDX 17 1 16 2 15 3 13 4 14 5 12 6 4 7 5 8 9 9 6 10 8 11 10 12
REMARK SMILES IDX 7 13 89 14 11 15 84 16 3 17 2 18 1 19 85 20 86 21 87 22
REMARK SMILES IDX 88 23 18 24 19 25 20 26 21 27 22 28 83 29 23 30 82 31 24 32
REMARK SMILES IDX 25 33 26 34 76 35 27 36 81 37 75 38 77 39 28 40 80 41 74 42
REMARK SMILES IDX 73 43 29 45 61 46 41 47 60 48 42 49 45 50 59 51 78 52 43 53
REMARK SMILES IDX 44 54 58 56 79 57 46 58 30 59 31 60 39 61 32 62 38 63 40 64
REMARK SMILES IDX 37 65 33 66 34 67 35 68 36 69 62 70 63 71 71 72 64 73 70 74
REMARK SMILES IDX 72 75 69 76 65 77 66 78 67 79 68 80 47 81 48 82 56 83 49 84
REMARK SMILES IDX 55 85 57 86 54 87 50 88 51 89 52 90 53 91
REMARK H PARENT 77 44 45 55
REMARK Flexibility Score: inf
ROOT
ATOM      1  C   UNL     1      -2.941   8.583  -5.221  1.00  0.00     0.275 C 
ENDROOT
BRANCH   1   2
ATOM      2  C   UNL     1      -2.062   7.449  -5.757  1.00  0.00     0.275 C 
BRANCH   2   3
ATOM      3  O   UNL     1      -1.892   6.396  -4.784  1.00  0.00    -0.459 OA
BRANCH   3   4
ATOM      4  C   UNL     1      -0.683   6.346  -4.175  1.00  0.00     0.338 C 
ATOM      5  O   UNL     1       0.269   7.079  -4.399  1.00  0.00    -0.246 OA
BRANCH   4   6
ATOM      6  C   UNL     1      -0.667   5.299  -3.133  1.00  0.00     0.087 C 
ATOM      7  C   UNL     1       0.464   2.489   0.882  1.00  0.00    -0.026 A 
ATOM      8  C   UNL     1      -0.317   2.284  -0.274  1.00  0.00     0.052 A 
ATOM      9  C   UNL     1       0.911   3.796   1.152  1.00  0.00     0.045 A 
ATOM     10  C   UNL     1      -0.508   3.302  -1.206  1.00  0.00     0.128 A 
ATOM     11  C   UNL     1       0.692   4.823   0.239  1.00  0.00     0.032 A 
ATOM     12  Cl  UNL     1       1.775   4.191   2.596  1.00  0.00    -0.084 Cl
ATOM     13  C   UNL     1       0.033   4.556  -0.963  1.00  0.00     0.019 A 
ATOM     14  O   UNL     1      -1.223   2.995  -2.331  1.00  0.00    -0.475 OA
ATOM     15  C   UNL     1      -0.051   5.577  -1.979  1.00  0.00     0.027 C 
ATOM     16  C   UNL     1      -1.196   3.930  -3.450  1.00  0.00     0.316 C 
BRANCH   7  17
ATOM     17  C   UNL     1       0.850   1.357   1.812  1.00  0.00     0.037 C 
BRANCH  17  18
ATOM     18  C   UNL     1       0.580  -0.080   1.353  1.00  0.00     0.001 C 
ATOM     19  C   UNL     1       1.422  -0.509   0.155  1.00  0.00     0.004 C 
ENDBRANCH  17  18
ENDBRANCH   7  17
BRANCH  16  20
ATOM     20  C   UNL     1      -0.381   3.307  -4.597  1.00  0.00     0.430 C 
ATOM     21  F   UNL     1      -0.806   2.053  -4.886  1.00  0.00    -0.167 F 
ATOM     22  F   UNL     1      -0.498   4.024  -5.741  1.00  0.00    -0.167 F 
ATOM     23  F   UNL     1       0.938   3.227  -4.306  1.00  0.00    -0.167 F 
ENDBRANCH  16  20
ENDBRANCH   4   6
ENDBRANCH   3   4
ENDBRANCH   2   3
ENDBRANCH   1   2
BRANCH   1  24
ATOM     24  O   UNL     1      -2.266   9.328  -4.191  1.00  0.00    -0.458 OA
BRANCH  24  25
ATOM     25  C   UNL     1      -2.599   8.977  -2.927  1.00  0.00     0.338 C 
ATOM     26  O   UNL     1      -3.402   8.126  -2.587  1.00  0.00    -0.246 OA
BRANCH  25  27
ATOM     27  C   UNL     1      -1.714   9.659  -1.973  1.00  0.00     0.060 A 
ATOM     28  C   UNL     1      -2.078  10.804  -1.284  1.00  0.00     0.016 A 
ATOM     29  C   UNL     1      -0.534   9.008  -1.647  1.00  0.00     0.016 A 
ATOM     30  C   UNL     1      -1.224  11.287  -0.280  1.00  0.00     0.010 A 
ATOM     31  C   UNL     1       0.213   9.378  -0.538  1.00  0.00     0.010 A 
ATOM     32  C   UNL     1      -0.083  10.561   0.136  1.00  0.00    -0.014 A 
BRANCH  32  33
ATOM     33  C   UNL     1       0.791  11.039   1.251  1.00  0.00     0.031 A 
ATOM     34  C   UNL     1       2.290  11.190   1.079  1.00  0.00     0.074 A 
ATOM     35  C   UNL     1       0.234  11.329   2.446  1.00  0.00     0.049 A 
ATOM     36  N   UNL     1       3.165  11.701   1.910  1.00  0.00    -0.248 NA
ATOM     37  C   UNL     1       2.902  10.664  -0.155  1.00  0.00     0.031 C 
ATOM     38  C   UNL     1      -1.167  11.092   2.796  1.00  0.00     0.029 A 
ATOM     39  N   UNL     1       0.758  11.912   3.576  1.00  0.00    -0.354 N 
ATOM     40  C   UNL     1       4.409  11.549   1.303  1.00  0.00     0.074 A 
ATOM     41  C   UNL     1       4.196  10.803   0.089  1.00  0.00     0.031 C 
ATOM     42  C   UNL     1      -1.417  11.619   4.002  1.00  0.00     0.029 A 
ATOM     43  C   UNL     1      -0.185  12.187   4.542  1.00  0.00     0.049 A 
ATOM     44  H   UNL     1       1.716  12.114   3.684  1.00  0.00     0.167 HD
ATOM     45  C   UNL     1       5.613  12.039   1.686  1.00  0.00     0.034 A 
ATOM     46  C   UNL     1      -0.084  12.849   5.714  1.00  0.00     0.034 A 
ATOM     47  C   UNL     1       5.802  12.828   2.874  1.00  0.00     0.049 A 
ATOM     48  C   UNL     1       1.245  13.456   6.089  1.00  0.00     0.074 A 
ATOM     49  C   UNL     1       6.958  13.445   3.315  1.00  0.00     0.029 A 
ATOM     50  N   UNL     1       4.812  13.122   3.800  1.00  0.00    -0.354 N 
ATOM     51  N   UNL     1       2.381  13.421   5.432  1.00  0.00    -0.248 NA
ATOM     52  C   UNL     1       1.307  14.215   7.346  1.00  0.00     0.031 C 
ATOM     53  C   UNL     1       6.686  14.052   4.540  1.00  0.00     0.029 A 
ATOM     54  C   UNL     1       5.337  13.897   4.819  1.00  0.00     0.049 A 
ATOM     55  H   UNL     1       3.876  12.824   3.741  1.00  0.00     0.167 HD
ATOM     56  C   UNL     1       3.281  14.177   6.178  1.00  0.00     0.074 A 
ATOM     57  C   UNL     1       2.549  14.680   7.321  1.00  0.00     0.031 C 
ATOM     58  C   UNL     1       4.593  14.425   5.939  1.00  0.00     0.034 A 
BRANCH  45  59
ATOM     59  C   UNL     1       6.817  11.809   0.797  1.00  0.00     0.023 A 
ATOM     60  C   UNL     1       7.961  11.164   1.304  1.00  0.00     0.031 A 
ATOM     61  C   UNL     1       6.888  12.355  -0.499  1.00  0.00     0.131 A 
ATOM     62  C   UNL     1       9.134  11.119   0.539  1.00  0.00     0.055 A 
ATOM     63  C   UNL     1       8.041  12.256  -1.280  1.00  0.00     0.041 A 
ATOM     64  F   UNL     1       5.832  12.992  -1.032  1.00  0.00    -0.206 F 
ATOM     65  C   UNL     1       9.176  11.650  -0.754  1.00  0.00     0.022 A 
BRANCH  62  66
ATOM     66  S   UNL     1      10.677  10.449   1.220  1.00  0.00     0.124 S 
ATOM     67  O   UNL     1      10.995   9.393   0.262  1.00  0.00    -0.237 OA
ATOM     68  O   UNL     1      11.557  11.613   1.179  1.00  0.00    -0.237 OA
ATOM     69  O   UNL     1      10.301   9.987   2.552  1.00  0.00    -0.744 OA
ENDBRANCH  62  66
ENDBRANCH  45  59
BRANCH  46  70
ATOM     70  C   UNL     1      -1.313  13.061   6.538  1.00  0.00     0.023 A 
ATOM     71  C   UNL     1      -2.041  11.969   7.047  1.00  0.00     0.031 A 
ATOM     72  C   UNL     1      -1.848  14.348   6.720  1.00  0.00     0.131 A 
ATOM     73  C   UNL     1      -3.293  12.180   7.641  1.00  0.00     0.055 A 
ATOM     74  C   UNL     1      -3.057  14.561   7.387  1.00  0.00     0.041 A 
ATOM     75  F   UNL     1      -1.205  15.423   6.236  1.00  0.00    -0.206 F 
ATOM     76  C   UNL     1      -3.796  13.470   7.833  1.00  0.00     0.022 A 
BRANCH  73  77
ATOM     77  S   UNL     1      -4.378  10.782   8.041  1.00  0.00     0.124 S 
ATOM     78  O   UNL     1      -4.556  10.936   9.481  1.00  0.00    -0.237 OA
ATOM     79  O   UNL     1      -5.554  11.075   7.224  1.00  0.00    -0.237 OA
ATOM     80  O   UNL     1      -3.607   9.617   7.620  1.00  0.00    -0.744 OA
ENDBRANCH  73  77
ENDBRANCH  46  70
BRANCH  58  81
ATOM     81  C   UNL     1       5.359  15.308   6.897  1.00  0.00     0.023 A 
ATOM     82  C   UNL     1       5.960  16.490   6.421  1.00  0.00     0.031 A 
ATOM     83  C   UNL     1       5.642  14.901   8.211  1.00  0.00     0.131 A 
ATOM     84  C   UNL     1       6.854  17.195   7.235  1.00  0.00     0.055 A 
ATOM     85  C   UNL     1       6.487  15.640   9.040  1.00  0.00     0.041 A 
ATOM     86  F   UNL     1       5.110  13.771   8.706  1.00  0.00    -0.206 F 
ATOM     87  C   UNL     1       7.112  16.783   8.546  1.00  0.00     0.022 A 
BRANCH  84  88
ATOM     88  S   UNL     1       7.802  18.598   6.585  1.00  0.00     0.124 S 
ATOM     89  O   UNL     1       7.341  19.693   7.436  1.00  0.00    -0.237 OA
ATOM     90  O   UNL     1       9.180  18.170   6.813  1.00  0.00    -0.237 OA
ATOM     91  O   UNL     1       7.395  18.683   5.187  1.00  0.00    -0.744 OA
ENDBRANCH  84  88
ENDBRANCH  58  81
ENDBRANCH  32  33
ENDBRANCH  25  27
ENDBRANCH  24  25
ENDBRANCH   1  24
TORSDOF 17
