REMARK SMILES O=C(CCCC(=O)N1CCN(c2ncccn2)CC1)OCCOC(=O)c1ccc(-c2c3nc(c(-c4cc(S(=O)(=O)[O-])ccc4F)c4ccc([nH]4)c(-c4cc(S(=O)(=O)[O-])ccc4F)c4nc(c(-c5cc(S(=O)(=O)[O-])ccc5F)c5ccc2[nH]5)C=C4)C=C3)cc1
REMARK SMILES IDX 21 1 20 2 2 3 1 4 3 5 4 6 5 7 6 8 7 9 8 10 9 11 19 12 10 13
REMARK SMILES IDX 18 14 11 15 12 16 13 17 17 18 14 19 16 20 15 21 22 22 23 23
REMARK SMILES IDX 24 24 25 25 26 26 27 27 88 28 28 29 87 30 29 31 30 32 31 33
REMARK SMILES IDX 81 34 32 35 86 36 80 37 82 38 33 39 85 40 79 41 78 42 34 44
REMARK SMILES IDX 66 45 46 46 65 47 47 48 50 49 64 50 83 51 48 52 49 53 63 55
REMARK SMILES IDX 84 56 51 57 35 58 36 59 44 60 37 61 43 62 45 63 42 64 38 65
REMARK SMILES IDX 39 66 40 67 41 68 67 69 68 70 76 71 69 72 75 73 77 74 74 75
REMARK SMILES IDX 70 76 71 77 72 78 73 79 52 80 53 81 61 82 54 83 60 84 62 85
REMARK SMILES IDX 59 86 55 87 56 88 57 89 58 90
REMARK H PARENT 82 43 50 54
REMARK Flexibility Score: inf
ROOT
ATOM      1  C   UNL     1       3.197   0.715  -1.573  1.00  0.00     0.274 C 
ENDROOT
BRANCH   1   2
ATOM      2  O   UNL     1       2.455  -0.423  -2.001  1.00  0.00    -0.462 OA
BRANCH   2   3
ATOM      3  C   UNL     1       2.404  -1.637  -1.442  1.00  0.00     0.305 C 
ATOM      4  O   UNL     1       1.582  -2.433  -1.910  1.00  0.00    -0.252 OA
BRANCH   3   5
ATOM      5  C   UNL     1       3.161  -2.048  -0.188  1.00  0.00     0.123 C 
BRANCH   5   6
ATOM      6  C   UNL     1       4.606  -1.865   0.339  1.00  0.00     0.022 C 
BRANCH   6   7
ATOM      7  C   UNL     1       5.727  -0.994  -0.228  1.00  0.00     0.101 C 
BRANCH   7   8
ATOM      8  C   UNL     1       6.404   0.251   0.430  1.00  0.00     0.222 C 
ATOM      9  O   UNL     1       7.625   0.386   0.257  1.00  0.00    -0.275 OA
ATOM     10  N   UNL     1       5.695   1.289   1.028  1.00  0.00    -0.339 N 
ATOM     11  C   UNL     1       6.289   2.640   0.928  1.00  0.00     0.141 C 
ATOM     12  C   UNL     1       5.154   1.082   2.364  1.00  0.00     0.141 C 
ATOM     13  C   UNL     1       5.306   3.784   1.277  1.00  0.00     0.141 C 
ATOM     14  C   UNL     1       4.200   2.195   2.855  1.00  0.00     0.141 C 
ATOM     15  N   UNL     1       4.660   3.554   2.566  1.00  0.00    -0.337 N 
BRANCH  15  16
ATOM     16  C   UNL     1       3.691   4.478   2.980  1.00  0.00     0.225 A 
ATOM     17  N   UNL     1       3.197   5.368   2.102  1.00  0.00    -0.221 NA
ATOM     18  N   UNL     1       3.190   4.332   4.222  1.00  0.00    -0.221 NA
ATOM     19  C   UNL     1       2.113   6.077   2.491  1.00  0.00     0.117 A 
ATOM     20  C   UNL     1       2.126   5.081   4.575  1.00  0.00     0.117 A 
ATOM     21  C   UNL     1       1.524   5.971   3.727  1.00  0.00     0.040 A 
ENDBRANCH  15  16
ENDBRANCH   7   8
ENDBRANCH   6   7
ENDBRANCH   5   6
ENDBRANCH   3   5
ENDBRANCH   2   3
ENDBRANCH   1   2
BRANCH   1  22
ATOM     22  C   UNL     1       2.625   1.401  -0.347  1.00  0.00     0.275 C 
BRANCH  22  23
ATOM     23  O   UNL     1       2.494   0.511   0.779  1.00  0.00    -0.458 OA
BRANCH  23  24
ATOM     24  C   UNL     1       1.299   0.558   1.411  1.00  0.00     0.338 C 
ATOM     25  O   UNL     1       0.346   1.273   1.084  1.00  0.00    -0.246 OA
BRANCH  24  26
ATOM     26  C   UNL     1       1.200  -0.401   2.534  1.00  0.00     0.060 A 
ATOM     27  C   UNL     1       0.021  -1.135   2.635  1.00  0.00     0.016 A 
ATOM     28  C   UNL     1       2.164  -0.527   3.541  1.00  0.00     0.016 A 
ATOM     29  C   UNL     1      -0.220  -1.909   3.768  1.00  0.00     0.010 A 
ATOM     30  C   UNL     1       1.950  -1.342   4.654  1.00  0.00     0.010 A 
ATOM     31  C   UNL     1       0.726  -1.988   4.804  1.00  0.00    -0.014 A 
BRANCH  31  32
ATOM     32  C   UNL     1       0.378  -2.704   6.052  1.00  0.00     0.031 A 
ATOM     33  C   UNL     1       0.078  -1.937   7.311  1.00  0.00     0.074 A 
ATOM     34  C   UNL     1       0.255  -4.042   6.013  1.00  0.00     0.049 A 
ATOM     35  N   UNL     1      -0.503  -2.349   8.408  1.00  0.00    -0.248 NA
ATOM     36  C   UNL     1       0.495  -0.527   7.350  1.00  0.00     0.031 C 
ATOM     37  C   UNL     1       0.594  -4.879   4.861  1.00  0.00     0.029 A 
ATOM     38  N   UNL     1      -0.222  -4.925   6.944  1.00  0.00    -0.354 N 
ATOM     39  C   UNL     1      -0.547  -1.247   9.255  1.00  0.00     0.074 A 
ATOM     40  C   UNL     1       0.137  -0.169   8.574  1.00  0.00     0.031 C 
ATOM     41  C   UNL     1       0.249  -6.147   5.128  1.00  0.00     0.029 A 
ATOM     42  C   UNL     1      -0.319  -6.213   6.472  1.00  0.00     0.049 A 
ATOM     43  H   UNL     1      -0.472  -4.664   7.860  1.00  0.00     0.167 HD
ATOM     44  C   UNL     1      -1.131  -1.141  10.476  1.00  0.00     0.034 A 
ATOM     45  C   UNL     1      -0.842  -7.313   7.046  1.00  0.00     0.034 A 
ATOM     46  C   UNL     1      -1.782  -2.248  11.138  1.00  0.00     0.049 A 
ATOM     47  C   UNL     1      -1.491  -7.173   8.400  1.00  0.00     0.074 A 
ATOM     48  C   UNL     1      -2.445  -2.263  12.352  1.00  0.00     0.029 A 
ATOM     49  N   UNL     1      -1.832  -3.548  10.646  1.00  0.00    -0.354 N 
ATOM     50  N   UNL     1      -1.625  -6.101   9.148  1.00  0.00    -0.248 NA
ATOM     51  C   UNL     1      -2.087  -8.386   8.969  1.00  0.00     0.031 C 
ATOM     52  C   UNL     1      -2.827  -3.582  12.628  1.00  0.00     0.029 A 
ATOM     53  C   UNL     1      -2.483  -4.378  11.547  1.00  0.00     0.049 A 
ATOM     54  H   UNL     1      -1.460  -3.838   9.781  1.00  0.00     0.167 HD
ATOM     55  C   UNL     1      -2.353  -6.506  10.263  1.00  0.00     0.074 A 
ATOM     56  C   UNL     1      -2.646  -7.913  10.073  1.00  0.00     0.031 C 
ATOM     57  C   UNL     1      -2.748  -5.784  11.345  1.00  0.00     0.034 A 
BRANCH  44  58
ATOM     58  C   UNL     1      -1.057   0.199  11.175  1.00  0.00     0.023 A 
ATOM     59  C   UNL     1      -1.629   1.359  10.618  1.00  0.00     0.031 A 
ATOM     60  C   UNL     1      -0.387   0.330  12.404  1.00  0.00     0.131 A 
ATOM     61  C   UNL     1      -1.455   2.603  11.246  1.00  0.00     0.055 A 
ATOM     62  C   UNL     1      -0.290   1.556  13.067  1.00  0.00     0.041 A 
ATOM     63  F   UNL     1       0.201  -0.732  12.979  1.00  0.00    -0.206 F 
ATOM     64  C   UNL     1      -0.812   2.705  12.481  1.00  0.00     0.022 A 
BRANCH  61  65
ATOM     65  S   UNL     1      -1.953   4.106  10.356  1.00  0.00     0.124 S 
ATOM     66  O   UNL     1      -1.159   4.005   9.133  1.00  0.00    -0.237 OA
ATOM     67  O   UNL     1      -3.391   3.921  10.201  1.00  0.00    -0.237 OA
ATOM     68  O   UNL     1      -1.556   5.186  11.257  1.00  0.00    -0.744 OA
ENDBRANCH  61  65
ENDBRANCH  44  58
BRANCH  45  69
ATOM     69  C   UNL     1      -0.812  -8.620   6.331  1.00  0.00     0.023 A 
ATOM     70  C   UNL     1      -1.996  -9.268   5.945  1.00  0.00     0.031 A 
ATOM     71  C   UNL     1       0.410  -9.254   6.044  1.00  0.00     0.131 A 
ATOM     72  C   UNL     1      -1.935 -10.533   5.340  1.00  0.00     0.055 A 
ATOM     73  C   UNL     1       0.467 -10.485   5.391  1.00  0.00     0.041 A 
ATOM     74  F   UNL     1       1.572  -8.672   6.382  1.00  0.00    -0.206 F 
ATOM     75  C   UNL     1      -0.711 -11.139   5.047  1.00  0.00     0.022 A 
BRANCH  72  76
ATOM     76  S   UNL     1      -3.485 -11.419   5.018  1.00  0.00     0.124 S 
ATOM     77  O   UNL     1      -4.083 -11.465   6.348  1.00  0.00    -0.237 OA
ATOM     78  O   UNL     1      -4.138 -10.544   4.051  1.00  0.00    -0.237 OA
ATOM     79  O   UNL     1      -3.037 -12.706   4.490  1.00  0.00    -0.744 OA
ENDBRANCH  72  76
ENDBRANCH  45  69
BRANCH  57  80
ATOM     80  C   UNL     1      -3.572  -6.512  12.381  1.00  0.00     0.023 A 
ATOM     81  C   UNL     1      -3.050  -7.587  13.122  1.00  0.00     0.031 A 
ATOM     82  C   UNL     1      -4.913  -6.148  12.601  1.00  0.00     0.131 A 
ATOM     83  C   UNL     1      -3.884  -8.311  13.986  1.00  0.00     0.055 A 
ATOM     84  C   UNL     1      -5.717  -6.826  13.518  1.00  0.00     0.041 A 
ATOM     85  F   UNL     1      -5.466  -5.131  11.922  1.00  0.00    -0.206 F 
ATOM     86  C   UNL     1      -5.210  -7.926  14.203  1.00  0.00     0.022 A 
BRANCH  83  87
ATOM     87  S   UNL     1      -3.250  -9.842  14.724  1.00  0.00     0.124 S 
ATOM     88  O   UNL     1      -2.852 -10.604  13.545  1.00  0.00    -0.237 OA
ATOM     89  O   UNL     1      -2.161  -9.354  15.564  1.00  0.00    -0.237 OA
ATOM     90  O   UNL     1      -4.401 -10.376  15.449  1.00  0.00    -0.744 OA
ENDBRANCH  83  87
ENDBRANCH  57  80
ENDBRANCH  31  32
ENDBRANCH  24  26
ENDBRANCH  23  24
ENDBRANCH  22  23
ENDBRANCH   1  22
TORSDOF 18
