REMARK SMILES O=C(OCCOC(=O)[C@@H]1CN(c2ncccn2)CCN1C(=O)C1CCOCC1)c1ccc(-c2c3nc(c(-c4cc(S(=O)(=O)[O-])ccc4F)c4ccc([nH]4)c(-c4cc(S(=O)(=O)[O-])ccc4F)c4nc(c(-c5cc(S(=O)(=O)[O-])ccc5F)c5ccc2[nH]5)C=C4)C=C3)cc1
REMARK SMILES IDX 4 1 3 2 2 3 1 4 29 5 30 6 91 7 31 8 90 9 32 10 33 11 34 12
REMARK SMILES IDX 84 13 35 14 89 15 83 16 85 17 36 18 88 19 82 20 81 21 37 23
REMARK SMILES IDX 69 24 49 25 68 26 50 27 53 28 67 29 86 30 51 31 52 32 66 34
REMARK SMILES IDX 87 35 54 36 38 37 39 38 47 39 40 40 46 41 48 42 45 43 41 44
REMARK SMILES IDX 42 45 43 46 44 47 70 48 71 49 79 50 72 51 78 52 80 53 77 54
REMARK SMILES IDX 73 55 74 56 75 57 76 58 55 59 56 60 64 61 57 62 63 63 65 64
REMARK SMILES IDX 62 65 58 66 59 67 60 68 61 69 5 70 6 71 7 72 8 73 9 74 10 75
REMARK SMILES IDX 20 76 11 77 19 78 18 79 21 80 22 81 23 82 24 83 28 84 25 85
REMARK SMILES IDX 27 86 26 87 12 88 13 89 17 90 14 91 16 92 15 93
REMARK H PARENT 85 22 53 33
REMARK Flexibility Score: inf
ROOT
ATOM      1  C   UNL     1       4.594   1.258  -0.427  1.00  0.00     0.275 C 
ENDROOT
BRANCH   1   2
ATOM      2  O   UNL     1       3.777   0.441  -1.276  1.00  0.00    -0.458 OA
BRANCH   2   3
ATOM      3  C   UNL     1       3.944  -0.884  -1.522  1.00  0.00     0.338 C 
ATOM      4  O   UNL     1       3.385  -1.439  -2.462  1.00  0.00    -0.246 OA
BRANCH   3   5
ATOM      5  C   UNL     1       4.667  -1.691  -0.515  1.00  0.00     0.060 A 
ATOM      6  C   UNL     1       5.977  -1.418  -0.117  1.00  0.00     0.016 A 
ATOM      7  C   UNL     1       3.974  -2.756   0.064  1.00  0.00     0.016 A 
ATOM      8  C   UNL     1       6.535  -2.089   0.969  1.00  0.00     0.010 A 
ATOM      9  C   UNL     1       4.547  -3.450   1.128  1.00  0.00     0.010 A 
ATOM     10  C   UNL     1       5.815  -3.096   1.615  1.00  0.00    -0.014 A 
BRANCH  10  11
ATOM     11  C   UNL     1       6.476  -3.914   2.657  1.00  0.00     0.031 A 
ATOM     12  C   UNL     1       6.888  -5.305   2.271  1.00  0.00     0.074 A 
ATOM     13  C   UNL     1       6.714  -3.428   3.892  1.00  0.00     0.049 A 
ATOM     14  N   UNL     1       7.503  -6.215   2.977  1.00  0.00    -0.248 NA
ATOM     15  C   UNL     1       6.545  -5.731   0.903  1.00  0.00     0.031 C 
ATOM     16  C   UNL     1       6.310  -2.108   4.384  1.00  0.00     0.029 A 
ATOM     17  N   UNL     1       7.318  -4.007   4.981  1.00  0.00    -0.354 N 
ATOM     18  C   UNL     1       7.696  -7.279   2.104  1.00  0.00     0.074 A 
ATOM     19  C   UNL     1       6.970  -6.981   0.893  1.00  0.00     0.031 C 
ATOM     20  C   UNL     1       6.590  -2.018   5.698  1.00  0.00     0.029 A 
ATOM     21  C   UNL     1       7.237  -3.251   6.131  1.00  0.00     0.049 A 
ATOM     22  H   UNL     1       7.767  -4.882   4.944  1.00  0.00     0.167 HD
ATOM     23  C   UNL     1       8.500  -8.358   2.254  1.00  0.00     0.034 A 
ATOM     24  C   UNL     1       7.633  -3.541   7.387  1.00  0.00     0.034 A 
ATOM     25  C   UNL     1       9.193  -8.648   3.478  1.00  0.00     0.049 A 
ATOM     26  C   UNL     1       8.402  -4.825   7.594  1.00  0.00     0.074 A 
ATOM     27  C   UNL     1      10.015  -9.713   3.785  1.00  0.00     0.029 A 
ATOM     28  N   UNL     1       9.129  -7.847   4.613  1.00  0.00    -0.354 N 
ATOM     29  N   UNL     1       8.643  -5.791   6.734  1.00  0.00    -0.248 NA
ATOM     30  C   UNL     1       9.004  -5.029   8.916  1.00  0.00     0.031 C 
ATOM     31  C   UNL     1      10.416  -9.578   5.121  1.00  0.00     0.029 A 
ATOM     32  C   UNL     1       9.884  -8.401   5.629  1.00  0.00     0.049 A 
ATOM     33  H   UNL     1       8.619  -7.008   4.683  1.00  0.00     0.167 HD
ATOM     34  C   UNL     1       9.488  -6.680   7.392  1.00  0.00     0.074 A 
ATOM     35  C   UNL     1       9.693  -6.144   8.724  1.00  0.00     0.031 C 
ATOM     36  C   UNL     1      10.066  -7.823   6.939  1.00  0.00     0.034 A 
BRANCH  23  37
ATOM     37  C   UNL     1       8.659  -9.238   1.040  1.00  0.00     0.023 A 
ATOM     38  C   UNL     1       9.205  -8.712  -0.149  1.00  0.00     0.031 A 
ATOM     39  C   UNL     1       8.151 -10.544   1.009  1.00  0.00     0.131 A 
ATOM     40  C   UNL     1       9.116  -9.438  -1.343  1.00  0.00     0.055 A 
ATOM     41  C   UNL     1       8.152 -11.300  -0.167  1.00  0.00     0.041 A 
ATOM     42  F   UNL     1       7.598 -11.088   2.104  1.00  0.00    -0.206 F 
ATOM     43  C   UNL     1       8.614 -10.740  -1.357  1.00  0.00     0.022 A 
BRANCH  40  44
ATOM     44  S   UNL     1       9.491  -8.585  -2.900  1.00  0.00     0.124 S 
ATOM     45  O   UNL     1       8.439  -7.572  -2.937  1.00  0.00    -0.237 OA
ATOM     46  O   UNL     1      10.844  -8.089  -2.674  1.00  0.00    -0.237 OA
ATOM     47  O   UNL     1       9.372  -9.639  -3.905  1.00  0.00    -0.744 OA
ENDBRANCH  40  44
ENDBRANCH  23  37
BRANCH  24  48
ATOM     48  C   UNL     1       7.322  -2.643   8.541  1.00  0.00     0.023 A 
ATOM     49  C   UNL     1       8.328  -1.961   9.244  1.00  0.00     0.031 A 
ATOM     50  C   UNL     1       6.007  -2.539   9.028  1.00  0.00     0.131 A 
ATOM     51  C   UNL     1       8.012  -1.268  10.427  1.00  0.00     0.055 A 
ATOM     52  C   UNL     1       5.690  -1.814  10.178  1.00  0.00     0.041 A 
ATOM     53  F   UNL     1       5.003  -3.173   8.408  1.00  0.00    -0.206 F 
ATOM     54  C   UNL     1       6.700  -1.187  10.897  1.00  0.00     0.022 A 
BRANCH  51  55
ATOM     55  S   UNL     1       9.364  -0.562  11.412  1.00  0.00     0.124 S 
ATOM     56  O   UNL     1      10.227  -1.722  11.608  1.00  0.00    -0.237 OA
ATOM     57  O   UNL     1       9.874   0.474  10.520  1.00  0.00    -0.237 OA
ATOM     58  O   UNL     1       8.692  -0.073  12.614  1.00  0.00    -0.744 OA
ENDBRANCH  51  55
ENDBRANCH  24  48
BRANCH  36  59
ATOM     59  C   UNL     1      11.024  -8.508   7.875  1.00  0.00     0.023 A 
ATOM     60  C   UNL     1      10.582  -9.136   9.049  1.00  0.00     0.031 A 
ATOM     61  C   UNL     1      12.401  -8.510   7.592  1.00  0.00     0.131 A 
ATOM     62  C   UNL     1      11.517  -9.687   9.934  1.00  0.00     0.055 A 
ATOM     63  C   UNL     1      13.322  -9.114   8.446  1.00  0.00     0.041 A 
ATOM     64  F   UNL     1      12.871  -7.921   6.480  1.00  0.00    -0.206 F 
ATOM     65  C   UNL     1      12.882  -9.695   9.633  1.00  0.00     0.022 A 
BRANCH  62  66
ATOM     66  S   UNL     1      10.930 -10.306  11.533  1.00  0.00     0.124 S 
ATOM     67  O   UNL     1      10.311  -9.117  12.107  1.00  0.00    -0.237 OA
ATOM     68  O   UNL     1      10.015 -11.372  11.135  1.00  0.00    -0.237 OA
ATOM     69  O   UNL     1      12.153 -10.754  12.196  1.00  0.00    -0.744 OA
ENDBRANCH  62  66
ENDBRANCH  36  59
ENDBRANCH  10  11
ENDBRANCH   3   5
ENDBRANCH   2   3
ENDBRANCH   1   2
BRANCH   1  70
ATOM     70  C   UNL     1       4.294   1.396   1.079  1.00  0.00     0.274 C 
BRANCH  70  71
ATOM     71  O   UNL     1       3.835   0.325   1.924  1.00  0.00    -0.460 OA
BRANCH  71  72
ATOM     72  C   UNL     1       2.591  -0.184   1.701  1.00  0.00     0.330 C 
ATOM     73  O   UNL     1       2.103  -0.313   0.599  1.00  0.00    -0.250 OA
BRANCH  72  74
ATOM     74  C   UNL     1       1.887  -0.615   3.001  1.00  0.00     0.214 C 
ATOM     75  C   UNL     1       2.615  -1.943   3.348  1.00  0.00     0.157 C 
ATOM     76  N   UNL     1       0.379  -0.750   2.899  1.00  0.00    -0.325 N 
ATOM     77  N   UNL     1       1.914  -2.795   4.304  1.00  0.00    -0.336 N 
ATOM     78  C   UNL     1      -0.210  -1.784   3.789  1.00  0.00     0.142 C 
ATOM     79  C   UNL     1       0.560  -3.101   3.884  1.00  0.00     0.141 C 
BRANCH  76  80
ATOM     80  C   UNL     1      -0.553   0.207   2.493  1.00  0.00     0.226 C 
ATOM     81  O   UNL     1      -1.758   0.034   2.752  1.00  0.00    -0.275 OA
BRANCH  80  82
ATOM     82  C   UNL     1      -0.254   1.466   1.666  1.00  0.00     0.083 C 
ATOM     83  C   UNL     1      -0.195   1.184   0.158  1.00  0.00     0.042 C 
ATOM     84  C   UNL     1       0.767   2.438   2.244  1.00  0.00     0.042 C 
ATOM     85  C   UNL     1       0.636   2.161  -0.670  1.00  0.00     0.161 C 
ATOM     86  C   UNL     1       1.166   3.480   1.218  1.00  0.00     0.161 C 
ATOM     87  O   UNL     1       1.662   2.827   0.059  1.00  0.00    -0.381 OA
ENDBRANCH  80  82
ENDBRANCH  76  80
BRANCH  77  88
ATOM     88  C   UNL     1       2.665  -3.927   4.623  1.00  0.00     0.225 A 
ATOM     89  N   UNL     1       2.697  -4.963   3.762  1.00  0.00    -0.221 NA
ATOM     90  N   UNL     1       3.356  -3.898   5.766  1.00  0.00    -0.221 NA
ATOM     91  C   UNL     1       3.509  -5.997   4.076  1.00  0.00     0.117 A 
ATOM     92  C   UNL     1       4.141  -4.963   6.038  1.00  0.00     0.117 A 
ATOM     93  C   UNL     1       4.268  -6.050   5.215  1.00  0.00     0.040 A 
ENDBRANCH  77  88
ENDBRANCH  72  74
ENDBRANCH  71  72
ENDBRANCH  70  71
ENDBRANCH   1  70
TORSDOF 17
