REMARK SMILES COc1ccc(OC)c(/C=N/[NH+]=C2/NC(=O)[C@@H](CC(=O)OCCOC(=O)c3ccc(-c4c5nc(c(-c6cc(S(=O)(=O)[O-])ccc6F)c6ccc([nH]6)c(-c6cc(S(=O)(=O)[O-])ccc6F)c6nc(c(-c7cc(S(=O)(=O)[O-])ccc7F)c7ccc4[nH]7)C=C6)C=C5)cc3)S2)c1
REMARK SMILES IDX 22 1 21 2 19 3 20 4 18 5 17 6 12 7 13 8 14 10 90 11 15 12
REMARK SMILES IDX 16 14 11 15 10 16 9 17 3 18 4 19 91 20 5 21 6 22 2 23 1 24
REMARK SMILES IDX 7 25 8 26 23 27 24 28 25 29 26 30 27 31 28 32 89 33 29 34
REMARK SMILES IDX 88 35 30 36 31 37 32 38 82 39 33 40 87 41 81 42 83 43 34 44
REMARK SMILES IDX 86 45 80 46 79 47 35 49 67 50 47 51 66 52 48 53 51 54 65 55
REMARK SMILES IDX 84 56 49 57 50 58 64 60 85 61 52 62 36 63 37 64 45 65 38 66
REMARK SMILES IDX 44 67 46 68 43 69 39 70 40 71 41 72 42 73 68 74 69 75 77 76
REMARK SMILES IDX 70 77 76 78 78 79 75 80 71 81 72 82 73 83 74 84 53 85 54 86
REMARK SMILES IDX 62 87 55 88 61 89 63 90 60 91 56 92 57 93 58 94 59 95
REMARK H PARENT 12 9 14 13 83 48 51 59
REMARK Flexibility Score: inf
ROOT
ATOM      1  C   UNL     1       6.918   0.173  -2.497  1.00  0.00     0.274 C 
ENDROOT
BRANCH   1   2
ATOM      2  O   UNL     1       7.647  -1.015  -2.866  1.00  0.00    -0.462 OA
BRANCH   2   3
ATOM      3  C   UNL     1       8.529  -1.485  -1.952  1.00  0.00     0.307 C 
ATOM      4  O   UNL     1       8.877  -0.871  -0.950  1.00  0.00    -0.252 OA
BRANCH   3   5
ATOM      5  C   UNL     1       9.080  -2.858  -2.274  1.00  0.00     0.150 C 
BRANCH   5   6
ATOM      6  C   UNL     1       8.394  -3.716  -3.331  1.00  0.00     0.184 C 
ATOM      7  N   UNL     1       5.403  -2.326  -5.285  1.00  0.00    -0.142 N 
ATOM      8  C   UNL     1       6.409  -2.937  -4.759  1.00  0.00     0.337 C 
ATOM      9  H   UNL     1       5.424  -2.061  -6.233  1.00  0.00     0.343 HD
ATOM     10  N   UNL     1       7.587  -2.930  -5.428  1.00  0.00    -0.202 N 
ATOM     11  S   UNL     1       6.574  -3.779  -3.251  1.00  0.00    -0.020 SA
ATOM     12  C   UNL     1       8.714  -3.243  -4.732  1.00  0.00     0.322 C 
ATOM     13  H   UNL     1       7.627  -2.705  -6.385  1.00  0.00     0.316 HD
ATOM     14  O   UNL     1       9.844  -3.096  -5.181  1.00  0.00    -0.246 OA
BRANCH   7  15
ATOM     15  N   UNL     1       4.285  -2.043  -4.499  1.00  0.00    -0.093 NA
ATOM     16  C   UNL     1       3.447  -3.020  -4.375  1.00  0.00     0.170 C 
BRANCH  16  17
ATOM     17  C   UNL     1       2.069  -2.792  -3.907  1.00  0.00     0.042 A 
ATOM     18  C   UNL     1       0.545  -1.902  -2.234  1.00  0.00     0.119 A 
ATOM     19  C   UNL     1      -0.510  -2.526  -2.895  1.00  0.00     0.050 A 
ATOM     20  C   UNL     1       1.830  -2.014  -2.762  1.00  0.00     0.060 A 
ATOM     21  C   UNL     1      -0.289  -3.231  -4.082  1.00  0.00     0.051 A 
ATOM     22  C   UNL     1       1.000  -3.360  -4.608  1.00  0.00     0.128 A 
BRANCH  18  23
ATOM     23  O   UNL     1       0.198  -1.261  -1.077  1.00  0.00    -0.497 OA
ATOM     24  C   UNL     1       1.128  -0.321  -0.553  1.00  0.00     0.278 C 
ENDBRANCH  18  23
BRANCH  22  25
ATOM     25  O   UNL     1       1.063  -4.065  -5.781  1.00  0.00    -0.496 OA
ATOM     26  C   UNL     1       1.984  -3.593  -6.765  1.00  0.00     0.278 C 
ENDBRANCH  22  25
ENDBRANCH  16  17
ENDBRANCH   7  15
ENDBRANCH   5   6
ENDBRANCH   3   5
ENDBRANCH   2   3
ENDBRANCH   1   2
BRANCH   1  27
ATOM     27  C   UNL     1       5.614  -0.163  -1.772  1.00  0.00     0.275 C 
BRANCH  27  28
ATOM     28  O   UNL     1       5.871  -0.930  -0.582  1.00  0.00    -0.458 OA
BRANCH  28  29
ATOM     29  C   UNL     1       5.165  -2.073  -0.459  1.00  0.00     0.338 C 
ATOM     30  O   UNL     1       4.306  -2.509  -1.211  1.00  0.00    -0.246 OA
BRANCH  29  31
ATOM     31  C   UNL     1       5.499  -2.790   0.765  1.00  0.00     0.060 A 
ATOM     32  C   UNL     1       6.811  -3.189   1.008  1.00  0.00     0.016 A 
ATOM     33  C   UNL     1       4.453  -3.188   1.603  1.00  0.00     0.016 A 
ATOM     34  C   UNL     1       7.075  -4.024   2.085  1.00  0.00     0.010 A 
ATOM     35  C   UNL     1       4.732  -3.961   2.724  1.00  0.00     0.010 A 
ATOM     36  C   UNL     1       6.043  -4.394   2.964  1.00  0.00    -0.014 A 
BRANCH  36  37
ATOM     37  C   UNL     1       6.361  -5.185   4.173  1.00  0.00     0.031 A 
ATOM     38  C   UNL     1       5.846  -6.583   4.338  1.00  0.00     0.074 A 
ATOM     39  C   UNL     1       7.110  -4.604   5.127  1.00  0.00     0.049 A 
ATOM     40  N   UNL     1       5.988  -7.400   5.350  1.00  0.00    -0.248 NA
ATOM     41  C   UNL     1       5.052  -7.128   3.228  1.00  0.00     0.031 C 
ATOM     42  C   UNL     1       7.634  -3.236   5.067  1.00  0.00     0.029 A 
ATOM     43  N   UNL     1       7.562  -5.082   6.326  1.00  0.00    -0.354 N 
ATOM     44  C   UNL     1       5.290  -8.553   5.009  1.00  0.00     0.074 A 
ATOM     45  C   UNL     1       4.694  -8.309   3.710  1.00  0.00     0.031 C 
ATOM     46  C   UNL     1       8.358  -2.995   6.168  1.00  0.00     0.029 A 
ATOM     47  C   UNL     1       8.302  -4.166   7.034  1.00  0.00     0.049 A 
ATOM     48  H   UNL     1       7.375  -5.993   6.651  1.00  0.00     0.167 HD
ATOM     49  C   UNL     1       5.169  -9.706   5.715  1.00  0.00     0.034 A 
ATOM     50  C   UNL     1       8.855  -4.252   8.256  1.00  0.00     0.034 A 
ATOM     51  C   UNL     1       5.763  -9.910   7.018  1.00  0.00     0.049 A 
ATOM     52  C   UNL     1       8.710  -5.536   9.018  1.00  0.00     0.074 A 
ATOM     53  C   UNL     1       5.711 -11.031   7.830  1.00  0.00     0.029 A 
ATOM     54  N   UNL     1       6.516  -8.963   7.705  1.00  0.00    -0.354 N 
ATOM     55  N   UNL     1       8.051  -6.622   8.684  1.00  0.00    -0.248 NA
ATOM     56  C   UNL     1       9.394  -5.609  10.312  1.00  0.00     0.031 C 
ATOM     57  C   UNL     1       6.384 -10.742   9.025  1.00  0.00     0.029 A 
ATOM     58  C   UNL     1       6.917  -9.466   8.936  1.00  0.00     0.049 A 
ATOM     59  H   UNL     1       6.734  -8.064   7.367  1.00  0.00     0.167 HD
ATOM     60  C   UNL     1       8.242  -7.514   9.732  1.00  0.00     0.074 A 
ATOM     61  C   UNL     1       9.107  -6.847  10.688  1.00  0.00     0.031 C 
ATOM     62  C   UNL     1       7.745  -8.768   9.894  1.00  0.00     0.034 A 
BRANCH  49  63
ATOM     63  C   UNL     1       4.319 -10.798   5.106  1.00  0.00     0.023 A 
ATOM     64  C   UNL     1       4.658 -11.405   3.883  1.00  0.00     0.031 A 
ATOM     65  C   UNL     1       3.120 -11.198   5.723  1.00  0.00     0.131 A 
ATOM     66  C   UNL     1       3.772 -12.310   3.276  1.00  0.00     0.055 A 
ATOM     67  C   UNL     1       2.281 -12.160   5.154  1.00  0.00     0.041 A 
ATOM     68  F   UNL     1       2.729 -10.642   6.881  1.00  0.00    -0.206 F 
ATOM     69  C   UNL     1       2.596 -12.708   3.915  1.00  0.00     0.022 A 
BRANCH  66  70
ATOM     70  S   UNL     1       4.098 -12.832   1.569  1.00  0.00     0.124 S 
ATOM     71  O   UNL     1       4.178 -11.548   0.875  1.00  0.00    -0.237 OA
ATOM     72  O   UNL     1       5.351 -13.567   1.698  1.00  0.00    -0.237 OA
ATOM     73  O   UNL     1       2.930 -13.642   1.228  1.00  0.00    -0.744 OA
ENDBRANCH  66  70
ENDBRANCH  49  63
BRANCH  50  74
ATOM     74  C   UNL     1       9.565  -3.076   8.824  1.00  0.00     0.023 A 
ATOM     75  C   UNL     1      10.956  -3.081   8.997  1.00  0.00     0.031 A 
ATOM     76  C   UNL     1       8.854  -1.913   9.171  1.00  0.00     0.131 A 
ATOM     77  C   UNL     1      11.594  -1.949   9.527  1.00  0.00     0.055 A 
ATOM     78  C   UNL     1       9.498  -0.776   9.659  1.00  0.00     0.041 A 
ATOM     79  F   UNL     1       7.523  -1.856   9.005  1.00  0.00    -0.206 F 
ATOM     80  C   UNL     1      10.876  -0.793   9.846  1.00  0.00     0.022 A 
BRANCH  77  81
ATOM     81  S   UNL     1      13.381  -2.020   9.825  1.00  0.00     0.124 S 
ATOM     82  O   UNL     1      13.481  -3.111  10.787  1.00  0.00    -0.237 OA
ATOM     83  O   UNL     1      13.901  -2.293   8.489  1.00  0.00    -0.237 OA
ATOM     84  O   UNL     1      13.691  -0.692  10.351  1.00  0.00    -0.744 OA
ENDBRANCH  77  81
ENDBRANCH  50  74
BRANCH  62  85
ATOM     85  C   UNL     1       8.151  -9.483  11.158  1.00  0.00     0.023 A 
ATOM     86  C   UNL     1       7.724  -9.037  12.421  1.00  0.00     0.031 A 
ATOM     87  C   UNL     1       9.023 -10.583  11.103  1.00  0.00     0.131 A 
ATOM     88  C   UNL     1       8.231  -9.639  13.582  1.00  0.00     0.055 A 
ATOM     89  C   UNL     1       9.476 -11.218  12.260  1.00  0.00     0.041 A 
ATOM     90  F   UNL     1       9.464 -11.048   9.923  1.00  0.00    -0.206 F 
ATOM     91  C   UNL     1       9.094 -10.735  13.509  1.00  0.00     0.022 A 
BRANCH  88  92
ATOM     92  S   UNL     1       7.847  -8.889  15.189  1.00  0.00     0.124 S 
ATOM     93  O   UNL     1       8.300  -7.515  15.000  1.00  0.00    -0.237 OA
ATOM     94  O   UNL     1       6.403  -9.077  15.282  1.00  0.00    -0.237 OA
ATOM     95  O   UNL     1       8.637  -9.677  16.132  1.00  0.00    -0.744 OA
ENDBRANCH  88  92
ENDBRANCH  62  85
ENDBRANCH  36  37
ENDBRANCH  29  31
ENDBRANCH  28  29
ENDBRANCH  27  28
ENDBRANCH   1  27
TORSDOF 19
