REMARK SMILES [NH3+][C@@H](Cc1cn(-c2nc(Cl)nc(N3CCOCC3)n2)c2ccccc12)C(=O)OCCOC(=O)c1ccc(-c2c3nc(c(-c4cc(S(=O)(=O)[O-])ccc4F)c4ccc([nH]4)c(-c4cc(S(=O)(=O)[O-])ccc4F)c4nc(c(-c5cc(S(=O)(=O)[O-])ccc5F)c5ccc2[nH]5)C=C4)C=C3)cc1
REMARK SMILES IDX 29 1 28 2 26 3 27 4 2 5 1 6 3 10 4 11 5 12 25 13 6 14 20 15
REMARK SMILES IDX 24 16 21 17 23 18 22 19 7 20 8 21 19 22 9 23 12 24 10 25
REMARK SMILES IDX 11 26 13 27 14 28 18 29 15 30 17 31 16 32 30 33 31 34 32 35
REMARK SMILES IDX 33 36 34 37 35 38 96 39 36 40 95 41 37 42 38 43 39 44 89 45
REMARK SMILES IDX 40 46 94 47 88 48 90 49 41 50 93 51 87 52 86 53 42 55 74 56
REMARK SMILES IDX 54 57 73 58 55 59 58 60 72 61 91 62 56 63 57 64 71 66 92 67
REMARK SMILES IDX 59 68 43 69 44 70 52 71 45 72 51 73 53 74 50 75 46 76 47 77
REMARK SMILES IDX 48 78 49 79 75 80 76 81 84 82 77 83 83 84 85 85 82 86 78 87
REMARK SMILES IDX 79 88 80 89 81 90 60 91 61 92 69 93 62 94 68 95 70 96 67 97
REMARK SMILES IDX 63 98 64 99 65 100 66 101
REMARK H PARENT 1 7 1 8 1 9 90 54 58 65
REMARK Flexibility Score: inf
ROOT
ATOM      1  C   UNL     1      -2.935   0.155  -1.018  1.00  0.00     0.274 C 
ENDROOT
BRANCH   1   2
ATOM      2  O   UNL     1      -1.503  -0.009  -0.994  1.00  0.00    -0.458 OA
BRANCH   2   3
ATOM      3  C   UNL     1      -0.758   0.933  -1.648  1.00  0.00     0.365 C 
ATOM      4  O   UNL     1      -1.227   1.845  -2.319  1.00  0.00    -0.245 OA
BRANCH   3   5
ATOM      5  C   UNL     1       0.755   0.699  -1.476  1.00  0.00     0.296 C 
BRANCH   5   6
ATOM      6  N   UNL     1       1.065  -0.263  -0.382  1.00  0.00    -0.346 N 
ATOM      7  H   UNL     1       2.076  -0.381  -0.311  1.00  0.00     0.345 HD
ATOM      8  H   UNL     1       0.631  -1.162  -0.587  1.00  0.00     0.345 HD
ATOM      9  H   UNL     1       0.702   0.098   0.500  1.00  0.00     0.345 HD
ENDBRANCH   5   6
BRANCH   5  10
ATOM     10  C   UNL     1       1.424   0.370  -2.811  1.00  0.00     0.115 C 
BRANCH  10  11
ATOM     11  C   UNL     1       0.869  -0.832  -3.470  1.00  0.00    -0.015 A 
ATOM     12  C   UNL     1       1.137  -2.127  -3.121  1.00  0.00     0.099 A 
ATOM     13  C   UNL     1      -0.068  -0.867  -4.543  1.00  0.00     0.004 A 
ATOM     14  N   UNL     1       0.449  -2.960  -3.967  1.00  0.00    -0.285 N 
ATOM     15  C   UNL     1      -0.289  -2.211  -4.867  1.00  0.00     0.056 A 
ATOM     16  C   UNL     1      -0.761   0.138  -5.249  1.00  0.00     0.010 A 
ATOM     17  C   UNL     1      -1.189  -2.581  -5.879  1.00  0.00     0.027 A 
ATOM     18  C   UNL     1      -1.668  -0.223  -6.244  1.00  0.00     0.001 A 
ATOM     19  C   UNL     1      -1.875  -1.563  -6.554  1.00  0.00     0.002 A 
BRANCH  14  20
ATOM     20  C   UNL     1       0.471  -4.361  -3.797  1.00  0.00     0.240 A 
ATOM     21  N   UNL     1       0.963  -5.111  -4.770  1.00  0.00    -0.181 NA
ATOM     22  N   UNL     1       0.253  -4.772  -2.547  1.00  0.00    -0.176 NA
ATOM     23  C   UNL     1       1.350  -6.298  -4.320  1.00  0.00     0.228 A 
ATOM     24  C   UNL     1       0.617  -6.003  -2.241  1.00  0.00     0.231 A 
ATOM     25  Cl  UNL     1       2.146  -7.295  -5.459  1.00  0.00    -0.041 Cl
ATOM     26  N   UNL     1       1.234  -6.803  -3.092  1.00  0.00    -0.182 NA
BRANCH  24  27
ATOM     27  N   UNL     1       0.354  -6.393  -0.957  1.00  0.00    -0.336 N 
ATOM     28  C   UNL     1      -1.046  -6.365  -0.536  1.00  0.00     0.148 C 
ATOM     29  C   UNL     1       1.221  -7.328  -0.261  1.00  0.00     0.148 C 
ATOM     30  C   UNL     1      -1.129  -6.236   0.990  1.00  0.00     0.181 C 
ATOM     31  C   UNL     1       1.046  -7.111   1.254  1.00  0.00     0.181 C 
ATOM     32  O   UNL     1      -0.334  -7.239   1.647  1.00  0.00    -0.378 OA
ENDBRANCH  24  27
ENDBRANCH  14  20
ENDBRANCH  10  11
ENDBRANCH   5  10
ENDBRANCH   3   5
ENDBRANCH   2   3
ENDBRANCH   1   2
BRANCH   1  33
ATOM     33  C   UNL     1      -3.442   0.510   0.383  1.00  0.00     0.275 C 
BRANCH  33  34
ATOM     34  O   UNL     1      -2.995   1.833   0.705  1.00  0.00    -0.458 OA
BRANCH  34  35
ATOM     35  C   UNL     1      -1.992   1.912   1.615  1.00  0.00     0.338 C 
ATOM     36  O   UNL     1      -1.782   1.140   2.535  1.00  0.00    -0.246 OA
BRANCH  35  37
ATOM     37  C   UNL     1      -1.038   2.926   1.113  1.00  0.00     0.060 A 
ATOM     38  C   UNL     1      -1.468   3.995   0.319  1.00  0.00     0.016 A 
ATOM     39  C   UNL     1       0.327   2.661   1.265  1.00  0.00     0.016 A 
ATOM     40  C   UNL     1      -0.538   4.724  -0.416  1.00  0.00     0.010 A 
ATOM     41  C   UNL     1       1.254   3.394   0.528  1.00  0.00     0.010 A 
ATOM     42  C   UNL     1       0.819   4.389  -0.354  1.00  0.00    -0.014 A 
BRANCH  42  43
ATOM     43  C   UNL     1       1.772   5.237  -1.069  1.00  0.00     0.031 A 
ATOM     44  C   UNL     1       2.240   6.392  -0.280  1.00  0.00     0.074 A 
ATOM     45  C   UNL     1       2.315   5.052  -2.287  1.00  0.00     0.049 A 
ATOM     46  N   UNL     1       1.923   7.630  -0.460  1.00  0.00    -0.248 NA
ATOM     47  C   UNL     1       3.055   6.127   0.908  1.00  0.00     0.031 C 
ATOM     48  C   UNL     1       2.251   3.873  -3.133  1.00  0.00     0.029 A 
ATOM     49  N   UNL     1       3.137   5.886  -2.991  1.00  0.00    -0.354 N 
ATOM     50  C   UNL     1       2.627   8.336   0.505  1.00  0.00     0.074 A 
ATOM     51  C   UNL     1       3.162   7.353   1.416  1.00  0.00     0.031 C 
ATOM     52  C   UNL     1       3.187   3.956  -4.109  1.00  0.00     0.029 A 
ATOM     53  C   UNL     1       3.774   5.286  -4.067  1.00  0.00     0.049 A 
ATOM     54  H   UNL     1       3.267   6.832  -2.754  1.00  0.00     0.167 HD
ATOM     55  C   UNL     1       2.881   9.666   0.381  1.00  0.00     0.034 A 
ATOM     56  C   UNL     1       4.727   5.839  -4.856  1.00  0.00     0.034 A 
ATOM     57  C   UNL     1       2.092  10.270  -0.659  1.00  0.00     0.049 A 
ATOM     58  C   UNL     1       4.627   7.312  -4.749  1.00  0.00     0.074 A 
ATOM     59  C   UNL     1       0.741  10.437  -0.886  1.00  0.00     0.029 A 
ATOM     60  N   UNL     1       2.712  10.531  -1.856  1.00  0.00    -0.354 N 
ATOM     61  N   UNL     1       3.665   8.029  -5.256  1.00  0.00    -0.248 NA
ATOM     62  C   UNL     1       5.457   7.990  -3.766  1.00  0.00     0.031 C 
ATOM     63  C   UNL     1       0.584  10.379  -2.300  1.00  0.00     0.029 A 
ATOM     64  C   UNL     1       1.847  10.191  -2.864  1.00  0.00     0.049 A 
ATOM     65  H   UNL     1       3.619  10.898  -1.970  1.00  0.00     0.167 HD
ATOM     66  C   UNL     1       3.484   9.057  -4.346  1.00  0.00     0.074 A 
ATOM     67  C   UNL     1       4.706   9.071  -3.550  1.00  0.00     0.031 C 
ATOM     68  C   UNL     1       2.253   9.610  -4.133  1.00  0.00     0.034 A 
BRANCH  55  69
ATOM     69  C   UNL     1       4.062  10.348   1.019  1.00  0.00     0.023 A 
ATOM     70  C   UNL     1       5.168   9.639   1.522  1.00  0.00     0.031 A 
ATOM     71  C   UNL     1       4.197  11.747   0.974  1.00  0.00     0.131 A 
ATOM     72  C   UNL     1       6.301  10.292   2.016  1.00  0.00     0.055 A 
ATOM     73  C   UNL     1       5.364  12.400   1.390  1.00  0.00     0.041 A 
ATOM     74  F   UNL     1       3.219  12.521   0.479  1.00  0.00    -0.206 F 
ATOM     75  C   UNL     1       6.420  11.674   1.928  1.00  0.00     0.022 A 
BRANCH  72  76
ATOM     76  S   UNL     1       7.625   9.340   2.809  1.00  0.00     0.124 S 
ATOM     77  O   UNL     1       8.734   9.545   1.883  1.00  0.00    -0.237 OA
ATOM     78  O   UNL     1       7.744  10.012   4.101  1.00  0.00    -0.237 OA
ATOM     79  O   UNL     1       7.082   7.986   2.867  1.00  0.00    -0.744 OA
ENDBRANCH  72  76
ENDBRANCH  55  69
BRANCH  56  80
ATOM     80  C   UNL     1       5.936   5.192  -5.413  1.00  0.00     0.023 A 
ATOM     81  C   UNL     1       6.560   4.155  -4.696  1.00  0.00     0.031 A 
ATOM     82  C   UNL     1       6.667   5.795  -6.452  1.00  0.00     0.131 A 
ATOM     83  C   UNL     1       7.886   3.797  -4.979  1.00  0.00     0.055 A 
ATOM     84  C   UNL     1       7.985   5.423  -6.744  1.00  0.00     0.041 A 
ATOM     85  F   UNL     1       6.141   6.808  -7.157  1.00  0.00    -0.206 F 
ATOM     86  C   UNL     1       8.607   4.430  -5.994  1.00  0.00     0.022 A 
BRANCH  83  87
ATOM     87  S   UNL     1       8.732   2.546  -3.974  1.00  0.00     0.124 S 
ATOM     88  O   UNL     1       9.393   1.726  -4.987  1.00  0.00    -0.237 OA
ATOM     89  O   UNL     1       9.618   3.370  -3.158  1.00  0.00    -0.237 OA
ATOM     90  O   UNL     1       7.641   1.886  -3.262  1.00  0.00    -0.744 OA
ENDBRANCH  83  87
ENDBRANCH  56  80
BRANCH  68  91
ATOM     91  C   UNL     1       1.146   9.362  -5.138  1.00  0.00     0.023 A 
ATOM     92  C   UNL     1       0.394  10.477  -5.559  1.00  0.00     0.031 A 
ATOM     93  C   UNL     1       0.685   8.089  -5.524  1.00  0.00     0.131 A 
ATOM     94  C   UNL     1      -0.781  10.304  -6.302  1.00  0.00     0.055 A 
ATOM     95  C   UNL     1      -0.448   7.926  -6.330  1.00  0.00     0.041 A 
ATOM     96  F   UNL     1       1.257   6.965  -5.070  1.00  0.00    -0.206 F 
ATOM     97  C   UNL     1      -1.196   9.034  -6.709  1.00  0.00     0.022 A 
BRANCH  94  98
ATOM     98  S   UNL     1      -1.883  11.707  -6.624  1.00  0.00     0.124 S 
ATOM     99  O   UNL     1      -1.841  11.806  -8.081  1.00  0.00    -0.237 OA
ATOM    100  O   UNL     1      -3.151  11.241  -6.066  1.00  0.00    -0.237 OA
ATOM    101  O   UNL     1      -1.264  12.817  -5.905  1.00  0.00    -0.744 OA
ENDBRANCH  94  98
ENDBRANCH  68  91
ENDBRANCH  42  43
ENDBRANCH  35  37
ENDBRANCH  34  35
ENDBRANCH  33  34
ENDBRANCH   1  33
TORSDOF 19
