REMARK SMILES Cc1ccc(-c2cc(C(=O)OCCOC(=O)c3ccc(-c4c5nc(c(-c6cc(S(=O)(=O)[O-])ccc6F)c6ccc([nH]6)c(-c6cc(S(=O)(=O)[O-])ccc6F)c6nc(c(-c7cc(S(=O)(=O)[O-])ccc7F)c7ccc4[nH]7)C=C6)C=C5)cc3)c3c(-c4cccc([N+](=O)[O-])c4)[nH]nc3n2)cc1
REMARK SMILES IDX 13 1 12 2 11 3 9 4 10 5 8 6 6 7 7 8 94 9 93 10 80 11 92 12
REMARK SMILES IDX 81 13 91 14 5 16 1 17 2 18 3 19 96 20 4 21 95 22 82 23 83 24
REMARK SMILES IDX 90 25 84 26 86 27 85 28 87 29 88 30 89 31 14 32 15 33 16 34
REMARK SMILES IDX 17 35 18 36 79 37 19 38 78 39 20 40 21 41 22 42 72 43 23 44
REMARK SMILES IDX 77 45 71 46 73 47 24 48 76 49 70 50 69 51 25 53 57 54 37 55
REMARK SMILES IDX 56 56 38 57 41 58 55 59 74 60 39 61 40 62 54 64 75 65 42 66
REMARK SMILES IDX 26 67 27 68 35 69 28 70 34 71 36 72 33 73 29 74 30 75 31 76
REMARK SMILES IDX 32 77 58 78 59 79 67 80 60 81 66 82 68 83 65 84 61 85 62 86
REMARK SMILES IDX 63 87 64 88 43 89 44 90 52 91 45 92 51 93 53 94 50 95 46 96
REMARK SMILES IDX 47 97 48 98 49 99
REMARK H PARENT 91 15 73 52 41 63
REMARK Flexibility Score: inf
ROOT
ATOM      1  C   UNL     1      -5.331   0.512  -5.996  1.00  0.00     0.275 C 
ENDROOT
BRANCH   1   2
ATOM      2  C   UNL     1      -4.466   0.798  -4.745  1.00  0.00     0.275 C 
BRANCH   2   3
ATOM      3  O   UNL     1      -4.675  -0.144  -3.657  1.00  0.00    -0.458 OA
BRANCH   3   4
ATOM      4  C   UNL     1      -4.686   0.410  -2.410  1.00  0.00     0.339 C 
ATOM      5  O   UNL     1      -4.416   1.581  -2.169  1.00  0.00    -0.246 OA
BRANCH   4   6
ATOM      6  C   UNL     1      -4.567  -0.568  -1.320  1.00  0.00     0.075 A 
ATOM      7  C   UNL     1      -2.658  -0.842   0.232  1.00  0.00     0.074 A 
ATOM      8  C   UNL     1      -3.184  -0.666  -1.055  1.00  0.00     0.045 A 
ATOM      9  N   UNL     1      -3.365  -1.101   1.344  1.00  0.00    -0.226 NA
ATOM     10  C   UNL     1      -4.702  -1.099   1.141  1.00  0.00     0.182 A 
ATOM     11  C   UNL     1      -5.353  -0.824  -0.147  1.00  0.00     0.061 A 
ATOM     12  N   UNL     1      -5.564  -1.332   2.118  1.00  0.00    -0.154 NA
ATOM     13  C   UNL     1      -6.726  -0.939   0.162  1.00  0.00     0.076 A 
ATOM     14  N   UNL     1      -6.737  -1.197   1.526  1.00  0.00    -0.275 N 
ATOM     15  H   UNL     1      -7.580  -1.276   2.029  1.00  0.00     0.190 HD
BRANCH   7  16
ATOM     16  C   UNL     1      -1.230  -0.601   0.405  1.00  0.00     0.000 A 
ATOM     17  C   UNL     1       2.994   0.101   0.015  1.00  0.00     0.044 C 
ATOM     18  C   UNL     1       1.529  -0.126   0.227  1.00  0.00    -0.051 A 
ATOM     19  C   UNL     1       1.035  -1.436   0.297  1.00  0.00     0.004 A 
ATOM     20  C   UNL     1       0.641   0.950   0.313  1.00  0.00     0.004 A 
ATOM     21  C   UNL     1      -0.334  -1.671   0.392  1.00  0.00     0.010 A 
ATOM     22  C   UNL     1      -0.730   0.714   0.405  1.00  0.00     0.010 A 
ENDBRANCH   7  16
BRANCH  13  23
ATOM     23  C   UNL     1      -8.079  -0.965  -0.450  1.00  0.00     0.007 A 
ATOM     24  C   UNL     1      -9.173  -0.409   0.268  1.00  0.00     0.011 A 
ATOM     25  C   UNL     1      -8.376  -1.595  -1.656  1.00  0.00     0.096 A 
ATOM     26  C   UNL     1     -10.493  -0.438  -0.214  1.00  0.00     0.008 A 
ATOM     27  C   UNL     1      -9.689  -1.525  -2.176  1.00  0.00     0.270 A 
ATOM     28  C   UNL     1     -10.752  -0.964  -1.470  1.00  0.00     0.085 A 
BRANCH  27  29
ATOM     29  N   UNL     1      -9.954  -2.005  -3.520  1.00  0.00     0.062 N 
ATOM     30  O   UNL     1     -10.101  -1.159  -4.409  1.00  0.00    -0.258 OA
ATOM     31  O   UNL     1     -10.031  -3.234  -3.663  1.00  0.00    -0.258 OA
ENDBRANCH  27  29
ENDBRANCH  13  23
ENDBRANCH   4   6
ENDBRANCH   3   4
ENDBRANCH   2   3
ENDBRANCH   1   2
BRANCH   1  32
ATOM     32  O   UNL     1      -6.767   0.501  -5.874  1.00  0.00    -0.458 OA
BRANCH  32  33
ATOM     33  C   UNL     1      -7.253   0.353  -4.632  1.00  0.00     0.338 C 
ATOM     34  O   UNL     1      -7.310  -0.740  -4.059  1.00  0.00    -0.246 OA
BRANCH  33  35
ATOM     35  C   UNL     1      -7.362   1.666  -3.971  1.00  0.00     0.060 A 
ATOM     36  C   UNL     1      -7.242   1.737  -2.577  1.00  0.00     0.016 A 
ATOM     37  C   UNL     1      -7.258   2.815  -4.749  1.00  0.00     0.016 A 
ATOM     38  C   UNL     1      -6.922   2.926  -1.945  1.00  0.00     0.010 A 
ATOM     39  C   UNL     1      -6.879   3.983  -4.144  1.00  0.00     0.010 A 
ATOM     40  C   UNL     1      -6.736   4.032  -2.753  1.00  0.00    -0.014 A 
BRANCH  40  41
ATOM     41  C   UNL     1      -6.577   5.356  -2.209  1.00  0.00     0.031 A 
ATOM     42  C   UNL     1      -5.280   5.742  -1.621  1.00  0.00     0.074 A 
ATOM     43  C   UNL     1      -7.677   6.115  -2.414  1.00  0.00     0.049 A 
ATOM     44  N   UNL     1      -5.137   6.551  -0.632  1.00  0.00    -0.248 NA
ATOM     45  C   UNL     1      -3.996   5.166  -2.049  1.00  0.00     0.031 C 
ATOM     46  C   UNL     1      -7.864   7.543  -2.305  1.00  0.00     0.029 A 
ATOM     47  N   UNL     1      -8.974   5.651  -2.694  1.00  0.00    -0.354 N 
ATOM     48  C   UNL     1      -3.814   6.955  -0.659  1.00  0.00     0.074 A 
ATOM     49  C   UNL     1      -3.116   5.920  -1.376  1.00  0.00     0.031 C 
ATOM     50  C   UNL     1      -9.184   7.791  -2.168  1.00  0.00     0.029 A 
ATOM     51  C   UNL     1      -9.866   6.509  -2.052  1.00  0.00     0.049 A 
ATOM     52  H   UNL     1      -9.209   4.866  -3.240  1.00  0.00     0.167 HD
ATOM     53  C   UNL     1      -3.524   8.254  -0.354  1.00  0.00     0.034 A 
ATOM     54  C   UNL     1     -10.623   6.104  -0.985  1.00  0.00     0.034 A 
ATOM     55  C   UNL     1      -4.763   8.961  -0.035  1.00  0.00     0.049 A 
ATOM     56  C   UNL     1     -10.132   6.780   0.280  1.00  0.00     0.074 A 
ATOM     57  C   UNL     1      -5.578   9.767  -0.812  1.00  0.00     0.029 A 
ATOM     58  N   UNL     1      -5.518   8.567   1.059  1.00  0.00    -0.354 N 
ATOM     59  N   UNL     1      -8.927   7.261   0.441  1.00  0.00    -0.248 NA
ATOM     60  C   UNL     1     -10.988   7.004   1.435  1.00  0.00     0.031 C 
ATOM     61  C   UNL     1      -6.860   9.798  -0.206  1.00  0.00     0.029 A 
ATOM     62  C   UNL     1      -6.820   9.008   0.929  1.00  0.00     0.049 A 
ATOM     63  H   UNL     1      -5.175   8.046   1.821  1.00  0.00     0.167 HD
ATOM     64  C   UNL     1      -8.876   7.975   1.611  1.00  0.00     0.074 A 
ATOM     65  C   UNL     1     -10.188   7.760   2.205  1.00  0.00     0.031 C 
ATOM     66  C   UNL     1      -7.790   8.731   1.972  1.00  0.00     0.034 A 
BRANCH  53  67
ATOM     67  C   UNL     1      -2.255   8.993  -0.727  1.00  0.00     0.023 A 
ATOM     68  C   UNL     1      -2.339  10.382  -0.978  1.00  0.00     0.031 A 
ATOM     69  C   UNL     1      -0.972   8.436  -0.865  1.00  0.00     0.131 A 
ATOM     70  C   UNL     1      -1.238  11.133  -1.419  1.00  0.00     0.055 A 
ATOM     71  C   UNL     1       0.131   9.182  -1.320  1.00  0.00     0.041 A 
ATOM     72  F   UNL     1      -0.721   7.161  -0.533  1.00  0.00    -0.206 F 
ATOM     73  C   UNL     1       0.000  10.536  -1.610  1.00  0.00     0.022 A 
BRANCH  70  74
ATOM     74  S   UNL     1      -1.469  12.905  -1.734  1.00  0.00     0.124 S 
ATOM     75  O   UNL     1      -2.434  12.899  -2.829  1.00  0.00    -0.237 OA
ATOM     76  O   UNL     1      -1.955  13.390  -0.448  1.00  0.00    -0.237 OA
ATOM     77  O   UNL     1      -0.128  13.361  -2.097  1.00  0.00    -0.744 OA
ENDBRANCH  70  74
ENDBRANCH  53  67
BRANCH  54  78
ATOM     78  C   UNL     1     -11.063   4.678  -1.058  1.00  0.00     0.023 A 
ATOM     79  C   UNL     1     -11.939   4.298  -2.105  1.00  0.00     0.031 A 
ATOM     80  C   UNL     1     -10.225   3.705  -0.512  1.00  0.00     0.131 A 
ATOM     81  C   UNL     1     -11.743   3.073  -2.758  1.00  0.00     0.055 A 
ATOM     82  C   UNL     1     -10.031   2.512  -1.189  1.00  0.00     0.041 A 
ATOM     83  F   UNL     1      -9.435   3.961   0.539  1.00  0.00    -0.206 F 
ATOM     84  C   UNL     1     -10.730   2.219  -2.354  1.00  0.00     0.022 A 
BRANCH  81  85
ATOM     85  S   UNL     1     -12.731   2.581  -4.193  1.00  0.00     0.124 S 
ATOM     86  O   UNL     1     -13.979   3.311  -3.999  1.00  0.00    -0.237 OA
ATOM     87  O   UNL     1     -11.892   3.028  -5.300  1.00  0.00    -0.237 OA
ATOM     88  O   UNL     1     -12.834   1.133  -4.016  1.00  0.00    -0.744 OA
ENDBRANCH  81  85
ENDBRANCH  54  78
BRANCH  66  89
ATOM     89  C   UNL     1      -7.588   9.426   3.298  1.00  0.00     0.023 A 
ATOM     90  C   UNL     1      -8.369   9.146   4.417  1.00  0.00     0.031 A 
ATOM     91  C   UNL     1      -6.558  10.384   3.494  1.00  0.00     0.131 A 
ATOM     92  C   UNL     1      -8.238   9.895   5.593  1.00  0.00     0.055 A 
ATOM     93  C   UNL     1      -6.343  11.034   4.710  1.00  0.00     0.041 A 
ATOM     94  F   UNL     1      -5.708  10.738   2.520  1.00  0.00    -0.206 F 
ATOM     95  C   UNL     1      -7.212  10.817   5.763  1.00  0.00     0.022 A 
BRANCH  92  96
ATOM     96  S   UNL     1      -9.542   9.716   6.830  1.00  0.00     0.124 S 
ATOM     97  O   UNL     1     -10.714  10.183   6.092  1.00  0.00    -0.237 OA
ATOM     98  O   UNL     1      -9.508   8.286   7.118  1.00  0.00    -0.237 OA
ATOM     99  O   UNL     1      -9.103  10.585   7.918  1.00  0.00    -0.744 OA
ENDBRANCH  92  96
ENDBRANCH  66  89
ENDBRANCH  40  41
ENDBRANCH  33  35
ENDBRANCH  32  33
ENDBRANCH   1  32
TORSDOF 17
