REMARK SMILES Cc1nn(CC(F)F)c2c1c(C(F)(F)F)cc(=O)n2CC(=O)OCCOC(=O)c1ccc(-c2c3nc(c(-c4cc(S(=O)(=O)[O-])ccc4F)c4ccc([nH]4)c(-c4cc(S(=O)(=O)[O-])ccc4F)c4nc(c(-c5cc(S(=O)(=O)[O-])ccc5F)c5ccc2[nH]5)C=C4)C=C3)cc1
REMARK SMILES IDX 24 1 23 2 21 3 22 4 20 5 19 6 1 7 2 8 3 9 10 10 4 11 9 12
REMARK SMILES IDX 11 13 16 14 17 15 18 16 5 17 6 18 7 19 8 20 12 21 13 22
REMARK SMILES IDX 14 23 15 24 25 25 26 26 27 27 28 28 29 29 30 30 91 31 31 32
REMARK SMILES IDX 90 33 32 34 33 35 34 36 84 37 35 38 89 39 83 40 85 41 36 42
REMARK SMILES IDX 88 43 82 44 81 45 37 47 69 48 49 49 68 50 50 51 53 52 67 53
REMARK SMILES IDX 86 54 51 55 52 56 66 58 87 59 54 60 38 61 39 62 47 63 40 64
REMARK SMILES IDX 46 65 48 66 45 67 41 68 42 69 43 70 44 71 70 72 71 73 79 74
REMARK SMILES IDX 72 75 78 76 80 77 77 78 73 79 74 80 75 81 76 82 55 83 56 84
REMARK SMILES IDX 64 85 57 86 63 87 65 88 62 89 58 90 59 91 60 92 61 93
REMARK H PARENT 85 46 53 57
REMARK Flexibility Score: inf
ROOT
ATOM      1  C   UNL     1      -4.244  -1.898   4.113  1.00  0.00     0.274 C 
ENDROOT
BRANCH   1   2
ATOM      2  O   UNL     1      -3.022  -1.102   4.117  1.00  0.00    -0.461 OA
BRANCH   2   3
ATOM      3  C   UNL     1      -2.855  -0.245   5.182  1.00  0.00     0.326 C 
ATOM      4  O   UNL     1      -3.681  -0.119   6.080  1.00  0.00    -0.250 OA
BRANCH   3   5
ATOM      5  C   UNL     1      -1.416   0.274   5.288  1.00  0.00     0.250 C 
BRANCH   5   6
ATOM      6  N   UNL     1      -0.943   0.922   4.086  1.00  0.00    -0.282 N 
ATOM      7  C   UNL     1       1.234   0.322  -0.380  1.00  0.00     0.069 C 
ATOM      8  C   UNL     1       0.754   0.186   1.016  1.00  0.00     0.069 A 
ATOM      9  N   UNL     1       0.894  -1.004   1.607  1.00  0.00    -0.175 NA
ATOM     10  C   UNL     1       0.146   1.108   1.894  1.00  0.00     0.053 A 
ATOM     11  N   UNL     1       0.392  -0.849   2.853  1.00  0.00    -0.243 N 
ATOM     12  C   UNL     1      -0.185   0.390   3.034  1.00  0.00     0.142 A 
ATOM     13  C   UNL     1      -0.187   2.494   1.833  1.00  0.00     0.074 A 
ATOM     14  C   UNL     1      -0.885   3.055   2.833  1.00  0.00     0.085 A 
ATOM     15  C   UNL     1      -1.376   2.250   3.972  1.00  0.00     0.253 A 
ATOM     16  O   UNL     1      -2.163   2.786   4.748  1.00  0.00    -0.269 OA
BRANCH  11  17
ATOM     17  C   UNL     1       0.636  -1.956   3.752  1.00  0.00     0.219 C 
BRANCH  17  18
ATOM     18  C   UNL     1       1.968  -1.803   4.448  1.00  0.00     0.363 C 
ATOM     19  F   UNL     1       1.855  -0.897   5.453  1.00  0.00    -0.208 F 
ATOM     20  F   UNL     1       2.305  -2.981   5.037  1.00  0.00    -0.208 F 
ENDBRANCH  17  18
ENDBRANCH  11  17
BRANCH  13  21
ATOM     21  C   UNL     1       0.299   3.308   0.684  1.00  0.00     0.417 C 
ATOM     22  F   UNL     1       1.611   3.109   0.402  1.00  0.00    -0.166 F 
ATOM     23  F   UNL     1      -0.399   3.037  -0.451  1.00  0.00    -0.166 F 
ATOM     24  F   UNL     1       0.155   4.645   0.895  1.00  0.00    -0.166 F 
ENDBRANCH  13  21
ENDBRANCH   5   6
ENDBRANCH   3   5
ENDBRANCH   2   3
ENDBRANCH   1   2
BRANCH   1  25
ATOM     25  C   UNL     1      -3.959  -3.361   3.692  1.00  0.00     0.275 C 
BRANCH  25  26
ATOM     26  O   UNL     1      -3.540  -4.117   4.852  1.00  0.00    -0.458 OA
BRANCH  26  27
ATOM     27  C   UNL     1      -2.304  -4.682   4.844  1.00  0.00     0.338 C 
ATOM     28  O   UNL     1      -1.717  -5.155   3.882  1.00  0.00    -0.246 OA
BRANCH  27  29
ATOM     29  C   UNL     1      -1.664  -4.332   6.133  1.00  0.00     0.060 A 
ATOM     30  C   UNL     1      -0.769  -5.103   6.860  1.00  0.00     0.016 A 
ATOM     31  C   UNL     1      -1.874  -3.020   6.525  1.00  0.00     0.016 A 
ATOM     32  C   UNL     1      -0.148  -4.531   7.994  1.00  0.00     0.010 A 
ATOM     33  C   UNL     1      -1.166  -2.422   7.533  1.00  0.00     0.010 A 
ATOM     34  C   UNL     1      -0.344  -3.173   8.335  1.00  0.00    -0.014 A 
BRANCH  34  35
ATOM     35  C   UNL     1       0.304  -2.515   9.479  1.00  0.00     0.031 A 
ATOM     36  C   UNL     1       1.692  -2.940   9.785  1.00  0.00     0.074 A 
ATOM     37  C   UNL     1      -0.145  -1.460  10.204  1.00  0.00     0.049 A 
ATOM     38  N   UNL     1       2.069  -3.746  10.719  1.00  0.00    -0.248 NA
ATOM     39  C   UNL     1       2.775  -2.464   8.921  1.00  0.00     0.031 C 
ATOM     40  C   UNL     1      -1.277  -0.544   9.986  1.00  0.00     0.029 A 
ATOM     41  N   UNL     1       0.420  -0.955  11.343  1.00  0.00    -0.354 N 
ATOM     42  C   UNL     1       3.460  -3.763  10.685  1.00  0.00     0.074 A 
ATOM     43  C   UNL     1       3.833  -3.054   9.483  1.00  0.00     0.031 C 
ATOM     44  C   UNL     1      -1.179   0.516  10.819  1.00  0.00     0.029 A 
ATOM     45  C   UNL     1      -0.136   0.231  11.781  1.00  0.00     0.049 A 
ATOM     46  H   UNL     1       1.162  -1.400  11.812  1.00  0.00     0.167 HD
ATOM     47  C   UNL     1       4.193  -4.233  11.736  1.00  0.00     0.034 A 
ATOM     48  C   UNL     1       0.163   0.921  12.901  1.00  0.00     0.034 A 
ATOM     49  C   UNL     1       3.349  -4.863  12.721  1.00  0.00     0.049 A 
ATOM     50  C   UNL     1       0.775  -0.012  13.870  1.00  0.00     0.074 A 
ATOM     51  C   UNL     1       2.534  -5.974  12.758  1.00  0.00     0.029 A 
ATOM     52  N   UNL     1       3.011  -4.105  13.815  1.00  0.00    -0.354 N 
ATOM     53  N   UNL     1       0.139  -0.988  14.459  1.00  0.00    -0.248 NA
ATOM     54  C   UNL     1       2.223  -0.058  13.981  1.00  0.00     0.031 C 
ATOM     55  C   UNL     1       1.466  -5.632  13.640  1.00  0.00     0.029 A 
ATOM     56  C   UNL     1       1.689  -4.333  14.106  1.00  0.00     0.049 A 
ATOM     57  H   UNL     1       3.613  -3.501  14.306  1.00  0.00     0.167 HD
ATOM     58  C   UNL     1       1.093  -1.976  14.630  1.00  0.00     0.074 A 
ATOM     59  C   UNL     1       2.368  -1.281  14.496  1.00  0.00     0.031 C 
ATOM     60  C   UNL     1       0.771  -3.305  14.577  1.00  0.00     0.034 A 
BRANCH  47  61
ATOM     61  C   UNL     1       5.636  -3.895  12.032  1.00  0.00     0.023 A 
ATOM     62  C   UNL     1       6.327  -2.842  11.409  1.00  0.00     0.031 A 
ATOM     63  C   UNL     1       6.311  -4.522  13.104  1.00  0.00     0.131 A 
ATOM     64  C   UNL     1       7.620  -2.474  11.811  1.00  0.00     0.055 A 
ATOM     65  C   UNL     1       7.574  -4.111  13.549  1.00  0.00     0.041 A 
ATOM     66  F   UNL     1       5.745  -5.529  13.787  1.00  0.00    -0.206 F 
ATOM     67  C   UNL     1       8.241  -3.085  12.895  1.00  0.00     0.022 A 
BRANCH  64  68
ATOM     68  S   UNL     1       8.534  -1.198  10.901  1.00  0.00     0.124 S 
ATOM     69  O   UNL     1       8.588  -0.117  11.878  1.00  0.00    -0.237 OA
ATOM     70  O   UNL     1       9.802  -1.871  10.630  1.00  0.00    -0.237 OA
ATOM     71  O   UNL     1       7.700  -0.959   9.726  1.00  0.00    -0.744 OA
ENDBRANCH  64  68
ENDBRANCH  47  61
BRANCH  48  72
ATOM     72  C   UNL     1       0.155   2.384  13.072  1.00  0.00     0.023 A 
ATOM     73  C   UNL     1       0.545   3.207  11.997  1.00  0.00     0.031 A 
ATOM     74  C   UNL     1       0.035   2.974  14.338  1.00  0.00     0.131 A 
ATOM     75  C   UNL     1       0.855   4.556  12.216  1.00  0.00     0.055 A 
ATOM     76  C   UNL     1       0.325   4.326  14.549  1.00  0.00     0.041 A 
ATOM     77  F   UNL     1      -0.314   2.237  15.403  1.00  0.00    -0.206 F 
ATOM     78  C   UNL     1       0.751   5.120  13.488  1.00  0.00     0.022 A 
BRANCH  75  79
ATOM     79  S   UNL     1       1.460   5.592  10.855  1.00  0.00     0.124 S 
ATOM     80  O   UNL     1       0.729   6.840  11.062  1.00  0.00    -0.237 OA
ATOM     81  O   UNL     1       2.890   5.649  11.138  1.00  0.00    -0.237 OA
ATOM     82  O   UNL     1       1.077   4.845   9.661  1.00  0.00    -0.744 OA
ENDBRANCH  75  79
ENDBRANCH  48  72
BRANCH  60  83
ATOM     83  C   UNL     1      -0.680  -3.721  14.738  1.00  0.00     0.023 A 
ATOM     84  C   UNL     1      -0.965  -4.769  15.638  1.00  0.00     0.031 A 
ATOM     85  C   UNL     1      -1.737  -3.269  13.926  1.00  0.00     0.131 A 
ATOM     86  C   UNL     1      -2.245  -5.339  15.688  1.00  0.00     0.055 A 
ATOM     87  C   UNL     1      -3.030  -3.793  14.030  1.00  0.00     0.041 A 
ATOM     88  F   UNL     1      -1.540  -2.369  12.954  1.00  0.00    -0.206 F 
ATOM     89  C   UNL     1      -3.287  -4.842  14.903  1.00  0.00     0.022 A 
BRANCH  86  90
ATOM     90  S   UNL     1      -2.554  -6.839  16.661  1.00  0.00     0.124 S 
ATOM     91  O   UNL     1      -3.463  -6.355  17.696  1.00  0.00    -0.237 OA
ATOM     92  O   UNL     1      -3.152  -7.735  15.673  1.00  0.00    -0.237 OA
ATOM     93  O   UNL     1      -1.229  -7.236  17.128  1.00  0.00    -0.744 OA
ENDBRANCH  86  90
ENDBRANCH  60  83
ENDBRANCH  34  35
ENDBRANCH  27  29
ENDBRANCH  26  27
ENDBRANCH  25  26
ENDBRANCH   1  25
TORSDOF 18
