REMARK SMILES O=C(OCCOC(=O)[C@H]1[C@@H]2C[C@H]3C[C@@H](C2)C[C@]1(n1ncc(N2CCN(c4ccc(F)cc4)CC2)c(Cl)c1=O)C3)c1ccc(-c2c3nc(c(-c4cc(S(=O)(=O)[O-])ccc4F)c4ccc([nH]4)c(-c4cc(S(=O)(=O)[O-])ccc4F)c4nc(c(-c5cc(S(=O)(=O)[O-])ccc5F)c5ccc2[nH]5)C=C4)C=C3)cc1
REMARK SMILES IDX 4 1 3 2 2 3 1 4 40 5 41 6 102 7 42 8 101 9 43 10 44 11 45 12
REMARK SMILES IDX 95 13 46 14 100 15 94 16 96 17 47 18 99 19 93 20 92 21 48 23
REMARK SMILES IDX 80 24 60 25 79 26 61 27 64 28 78 29 97 30 62 31 63 32 77 34
REMARK SMILES IDX 98 35 65 36 49 37 50 38 58 39 51 40 57 41 59 42 56 43 52 44
REMARK SMILES IDX 53 45 54 46 55 47 81 48 82 49 90 50 83 51 89 52 91 53 88 54
REMARK SMILES IDX 84 55 85 56 86 57 87 58 66 59 67 60 75 61 68 62 74 63 76 64
REMARK SMILES IDX 73 65 69 66 70 67 71 68 72 69 5 70 6 71 7 72 8 73 9 74 10 75
REMARK SMILES IDX 17 76 15 77 11 78 39 79 16 80 14 81 12 82 13 83 18 84 19 85
REMARK SMILES IDX 37 86 20 87 35 88 38 89 21 90 36 91 22 92 23 93 34 94 24 95
REMARK SMILES IDX 33 96 25 97 26 98 27 99 32 100 28 101 31 102 29 103 30 104
REMARK H PARENT 96 22 64 33
REMARK Flexibility Score: inf
ROOT
ATOM      1  C   UNL     1      -1.692  -2.473  -1.759  1.00  0.00     0.275 C 
ENDROOT
BRANCH   1   2
ATOM      2  O   UNL     1      -1.016  -3.538  -2.449  1.00  0.00    -0.458 OA
BRANCH   2   3
ATOM      3  C   UNL     1       0.180  -3.489  -3.087  1.00  0.00     0.338 C 
ATOM      4  O   UNL     1       0.455  -4.349  -3.923  1.00  0.00    -0.246 OA
BRANCH   3   5
ATOM      5  C   UNL     1       1.262  -2.539  -2.691  1.00  0.00     0.060 A 
ATOM      6  C   UNL     1       2.563  -3.068  -2.634  1.00  0.00     0.016 A 
ATOM      7  C   UNL     1       1.096  -1.173  -2.453  1.00  0.00     0.016 A 
ATOM      8  C   UNL     1       3.660  -2.275  -2.284  1.00  0.00     0.010 A 
ATOM      9  C   UNL     1       2.188  -0.374  -2.097  1.00  0.00     0.010 A 
ATOM     10  C   UNL     1       3.477  -0.916  -2.018  1.00  0.00    -0.014 A 
BRANCH  10  11
ATOM     11  C   UNL     1       4.631   0.004  -1.907  1.00  0.00     0.031 A 
ATOM     12  C   UNL     1       5.085   0.576  -0.605  1.00  0.00     0.074 A 
ATOM     13  C   UNL     1       5.185   0.429  -3.055  1.00  0.00     0.049 A 
ATOM     14  N   UNL     1       6.139   1.303  -0.349  1.00  0.00    -0.248 NA
ATOM     15  C   UNL     1       4.257   0.288   0.569  1.00  0.00     0.031 C 
ATOM     16  C   UNL     1       4.765  -0.003  -4.388  1.00  0.00     0.029 A 
ATOM     17  N   UNL     1       6.159   1.362  -3.288  1.00  0.00    -0.354 N 
ATOM     18  C   UNL     1       6.155   1.479   1.028  1.00  0.00     0.074 A 
ATOM     19  C   UNL     1       4.969   0.835   1.548  1.00  0.00     0.031 C 
ATOM     20  C   UNL     1       5.427   0.716  -5.302  1.00  0.00     0.029 A 
ATOM     21  C   UNL     1       6.304   1.663  -4.618  1.00  0.00     0.049 A 
ATOM     22  H   UNL     1       6.698   1.774  -2.575  1.00  0.00     0.167 HD
ATOM     23  C   UNL     1       7.080   2.121   1.779  1.00  0.00     0.034 A 
ATOM     24  C   UNL     1       7.034   2.621  -5.222  1.00  0.00     0.034 A 
ATOM     25  C   UNL     1       8.147   2.904   1.209  1.00  0.00     0.049 A 
ATOM     26  C   UNL     1       7.952   3.461  -4.383  1.00  0.00     0.074 A 
ATOM     27  C   UNL     1       9.176   3.560   1.858  1.00  0.00     0.029 A 
ATOM     28  N   UNL     1       8.265   3.211  -0.141  1.00  0.00    -0.354 N 
ATOM     29  N   UNL     1       8.130   3.429  -3.082  1.00  0.00    -0.248 NA
ATOM     30  C   UNL     1       8.787   4.445  -5.079  1.00  0.00     0.031 C 
ATOM     31  C   UNL     1       9.844   4.350   0.918  1.00  0.00     0.029 A 
ATOM     32  C   UNL     1       9.290   4.121  -0.334  1.00  0.00     0.049 A 
ATOM     33  H   UNL     1       7.703   2.834  -0.856  1.00  0.00     0.167 HD
ATOM     34  C   UNL     1       9.111   4.374  -2.802  1.00  0.00     0.074 A 
ATOM     35  C   UNL     1       9.495   4.953  -4.076  1.00  0.00     0.031 C 
ATOM     36  C   UNL     1       9.646   4.718  -1.603  1.00  0.00     0.034 A 
BRANCH  23  37
ATOM     37  C   UNL     1       6.991   2.023   3.281  1.00  0.00     0.023 A 
ATOM     38  C   UNL     1       6.778   3.171   4.066  1.00  0.00     0.031 A 
ATOM     39  C   UNL     1       7.250   0.806   3.939  1.00  0.00     0.131 A 
ATOM     40  C   UNL     1       6.849   3.081   5.463  1.00  0.00     0.055 A 
ATOM     41  C   UNL     1       7.300   0.719   5.332  1.00  0.00     0.041 A 
ATOM     42  F   UNL     1       7.464  -0.318   3.236  1.00  0.00    -0.206 F 
ATOM     43  C   UNL     1       7.108   1.863   6.100  1.00  0.00     0.022 A 
BRANCH  40  44
ATOM     44  S   UNL     1       6.648   4.548   6.512  1.00  0.00     0.124 S 
ATOM     45  O   UNL     1       5.506   4.166   7.341  1.00  0.00    -0.237 OA
ATOM     46  O   UNL     1       7.931   4.605   7.207  1.00  0.00    -0.237 OA
ATOM     47  O   UNL     1       6.392   5.625   5.563  1.00  0.00    -0.744 OA
ENDBRANCH  40  44
ENDBRANCH  23  37
BRANCH  24  48
ATOM     48  C   UNL     1       6.920   2.737  -6.701  1.00  0.00     0.023 A 
ATOM     49  C   UNL     1       5.687   3.082  -7.291  1.00  0.00     0.031 A 
ATOM     50  C   UNL     1       7.948   2.266  -7.530  1.00  0.00     0.131 A 
ATOM     51  C   UNL     1       5.482   2.846  -8.656  1.00  0.00     0.055 A 
ATOM     52  C   UNL     1       7.760   2.100  -8.903  1.00  0.00     0.041 A 
ATOM     53  F   UNL     1       9.128   1.905  -7.004  1.00  0.00    -0.206 F 
ATOM     54  C   UNL     1       6.514   2.365  -9.467  1.00  0.00     0.022 A 
BRANCH  51  55
ATOM     55  S   UNL     1       3.821   2.973  -9.381  1.00  0.00     0.124 S 
ATOM     56  O   UNL     1       4.030   3.941 -10.452  1.00  0.00    -0.237 OA
ATOM     57  O   UNL     1       3.580   1.597  -9.811  1.00  0.00    -0.237 OA
ATOM     58  O   UNL     1       2.992   3.430  -8.271  1.00  0.00    -0.744 OA
ENDBRANCH  51  55
ENDBRANCH  24  48
BRANCH  36  59
ATOM     59  C   UNL     1      10.689   5.808  -1.569  1.00  0.00     0.023 A 
ATOM     60  C   UNL     1      11.993   5.522  -1.124  1.00  0.00     0.031 A 
ATOM     61  C   UNL     1      10.347   7.149  -1.815  1.00  0.00     0.131 A 
ATOM     62  C   UNL     1      12.890   6.568  -0.880  1.00  0.00     0.055 A 
ATOM     63  C   UNL     1      11.262   8.184  -1.621  1.00  0.00     0.041 A 
ATOM     64  F   UNL     1       9.113   7.471  -2.236  1.00  0.00    -0.206 F 
ATOM     65  C   UNL     1      12.535   7.897  -1.134  1.00  0.00     0.022 A 
BRANCH  62  66
ATOM     66  S   UNL     1      14.512   6.251  -0.131  1.00  0.00     0.124 S 
ATOM     67  O   UNL     1      15.422   6.756  -1.157  1.00  0.00    -0.237 OA
ATOM     68  O   UNL     1      14.446   7.046   1.092  1.00  0.00    -0.237 OA
ATOM     69  O   UNL     1      14.534   4.805   0.061  1.00  0.00    -0.744 OA
ENDBRANCH  62  66
ENDBRANCH  36  59
ENDBRANCH  10  11
ENDBRANCH   3   5
ENDBRANCH   2   3
ENDBRANCH   1   2
BRANCH   1  70
ATOM     70  C   UNL     1      -1.396  -2.407  -0.265  1.00  0.00     0.274 C 
BRANCH  70  71
ATOM     71  O   UNL     1       0.004  -2.551   0.003  1.00  0.00    -0.462 OA
BRANCH  71  72
ATOM     72  C   UNL     1       0.359  -3.554   0.863  1.00  0.00     0.311 C 
ATOM     73  O   UNL     1      -0.436  -4.268   1.457  1.00  0.00    -0.252 OA
BRANCH  72  74
ATOM     74  C   UNL     1       1.859  -3.482   1.135  1.00  0.00     0.130 C 
ATOM     75  C   UNL     1       1.979  -2.912   2.587  1.00  0.00     0.006 C 
ATOM     76  C   UNL     1       2.759  -4.759   0.986  1.00  0.00     0.081 C 
ATOM     77  C   UNL     1       1.626  -3.980   3.644  1.00  0.00     0.008 C 
ATOM     78  C   UNL     1       3.420  -2.470   2.855  1.00  0.00     0.008 C 
ATOM     79  C   UNL     1       4.226  -4.243   1.293  1.00  0.00     0.035 C 
ATOM     80  C   UNL     1       2.405  -5.789   2.091  1.00  0.00     0.035 C 
ATOM     81  C   UNL     1       2.552  -5.193   3.498  1.00  0.00    -0.008 C 
ATOM     82  C   UNL     1       4.367  -3.657   2.701  1.00  0.00    -0.008 C 
ATOM     83  C   UNL     1       4.003  -4.742   3.720  1.00  0.00     0.007 C 
BRANCH  76  84
ATOM     84  N   UNL     1       2.768  -5.485  -0.348  1.00  0.00    -0.222 N 
ATOM     85  N   UNL     1       4.030  -5.767  -0.846  1.00  0.00    -0.175 NA
ATOM     86  C   UNL     1       1.628  -6.066  -0.910  1.00  0.00     0.288 A 
ATOM     87  C   UNL     1       4.152  -6.668  -1.760  1.00  0.00     0.161 A 
ATOM     88  C   UNL     1       1.848  -7.093  -1.977  1.00  0.00     0.132 A 
ATOM     89  O   UNL     1       0.488  -5.830  -0.526  1.00  0.00    -0.266 OA
ATOM     90  C   UNL     1       3.072  -7.477  -2.360  1.00  0.00     0.082 A 
ATOM     91  Cl  UNL     1       0.433  -7.921  -2.550  1.00  0.00    -0.076 Cl
BRANCH  90  92
ATOM     92  N   UNL     1       3.446  -8.507  -3.219  1.00  0.00    -0.365 N 
ATOM     93  C   UNL     1       4.202  -9.691  -2.758  1.00  0.00     0.138 C 
ATOM     94  C   UNL     1       3.120  -8.519  -4.660  1.00  0.00     0.138 C 
ATOM     95  C   UNL     1       3.473 -11.002  -3.151  1.00  0.00     0.138 C 
ATOM     96  C   UNL     1       2.429  -9.835  -5.076  1.00  0.00     0.138 C 
ATOM     97  N   UNL     1       3.200 -11.002  -4.596  1.00  0.00    -0.368 N 
BRANCH  97  98
ATOM     98  C   UNL     1       3.163 -12.164  -5.339  1.00  0.00     0.037 A 
ATOM     99  C   UNL     1       3.655 -12.153  -6.655  1.00  0.00     0.029 A 
ATOM    100  C   UNL     1       2.668 -13.374  -4.836  1.00  0.00     0.029 A 
ATOM    101  C   UNL     1       3.658 -13.304  -7.444  1.00  0.00     0.041 A 
ATOM    102  C   UNL     1       2.654 -14.530  -5.626  1.00  0.00     0.041 A 
ATOM    103  C   UNL     1       3.153 -14.483  -6.922  1.00  0.00     0.123 A 
ATOM    104  F   UNL     1       3.148 -15.591  -7.675  1.00  0.00    -0.207 F 
ENDBRANCH  97  98
ENDBRANCH  90  92
ENDBRANCH  76  84
ENDBRANCH  72  74
ENDBRANCH  71  72
ENDBRANCH  70  71
ENDBRANCH   1  70
TORSDOF 17
