REMARK SMILES Cc1ccc([C@@H](C)[N@@H+]2CCO[C@H](CC(=O)OCCOC(=O)c3ccc(-c4c5nc(c(-c6cc(S(=O)(=O)[O-])ccc6F)c6ccc([nH]6)c(-c6cc(S(=O)(=O)[O-])ccc6F)c6nc(c(-c7cc(S(=O)(=O)[O-])ccc7F)c7ccc4[nH]7)C=C6)C=C5)cc3)C2)o1
REMARK SMILES IDX 17 1 16 2 14 3 15 4 13 5 12 6 8 7 9 8 85 9 10 11 11 12 6 13
REMARK SMILES IDX 7 14 5 15 1 16 2 17 3 18 86 19 4 20 18 21 19 22 20 23 21 24
REMARK SMILES IDX 22 25 23 26 84 27 24 28 83 29 25 30 26 31 27 32 77 33 28 34
REMARK SMILES IDX 82 35 76 36 78 37 29 38 81 39 75 40 74 41 30 43 62 44 42 45
REMARK SMILES IDX 61 46 43 47 46 48 60 49 79 50 44 51 45 52 59 54 80 55 47 56
REMARK SMILES IDX 31 57 32 58 40 59 33 60 39 61 41 62 38 63 34 64 35 65 36 66
REMARK SMILES IDX 37 67 63 68 64 69 72 70 65 71 71 72 73 73 70 74 66 75 67 76
REMARK SMILES IDX 68 77 69 78 48 79 49 80 57 81 50 82 56 83 58 84 55 85 51 86
REMARK SMILES IDX 52 87 53 88 54 89
REMARK H PARENT 8 10 78 42 46 53
REMARK Flexibility Score: inf
ROOT
ATOM      1  C   UNL     1       2.119  -0.905  -2.488  1.00  0.00     0.274 C 
ENDROOT
BRANCH   1   2
ATOM      2  O   UNL     1       1.423   0.356  -2.523  1.00  0.00    -0.462 OA
BRANCH   2   3
ATOM      3  C   UNL     1       1.041   0.809  -1.304  1.00  0.00     0.308 C 
ATOM      4  O   UNL     1       1.246   0.192  -0.266  1.00  0.00    -0.252 OA
BRANCH   3   5
ATOM      5  C   UNL     1       0.573   2.233  -1.297  1.00  0.00     0.160 C 
BRANCH   5   6
ATOM      6  C   UNL     1      -0.619   2.685  -2.130  1.00  0.00     0.184 C 
ATOM      7  N   UNL     1      -2.829   2.028  -1.012  1.00  0.00    -0.322 N 
ATOM      8  C   UNL     1      -3.106   1.267  -2.227  1.00  0.00     0.291 C 
ATOM      9  C   UNL     1      -1.851   3.079  -1.273  1.00  0.00     0.295 C 
ATOM     10  H   UNL     1      -3.667   2.553  -0.761  1.00  0.00     0.348 HD
ATOM     11  C   UNL     1      -1.830   0.785  -2.930  1.00  0.00     0.222 C 
ATOM     12  O   UNL     1      -0.952   1.866  -3.254  1.00  0.00    -0.366 OA
BRANCH   7  13
ATOM     13  C   UNL     1      -2.890   1.329   0.283  1.00  0.00     0.248 C 
ATOM     14  C   UNL     1      -2.559   2.228   1.487  1.00  0.00     0.084 C 
BRANCH  13  15
ATOM     15  C   UNL     1      -2.182   0.001   0.378  1.00  0.00     0.161 A 
ATOM     16  C   UNL     1       0.547  -1.686   1.977  1.00  0.00     0.087 C 
ATOM     17  C   UNL     1      -0.667  -1.379   1.189  1.00  0.00     0.101 A 
ATOM     18  C   UNL     1      -1.468  -2.133   0.362  1.00  0.00     0.046 A 
ATOM     19  O   UNL     1      -1.102  -0.087   1.209  1.00  0.00    -0.460 OA
ATOM     20  C   UNL     1      -2.460  -1.255  -0.134  1.00  0.00     0.052 A 
ENDBRANCH  13  15
ENDBRANCH   7  13
ENDBRANCH   5   6
ENDBRANCH   3   5
ENDBRANCH   2   3
ENDBRANCH   1   2
BRANCH   1  21
ATOM     21  C   UNL     1       3.634  -0.732  -2.308  1.00  0.00     0.275 C 
BRANCH  21  22
ATOM     22  O   UNL     1       3.998  -0.249  -0.999  1.00  0.00    -0.458 OA
BRANCH  22  23
ATOM     23  C   UNL     1       4.110   1.099  -0.898  1.00  0.00     0.338 C 
ATOM     24  O   UNL     1       3.978   1.912  -1.797  1.00  0.00    -0.246 OA
BRANCH  23  25
ATOM     25  C   UNL     1       4.333   1.500   0.501  1.00  0.00     0.060 A 
ATOM     26  C   UNL     1       3.285   2.105   1.203  1.00  0.00     0.016 A 
ATOM     27  C   UNL     1       5.610   1.442   1.057  1.00  0.00     0.016 A 
ATOM     28  C   UNL     1       3.507   2.688   2.445  1.00  0.00     0.010 A 
ATOM     29  C   UNL     1       5.835   2.024   2.309  1.00  0.00     0.010 A 
ATOM     30  C   UNL     1       4.791   2.677   2.991  1.00  0.00    -0.014 A 
BRANCH  30  31
ATOM     31  C   UNL     1       5.070   3.479   4.203  1.00  0.00     0.031 A 
ATOM     32  C   UNL     1       5.774   4.796   4.048  1.00  0.00     0.074 A 
ATOM     33  C   UNL     1       4.671   3.048   5.412  1.00  0.00     0.049 A 
ATOM     34  N   UNL     1       6.263   5.591   4.962  1.00  0.00    -0.248 NA
ATOM     35  C   UNL     1       5.954   5.276   2.669  1.00  0.00     0.031 C 
ATOM     36  C   UNL     1       3.895   1.833   5.660  1.00  0.00     0.029 A 
ATOM     37  N   UNL     1       4.876   3.578   6.660  1.00  0.00    -0.354 N 
ATOM     38  C   UNL     1       6.838   6.652   4.270  1.00  0.00     0.074 A 
ATOM     39  C   UNL     1       6.644   6.390   2.860  1.00  0.00     0.031 C 
ATOM     40  C   UNL     1       3.712   1.696   6.984  1.00  0.00     0.029 A 
ATOM     41  C   UNL     1       4.408   2.778   7.675  1.00  0.00     0.049 A 
ATOM     42  H   UNL     1       5.315   4.446   6.813  1.00  0.00     0.167 HD
ATOM     43  C   UNL     1       7.476   7.737   4.774  1.00  0.00     0.034 A 
ATOM     44  C   UNL     1       4.572   2.883   9.009  1.00  0.00     0.034 A 
ATOM     45  C   UNL     1       7.655   7.964   6.188  1.00  0.00     0.049 A 
ATOM     46  C   UNL     1       5.360   4.051   9.547  1.00  0.00     0.074 A 
ATOM     47  C   UNL     1       8.294   9.015   6.822  1.00  0.00     0.029 A 
ATOM     48  N   UNL     1       7.198   7.116   7.190  1.00  0.00    -0.354 N 
ATOM     49  N   UNL     1       5.945   5.027   8.889  1.00  0.00    -0.248 NA
ATOM     50  C   UNL     1       5.513   4.131  11.005  1.00  0.00     0.031 C 
ATOM     51  C   UNL     1       8.280   8.768   8.200  1.00  0.00     0.029 A 
ATOM     52  C   UNL     1       7.567   7.602   8.434  1.00  0.00     0.049 A 
ATOM     53  H   UNL     1       6.686   6.289   7.038  1.00  0.00     0.167 HD
ATOM     54  C   UNL     1       6.518   5.848   9.856  1.00  0.00     0.074 A 
ATOM     55  C   UNL     1       6.194   5.260  11.141  1.00  0.00     0.031 C 
ATOM     56  C   UNL     1       7.243   6.986   9.701  1.00  0.00     0.034 A 
BRANCH  43  57
ATOM     57  C   UNL     1       8.092   8.695   3.783  1.00  0.00     0.023 A 
ATOM     58  C   UNL     1       7.314   9.439   2.878  1.00  0.00     0.031 A 
ATOM     59  C   UNL     1       9.491   8.817   3.701  1.00  0.00     0.131 A 
ATOM     60  C   UNL     1       7.940  10.208   1.883  1.00  0.00     0.055 A 
ATOM     61  C   UNL     1      10.106   9.644   2.760  1.00  0.00     0.041 A 
ATOM     62  F   UNL     1      10.287   8.112   4.521  1.00  0.00    -0.206 F 
ATOM     63  C   UNL     1       9.330  10.333   1.832  1.00  0.00     0.022 A 
BRANCH  60  64
ATOM     64  S   UNL     1       6.919  10.919   0.562  1.00  0.00     0.124 S 
ATOM     65  O   UNL     1       6.287   9.727   0.002  1.00  0.00    -0.237 OA
ATOM     66  O   UNL     1       6.041  11.824   1.295  1.00  0.00    -0.237 OA
ATOM     67  O   UNL     1       7.894  11.569  -0.312  1.00  0.00    -0.744 OA
ENDBRANCH  60  64
ENDBRANCH  43  57
BRANCH  44  68
ATOM     68  C   UNL     1       4.054   1.819   9.915  1.00  0.00     0.023 A 
ATOM     69  C   UNL     1       3.056   2.086  10.864  1.00  0.00     0.031 A 
ATOM     70  C   UNL     1       4.581   0.514   9.863  1.00  0.00     0.131 A 
ATOM     71  C   UNL     1       2.638   1.073  11.743  1.00  0.00     0.055 A 
ATOM     72  C   UNL     1       4.128  -0.501  10.705  1.00  0.00     0.041 A 
ATOM     73  F   UNL     1       5.540   0.204   8.975  1.00  0.00    -0.206 F 
ATOM     74  C   UNL     1       3.157  -0.221  11.661  1.00  0.00     0.022 A 
BRANCH  71  75
ATOM     75  S   UNL     1       1.450   1.489  13.050  1.00  0.00     0.124 S 
ATOM     76  O   UNL     1       2.158   2.540  13.773  1.00  0.00    -0.237 OA
ATOM     77  O   UNL     1       0.287   1.913  12.278  1.00  0.00    -0.237 OA
ATOM     78  O   UNL     1       1.289   0.232  13.776  1.00  0.00    -0.744 OA
ENDBRANCH  71  75
ENDBRANCH  44  68
BRANCH  56  79
ATOM     79  C   UNL     1       7.693   7.682  10.961  1.00  0.00     0.023 A 
ATOM     80  C   UNL     1       8.663   7.120  11.809  1.00  0.00     0.031 A 
ATOM     81  C   UNL     1       7.135   8.921  11.319  1.00  0.00     0.131 A 
ATOM     82  C   UNL     1       9.007   7.773  13.002  1.00  0.00     0.055 A 
ATOM     83  C   UNL     1       7.523   9.594  12.478  1.00  0.00     0.041 A 
ATOM     84  F   UNL     1       6.204   9.501  10.544  1.00  0.00    -0.206 F 
ATOM     85  C   UNL     1       8.455   9.014  13.334  1.00  0.00     0.022 A 
BRANCH  82  86
ATOM     86  S   UNL     1      10.126   6.939  14.161  1.00  0.00     0.124 S 
ATOM     87  O   UNL     1       9.402   5.705  14.447  1.00  0.00    -0.237 OA
ATOM     88  O   UNL     1      11.344   6.795  13.370  1.00  0.00    -0.237 OA
ATOM     89  O   UNL     1      10.222   7.876  15.279  1.00  0.00    -0.744 OA
ENDBRANCH  82  86
ENDBRANCH  56  79
ENDBRANCH  30  31
ENDBRANCH  23  25
ENDBRANCH  22  23
ENDBRANCH  21  22
ENDBRANCH   1  21
TORSDOF 17
