REMARK SMILES O=C(OCCOC(=O)c1ccc(-c2c3nc(c(-c4cc(S(=O)(=O)[O-])ccc4F)c4ccc([nH]4)c(-c4cc(S(=O)(=O)[O-])ccc4F)c4nc(c(-c5cc(S(=O)(=O)[O-])ccc5F)c5ccc2[nH]5)C=C4)C=C3)cc1)C1=Cc2cc(C(F)(F)F)ccc2O[C@@H]1C(F)(F)F
REMARK SMILES IDX 5 1 4 2 3 3 2 4 1 5 72 6 73 7 85 8 74 9 84 10 75 11 83 12
REMARK SMILES IDX 76 13 82 14 81 15 86 16 87 17 88 18 89 19 77 20 78 21 79 22
REMARK SMILES IDX 80 23 6 24 7 25 8 26 9 27 10 28 71 29 11 30 70 31 12 32
REMARK SMILES IDX 13 33 14 34 64 35 15 36 69 37 63 38 65 39 16 40 68 41 62 42
REMARK SMILES IDX 61 43 17 45 49 46 29 47 48 48 30 49 33 50 47 51 66 52 31 53
REMARK SMILES IDX 32 54 46 56 67 57 34 58 18 59 19 60 27 61 20 62 26 63 28 64
REMARK SMILES IDX 25 65 21 66 22 67 23 68 24 69 50 70 51 71 59 72 52 73 58 74
REMARK SMILES IDX 60 75 57 76 53 77 54 78 55 79 56 80 35 81 36 82 44 83 37 84
REMARK SMILES IDX 43 85 45 86 42 87 38 88 39 89 40 90 41 91
REMARK H PARENT 65 44 33 55
REMARK Flexibility Score: inf
ROOT
ATOM      1  C   UNL     1       4.593   0.997  -0.005  1.00  0.00     0.275 C 
ENDROOT
BRANCH   1   2
ATOM      2  C   UNL     1       3.762  -0.814   0.849  1.00  0.00     0.275 C 
BRANCH   2   3
ATOM      3  O   UNL     1       2.797  -0.904   2.061  1.00  0.00    -0.459 OA
BRANCH   3   4
ATOM      4  C   UNL     1       2.947   0.111   2.921  1.00  0.00     0.338 C 
ATOM      5  O   UNL     1       2.310   0.397   3.900  1.00  0.00    -0.246 OA
BRANCH   4   6
ATOM      6  C   UNL     1       3.838   0.869   2.076  1.00  0.00     0.087 C 
ATOM      7  C   UNL     1       5.206   0.395   2.127  1.00  0.00     0.027 C 
ATOM      8  C   UNL     1       2.693   0.868   0.527  1.00  0.00     0.316 C 
ATOM      9  C   UNL     1       5.974  -0.488   0.790  1.00  0.00     0.018 A 
ATOM     10  O   UNL     1       3.482  -0.171  -0.913  1.00  0.00    -0.475 OA
ATOM     11  C   UNL     1       7.205  -1.010   1.037  1.00  0.00     0.025 A 
ATOM     12  C   UNL     1       5.150  -0.891  -0.677  1.00  0.00     0.128 A 
ATOM     13  C   UNL     1       7.702  -1.885   0.054  1.00  0.00     0.056 A 
ATOM     14  C   UNL     1       5.684  -1.748  -1.597  1.00  0.00     0.048 A 
ATOM     15  C   UNL     1       6.971  -2.232  -1.186  1.00  0.00     0.017 A 
BRANCH   8  16
ATOM     16  C   UNL     1       2.295   2.412   0.745  1.00  0.00     0.430 C 
ATOM     17  F   UNL     1       1.008   2.627   0.446  1.00  0.00    -0.167 F 
ATOM     18  F   UNL     1       2.353   2.712   2.083  1.00  0.00    -0.167 F 
ATOM     19  F   UNL     1       3.091   3.358   0.226  1.00  0.00    -0.167 F 
ENDBRANCH   8  16
BRANCH  13  20
ATOM     20  C   UNL     1       9.083  -2.447   0.370  1.00  0.00     0.416 C 
ATOM     21  F   UNL     1      10.060  -1.510   0.217  1.00  0.00    -0.166 F 
ATOM     22  F   UNL     1       9.183  -2.862   1.669  1.00  0.00    -0.166 F 
ATOM     23  F   UNL     1       9.446  -3.511  -0.389  1.00  0.00    -0.166 F 
ENDBRANCH  13  20
ENDBRANCH   4   6
ENDBRANCH   3   4
ENDBRANCH   2   3
ENDBRANCH   1   2
BRANCH   1  24
ATOM     24  O   UNL     1       3.833   1.931  -1.280  1.00  0.00    -0.458 OA
BRANCH  24  25
ATOM     25  C   UNL     1       2.896   1.865  -2.294  1.00  0.00     0.338 C 
ATOM     26  O   UNL     1       2.416   0.887  -2.841  1.00  0.00    -0.246 OA
BRANCH  25  27
ATOM     27  C   UNL     1       2.208   3.199  -2.316  1.00  0.00     0.060 A 
ATOM     28  C   UNL     1       0.849   3.254  -1.950  1.00  0.00     0.016 A 
ATOM     29  C   UNL     1       2.976   4.362  -2.277  1.00  0.00     0.016 A 
ATOM     30  C   UNL     1       0.343   4.404  -1.308  1.00  0.00     0.010 A 
ATOM     31  C   UNL     1       2.466   5.501  -1.642  1.00  0.00     0.010 A 
ATOM     32  C   UNL     1       1.177   5.507  -1.075  1.00  0.00    -0.014 A 
BRANCH  32  33
ATOM     33  C   UNL     1       0.651   6.772  -0.486  1.00  0.00     0.031 A 
ATOM     34  C   UNL     1       0.120   7.759  -1.484  1.00  0.00     0.074 A 
ATOM     35  C   UNL     1       0.695   7.090   0.828  1.00  0.00     0.049 A 
ATOM     36  N   UNL     1      -0.308   8.979  -1.314  1.00  0.00    -0.248 NA
ATOM     37  C   UNL     1       0.114   7.298  -2.883  1.00  0.00     0.031 C 
ATOM     38  C   UNL     1       1.187   6.234   1.908  1.00  0.00     0.029 A 
ATOM     39  N   UNL     1       0.326   8.249   1.484  1.00  0.00    -0.354 N 
ATOM     40  C   UNL     1      -0.641   9.426  -2.586  1.00  0.00     0.074 A 
ATOM     41  C   UNL     1      -0.281   8.384  -3.518  1.00  0.00     0.031 C 
ATOM     42  C   UNL     1       1.095   6.895   3.081  1.00  0.00     0.029 A 
ATOM     43  C   UNL     1       0.556   8.235   2.848  1.00  0.00     0.049 A 
ATOM     44  H   UNL     1      -0.068   9.022   1.019  1.00  0.00     0.167 HD
ATOM     45  C   UNL     1      -1.228  10.588  -2.950  1.00  0.00     0.034 A 
ATOM     46  C   UNL     1       0.357   9.196   3.784  1.00  0.00     0.034 A 
ATOM     47  C   UNL     1      -1.541  11.639  -2.026  1.00  0.00     0.049 A 
ATOM     48  C   UNL     1      -0.211  10.535   3.336  1.00  0.00     0.074 A 
ATOM     49  C   UNL     1      -2.111  12.870  -2.283  1.00  0.00     0.029 A 
ATOM     50  N   UNL     1      -1.288  11.587  -0.661  1.00  0.00    -0.354 N 
ATOM     51  N   UNL     1      -0.574  10.923   2.133  1.00  0.00    -0.248 NA
ATOM     52  C   UNL     1      -0.405  11.561   4.373  1.00  0.00     0.031 C 
ATOM     53  C   UNL     1      -2.143  13.589  -1.084  1.00  0.00     0.029 A 
ATOM     54  C   UNL     1      -1.671  12.776  -0.065  1.00  0.00     0.049 A 
ATOM     55  H   UNL     1      -0.894  10.819  -0.188  1.00  0.00     0.167 HD
ATOM     56  C   UNL     1      -1.083  12.214   2.283  1.00  0.00     0.074 A 
ATOM     57  C   UNL     1      -0.992  12.534   3.691  1.00  0.00     0.031 C 
ATOM     58  C   UNL     1      -1.585  13.062   1.347  1.00  0.00     0.034 A 
BRANCH  45  59
ATOM     59  C   UNL     1      -1.510  10.755  -4.419  1.00  0.00     0.023 A 
ATOM     60  C   UNL     1      -2.383   9.879  -5.092  1.00  0.00     0.031 A 
ATOM     61  C   UNL     1      -0.810  11.707  -5.178  1.00  0.00     0.131 A 
ATOM     62  C   UNL     1      -2.449   9.901  -6.490  1.00  0.00     0.055 A 
ATOM     63  C   UNL     1      -0.959  11.788  -6.563  1.00  0.00     0.041 A 
ATOM     64  F   UNL     1       0.062  12.542  -4.592  1.00  0.00    -0.206 F 
ATOM     65  C   UNL     1      -1.766  10.868  -7.229  1.00  0.00     0.022 A 
BRANCH  62  66
ATOM     66  S   UNL     1      -3.288   8.531  -7.334  1.00  0.00     0.124 S 
ATOM     67  O   UNL     1      -2.469   7.391  -6.926  1.00  0.00    -0.237 OA
ATOM     68  O   UNL     1      -4.632   8.585  -6.771  1.00  0.00    -0.237 OA
ATOM     69  O   UNL     1      -3.187   8.888  -8.747  1.00  0.00    -0.744 OA
ENDBRANCH  62  66
ENDBRANCH  45  59
BRANCH  46  70
ATOM     70  C   UNL     1       0.704   8.995   5.235  1.00  0.00     0.023 A 
ATOM     71  C   UNL     1      -0.271   9.118   6.246  1.00  0.00     0.031 A 
ATOM     72  C   UNL     1       2.037   8.821   5.647  1.00  0.00     0.131 A 
ATOM     73  C   UNL     1       0.107   9.137   7.603  1.00  0.00     0.055 A 
ATOM     74  C   UNL     1       2.401   8.779   6.999  1.00  0.00     0.041 A 
ATOM     75  F   UNL     1       3.021   8.715   4.739  1.00  0.00    -0.206 F 
ATOM     76  C   UNL     1       1.436   8.956   7.986  1.00  0.00     0.022 A 
BRANCH  73  77
ATOM     77  S   UNL     1      -1.144   9.536   8.862  1.00  0.00     0.124 S 
ATOM     78  O   UNL     1      -1.606  10.845   8.416  1.00  0.00    -0.237 OA
ATOM     79  O   UNL     1      -2.090   8.435   8.711  1.00  0.00    -0.237 OA
ATOM     80  O   UNL     1      -0.385   9.534  10.111  1.00  0.00    -0.744 OA
ENDBRANCH  73  77
ENDBRANCH  46  70
BRANCH  58  81
ATOM     81  C   UNL     1      -2.138  14.384   1.823  1.00  0.00     0.023 A 
ATOM     82  C   UNL     1      -1.319  15.377   2.387  1.00  0.00     0.031 A 
ATOM     83  C   UNL     1      -3.510  14.662   1.679  1.00  0.00     0.131 A 
ATOM     84  C   UNL     1      -1.887  16.580   2.831  1.00  0.00     0.055 A 
ATOM     85  C   UNL     1      -4.057  15.887   2.058  1.00  0.00     0.041 A 
ATOM     86  F   UNL     1      -4.340  13.750   1.146  1.00  0.00    -0.206 F 
ATOM     87  C   UNL     1      -3.246  16.850   2.650  1.00  0.00     0.022 A 
BRANCH  84  88
ATOM     88  S   UNL     1      -0.841  17.756   3.731  1.00  0.00     0.124 S 
ATOM     89  O   UNL     1      -0.364  16.947   4.848  1.00  0.00    -0.237 OA
ATOM     90  O   UNL     1       0.160  18.114   2.731  1.00  0.00    -0.237 OA
ATOM     91  O   UNL     1      -1.765  18.829   4.094  1.00  0.00    -0.744 OA
ENDBRANCH  84  88
ENDBRANCH  58  81
ENDBRANCH  32  33
ENDBRANCH  25  27
ENDBRANCH  24  25
ENDBRANCH   1  24
TORSDOF 16
