REMARK SMILES Cc1nc([C@H](C)[NH2+]CC(=O)OCCOC(=O)c2ccc(-c3c4nc(c(-c5cc(S(=O)(=O)[O-])ccc5F)c5ccc([nH]5)c(-c5cc(S(=O)(=O)[O-])ccc5F)c5nc(c(-c6cc(S(=O)(=O)[O-])ccc6F)c6ccc3[nH]6)C=C5)C=C4)cc2)cs1
REMARK SMILES IDX 12 1 11 2 9 3 10 4 8 5 7 6 5 9 6 10 4 11 1 12 2 13 3 14
REMARK SMILES IDX 81 15 80 16 13 17 14 18 15 19 16 20 17 21 18 22 79 23 19 24
REMARK SMILES IDX 78 25 20 26 21 27 22 28 72 29 23 30 77 31 71 32 73 33 24 34
REMARK SMILES IDX 76 35 70 36 69 37 25 39 57 40 37 41 56 42 38 43 41 44 55 45
REMARK SMILES IDX 74 46 39 47 40 48 54 50 75 51 42 52 26 53 27 54 35 55 28 56
REMARK SMILES IDX 34 57 36 58 33 59 29 60 30 61 31 62 32 63 58 64 59 65 67 66
REMARK SMILES IDX 60 67 66 68 68 69 65 70 61 71 62 72 63 73 64 74 43 75 44 76
REMARK SMILES IDX 52 77 45 78 51 79 53 80 50 81 46 82 47 83 48 84 49 85
REMARK H PARENT 7 7 7 8 73 38 41 49
REMARK Flexibility Score: inf
ROOT
ATOM      1  C   UNL     1       5.652  -4.100  -2.191  1.00  0.00     0.274 C 
ENDROOT
BRANCH   1   2
ATOM      2  O   UNL     1       4.476  -3.968  -1.376  1.00  0.00    -0.458 OA
BRANCH   2   3
ATOM      3  C   UNL     1       4.543  -4.422  -0.101  1.00  0.00     0.361 C 
ATOM      4  O   UNL     1       5.462  -5.100   0.344  1.00  0.00    -0.245 OA
BRANCH   3   5
ATOM      5  C   UNL     1       3.317  -4.036   0.720  1.00  0.00     0.385 C 
BRANCH   5   6
ATOM      6  N   UNL     1       2.846  -2.656   0.528  1.00  0.00    -0.330 N 
ATOM      7  H   UNL     1       2.596  -2.281   1.444  1.00  0.00     0.347 HD
ATOM      8  H   UNL     1       3.613  -2.162   0.072  1.00  0.00     0.347 HD
BRANCH   6   9
ATOM      9  C   UNL     1       1.688  -2.495  -0.354  1.00  0.00     0.230 C 
ATOM     10  C   UNL     1       0.863  -1.318   0.172  1.00  0.00     0.082 C 
BRANCH   9  11
ATOM     11  C   UNL     1       2.112  -2.260  -1.784  1.00  0.00     0.108 A 
ATOM     12  C   UNL     1       3.916  -0.012  -4.036  1.00  0.00     0.079 C 
ATOM     13  C   UNL     1       3.112  -1.084  -3.387  1.00  0.00     0.090 A 
ATOM     14  N   UNL     1       2.775  -1.085  -2.118  1.00  0.00    -0.240 NA
ATOM     15  S   UNL     1       2.604  -2.461  -4.279  1.00  0.00    -0.127 S 
ATOM     16  C   UNL     1       1.913  -3.116  -2.853  1.00  0.00     0.096 A 
ENDBRANCH   9  11
ENDBRANCH   6   9
ENDBRANCH   5   6
ENDBRANCH   3   5
ENDBRANCH   2   3
ENDBRANCH   1   2
BRANCH   1  17
ATOM     17  C   UNL     1       6.373  -2.756  -2.296  1.00  0.00     0.275 C 
BRANCH  17  18
ATOM     18  O   UNL     1       7.101  -2.461  -1.095  1.00  0.00    -0.458 OA
BRANCH  18  19
ATOM     19  C   UNL     1       6.415  -1.769  -0.154  1.00  0.00     0.338 C 
ATOM     20  O   UNL     1       5.290  -1.316  -0.232  1.00  0.00    -0.246 OA
BRANCH  19  21
ATOM     21  C   UNL     1       7.194  -1.789   1.084  1.00  0.00     0.060 A 
ATOM     22  C   UNL     1       6.647  -2.435   2.196  1.00  0.00     0.016 A 
ATOM     23  C   UNL     1       8.447  -1.179   1.141  1.00  0.00     0.016 A 
ATOM     24  C   UNL     1       7.373  -2.499   3.377  1.00  0.00     0.010 A 
ATOM     25  C   UNL     1       9.175  -1.250   2.324  1.00  0.00     0.010 A 
ATOM     26  C   UNL     1       8.643  -1.915   3.442  1.00  0.00    -0.014 A 
BRANCH  26  27
ATOM     27  C   UNL     1       9.416  -1.974   4.699  1.00  0.00     0.031 A 
ATOM     28  C   UNL     1       9.565  -0.734   5.525  1.00  0.00     0.074 A 
ATOM     29  C   UNL     1       9.979  -3.139   5.068  1.00  0.00     0.049 A 
ATOM     30  N   UNL     1      10.282  -0.537   6.598  1.00  0.00    -0.248 NA
ATOM     31  C   UNL     1       8.814   0.445   5.069  1.00  0.00     0.031 C 
ATOM     32  C   UNL     1       9.849  -4.404   4.341  1.00  0.00     0.029 A 
ATOM     33  N   UNL     1      10.775  -3.448   6.138  1.00  0.00    -0.354 N 
ATOM     34  C   UNL     1      10.081   0.795   6.944  1.00  0.00     0.074 A 
ATOM     35  C   UNL     1       9.207   1.364   5.939  1.00  0.00     0.031 C 
ATOM     36  C   UNL     1      10.539  -5.354   4.991  1.00  0.00     0.029 A 
ATOM     37  C   UNL     1      11.205  -4.755   6.141  1.00  0.00     0.049 A 
ATOM     38  H   UNL     1      11.017  -2.799   6.837  1.00  0.00     0.167 HD
ATOM     39  C   UNL     1      10.580   1.469   8.008  1.00  0.00     0.034 A 
ATOM     40  C   UNL     1      12.067  -5.381   6.966  1.00  0.00     0.034 A 
ATOM     41  C   UNL     1      11.463   0.867   8.979  1.00  0.00     0.049 A 
ATOM     42  C   UNL     1      12.677  -4.586   8.093  1.00  0.00     0.074 A 
ATOM     43  C   UNL     1      12.035   1.440  10.101  1.00  0.00     0.029 A 
ATOM     44  N   UNL     1      11.911  -0.450   8.936  1.00  0.00    -0.354 N 
ATOM     45  N   UNL     1      12.486  -3.325   8.413  1.00  0.00    -0.248 NA
ATOM     46  C   UNL     1      13.613  -5.296   8.971  1.00  0.00     0.031 C 
ATOM     47  C   UNL     1      12.885   0.497  10.688  1.00  0.00     0.029 A 
ATOM     48  C   UNL     1      12.778  -0.696   9.989  1.00  0.00     0.049 A 
ATOM     49  H   UNL     1      11.649  -1.112   8.255  1.00  0.00     0.167 HD
ATOM     50  C   UNL     1      13.255  -3.101   9.551  1.00  0.00     0.074 A 
ATOM     51  C   UNL     1      13.897  -4.362   9.867  1.00  0.00     0.031 C 
ATOM     52  C   UNL     1      13.414  -1.962  10.274  1.00  0.00     0.034 A 
BRANCH  39  53
ATOM     53  C   UNL     1      10.231   2.934   8.127  1.00  0.00     0.023 A 
ATOM     54  C   UNL     1       8.902   3.370   8.280  1.00  0.00     0.031 A 
ATOM     55  C   UNL     1      11.235   3.913   8.031  1.00  0.00     0.131 A 
ATOM     56  C   UNL     1       8.607   4.742   8.251  1.00  0.00     0.055 A 
ATOM     57  C   UNL     1      10.944   5.278   8.090  1.00  0.00     0.041 A 
ATOM     58  F   UNL     1      12.519   3.562   7.857  1.00  0.00    -0.206 F 
ATOM     59  C   UNL     1       9.621   5.700   8.183  1.00  0.00     0.022 A 
BRANCH  56  60
ATOM     60  S   UNL     1       6.870   5.254   8.137  1.00  0.00     0.124 S 
ATOM     61  O   UNL     1       6.446   4.589   6.907  1.00  0.00    -0.237 OA
ATOM     62  O   UNL     1       6.305   4.729   9.375  1.00  0.00    -0.237 OA
ATOM     63  O   UNL     1       6.946   6.711   8.055  1.00  0.00    -0.744 OA
ENDBRANCH  56  60
ENDBRANCH  39  53
BRANCH  40  64
ATOM     64  C   UNL     1      12.429  -6.810   6.743  1.00  0.00     0.023 A 
ATOM     65  C   UNL     1      12.140  -7.788   7.707  1.00  0.00     0.031 A 
ATOM     66  C   UNL     1      13.106  -7.215   5.578  1.00  0.00     0.131 A 
ATOM     67  C   UNL     1      12.568  -9.111   7.513  1.00  0.00     0.055 A 
ATOM     68  C   UNL     1      13.476  -8.544   5.362  1.00  0.00     0.041 A 
ATOM     69  F   UNL     1      13.411  -6.322   4.623  1.00  0.00    -0.206 F 
ATOM     70  C   UNL     1      13.220  -9.499   6.340  1.00  0.00     0.022 A 
BRANCH  67  71
ATOM     71  S   UNL     1      12.344 -10.302   8.862  1.00  0.00     0.124 S 
ATOM     72  O   UNL     1      13.058  -9.651   9.954  1.00  0.00    -0.237 OA
ATOM     73  O   UNL     1      10.891 -10.352   8.985  1.00  0.00    -0.237 OA
ATOM     74  O   UNL     1      12.966 -11.521   8.347  1.00  0.00    -0.744 OA
ENDBRANCH  67  71
ENDBRANCH  40  64
BRANCH  52  75
ATOM     75  C   UNL     1      14.282  -2.056  11.505  1.00  0.00     0.023 A 
ATOM     76  C   UNL     1      15.662  -2.308  11.422  1.00  0.00     0.031 A 
ATOM     77  C   UNL     1      13.712  -1.903  12.782  1.00  0.00     0.131 A 
ATOM     78  C   UNL     1      16.415  -2.461  12.596  1.00  0.00     0.055 A 
ATOM     79  C   UNL     1      14.479  -1.987  13.944  1.00  0.00     0.041 A 
ATOM     80  F   UNL     1      12.397  -1.666  12.920  1.00  0.00    -0.206 F 
ATOM     81  C   UNL     1      15.836  -2.282  13.855  1.00  0.00     0.022 A 
BRANCH  78  82
ATOM     82  S   UNL     1      18.140  -3.002  12.458  1.00  0.00     0.124 S 
ATOM     83  O   UNL     1      18.004  -4.273  11.755  1.00  0.00    -0.237 OA
ATOM     84  O   UNL     1      18.749  -1.915  11.699  1.00  0.00    -0.237 OA
ATOM     85  O   UNL     1      18.579  -3.107  13.849  1.00  0.00    -0.744 OA
ENDBRANCH  78  82
ENDBRANCH  52  75
ENDBRANCH  26  27
ENDBRANCH  19  21
ENDBRANCH  18  19
ENDBRANCH  17  18
ENDBRANCH   1  17
TORSDOF 17
