REMARK SMILES C[C@H](NC(=O)c1c(C(=O)OCCOC(=O)c2ccc(-c3c4nc(c(-c5cc(S(=O)(=O)[O-])ccc5F)c5ccc([nH]5)c(-c5cc(S(=O)(=O)[O-])ccc5F)c5nc(c(-c6cc(S(=O)(=O)[O-])ccc6F)c6ccc3[nH]6)C=C5)C=C4)cc2)cnn1C)[C@]12C[C@H]3C[C@H](C[C@H](C3)C1)C2
REMARK SMILES IDX 11 1 10 2 8 3 9 4 7 5 6 6 81 7 79 8 80 9 82 10 4 11 3 12
REMARK SMILES IDX 5 14 2 15 1 16 83 17 84 18 91 19 92 20 85 21 89 22 87 23
REMARK SMILES IDX 86 24 90 25 88 26 12 27 13 28 14 29 15 30 16 31 17 32 78 33
REMARK SMILES IDX 18 34 77 35 19 36 20 37 21 38 71 39 22 40 76 41 70 42 72 43
REMARK SMILES IDX 23 44 75 45 69 46 68 47 24 49 56 50 36 51 55 52 37 53 40 54
REMARK SMILES IDX 54 55 73 56 38 57 39 58 53 60 74 61 41 62 25 63 26 64 34 65
REMARK SMILES IDX 27 66 33 67 35 68 32 69 28 70 29 71 30 72 31 73 57 74 58 75
REMARK SMILES IDX 66 76 59 77 65 78 67 79 64 80 60 81 61 82 62 83 63 84 42 85
REMARK SMILES IDX 43 86 51 87 44 88 50 89 52 90 49 91 45 92 46 93 47 94 48 95
REMARK H PARENT 3 13 72 48 40 59
REMARK Flexibility Score: inf
ROOT
ATOM      1  C   UNL     1       0.939   4.354  -2.295  1.00  0.00     0.275 C 
ENDROOT
BRANCH   1   2
ATOM      2  O   UNL     1       1.373   3.509  -1.212  1.00  0.00    -0.458 OA
BRANCH   2   3
ATOM      3  C   UNL     1       2.431   3.984  -0.493  1.00  0.00     0.342 C 
ATOM      4  O   UNL     1       2.936   5.084  -0.667  1.00  0.00    -0.246 OA
BRANCH   3   5
ATOM      5  C   UNL     1       2.916   3.082   0.538  1.00  0.00     0.111 A 
ATOM      6  C   UNL     1       2.725   1.712   0.703  1.00  0.00     0.140 A 
ATOM      7  N   UNL     1       3.582   1.361   1.719  1.00  0.00    -0.262 N 
ATOM      8  C   UNL     1       3.767   3.450   1.605  1.00  0.00     0.151 A 
ATOM      9  N   UNL     1       4.133   2.412   2.352  1.00  0.00    -0.180 NA
ATOM     10  C   UNL     1       4.027   0.043   2.110  1.00  0.00     0.174 C 
BRANCH   6  11
ATOM     11  C   UNL     1       2.019   0.806  -0.151  1.00  0.00     0.270 C 
ATOM     12  N   UNL     1       0.973   0.049   0.294  1.00  0.00    -0.348 N 
ATOM     13  H   UNL     1       0.582  -0.477  -0.441  1.00  0.00     0.164 HD
ATOM     14  O   UNL     1       2.336   0.660  -1.333  1.00  0.00    -0.267 OA
BRANCH  12  15
ATOM     15  C   UNL     1       0.260  -0.207   1.562  1.00  0.00     0.085 C 
ATOM     16  C   UNL     1       0.639   0.683   2.748  1.00  0.00     0.031 C 
BRANCH  15  17
ATOM     17  C   UNL     1      -1.308  -0.290   1.368  1.00  0.00    -0.009 C 
ATOM     18  C   UNL     1      -1.914  -1.184   2.496  1.00  0.00     0.012 C 
ATOM     19  C   UNL     1      -1.728  -0.941   0.013  1.00  0.00     0.012 C 
ATOM     20  C   UNL     1      -1.976   1.112   1.433  1.00  0.00     0.012 C 
ATOM     21  C   UNL     1      -3.443  -1.279   2.382  1.00  0.00    -0.010 C 
ATOM     22  C   UNL     1      -3.261  -1.047  -0.110  1.00  0.00    -0.010 C 
ATOM     23  C   UNL     1      -3.506   1.005   1.322  1.00  0.00    -0.010 C 
ATOM     24  C   UNL     1      -4.039   0.134   2.472  1.00  0.00     0.007 C 
ATOM     25  C   UNL     1      -3.810  -1.910   1.033  1.00  0.00     0.007 C 
ATOM     26  C   UNL     1      -3.876   0.359  -0.019  1.00  0.00     0.007 C 
ENDBRANCH  15  17
ENDBRANCH  12  15
ENDBRANCH   6  11
ENDBRANCH   3   5
ENDBRANCH   2   3
ENDBRANCH   1   2
BRANCH   1  27
ATOM     27  C   UNL     1      -0.277   5.208  -1.925  1.00  0.00     0.275 C 
BRANCH  27  28
ATOM     28  O   UNL     1       0.030   6.157  -0.888  1.00  0.00    -0.458 OA
BRANCH  28  29
ATOM     29  C   UNL     1      -0.351   5.785   0.357  1.00  0.00     0.338 C 
ATOM     30  O   UNL     1      -0.950   4.770   0.670  1.00  0.00    -0.246 OA
BRANCH  29  31
ATOM     31  C   UNL     1       0.188   6.731   1.346  1.00  0.00     0.060 A 
ATOM     32  C   UNL     1       1.310   6.332   2.071  1.00  0.00     0.016 A 
ATOM     33  C   UNL     1      -0.458   7.929   1.651  1.00  0.00     0.016 A 
ATOM     34  C   UNL     1       1.791   7.115   3.114  1.00  0.00     0.010 A 
ATOM     35  C   UNL     1       0.037   8.727   2.694  1.00  0.00     0.010 A 
ATOM     36  C   UNL     1       1.157   8.319   3.444  1.00  0.00    -0.014 A 
BRANCH  36  37
ATOM     37  C   UNL     1       1.628   9.093   4.626  1.00  0.00     0.031 A 
ATOM     38  C   UNL     1       0.759   9.186   5.852  1.00  0.00     0.074 A 
ATOM     39  C   UNL     1       2.853   9.656   4.626  1.00  0.00     0.049 A 
ATOM     40  N   UNL     1       0.931   9.892   6.940  1.00  0.00    -0.248 NA
ATOM     41  C   UNL     1      -0.468   8.375   5.849  1.00  0.00     0.031 C 
ATOM     42  C   UNL     1       3.819   9.572   3.529  1.00  0.00     0.029 A 
ATOM     43  N   UNL     1       3.500  10.402   5.580  1.00  0.00    -0.354 N 
ATOM     44  C   UNL     1      -0.178   9.636   7.740  1.00  0.00     0.074 A 
ATOM     45  C   UNL     1      -1.026   8.724   7.000  1.00  0.00     0.031 C 
ATOM     46  C   UNL     1       4.939  10.226   3.879  1.00  0.00     0.029 A 
ATOM     47  C   UNL     1       4.745  10.839   5.189  1.00  0.00     0.049 A 
ATOM     48  H   UNL     1       3.110  10.605   6.461  1.00  0.00     0.167 HD
ATOM     49  C   UNL     1      -0.458  10.115   8.978  1.00  0.00     0.034 A 
ATOM     50  C   UNL     1       5.614  11.674   5.796  1.00  0.00     0.034 A 
ATOM     51  C   UNL     1       0.410  11.008   9.710  1.00  0.00     0.049 A 
ATOM     52  C   UNL     1       5.243  12.257   7.138  1.00  0.00     0.074 A 
ATOM     53  C   UNL     1       0.216  11.565  10.963  1.00  0.00     0.029 A 
ATOM     54  N   UNL     1       1.640  11.470   9.258  1.00  0.00    -0.354 N 
ATOM     55  N   UNL     1       4.163  12.054   7.858  1.00  0.00    -0.248 NA
ATOM     56  C   UNL     1       6.205  13.184   7.748  1.00  0.00     0.031 C 
ATOM     57  C   UNL     1       1.297  12.409  11.241  1.00  0.00     0.029 A 
ATOM     58  C   UNL     1       2.203  12.321  10.197  1.00  0.00     0.049 A 
ATOM     59  H   UNL     1       2.052  11.228   8.398  1.00  0.00     0.167 HD
ATOM     60  C   UNL     1       4.330  12.810   9.015  1.00  0.00     0.074 A 
ATOM     61  C   UNL     1       5.622  13.454   8.907  1.00  0.00     0.031 C 
ATOM     62  C   UNL     1       3.492  12.961  10.072  1.00  0.00     0.034 A 
BRANCH  49  63
ATOM     63  C   UNL     1      -1.783   9.731   9.592  1.00  0.00     0.023 A 
ATOM     64  C   UNL     1      -2.083   8.406   9.954  1.00  0.00     0.031 A 
ATOM     65  C   UNL     1      -2.769  10.711   9.806  1.00  0.00     0.131 A 
ATOM     66  C   UNL     1      -3.356   8.089  10.456  1.00  0.00     0.055 A 
ATOM     67  C   UNL     1      -4.006  10.402  10.375  1.00  0.00     0.041 A 
ATOM     68  F   UNL     1      -2.549  11.989   9.460  1.00  0.00    -0.206 F 
ATOM     69  C   UNL     1      -4.310   9.082  10.693  1.00  0.00     0.022 A 
BRANCH  66  70
ATOM     70  S   UNL     1      -3.793   6.343  10.683  1.00  0.00     0.124 S 
ATOM     71  O   UNL     1      -3.657   5.825   9.324  1.00  0.00    -0.237 OA
ATOM     72  O   UNL     1      -2.794   5.889  11.643  1.00  0.00    -0.237 OA
ATOM     73  O   UNL     1      -5.164   6.395  11.188  1.00  0.00    -0.744 OA
ENDBRANCH  66  70
ENDBRANCH  49  63
BRANCH  50  74
ATOM     74  C   UNL     1       6.884  12.075   5.120  1.00  0.00     0.023 A 
ATOM     75  C   UNL     1       8.136  11.809   5.696  1.00  0.00     0.031 A 
ATOM     76  C   UNL     1       6.858  12.800   3.914  1.00  0.00     0.131 A 
ATOM     77  C   UNL     1       9.304  12.308   5.097  1.00  0.00     0.055 A 
ATOM     78  C   UNL     1       8.026  13.237   3.287  1.00  0.00     0.041 A 
ATOM     79  F   UNL     1       5.690  13.095   3.321  1.00  0.00    -0.206 F 
ATOM     80  C   UNL     1       9.258  13.005   3.888  1.00  0.00     0.022 A 
BRANCH  77  81
ATOM     81  S   UNL     1      10.879  12.134   5.981  1.00  0.00     0.124 S 
ATOM     82  O   UNL     1      10.574  12.768   7.258  1.00  0.00    -0.237 OA
ATOM     83  O   UNL     1      11.053  10.686   6.008  1.00  0.00    -0.237 OA
ATOM     84  O   UNL     1      11.826  12.858   5.135  1.00  0.00    -0.744 OA
ENDBRANCH  77  81
ENDBRANCH  50  74
BRANCH  62  85
ATOM     85  C   UNL     1       3.979  13.818  11.214  1.00  0.00     0.023 A 
ATOM     86  C   UNL     1       4.163  15.205  11.073  1.00  0.00     0.031 A 
ATOM     87  C   UNL     1       4.282  13.232  12.456  1.00  0.00     0.131 A 
ATOM     88  C   UNL     1       4.691  15.951  12.138  1.00  0.00     0.055 A 
ATOM     89  C   UNL     1       4.750  13.989  13.531  1.00  0.00     0.041 A 
ATOM     90  F   UNL     1       4.126  11.912  12.645  1.00  0.00    -0.206 F 
ATOM     91  C   UNL     1       4.971  15.354  13.371  1.00  0.00     0.022 A 
BRANCH  88  92
ATOM     92  S   UNL     1       5.094  17.698  11.864  1.00  0.00     0.124 S 
ATOM     93  O   UNL     1       6.054  17.620  10.768  1.00  0.00    -0.237 OA
ATOM     94  O   UNL     1       3.793  18.270  11.533  1.00  0.00    -0.237 OA
ATOM     95  O   UNL     1       5.650  18.128  13.146  1.00  0.00    -0.744 OA
ENDBRANCH  88  92
ENDBRANCH  62  85
ENDBRANCH  36  37
ENDBRANCH  29  31
ENDBRANCH  28  29
ENDBRANCH  27  28
ENDBRANCH   1  27
TORSDOF 17
