REMARK SMILES CCc1cccc(C)c1Nc1ccccc1CC(=O)OCCOC(=O)c1ccc(-c2c3nc(c(-c4cc(S(=O)(=O)[O-])ccc4F)c4ccc([nH]4)c(-c4cc(S(=O)(=O)[O-])ccc4F)c4nc(c(-c5cc(S(=O)(=O)[O-])ccc5F)c5ccc2[nH]5)C=C4)C=C3)cc1
REMARK SMILES IDX 21 1 20 2 18 3 19 4 17 5 16 6 11 7 12 8 13 9 15 10 14 11
REMARK SMILES IDX 10 12 9 14 3 15 4 16 5 17 7 18 6 19 8 20 2 21 1 22 22 23
REMARK SMILES IDX 23 24 24 25 25 26 26 27 27 28 88 29 28 30 87 31 29 32 30 33
REMARK SMILES IDX 31 34 81 35 32 36 86 37 80 38 82 39 33 40 85 41 79 42 78 43
REMARK SMILES IDX 34 45 66 46 46 47 65 48 47 49 50 50 64 51 83 52 48 53 49 54
REMARK SMILES IDX 63 56 84 57 51 58 35 59 36 60 44 61 37 62 43 63 45 64 42 65
REMARK SMILES IDX 38 66 39 67 40 68 41 69 67 70 68 71 76 72 69 73 75 74 77 75
REMARK SMILES IDX 74 76 70 77 71 78 72 79 73 80 52 81 53 82 61 83 54 84 60 85
REMARK SMILES IDX 62 86 59 87 55 88 56 89 57 90 58 91
REMARK H PARENT 10 13 82 44 50 55
REMARK Flexibility Score: inf
ROOT
ATOM      1  C   UNL     1      -2.839   0.848   5.434  1.00  0.00     0.274 C 
ENDROOT
BRANCH   1   2
ATOM      2  O   UNL     1      -1.214   1.523   5.777  1.00  0.00    -0.462 OA
BRANCH   2   3
ATOM      3  C   UNL     1       0.334   1.545   5.057  1.00  0.00     0.310 C 
ATOM      4  O   UNL     1       0.838   0.434   5.311  1.00  0.00    -0.252 OA
BRANCH   3   5
ATOM      5  C   UNL     1       0.990   3.181   3.735  1.00  0.00     0.160 C 
BRANCH   5   6
ATOM      6  C   UNL     1       0.037   3.872   2.293  1.00  0.00    -0.013 A 
ATOM      7  C   UNL     1      -0.637   3.255   1.128  1.00  0.00     0.042 A 
ATOM      8  C   UNL     1      -1.305   4.140   0.251  1.00  0.00     0.026 A 
ATOM      9  C   UNL     1      -1.383   5.517   0.469  1.00  0.00     0.002 A 
ATOM     10  C   UNL     1      -0.063   5.290   2.466  1.00  0.00     0.006 A 
ATOM     11  C   UNL     1      -0.777   6.088   1.577  1.00  0.00     0.000 A 
BRANCH   7  12
ATOM     12  N   UNL     1      -0.814   1.877   0.708  1.00  0.00    -0.355 N 
ATOM     13  H   UNL     1      -0.191   1.587   0.003  1.00  0.00     0.167 HD
BRANCH  12  14
ATOM     14  C   UNL     1      -1.857   0.725   1.190  1.00  0.00     0.045 A 
ATOM     15  C   UNL     1      -1.328  -0.933   0.735  1.00  0.00    -0.024 A 
ATOM     16  C   UNL     1      -0.973  -2.186   1.960  1.00  0.00     0.006 A 
ATOM     17  C   UNL     1      -0.862  -1.816   3.636  1.00  0.00     0.001 A 
ATOM     18  C   UNL     1      -2.082   1.091   2.932  1.00  0.00    -0.027 A 
ATOM     19  C   UNL     1      -1.318  -0.188   4.173  1.00  0.00     0.005 A 
ATOM     20  C   UNL     1      -3.286   2.117   2.893  1.00  0.00     0.046 C 
BRANCH  15  21
ATOM     21  C   UNL     1      -0.384  -1.259  -0.453  1.00  0.00     0.034 C 
ATOM     22  C   UNL     1       0.696  -0.269  -0.883  1.00  0.00     0.009 C 
ENDBRANCH  15  21
ENDBRANCH  12  14
ENDBRANCH   7  12
ENDBRANCH   5   6
ENDBRANCH   3   5
ENDBRANCH   2   3
ENDBRANCH   1   2
BRANCH   1  23
ATOM     23  C   UNL     1      -3.344  -0.410   4.062  1.00  0.00     0.275 C 
BRANCH  23  24
ATOM     24  O   UNL     1      -2.167  -0.700   2.635  1.00  0.00    -0.458 OA
BRANCH  24  25
ATOM     25  C   UNL     1      -0.370   0.003   2.481  1.00  0.00     0.338 C 
ATOM     26  O   UNL     1       0.640  -0.564   2.000  1.00  0.00    -0.246 OA
BRANCH  25  27
ATOM     27  C   UNL     1       0.110   1.489   3.101  1.00  0.00     0.060 A 
ATOM     28  C   UNL     1       1.830   1.249   3.422  1.00  0.00     0.016 A 
ATOM     29  C   UNL     1      -0.851   2.772   4.119  1.00  0.00     0.016 A 
ATOM     30  C   UNL     1       2.566   2.027   4.763  1.00  0.00     0.010 A 
ATOM     31  C   UNL     1      -0.021   3.512   5.535  1.00  0.00     0.010 A 
ATOM     32  C   UNL     1       1.660   3.013   5.833  1.00  0.00    -0.014 A 
BRANCH  32  33
ATOM     33  C   UNL     1       1.944   2.865   7.250  1.00  0.00     0.031 A 
ATOM     34  C   UNL     1       1.868   4.144   7.942  1.00  0.00     0.074 A 
ATOM     35  C   UNL     1       1.908   1.595   7.757  1.00  0.00     0.049 A 
ATOM     36  N   UNL     1       2.301   4.327   9.122  1.00  0.00    -0.248 NA
ATOM     37  C   UNL     1       1.393   5.407   7.348  1.00  0.00     0.031 C 
ATOM     38  C   UNL     1       1.509   1.058   9.053  1.00  0.00     0.029 A 
ATOM     39  N   UNL     1       2.332   0.435   7.105  1.00  0.00    -0.354 N 
ATOM     40  C   UNL     1       1.607   5.413   9.589  1.00  0.00     0.074 A 
ATOM     41  C   UNL     1       1.286   6.185   8.427  1.00  0.00     0.031 C 
ATOM     42  C   UNL     1       1.896  -0.237   9.163  1.00  0.00     0.029 A 
ATOM     43  C   UNL     1       2.617  -0.623   7.955  1.00  0.00     0.049 A 
ATOM     44  H   UNL     1       2.421   0.374   6.127  1.00  0.00     0.167 HD
ATOM     45  C   UNL     1       1.199   5.349  10.880  1.00  0.00     0.034 A 
ATOM     46  C   UNL     1       3.886  -1.120   7.873  1.00  0.00     0.034 A 
ATOM     47  C   UNL     1       1.766   4.143  11.519  1.00  0.00     0.049 A 
ATOM     48  C   UNL     1       4.723  -0.313   8.863  1.00  0.00     0.074 A 
ATOM     49  C   UNL     1       1.259   2.946  11.991  1.00  0.00     0.029 A 
ATOM     50  N   UNL     1       3.136   3.933  11.380  1.00  0.00    -0.354 N 
ATOM     51  N   UNL     1       4.276   0.754   9.481  1.00  0.00    -0.248 NA
ATOM     52  C   UNL     1       6.033  -0.712   9.356  1.00  0.00     0.031 C 
ATOM     53  C   UNL     1       2.337   1.990  11.990  1.00  0.00     0.029 A 
ATOM     54  C   UNL     1       3.490   2.608  11.524  1.00  0.00     0.049 A 
ATOM     55  H   UNL     1       3.782   4.653  11.197  1.00  0.00     0.167 HD
ATOM     56  C   UNL     1       5.136   1.152  10.454  1.00  0.00     0.074 A 
ATOM     57  C   UNL     1       6.232   0.199  10.328  1.00  0.00     0.031 C 
ATOM     58  C   UNL     1       4.884   2.216  11.284  1.00  0.00     0.034 A 
BRANCH  45  59
ATOM     59  C   UNL     1       0.181   6.243  11.525  1.00  0.00     0.023 A 
ATOM     60  C   UNL     1      -0.018   6.065  12.902  1.00  0.00     0.031 A 
ATOM     61  C   UNL     1      -0.621   7.233  10.917  1.00  0.00     0.131 A 
ATOM     62  C   UNL     1      -0.927   6.852  13.621  1.00  0.00     0.055 A 
ATOM     63  C   UNL     1      -1.506   8.046  11.641  1.00  0.00     0.041 A 
ATOM     64  F   UNL     1      -0.628   7.453   9.597  1.00  0.00    -0.206 F 
ATOM     65  C   UNL     1      -1.659   7.861  13.005  1.00  0.00     0.022 A 
BRANCH  62  66
ATOM     66  S   UNL     1      -1.118   6.520  15.386  1.00  0.00     0.124 S 
ATOM     67  O   UNL     1      -1.679   5.173  15.380  1.00  0.00    -0.237 OA
ATOM     68  O   UNL     1       0.251   6.650  15.872  1.00  0.00    -0.237 OA
ATOM     69  O   UNL     1      -2.033   7.571  15.827  1.00  0.00    -0.744 OA
ENDBRANCH  62  66
ENDBRANCH  45  59
BRANCH  46  70
ATOM     70  C   UNL     1       4.204  -1.556   6.453  1.00  0.00     0.023 A 
ATOM     71  C   UNL     1       3.555  -2.724   5.960  1.00  0.00     0.031 A 
ATOM     72  C   UNL     1       4.710  -0.678   5.483  1.00  0.00     0.131 A 
ATOM     73  C   UNL     1       3.279  -2.891   4.582  1.00  0.00     0.055 A 
ATOM     74  C   UNL     1       4.425  -0.844   4.112  1.00  0.00     0.041 A 
ATOM     75  F   UNL     1       5.358   0.439   5.846  1.00  0.00    -0.206 F 
ATOM     76  C   UNL     1       3.653  -1.917   3.663  1.00  0.00     0.022 A 
BRANCH  73  77
ATOM     77  S   UNL     1       2.341  -4.351   4.017  1.00  0.00     0.124 S 
ATOM     78  O   UNL     1       3.312  -5.424   4.215  1.00  0.00    -0.237 OA
ATOM     79  O   UNL     1       1.192  -4.373   4.918  1.00  0.00    -0.237 OA
ATOM     80  O   UNL     1       2.026  -4.069   2.618  1.00  0.00    -0.744 OA
ENDBRANCH  73  77
ENDBRANCH  46  70
BRANCH  58  81
ATOM     81  C   UNL     1       5.994   2.982  11.974  1.00  0.00     0.023 A 
ATOM     82  C   UNL     1       7.336   2.761  11.662  1.00  0.00     0.031 A 
ATOM     83  C   UNL     1       5.756   4.024  12.905  1.00  0.00     0.131 A 
ATOM     84  C   UNL     1       8.360   3.385  12.379  1.00  0.00     0.055 A 
ATOM     85  C   UNL     1       6.779   4.765  13.498  1.00  0.00     0.041 A 
ATOM     86  F   UNL     1       4.526   4.387  13.290  1.00  0.00    -0.206 F 
ATOM     87  C   UNL     1       8.097   4.412  13.276  1.00  0.00     0.022 A 
BRANCH  84  88
ATOM     88  S   UNL     1      10.013   2.676  12.227  1.00  0.00     0.124 S 
ATOM     89  O   UNL     1       9.786   1.302  12.671  1.00  0.00    -0.237 OA
ATOM     90  O   UNL     1      10.296   2.841  10.805  1.00  0.00    -0.237 OA
ATOM     91  O   UNL     1      10.819   3.496  13.127  1.00  0.00    -0.744 OA
ENDBRANCH  84  88
ENDBRANCH  58  81
ENDBRANCH  32  33
ENDBRANCH  25  27
ENDBRANCH  24  25
ENDBRANCH  23  24
ENDBRANCH   1  23
TORSDOF 18
