REMARK SMILES Cc1cc([N+](=O)[O-])c(-c2ccc(C(=O)OCCOC(=O)c3ccc(-c4c5nc(c(-c6cc(S(=O)(=O)[O-])ccc6F)c6ccc([nH]6)c(-c6cc(S(=O)(=O)[O-])ccc6F)c6nc(c(-c7cc(S(=O)(=O)[O-])ccc7F)c7ccc4[nH]7)C=C6)C=C5)cc3)o2)cc1Cl
REMARK SMILES IDX 17 1 16 2 15 3 13 4 14 5 12 6 9 7 10 8 84 9 11 10 8 11 1 12
REMARK SMILES IDX 2 13 3 14 86 15 4 16 85 17 87 18 5 19 6 20 7 21 18 22 19 23
REMARK SMILES IDX 20 24 21 25 22 26 83 27 23 28 82 29 24 30 25 31 26 32 76 33
REMARK SMILES IDX 27 34 81 35 75 36 77 37 28 38 80 39 74 40 73 41 29 43 61 44
REMARK SMILES IDX 41 45 60 46 42 47 45 48 59 49 78 50 43 51 44 52 58 54 79 55
REMARK SMILES IDX 46 56 30 57 31 58 39 59 32 60 38 61 40 62 37 63 33 64 34 65
REMARK SMILES IDX 35 66 36 67 62 68 63 69 71 70 64 71 70 72 72 73 69 74 65 75
REMARK SMILES IDX 66 76 67 77 68 78 47 79 48 80 56 81 49 82 55 83 57 84 54 85
REMARK SMILES IDX 50 86 51 87 52 88 53 89
REMARK H PARENT 77 42 45 53
REMARK Flexibility Score: inf
ROOT
ATOM      1  C   UNL     1      -3.995  -8.304   1.883  1.00  0.00     0.275 C 
ENDROOT
BRANCH   1   2
ATOM      2  C   UNL     1      -5.245  -7.419   1.797  1.00  0.00     0.275 C 
BRANCH   2   3
ATOM      3  O   UNL     1      -5.064  -6.329   0.874  1.00  0.00    -0.456 OA
BRANCH   3   4
ATOM      4  C   UNL     1      -4.691  -5.135   1.430  1.00  0.00     0.374 C 
ATOM      5  O   UNL     1      -4.640  -4.927   2.634  1.00  0.00    -0.242 OA
BRANCH   4   6
ATOM      6  C   UNL     1      -4.291  -4.210   0.394  1.00  0.00     0.212 A 
ATOM      7  C   UNL     1      -3.215  -2.436  -0.354  1.00  0.00     0.142 A 
ATOM      8  C   UNL     1      -3.693  -3.089  -1.467  1.00  0.00     0.052 A 
ATOM      9  O   UNL     1      -3.603  -3.085   0.774  1.00  0.00    -0.449 OA
ATOM     10  C   UNL     1      -4.381  -4.233  -0.987  1.00  0.00     0.059 A 
BRANCH   7  11
ATOM     11  C   UNL     1      -2.339  -1.298  -0.145  1.00  0.00     0.096 A 
ATOM     12  C   UNL     1       0.481   1.992   0.214  1.00  0.00     0.046 C 
ATOM     13  C   UNL     1      -0.483   0.842   0.115  1.00  0.00    -0.026 A 
ATOM     14  C   UNL     1      -1.865   1.091   0.086  1.00  0.00     0.091 A 
ATOM     15  C   UNL     1      -0.041  -0.488   0.039  1.00  0.00     0.045 A 
ATOM     16  C   UNL     1      -2.777   0.026  -0.038  1.00  0.00     0.280 A 
ATOM     17  C   UNL     1      -0.956  -1.540  -0.092  1.00  0.00     0.040 A 
ATOM     18  Cl  UNL     1       1.637  -0.886   0.081  1.00  0.00    -0.084 Cl
BRANCH  16  19
ATOM     19  N   UNL     1      -4.194   0.358  -0.099  1.00  0.00     0.063 N 
ATOM     20  O   UNL     1      -4.978  -0.276   0.616  1.00  0.00    -0.258 OA
ATOM     21  O   UNL     1      -4.518   1.281  -0.862  1.00  0.00    -0.258 OA
ENDBRANCH  16  19
ENDBRANCH   7  11
ENDBRANCH   4   6
ENDBRANCH   3   4
ENDBRANCH   2   3
ENDBRANCH   1   2
BRANCH   1  22
ATOM     22  O   UNL     1      -2.914  -7.656   2.579  1.00  0.00    -0.458 OA
BRANCH  22  23
ATOM     23  C   UNL     1      -2.066  -6.950   1.791  1.00  0.00     0.338 C 
ATOM     24  O   UNL     1      -2.126  -6.841   0.577  1.00  0.00    -0.246 OA
BRANCH  23  25
ATOM     25  C   UNL     1      -1.113  -6.190   2.621  1.00  0.00     0.060 A 
ATOM     26  C   UNL     1      -1.026  -4.812   2.408  1.00  0.00     0.016 A 
ATOM     27  C   UNL     1      -0.264  -6.815   3.537  1.00  0.00     0.016 A 
ATOM     28  C   UNL     1      -0.086  -4.051   3.096  1.00  0.00     0.010 A 
ATOM     29  C   UNL     1       0.686  -6.050   4.226  1.00  0.00     0.010 A 
ATOM     30  C   UNL     1       0.790  -4.665   3.997  1.00  0.00    -0.014 A 
BRANCH  30  31
ATOM     31  C   UNL     1       1.865  -3.857   4.624  1.00  0.00     0.031 A 
ATOM     32  C   UNL     1       3.268  -3.956   4.093  1.00  0.00     0.074 A 
ATOM     33  C   UNL     1       1.572  -2.995   5.615  1.00  0.00     0.049 A 
ATOM     34  N   UNL     1       4.356  -3.361   4.508  1.00  0.00    -0.248 NA
ATOM     35  C   UNL     1       3.468  -4.846   2.940  1.00  0.00     0.031 C 
ATOM     36  C   UNL     1       0.236  -2.771   6.169  1.00  0.00     0.029 A 
ATOM     37  N   UNL     1       2.377  -2.140   6.325  1.00  0.00    -0.354 N 
ATOM     38  C   UNL     1       5.374  -3.806   3.671  1.00  0.00     0.074 A 
ATOM     39  C   UNL     1       4.775  -4.746   2.747  1.00  0.00     0.031 C 
ATOM     40  C   UNL     1       0.314  -1.834   7.129  1.00  0.00     0.029 A 
ATOM     41  C   UNL     1       1.706  -1.422   7.287  1.00  0.00     0.049 A 
ATOM     42  H   UNL     1       3.343  -2.049   6.161  1.00  0.00     0.167 HD
ATOM     43  C   UNL     1       6.685  -3.456   3.671  1.00  0.00     0.034 A 
ATOM     44  C   UNL     1       2.168  -0.548   8.204  1.00  0.00     0.034 A 
ATOM     45  C   UNL     1       7.269  -2.522   4.603  1.00  0.00     0.049 A 
ATOM     46  C   UNL     1       3.643  -0.230   8.230  1.00  0.00     0.074 A 
ATOM     47  C   UNL     1       8.588  -2.118   4.712  1.00  0.00     0.029 A 
ATOM     48  N   UNL     1       6.566  -1.845   5.592  1.00  0.00    -0.354 N 
ATOM     49  N   UNL     1       4.601  -0.684   7.455  1.00  0.00    -0.248 NA
ATOM     50  C   UNL     1       4.097   0.723   9.252  1.00  0.00     0.031 C 
ATOM     51  C   UNL     1       8.692  -1.238   5.795  1.00  0.00     0.029 A 
ATOM     52  C   UNL     1       7.427  -1.041   6.324  1.00  0.00     0.049 A 
ATOM     53  H   UNL     1       5.598  -1.924   5.750  1.00  0.00     0.167 HD
ATOM     54  C   UNL     1       5.764  -0.048   7.878  1.00  0.00     0.074 A 
ATOM     55  C   UNL     1       5.387   0.829   8.966  1.00  0.00     0.031 C 
ATOM     56  C   UNL     1       7.032  -0.174   7.408  1.00  0.00     0.034 A 
BRANCH  43  57
ATOM     57  C   UNL     1       7.578  -4.137   2.663  1.00  0.00     0.023 A 
ATOM     58  C   UNL     1       7.434  -3.921   1.281  1.00  0.00     0.031 A 
ATOM     59  C   UNL     1       8.565  -5.043   3.090  1.00  0.00     0.131 A 
ATOM     60  C   UNL     1       8.219  -4.651   0.374  1.00  0.00     0.055 A 
ATOM     61  C   UNL     1       9.391  -5.712   2.186  1.00  0.00     0.041 A 
ATOM     62  F   UNL     1       8.731  -5.306   4.396  1.00  0.00    -0.206 F 
ATOM     63  C   UNL     1       9.212  -5.527   0.818  1.00  0.00     0.022 A 
BRANCH  60  64
ATOM     64  S   UNL     1       7.840  -4.535  -1.396  1.00  0.00     0.124 S 
ATOM     65  O   UNL     1       6.465  -5.027  -1.437  1.00  0.00    -0.237 OA
ATOM     66  O   UNL     1       8.019  -3.113  -1.666  1.00  0.00    -0.237 OA
ATOM     67  O   UNL     1       8.827  -5.416  -2.017  1.00  0.00    -0.744 OA
ENDBRANCH  60  64
ENDBRANCH  43  57
BRANCH  44  68
ATOM     68  C   UNL     1       1.245   0.063   9.203  1.00  0.00     0.023 A 
ATOM     69  C   UNL     1       1.023   1.449   9.236  1.00  0.00     0.031 A 
ATOM     70  C   UNL     1       0.619  -0.728  10.182  1.00  0.00     0.131 A 
ATOM     71  C   UNL     1       0.237   2.007  10.256  1.00  0.00     0.055 A 
ATOM     72  C   UNL     1      -0.204  -0.175  11.164  1.00  0.00     0.041 A 
ATOM     73  F   UNL     1       0.800  -2.059  10.198  1.00  0.00    -0.206 F 
ATOM     74  C   UNL     1      -0.388   1.204  11.213  1.00  0.00     0.022 A 
BRANCH  71  75
ATOM     75  S   UNL     1       0.119   3.814  10.373  1.00  0.00     0.124 S 
ATOM     76  O   UNL     1       1.522   4.198  10.476  1.00  0.00    -0.237 OA
ATOM     77  O   UNL     1      -0.549   4.155   9.121  1.00  0.00    -0.237 OA
ATOM     78  O   UNL     1      -0.677   4.026  11.580  1.00  0.00    -0.744 OA
ENDBRANCH  71  75
ENDBRANCH  44  68
BRANCH  56  79
ATOM     79  C   UNL     1       8.083   0.703   8.041  1.00  0.00     0.023 A 
ATOM     80  C   UNL     1       8.510   0.510   9.366  1.00  0.00     0.031 A 
ATOM     81  C   UNL     1       8.648   1.762   7.309  1.00  0.00     0.131 A 
ATOM     82  C   UNL     1       9.435   1.396   9.937  1.00  0.00     0.055 A 
ATOM     83  C   UNL     1       9.607   2.609   7.865  1.00  0.00     0.041 A 
ATOM     84  F   UNL     1       8.275   1.990   6.039  1.00  0.00    -0.206 F 
ATOM     85  C   UNL     1       9.995   2.437   9.191  1.00  0.00     0.022 A 
BRANCH  82  86
ATOM     86  S   UNL     1       9.837   1.224  11.697  1.00  0.00     0.124 S 
ATOM     87  O   UNL     1       8.527   1.365  12.325  1.00  0.00    -0.237 OA
ATOM     88  O   UNL     1      10.431  -0.108  11.753  1.00  0.00    -0.237 OA
ATOM     89  O   UNL     1      10.766   2.325  11.947  1.00  0.00    -0.744 OA
ENDBRANCH  82  86
ENDBRANCH  56  79
ENDBRANCH  30  31
ENDBRANCH  23  25
ENDBRANCH  22  23
ENDBRANCH   1  22
TORSDOF 16
