REMARK SMILES CCN(CC(=O)OCCOC(=O)c1ccc(-c2c3nc(c(-c4cc(S(=O)(=O)[O-])ccc4F)c4ccc([nH]4)c(-c4cc(S(=O)(=O)[O-])ccc4F)c4nc(c(-c5cc(S(=O)(=O)[O-])ccc5F)c5ccc2[nH]5)C=C4)C=C3)cc1)C(=O)[C@@H]1CC[NH2+][C@@H]1C
REMARK SMILES IDX 8 1 7 2 5 3 6 4 4 5 3 6 2 7 1 8 76 9 77 10 78 11 79 12 82 13
REMARK SMILES IDX 80 14 81 15 83 16 9 19 10 20 11 21 12 22 13 23 14 24 75 25
REMARK SMILES IDX 15 26 74 27 16 28 17 29 18 30 68 31 19 32 73 33 67 34 69 35
REMARK SMILES IDX 20 36 72 37 66 38 65 39 21 41 53 42 33 43 52 44 34 45 37 46
REMARK SMILES IDX 51 47 70 48 35 49 36 50 50 52 71 53 38 54 22 55 23 56 31 57
REMARK SMILES IDX 24 58 30 59 32 60 29 61 25 62 26 63 27 64 28 65 54 66 55 67
REMARK SMILES IDX 63 68 56 69 62 70 64 71 61 72 57 73 58 74 59 75 60 76 39 77
REMARK SMILES IDX 40 78 48 79 41 80 47 81 49 82 46 83 42 84 43 85 44 86 45 87
REMARK H PARENT 81 17 81 18 69 40 37 51
REMARK Flexibility Score: inf
ROOT
ATOM      1  C   UNL     1       3.102  -0.202  -0.875  1.00  0.00     0.274 C 
ENDROOT
BRANCH   1   2
ATOM      2  O   UNL     1       3.789  -0.711   0.289  1.00  0.00    -0.461 OA
BRANCH   2   3
ATOM      3  C   UNL     1       3.606   0.022   1.419  1.00  0.00     0.325 C 
ATOM      4  O   UNL     1       2.940   1.054   1.474  1.00  0.00    -0.250 OA
BRANCH   3   5
ATOM      5  C   UNL     1       4.152  -0.634   2.685  1.00  0.00     0.242 C 
BRANCH   5   6
ATOM      6  N   UNL     1       5.261  -1.589   2.607  1.00  0.00    -0.331 N 
BRANCH   6   7
ATOM      7  C   UNL     1       6.600  -0.999   2.622  1.00  0.00     0.117 C 
ATOM      8  C   UNL     1       7.125  -0.884   4.049  1.00  0.00     0.027 C 
ENDBRANCH   6   7
BRANCH   6   9
ATOM      9  C   UNL     1       5.174  -2.980   2.637  1.00  0.00     0.232 C 
ATOM     10  O   UNL     1       6.200  -3.656   2.518  1.00  0.00    -0.274 OA
BRANCH   9  11
ATOM     11  C   UNL     1       3.807  -3.650   2.776  1.00  0.00     0.142 C 
ATOM     12  C   UNL     1       3.081  -3.481   4.107  1.00  0.00     0.081 C 
ATOM     13  C   UNL     1       3.823  -5.186   2.651  1.00  0.00     0.192 C 
ATOM     14  C   UNL     1       2.061  -4.614   4.112  1.00  0.00     0.261 C 
ATOM     15  N   UNL     1       2.432  -5.516   3.018  1.00  0.00    -0.343 N 
ATOM     16  C   UNL     1       4.770  -5.966   3.579  1.00  0.00     0.076 C 
ATOM     17  H   UNL     1       1.814  -5.373   2.219  1.00  0.00     0.346 HD
ATOM     18  H   UNL     1       2.349  -6.492   3.302  1.00  0.00     0.346 HD
ENDBRANCH   9  11
ENDBRANCH   6   9
ENDBRANCH   5   6
ENDBRANCH   3   5
ENDBRANCH   2   3
ENDBRANCH   1   2
BRANCH   1  19
ATOM     19  C   UNL     1       1.759  -0.899  -1.093  1.00  0.00     0.275 C 
BRANCH  19  20
ATOM     20  O   UNL     1       0.930  -0.804   0.082  1.00  0.00    -0.458 OA
BRANCH  20  21
ATOM     21  C   UNL     1       0.675  -1.989   0.681  1.00  0.00     0.338 C 
ATOM     22  O   UNL     1       1.052  -3.090   0.303  1.00  0.00    -0.246 OA
BRANCH  21  23
ATOM     23  C   UNL     1      -0.161  -1.830   1.883  1.00  0.00     0.060 A 
ATOM     24  C   UNL     1       0.281  -1.079   2.973  1.00  0.00     0.016 A 
ATOM     25  C   UNL     1      -1.317  -2.608   1.986  1.00  0.00     0.016 A 
ATOM     26  C   UNL     1      -0.370  -1.205   4.202  1.00  0.00     0.010 A 
ATOM     27  C   UNL     1      -2.011  -2.670   3.197  1.00  0.00     0.010 A 
ATOM     28  C   UNL     1      -1.513  -2.014   4.331  1.00  0.00    -0.014 A 
BRANCH  28  29
ATOM     29  C   UNL     1      -2.177  -2.168   5.653  1.00  0.00     0.031 A 
ATOM     30  C   UNL     1      -2.159  -3.487   6.385  1.00  0.00     0.074 A 
ATOM     31  C   UNL     1      -2.783  -1.102   6.209  1.00  0.00     0.049 A 
ATOM     32  N   UNL     1      -2.654  -3.786   7.560  1.00  0.00    -0.248 NA
ATOM     33  C   UNL     1      -1.497  -4.614   5.714  1.00  0.00     0.031 C 
ATOM     34  C   UNL     1      -2.870   0.226   5.600  1.00  0.00     0.029 A 
ATOM     35  N   UNL     1      -3.433  -0.964   7.408  1.00  0.00    -0.354 N 
ATOM     36  C   UNL     1      -2.349  -5.126   7.777  1.00  0.00     0.074 A 
ATOM     37  C   UNL     1      -1.652  -5.591   6.596  1.00  0.00     0.031 C 
ATOM     38  C   UNL     1      -3.516   1.050   6.439  1.00  0.00     0.029 A 
ATOM     39  C   UNL     1      -3.932   0.299   7.618  1.00  0.00     0.049 A 
ATOM     40  H   UNL     1      -3.533  -1.699   8.056  1.00  0.00     0.167 HD
ATOM     41  C   UNL     1      -2.623  -5.898   8.859  1.00  0.00     0.034 A 
ATOM     42  C   UNL     1      -4.663   0.795   8.633  1.00  0.00     0.034 A 
ATOM     43  C   UNL     1      -3.357  -5.443  10.016  1.00  0.00     0.049 A 
ATOM     44  C   UNL     1      -5.023  -0.102   9.784  1.00  0.00     0.074 A 
ATOM     45  C   UNL     1      -3.672  -6.141  11.170  1.00  0.00     0.029 A 
ATOM     46  N   UNL     1      -3.912  -4.178  10.157  1.00  0.00    -0.354 N 
ATOM     47  N   UNL     1      -4.712  -1.362   9.975  1.00  0.00    -0.248 NA
ATOM     48  C   UNL     1      -5.833   0.494  10.852  1.00  0.00     0.031 C 
ATOM     49  C   UNL     1      -4.469  -5.320  11.979  1.00  0.00     0.029 A 
ATOM     50  C   UNL     1      -4.601  -4.088  11.358  1.00  0.00     0.049 A 
ATOM     51  H   UNL     1      -3.829  -3.450   9.500  1.00  0.00     0.167 HD
ATOM     52  C   UNL     1      -5.297  -1.713  11.187  1.00  0.00     0.074 A 
ATOM     53  C   UNL     1      -5.949  -0.522  11.694  1.00  0.00     0.031 C 
ATOM     54  C   UNL     1      -5.295  -2.912  11.824  1.00  0.00     0.034 A 
BRANCH  41  55
ATOM     55  C   UNL     1      -2.166  -7.335   8.818  1.00  0.00     0.023 A 
ATOM     56  C   UNL     1      -0.804  -7.678   8.886  1.00  0.00     0.031 A 
ATOM     57  C   UNL     1      -3.106  -8.376   8.711  1.00  0.00     0.131 A 
ATOM     58  C   UNL     1      -0.417  -9.025   8.808  1.00  0.00     0.055 A 
ATOM     59  C   UNL     1      -2.718  -9.717   8.685  1.00  0.00     0.041 A 
ATOM     60  F   UNL     1      -4.417  -8.104   8.623  1.00  0.00    -0.206 F 
ATOM     61  C   UNL     1      -1.366 -10.048   8.725  1.00  0.00     0.022 A 
BRANCH  58  62
ATOM     62  S   UNL     1       1.351  -9.421   8.718  1.00  0.00     0.124 S 
ATOM     63  O   UNL     1       1.767  -8.663   7.540  1.00  0.00    -0.237 OA
ATOM     64  O   UNL     1       1.847  -8.934   9.999  1.00  0.00    -0.237 OA
ATOM     65  O   UNL     1       1.369 -10.873   8.553  1.00  0.00    -0.744 OA
ENDBRANCH  58  62
ENDBRANCH  41  55
BRANCH  42  66
ATOM     66  C   UNL     1      -5.147   2.200   8.574  1.00  0.00     0.023 A 
ATOM     67  C   UNL     1      -4.651   3.178   9.447  1.00  0.00     0.031 A 
ATOM     68  C   UNL     1      -6.116   2.579   7.628  1.00  0.00     0.131 A 
ATOM     69  C   UNL     1      -5.139   4.491   9.367  1.00  0.00     0.055 A 
ATOM     70  C   UNL     1      -6.571   3.893   7.528  1.00  0.00     0.041 A 
ATOM     71  F   UNL     1      -6.614   1.677   6.767  1.00  0.00    -0.206 F 
ATOM     72  C   UNL     1      -6.086   4.857   8.406  1.00  0.00     0.022 A 
BRANCH  69  73
ATOM     73  S   UNL     1      -4.545   5.714  10.567  1.00  0.00     0.124 S 
ATOM     74  O   UNL     1      -4.949   5.113  11.833  1.00  0.00    -0.237 OA
ATOM     75  O   UNL     1      -3.112   5.734  10.294  1.00  0.00    -0.237 OA
ATOM     76  O   UNL     1      -5.263   6.931  10.196  1.00  0.00    -0.744 OA
ENDBRANCH  69  73
ENDBRANCH  42  66
BRANCH  54  77
ATOM     77  C   UNL     1      -6.040  -2.973  13.132  1.00  0.00     0.023 A 
ATOM     78  C   UNL     1      -7.442  -2.864  13.176  1.00  0.00     0.031 A 
ATOM     79  C   UNL     1      -5.343  -3.073  14.348  1.00  0.00     0.131 A 
ATOM     80  C   UNL     1      -8.098  -2.792  14.413  1.00  0.00     0.055 A 
ATOM     81  C   UNL     1      -6.007  -3.053  15.576  1.00  0.00     0.041 A 
ATOM     82  F   UNL     1      -4.005  -3.174  14.362  1.00  0.00    -0.206 F 
ATOM     83  C   UNL     1      -7.391  -2.895  15.613  1.00  0.00     0.022 A 
BRANCH  80  84
ATOM     84  S   UNL     1      -9.878  -2.441  14.433  1.00  0.00     0.124 S 
ATOM     85  O   UNL     1      -9.958  -1.215  13.646  1.00  0.00    -0.237 OA
ATOM     86  O   UNL     1     -10.437  -3.636  13.811  1.00  0.00    -0.237 OA
ATOM     87  O   UNL     1     -10.180  -2.283  15.855  1.00  0.00    -0.744 OA
ENDBRANCH  80  84
ENDBRANCH  54  77
ENDBRANCH  28  29
ENDBRANCH  21  23
ENDBRANCH  20  21
ENDBRANCH  19  20
ENDBRANCH   1  19
TORSDOF 18
