REMARK SMILES O=C(OCCOC(=O)[C@H]1CC=CC[C@@H]1C(=O)N[C@@H]1CCCN(c2ccccc2F)C1=O)c1ccc(-c2c3nc(c(-c4cc(S(=O)(=O)[O-])ccc4F)c4ccc([nH]4)c(-c4cc(S(=O)(=O)[O-])ccc4F)c4nc(c(-c5cc(S(=O)(=O)[O-])ccc5F)c5ccc2[nH]5)C=C4)C=C3)cc1
REMARK SMILES IDX 4 1 3 2 2 3 1 4 32 5 33 6 94 7 34 8 93 9 35 10 36 11 37 12
REMARK SMILES IDX 87 13 38 14 92 15 86 16 88 17 39 18 91 19 85 20 84 21 40 23
REMARK SMILES IDX 72 24 52 25 71 26 53 27 56 28 70 29 89 30 54 31 55 32 69 34
REMARK SMILES IDX 90 35 57 36 41 37 42 38 50 39 43 40 49 41 51 42 48 43 44 44
REMARK SMILES IDX 45 45 46 46 47 47 73 48 74 49 82 50 75 51 81 52 83 53 80 54
REMARK SMILES IDX 76 55 77 56 78 57 79 58 58 59 59 60 67 61 60 62 66 63 68 64
REMARK SMILES IDX 65 65 61 66 62 67 63 68 64 69 5 70 6 71 7 72 8 73 9 74 10 75
REMARK SMILES IDX 14 76 11 77 13 78 12 79 15 80 16 81 17 82 18 84 19 85 30 86
REMARK SMILES IDX 20 87 22 88 31 89 21 90 23 91 24 92 28 93 25 94 27 95 29 96
REMARK SMILES IDX 26 97
REMARK H PARENT 88 22 56 33 17 83
REMARK Flexibility Score: inf
ROOT
ATOM      1  C   UNL     1       3.771   2.901  -1.473  1.00  0.00     0.275 C 
ENDROOT
BRANCH   1   2
ATOM      2  O   UNL     1       4.662   3.436  -0.472  1.00  0.00    -0.458 OA
BRANCH   2   3
ATOM      3  C   UNL     1       4.602   4.566   0.276  1.00  0.00     0.338 C 
ATOM      4  O   UNL     1       5.492   4.758   1.105  1.00  0.00    -0.246 OA
BRANCH   3   5
ATOM      5  C   UNL     1       3.472   5.554   0.242  1.00  0.00     0.060 A 
ATOM      6  C   UNL     1       2.633   5.802  -0.847  1.00  0.00     0.016 A 
ATOM      7  C   UNL     1       3.243   6.293   1.421  1.00  0.00     0.016 A 
ATOM      8  C   UNL     1       1.540   6.676  -0.737  1.00  0.00     0.010 A 
ATOM      9  C   UNL     1       2.145   7.157   1.541  1.00  0.00     0.010 A 
ATOM     10  C   UNL     1       1.271   7.343   0.460  1.00  0.00    -0.014 A 
BRANCH  10  11
ATOM     11  C   UNL     1       0.191   8.361   0.519  1.00  0.00     0.031 A 
ATOM     12  C   UNL     1       0.605   9.799   0.404  1.00  0.00     0.074 A 
ATOM     13  C   UNL     1      -1.118   8.031   0.579  1.00  0.00     0.049 A 
ATOM     14  N   UNL     1      -0.151  10.856   0.294  1.00  0.00    -0.248 NA
ATOM     15  C   UNL     1       2.050  10.076   0.324  1.00  0.00     0.031 C 
ATOM     16  C   UNL     1      -1.658   6.676   0.507  1.00  0.00     0.029 A 
ATOM     17  N   UNL     1      -2.245   8.806   0.721  1.00  0.00    -0.354 N 
ATOM     18  C   UNL     1       0.719  11.899   0.009  1.00  0.00     0.074 A 
ATOM     19  C   UNL     1       2.064  11.380   0.098  1.00  0.00     0.031 C 
ATOM     20  C   UNL     1      -2.988   6.700   0.713  1.00  0.00     0.029 A 
ATOM     21  C   UNL     1      -3.407   8.081   0.902  1.00  0.00     0.049 A 
ATOM     22  H   UNL     1      -2.226   9.790   0.696  1.00  0.00     0.167 HD
ATOM     23  C   UNL     1       0.410  13.158  -0.373  1.00  0.00     0.034 A 
ATOM     24  C   UNL     1      -4.657   8.496   1.196  1.00  0.00     0.034 A 
ATOM     25  C   UNL     1      -0.934  13.662  -0.388  1.00  0.00     0.049 A 
ATOM     26  C   UNL     1      -4.930   9.969   1.132  1.00  0.00     0.074 A 
ATOM     27  C   UNL     1      -1.382  14.919  -0.742  1.00  0.00     0.029 A 
ATOM     28  N   UNL     1      -2.048  12.933   0.013  1.00  0.00    -0.354 N 
ATOM     29  N   UNL     1      -4.096  10.938   0.843  1.00  0.00    -0.248 NA
ATOM     30  C   UNL     1      -6.318  10.396   1.342  1.00  0.00     0.031 C 
ATOM     31  C   UNL     1      -2.752  14.979  -0.469  1.00  0.00     0.029 A 
ATOM     32  C   UNL     1      -3.173  13.734  -0.023  1.00  0.00     0.049 A 
ATOM     33  H   UNL     1      -2.037  11.986   0.283  1.00  0.00     0.167 HD
ATOM     34  C   UNL     1      -4.874  12.082   0.743  1.00  0.00     0.074 A 
ATOM     35  C   UNL     1      -6.232  11.693   1.078  1.00  0.00     0.031 C 
ATOM     36  C   UNL     1      -4.507  13.322   0.341  1.00  0.00     0.034 A 
BRANCH  23  37
ATOM     37  C   UNL     1       1.553  14.047  -0.773  1.00  0.00     0.023 A 
ATOM     38  C   UNL     1       2.318  13.774  -1.923  1.00  0.00     0.031 A 
ATOM     39  C   UNL     1       1.918  15.143   0.022  1.00  0.00     0.131 A 
ATOM     40  C   UNL     1       3.449  14.551  -2.211  1.00  0.00     0.055 A 
ATOM     41  C   UNL     1       3.007  15.952  -0.304  1.00  0.00     0.041 A 
ATOM     42  F   UNL     1       1.238  15.428   1.143  1.00  0.00    -0.206 F 
ATOM     43  C   UNL     1       3.787  15.652  -1.419  1.00  0.00     0.022 A 
BRANCH  40  44
ATOM     44  S   UNL     1       4.537  14.037  -3.568  1.00  0.00     0.124 S 
ATOM     45  O   UNL     1       5.011  12.740  -3.090  1.00  0.00    -0.237 OA
ATOM     46  O   UNL     1       3.628  14.002  -4.708  1.00  0.00    -0.237 OA
ATOM     47  O   UNL     1       5.551  15.089  -3.610  1.00  0.00    -0.744 OA
ENDBRANCH  40  44
ENDBRANCH  23  37
BRANCH  24  48
ATOM     48  C   UNL     1      -5.740   7.551   1.591  1.00  0.00     0.023 A 
ATOM     49  C   UNL     1      -6.525   6.863   0.658  1.00  0.00     0.031 A 
ATOM     50  C   UNL     1      -6.033   7.368   2.955  1.00  0.00     0.131 A 
ATOM     51  C   UNL     1      -7.541   5.998   1.108  1.00  0.00     0.055 A 
ATOM     52  C   UNL     1      -7.006   6.469   3.398  1.00  0.00     0.041 A 
ATOM     53  F   UNL     1      -5.359   8.059   3.885  1.00  0.00    -0.206 F 
ATOM     54  C   UNL     1      -7.760   5.766   2.469  1.00  0.00     0.022 A 
BRANCH  51  55
ATOM     55  S   UNL     1      -8.611   5.181  -0.108  1.00  0.00     0.124 S 
ATOM     56  O   UNL     1      -9.500   6.272  -0.490  1.00  0.00    -0.237 OA
ATOM     57  O   UNL     1      -7.651   4.744  -1.116  1.00  0.00    -0.237 OA
ATOM     58  O   UNL     1      -9.229   4.103   0.660  1.00  0.00    -0.744 OA
ENDBRANCH  51  55
ENDBRANCH  24  48
BRANCH  36  59
ATOM     59  C   UNL     1      -5.598  14.338   0.186  1.00  0.00     0.023 A 
ATOM     60  C   UNL     1      -6.211  14.927   1.299  1.00  0.00     0.031 A 
ATOM     61  C   UNL     1      -5.969  14.769  -1.100  1.00  0.00     0.131 A 
ATOM     62  C   UNL     1      -7.181  15.917   1.104  1.00  0.00     0.055 A 
ATOM     63  C   UNL     1      -6.895  15.792  -1.285  1.00  0.00     0.041 A 
ATOM     64  F   UNL     1      -5.409  14.222  -2.191  1.00  0.00    -0.206 F 
ATOM     65  C   UNL     1      -7.508  16.372  -0.178  1.00  0.00     0.022 A 
BRANCH  62  66
ATOM     66  S   UNL     1      -8.029  16.590   2.555  1.00  0.00     0.124 S 
ATOM     67  O   UNL     1      -8.802  15.437   3.008  1.00  0.00    -0.237 OA
ATOM     68  O   UNL     1      -6.920  16.990   3.414  1.00  0.00    -0.237 OA
ATOM     69  O   UNL     1      -8.818  17.692   2.008  1.00  0.00    -0.744 OA
ENDBRANCH  62  66
ENDBRANCH  36  59
ENDBRANCH  10  11
ENDBRANCH   3   5
ENDBRANCH   2   3
ENDBRANCH   1   2
BRANCH   1  70
ATOM     70  C   UNL     1       2.542   2.189  -0.915  1.00  0.00     0.274 C 
BRANCH  70  71
ATOM     71  O   UNL     1       1.975   2.927   0.163  1.00  0.00    -0.462 OA
BRANCH  71  72
ATOM     72  C   UNL     1       2.182   2.479   1.437  1.00  0.00     0.310 C 
ATOM     73  O   UNL     1       2.793   1.463   1.720  1.00  0.00    -0.252 OA
BRANCH  72  74
ATOM     74  C   UNL     1       1.603   3.478   2.448  1.00  0.00     0.115 C 
ATOM     75  C   UNL     1       0.409   4.208   1.829  1.00  0.00     0.043 C 
ATOM     76  C   UNL     1       1.223   2.795   3.770  1.00  0.00     0.097 C 
ATOM     77  C   UNL     1      -0.823   3.356   1.788  1.00  0.00    -0.030 C 
ATOM     78  C   UNL     1       0.026   1.855   3.605  1.00  0.00     0.041 C 
ATOM     79  C   UNL     1      -0.971   2.277   2.566  1.00  0.00    -0.030 C 
BRANCH  76  80
ATOM     80  C   UNL     1       1.272   3.756   4.981  1.00  0.00     0.224 C 
ATOM     81  O   UNL     1       2.321   3.815   5.640  1.00  0.00    -0.275 OA
ATOM     82  N   UNL     1       0.302   4.619   5.376  1.00  0.00    -0.344 N 
ATOM     83  H   UNL     1       0.553   5.181   6.145  1.00  0.00     0.164 HD
BRANCH  82  84
ATOM     84  C   UNL     1      -1.037   4.867   4.873  1.00  0.00     0.172 C 
ATOM     85  C   UNL     1      -1.592   6.234   5.231  1.00  0.00     0.037 C 
ATOM     86  C   UNL     1      -2.076   3.827   5.293  1.00  0.00     0.249 C 
ATOM     87  C   UNL     1      -2.759   6.473   4.292  1.00  0.00     0.025 C 
ATOM     88  N   UNL     1      -3.259   3.962   4.545  1.00  0.00    -0.308 N 
ATOM     89  O   UNL     1      -1.779   2.939   6.084  1.00  0.00    -0.272 OA
ATOM     90  C   UNL     1      -3.759   5.307   4.224  1.00  0.00     0.126 C 
BRANCH  88  91
ATOM     91  C   UNL     1      -4.014   2.807   4.123  1.00  0.00     0.080 A 
ATOM     92  C   UNL     1      -4.623   2.793   2.852  1.00  0.00     0.029 A 
ATOM     93  C   UNL     1      -4.058   1.606   4.851  1.00  0.00     0.146 A 
ATOM     94  C   UNL     1      -5.172   1.619   2.315  1.00  0.00     0.002 A 
ATOM     95  C   UNL     1      -4.594   0.433   4.315  1.00  0.00     0.041 A 
ATOM     96  F   UNL     1      -3.670   1.543   6.132  1.00  0.00    -0.205 F 
ATOM     97  C   UNL     1      -5.137   0.432   3.038  1.00  0.00     0.003 A 
ENDBRANCH  88  91
ENDBRANCH  82  84
ENDBRANCH  76  80
ENDBRANCH  72  74
ENDBRANCH  71  72
ENDBRANCH  70  71
ENDBRANCH   1  70
TORSDOF 17
