REMARK SMILES Cc1nc(CCNc2nccc(-c3cc(C(=O)OCCOC(=O)c4ccc(-c5c6nc(c(-c7cc(S(=O)(=O)[O-])ccc7F)c7ccc([nH]7)c(-c7cc(S(=O)(=O)[O-])ccc7F)c7nc(c(-c8cc(S(=O)(=O)[O-])ccc8F)c8ccc5[nH]8)C=C7)C=C6)cc4)ccn3)n2)cc(=O)[nH]1
REMARK SMILES IDX 19 1 18 2 16 3 17 4 15 5 13 6 14 7 89 8 88 9 87 10 12 11
REMARK SMILES IDX 8 12 9 13 90 14 10 15 11 16 7 17 6 19 5 20 4 21 1 22 2 23
REMARK SMILES IDX 3 24 94 25 92 26 91 28 93 29 20 30 21 31 22 32 23 33 24 34
REMARK SMILES IDX 25 35 86 36 26 37 85 38 27 39 28 40 29 41 79 42 30 43 84 44
REMARK SMILES IDX 78 45 80 46 31 47 83 48 77 49 76 50 32 52 64 53 44 54 63 55
REMARK SMILES IDX 45 56 48 57 62 58 81 59 46 60 47 61 61 63 82 64 49 65 33 66
REMARK SMILES IDX 34 67 42 68 35 69 41 70 43 71 40 72 36 73 37 74 38 75 39 76
REMARK SMILES IDX 65 77 66 78 74 79 67 80 73 81 75 82 72 83 68 84 69 85 70 86
REMARK SMILES IDX 71 87 50 88 51 89 59 90 52 91 58 92 60 93 57 94 53 95 54 96
REMARK SMILES IDX 55 97 56 98
REMARK H PARENT 7 18 94 27 80 51 48 62
REMARK Flexibility Score: inf
ROOT
ATOM      1  C   UNL     1       2.881  12.936   1.435  1.00  0.00     0.275 C 
ENDROOT
BRANCH   1   2
ATOM      2  O   UNL     1       2.893  11.554   1.844  1.00  0.00    -0.458 OA
BRANCH   2   3
ATOM      3  C   UNL     1       3.530  11.277   3.010  1.00  0.00     0.338 C 
ATOM      4  O   UNL     1       4.122  12.065   3.721  1.00  0.00    -0.246 OA
BRANCH   3   5
ATOM      5  C   UNL     1       3.348   9.850   3.359  1.00  0.00     0.063 A 
ATOM      6  C   UNL     1       3.185   7.556   2.765  1.00  0.00     0.090 A 
ATOM      7  C   UNL     1       3.318   8.876   2.367  1.00  0.00     0.046 A 
ATOM      8  N   UNL     1       3.025   7.194   4.066  1.00  0.00    -0.255 NA
ATOM      9  C   UNL     1       3.039   8.153   5.003  1.00  0.00     0.112 A 
ATOM     10  C   UNL     1       3.255   9.478   4.702  1.00  0.00     0.036 A 
BRANCH   6  11
ATOM     11  C   UNL     1       3.345   6.436   1.839  1.00  0.00     0.094 A 
ATOM     12  C   UNL     1       2.575   4.365   1.270  1.00  0.00     0.223 A 
ATOM     13  N   UNL     1       3.707   4.050   0.625  1.00  0.00    -0.222 NA
ATOM     14  N   UNL     1       2.334   5.548   1.821  1.00  0.00    -0.211 NA
ATOM     15  C   UNL     1       4.652   5.003   0.560  1.00  0.00     0.117 A 
ATOM     16  C   UNL     1       4.533   6.223   1.170  1.00  0.00     0.051 A 
BRANCH  12  17
ATOM     17  N   UNL     1       1.672   3.361   1.445  1.00  0.00    -0.354 N 
ATOM     18  H   UNL     1       1.996   2.455   1.655  1.00  0.00     0.163 HD
BRANCH  17  19
ATOM     19  C   UNL     1       0.247   3.591   1.330  1.00  0.00     0.122 C 
BRANCH  19  20
ATOM     20  C   UNL     1      -0.273   3.072  -0.024  1.00  0.00     0.077 C 
BRANCH  20  21
ATOM     21  C   UNL     1      -0.158   1.564  -0.158  1.00  0.00     0.050 A 
ATOM     22  C   UNL     1      -2.470  -1.288   0.141  1.00  0.00     0.087 C 
ATOM     23  C   UNL     1      -1.246  -0.434  -0.003  1.00  0.00     0.105 A 
ATOM     24  N   UNL     1      -1.325   0.856   0.023  1.00  0.00    -0.240 NA
ATOM     25  N   UNL     1      -0.076  -1.118  -0.173  1.00  0.00    -0.311 N 
ATOM     26  C   UNL     1       1.105  -0.479  -0.391  1.00  0.00     0.251 A 
ATOM     27  H   UNL     1      -0.087  -2.102  -0.136  1.00  0.00     0.171 HD
ATOM     28  C   UNL     1       1.020   0.984  -0.439  1.00  0.00     0.095 A 
ATOM     29  O   UNL     1       2.169  -1.070  -0.526  1.00  0.00    -0.270 OA
ENDBRANCH  20  21
ENDBRANCH  19  20
ENDBRANCH  17  19
ENDBRANCH  12  17
ENDBRANCH   6  11
ENDBRANCH   3   5
ENDBRANCH   2   3
ENDBRANCH   1   2
BRANCH   1  30
ATOM     30  C   UNL     1       1.515  13.580   1.682  1.00  0.00     0.275 C 
BRANCH  30  31
ATOM     31  O   UNL     1       1.259  13.723   3.091  1.00  0.00    -0.458 OA
BRANCH  31  32
ATOM     32  C   UNL     1       0.431  12.789   3.613  1.00  0.00     0.338 C 
ATOM     33  O   UNL     1      -0.134  11.889   3.015  1.00  0.00    -0.246 OA
BRANCH  32  34
ATOM     34  C   UNL     1       0.389  12.910   5.077  1.00  0.00     0.060 A 
ATOM     35  C   UNL     1       1.378  12.250   5.793  1.00  0.00     0.016 A 
ATOM     36  C   UNL     1      -0.687  13.481   5.745  1.00  0.00     0.016 A 
ATOM     37  C   UNL     1       1.242  12.031   7.157  1.00  0.00     0.010 A 
ATOM     38  C   UNL     1      -0.756  13.377   7.144  1.00  0.00     0.010 A 
ATOM     39  C   UNL     1       0.185  12.613   7.864  1.00  0.00    -0.014 A 
BRANCH  39  40
ATOM     40  C   UNL     1       0.060  12.390   9.337  1.00  0.00     0.031 A 
ATOM     41  C   UNL     1      -1.212  11.819   9.912  1.00  0.00     0.074 A 
ATOM     42  C   UNL     1       1.092  12.672  10.162  1.00  0.00     0.049 A 
ATOM     43  N   UNL     1      -1.590  11.727  11.162  1.00  0.00    -0.248 NA
ATOM     44  C   UNL     1      -2.197  11.301   8.951  1.00  0.00     0.031 C 
ATOM     45  C   UNL     1       2.406  13.167   9.740  1.00  0.00     0.029 A 
ATOM     46  N   UNL     1       1.206  12.579  11.528  1.00  0.00    -0.354 N 
ATOM     47  C   UNL     1      -2.877  11.195  11.135  1.00  0.00     0.074 A 
ATOM     48  C   UNL     1      -3.219  11.005   9.741  1.00  0.00     0.031 C 
ATOM     49  C   UNL     1       3.200  13.289  10.812  1.00  0.00     0.029 A 
ATOM     50  C   UNL     1       2.424  13.004  12.011  1.00  0.00     0.049 A 
ATOM     51  H   UNL     1       0.486  12.240  12.107  1.00  0.00     0.167 HD
ATOM     52  C   UNL     1      -3.692  10.895  12.178  1.00  0.00     0.034 A 
ATOM     53  C   UNL     1       2.856  13.208  13.271  1.00  0.00     0.034 A 
ATOM     54  C   UNL     1      -3.314  11.058  13.563  1.00  0.00     0.049 A 
ATOM     55  C   UNL     1       1.906  12.945  14.410  1.00  0.00     0.074 A 
ATOM     56  C   UNL     1      -4.055  10.773  14.698  1.00  0.00     0.029 A 
ATOM     57  N   UNL     1      -2.090  11.545  14.005  1.00  0.00    -0.354 N 
ATOM     58  N   UNL     1       0.671  12.502  14.368  1.00  0.00    -0.248 NA
ATOM     59  C   UNL     1       2.404  13.220  15.763  1.00  0.00     0.031 C 
ATOM     60  C   UNL     1      -3.312  11.162  15.818  1.00  0.00     0.029 A 
ATOM     61  C   UNL     1      -2.070  11.601  15.391  1.00  0.00     0.049 A 
ATOM     62  H   UNL     1      -1.345  11.812  13.419  1.00  0.00     0.167 HD
ATOM     63  C   UNL     1       0.254  12.420  15.694  1.00  0.00     0.074 A 
ATOM     64  C   UNL     1       1.377  12.840  16.508  1.00  0.00     0.031 C 
ATOM     65  C   UNL     1      -0.947  12.031  16.192  1.00  0.00     0.034 A 
BRANCH  52  66
ATOM     66  C   UNL     1      -5.095  10.426  11.860  1.00  0.00     0.023 A 
ATOM     67  C   UNL     1      -5.351   9.232  11.165  1.00  0.00     0.031 A 
ATOM     68  C   UNL     1      -6.201  11.210  12.243  1.00  0.00     0.131 A 
ATOM     69  C   UNL     1      -6.667   8.895  10.811  1.00  0.00     0.055 A 
ATOM     70  C   UNL     1      -7.513  10.825  11.964  1.00  0.00     0.041 A 
ATOM     71  F   UNL     1      -6.023  12.373  12.889  1.00  0.00    -0.206 F 
ATOM     72  C   UNL     1      -7.752   9.669  11.229  1.00  0.00     0.022 A 
BRANCH  69  73
ATOM     73  S   UNL     1      -6.931   7.516   9.662  1.00  0.00     0.124 S 
ATOM     74  O   UNL     1      -6.148   7.943   8.505  1.00  0.00    -0.237 OA
ATOM     75  O   UNL     1      -6.404   6.379  10.408  1.00  0.00    -0.237 OA
ATOM     76  O   UNL     1      -8.379   7.511   9.458  1.00  0.00    -0.744 OA
ENDBRANCH  69  73
ENDBRANCH  52  66
BRANCH  53  77
ATOM     77  C   UNL     1       4.220  13.761  13.524  1.00  0.00     0.023 A 
ATOM     78  C   UNL     1       5.171  13.040  14.263  1.00  0.00     0.031 A 
ATOM     79  C   UNL     1       4.580  15.043  13.065  1.00  0.00     0.131 A 
ATOM     80  C   UNL     1       6.415  13.621  14.556  1.00  0.00     0.055 A 
ATOM     81  C   UNL     1       5.843  15.587  13.300  1.00  0.00     0.041 A 
ATOM     82  F   UNL     1       3.708  15.783  12.361  1.00  0.00    -0.206 F 
ATOM     83  C   UNL     1       6.765  14.880  14.063  1.00  0.00     0.022 A 
BRANCH  80  84
ATOM     84  S   UNL     1       7.538  12.746  15.681  1.00  0.00     0.124 S 
ATOM     85  O   UNL     1       6.710  12.606  16.874  1.00  0.00    -0.237 OA
ATOM     86  O   UNL     1       7.812  11.519  14.942  1.00  0.00    -0.237 OA
ATOM     87  O   UNL     1       8.670  13.661  15.810  1.00  0.00    -0.744 OA
ENDBRANCH  80  84
ENDBRANCH  53  77
BRANCH  65  88
ATOM     88  C   UNL     1      -1.082  11.990  17.695  1.00  0.00     0.023 A 
ATOM     89  C   UNL     1      -1.025  13.155  18.480  1.00  0.00     0.031 A 
ATOM     90  C   UNL     1      -1.249  10.758  18.354  1.00  0.00     0.131 A 
ATOM     91  C   UNL     1      -1.071  13.058  19.878  1.00  0.00     0.055 A 
ATOM     92  C   UNL     1      -1.366  10.675  19.741  1.00  0.00     0.041 A 
ATOM     93  F   UNL     1      -1.303   9.612  17.656  1.00  0.00    -0.206 F 
ATOM     94  C   UNL     1      -1.262  11.828  20.513  1.00  0.00     0.022 A 
BRANCH  91  95
ATOM     95  S   UNL     1      -0.769  14.550  20.865  1.00  0.00     0.124 S 
ATOM     96  O   UNL     1       0.557  14.952  20.407  1.00  0.00    -0.237 OA
ATOM     97  O   UNL     1      -1.872  15.418  20.464  1.00  0.00    -0.237 OA
ATOM     98  O   UNL     1      -0.830  14.068  22.244  1.00  0.00    -0.744 OA
ENDBRANCH  91  95
ENDBRANCH  65  88
ENDBRANCH  39  40
ENDBRANCH  32  34
ENDBRANCH  31  32
ENDBRANCH  30  31
ENDBRANCH   1  30
TORSDOF 19
