REMARK SMILES O=C(/C=C/C(=O)c1ccc(F)c(Br)c1)OCCOC(=O)c1ccc(-c2c3nc(c(-c4cc(S(=O)(=O)[O-])ccc4F)c4ccc([nH]4)c(-c4cc(S(=O)(=O)[O-])ccc4F)c4nc(c(-c5cc(S(=O)(=O)[O-])ccc5F)c5ccc2[nH]5)C=C4)C=C3)cc1
REMARK SMILES IDX 17 1 16 2 15 3 2 4 1 5 3 6 4 7 5 8 6 9 7 10 8 11 14 12 9 13
REMARK SMILES IDX 12 14 10 15 13 16 11 17 18 18 19 19 20 20 21 21 22 22 83 23
REMARK SMILES IDX 23 24 82 25 24 26 25 27 26 28 76 29 27 30 81 31 75 32 77 33
REMARK SMILES IDX 28 34 80 35 74 36 73 37 29 39 61 40 41 41 60 42 42 43 45 44
REMARK SMILES IDX 59 45 78 46 43 47 44 48 58 50 79 51 46 52 30 53 31 54 39 55
REMARK SMILES IDX 32 56 38 57 40 58 37 59 33 60 34 61 35 62 36 63 62 64 63 65
REMARK SMILES IDX 71 66 64 67 70 68 72 69 69 70 65 71 66 72 67 73 68 74 47 75
REMARK SMILES IDX 48 76 56 77 49 78 55 79 57 80 54 81 50 82 51 83 52 84 53 85
REMARK H PARENT 77 38 45 49
REMARK Flexibility Score: inf
ROOT
ATOM      1  C   UNL     1       4.337  -0.721  -1.792  1.00  0.00     0.275 C 
ENDROOT
BRANCH   1   2
ATOM      2  C   UNL     1       4.358  -1.283  -0.366  1.00  0.00     0.275 C 
BRANCH   2   3
ATOM      3  O   UNL     1       3.172  -1.059   0.430  1.00  0.00    -0.459 OA
BRANCH   3   4
ATOM      4  C   UNL     1       2.873   0.030   1.180  1.00  0.00     0.331 C 
ATOM      5  O   UNL     1       1.912   0.036   1.941  1.00  0.00    -0.247 OA
BRANCH   4   6
ATOM      6  C   UNL     1       3.604   1.284   0.946  1.00  0.00     0.097 C 
ATOM      7  C   UNL     1       4.926   1.418   1.081  1.00  0.00     0.060 C 
BRANCH   7   8
ATOM      8  C   UNL     1       5.694   2.556   0.523  1.00  0.00     0.186 C 
ATOM      9  O   UNL     1       6.820   2.326   0.086  1.00  0.00    -0.289 OA
BRANCH   8  10
ATOM     10  C   UNL     1       5.146   3.928   0.441  1.00  0.00     0.023 A 
ATOM     11  C   UNL     1       4.362   4.472   1.463  1.00  0.00     0.015 A 
ATOM     12  C   UNL     1       5.529   4.723  -0.652  1.00  0.00     0.031 A 
ATOM     13  C   UNL     1       3.976   5.813   1.391  1.00  0.00     0.041 A 
ATOM     14  C   UNL     1       5.117   6.053  -0.725  1.00  0.00     0.054 A 
ATOM     15  C   UNL     1       4.346   6.593   0.298  1.00  0.00     0.137 A 
ATOM     16  Br  UNL     1       5.624   7.106  -2.211  1.00  0.00    -0.048 Br
ATOM     17  F   UNL     1       3.958   7.873   0.255  1.00  0.00    -0.206 F 
ENDBRANCH   8  10
ENDBRANCH   7   8
ENDBRANCH   4   6
ENDBRANCH   3   4
ENDBRANCH   2   3
ENDBRANCH   1   2
BRANCH   1  18
ATOM     18  O   UNL     1       3.847   0.625  -1.883  1.00  0.00    -0.458 OA
BRANCH  18  19
ATOM     19  C   UNL     1       2.521   0.728  -2.161  1.00  0.00     0.338 C 
ATOM     20  O   UNL     1       1.747  -0.198  -2.338  1.00  0.00    -0.246 OA
BRANCH  19  21
ATOM     21  C   UNL     1       2.099   2.145  -2.058  1.00  0.00     0.060 A 
ATOM     22  C   UNL     1       0.897   2.434  -1.399  1.00  0.00     0.016 A 
ATOM     23  C   UNL     1       2.870   3.183  -2.582  1.00  0.00     0.016 A 
ATOM     24  C   UNL     1       0.458   3.758  -1.274  1.00  0.00     0.010 A 
ATOM     25  C   UNL     1       2.428   4.505  -2.449  1.00  0.00     0.010 A 
ATOM     26  C   UNL     1       1.212   4.812  -1.806  1.00  0.00    -0.014 A 
BRANCH  26  27
ATOM     27  C   UNL     1       0.714   6.222  -1.794  1.00  0.00     0.031 A 
ATOM     28  C   UNL     1       0.377   6.897  -3.100  1.00  0.00     0.074 A 
ATOM     29  C   UNL     1       0.589   6.928  -0.651  1.00  0.00     0.049 A 
ATOM     30  N   UNL     1       0.025   8.138  -3.328  1.00  0.00    -0.248 NA
ATOM     31  C   UNL     1       0.431   6.057  -4.306  1.00  0.00     0.031 C 
ATOM     32  C   UNL     1       0.798   6.413   0.701  1.00  0.00     0.029 A 
ATOM     33  N   UNL     1       0.303   8.261  -0.452  1.00  0.00    -0.354 N 
ATOM     34  C   UNL     1      -0.226   8.216  -4.693  1.00  0.00     0.074 A 
ATOM     35  C   UNL     1       0.117   6.926  -5.254  1.00  0.00     0.031 C 
ATOM     36  C   UNL     1       0.739   7.433   1.575  1.00  0.00     0.029 A 
ATOM     37  C   UNL     1       0.491   8.674   0.849  1.00  0.00     0.049 A 
ATOM     38  H   UNL     1      -0.005   8.860  -1.169  1.00  0.00     0.167 HD
ATOM     39  C   UNL     1      -0.748   9.244  -5.408  1.00  0.00     0.034 A 
ATOM     40  C   UNL     1       0.499   9.909   1.393  1.00  0.00     0.034 A 
ATOM     41  C   UNL     1      -1.077  10.534  -4.854  1.00  0.00     0.049 A 
ATOM     42  C   UNL     1       0.116  11.098   0.546  1.00  0.00     0.074 A 
ATOM     43  C   UNL     1      -1.670  11.616  -5.484  1.00  0.00     0.029 A 
ATOM     44  N   UNL     1      -0.821  10.930  -3.549  1.00  0.00    -0.354 N 
ATOM     45  N   UNL     1      -0.198  11.137  -0.727  1.00  0.00    -0.248 NA
ATOM     46  C   UNL     1       0.029  12.398   1.225  1.00  0.00     0.031 C 
ATOM     47  C   UNL     1      -1.697  12.688  -4.585  1.00  0.00     0.029 A 
ATOM     48  C   UNL     1      -1.202  12.252  -3.368  1.00  0.00     0.049 A 
ATOM     49  H   UNL     1      -0.426  10.357  -2.853  1.00  0.00     0.167 HD
ATOM     50  C   UNL     1      -0.602  12.448  -0.977  1.00  0.00     0.074 A 
ATOM     51  C   UNL     1      -0.464  13.171   0.269  1.00  0.00     0.031 C 
ATOM     52  C   UNL     1      -1.081  12.984  -2.128  1.00  0.00     0.034 A 
BRANCH  39  53
ATOM     53  C   UNL     1      -0.996   9.003  -6.877  1.00  0.00     0.023 A 
ATOM     54  C   UNL     1      -1.911   8.026  -7.311  1.00  0.00     0.031 A 
ATOM     55  C   UNL     1      -0.308   9.742  -7.854  1.00  0.00     0.131 A 
ATOM     56  C   UNL     1      -2.054   7.759  -8.680  1.00  0.00     0.055 A 
ATOM     57  C   UNL     1      -0.518   9.529  -9.218  1.00  0.00     0.041 A 
ATOM     58  F   UNL     1       0.589  10.675  -7.500  1.00  0.00    -0.206 F 
ATOM     59  C   UNL     1      -1.384   8.522  -9.638  1.00  0.00     0.022 A 
BRANCH  56  60
ATOM     60  S   UNL     1      -3.017   6.307  -9.181  1.00  0.00     0.124 S 
ATOM     61  O   UNL     1      -2.300   5.229  -8.502  1.00  0.00    -0.237 OA
ATOM     62  O   UNL     1      -4.346   6.614  -8.664  1.00  0.00    -0.237 OA
ATOM     63  O   UNL     1      -2.898   6.303 -10.637  1.00  0.00    -0.744 OA
ENDBRANCH  56  60
ENDBRANCH  39  53
BRANCH  40  64
ATOM     64  C   UNL     1       0.906  10.108   2.814  1.00  0.00     0.023 A 
ATOM     65  C   UNL     1      -0.008  10.552   3.781  1.00  0.00     0.031 A 
ATOM     66  C   UNL     1       2.248   9.941   3.201  1.00  0.00     0.131 A 
ATOM     67  C   UNL     1       0.442  10.871   5.073  1.00  0.00     0.055 A 
ATOM     68  C   UNL     1       2.683  10.220   4.498  1.00  0.00     0.041 A 
ATOM     69  F   UNL     1       3.162   9.512   2.318  1.00  0.00    -0.206 F 
ATOM     70  C   UNL     1       1.779  10.703   5.439  1.00  0.00     0.022 A 
BRANCH  67  71
ATOM     71  S   UNL     1      -0.735  11.599   6.246  1.00  0.00     0.124 S 
ATOM     72  O   UNL     1      -1.177  12.787   5.525  1.00  0.00    -0.237 OA
ATOM     73  O   UNL     1      -1.717  10.529   6.387  1.00  0.00    -0.237 OA
ATOM     74  O   UNL     1       0.081  11.853   7.431  1.00  0.00    -0.744 OA
ENDBRANCH  67  71
ENDBRANCH  40  64
BRANCH  52  75
ATOM     75  C   UNL     1      -1.599  14.403  -2.075  1.00  0.00     0.023 A 
ATOM     76  C   UNL     1      -0.760  15.503  -1.828  1.00  0.00     0.031 A 
ATOM     77  C   UNL     1      -2.971  14.652  -2.267  1.00  0.00     0.131 A 
ATOM     78  C   UNL     1      -1.310  16.792  -1.724  1.00  0.00     0.055 A 
ATOM     79  C   UNL     1      -3.501  15.942  -2.228  1.00  0.00     0.041 A 
ATOM     80  F   UNL     1      -3.824  13.640  -2.499  1.00  0.00    -0.206 F 
ATOM     81  C   UNL     1      -2.671  17.020  -1.942  1.00  0.00     0.022 A 
BRANCH  78  82
ATOM     82  S   UNL     1      -0.237  18.160  -1.205  1.00  0.00     0.124 S 
ATOM     83  O   UNL     1       0.232  17.700   0.098  1.00  0.00    -0.237 OA
ATOM     84  O   UNL     1       0.764  18.193  -2.267  1.00  0.00    -0.237 OA
ATOM     85  O   UNL     1      -1.139  19.310  -1.169  1.00  0.00    -0.744 OA
ENDBRANCH  78  82
ENDBRANCH  52  75
ENDBRANCH  26  27
ENDBRANCH  19  21
ENDBRANCH  18  19
ENDBRANCH   1  18
TORSDOF 16
