REMARK SMILES C[C@H](C[NH3+])S[C@H](C)c1ccc(C(=O)OCCOC(=O)c2ccc(-c3c4nc(c(-c5cc(S(=O)(=O)[O-])ccc5F)c5ccc([nH]5)c(-c5cc(S(=O)(=O)[O-])ccc5F)c5nc(c(-c6cc(S(=O)(=O)[O-])ccc6F)c6ccc3[nH]6)C=C5)C=C4)cc2)o1
REMARK SMILES IDX 15 1 14 2 12 3 13 4 11 5 8 6 9 7 83 8 10 9 6 10 7 11 5 12
REMARK SMILES IDX 2 13 1 14 3 15 4 16 16 20 17 21 18 22 19 23 20 24 21 25
REMARK SMILES IDX 82 26 22 27 81 28 23 29 24 30 25 31 75 32 26 33 80 34 74 35
REMARK SMILES IDX 76 36 27 37 79 38 73 39 72 40 28 42 60 43 40 44 59 45 41 46
REMARK SMILES IDX 44 47 58 48 77 49 42 50 43 51 57 53 78 54 45 55 29 56 30 57
REMARK SMILES IDX 38 58 31 59 37 60 39 61 36 62 32 63 33 64 34 65 35 66 61 67
REMARK SMILES IDX 62 68 70 69 63 70 69 71 71 72 68 73 64 74 65 75 66 76 67 77
REMARK SMILES IDX 46 78 47 79 55 80 48 81 54 82 56 83 53 84 49 85 50 86 51 87
REMARK SMILES IDX 52 88
REMARK H PARENT 4 17 4 18 4 19 76 41 44 52
REMARK Flexibility Score: inf
ROOT
ATOM      1  C   UNL     1      -0.716  -6.269   3.634  1.00  0.00     0.275 C 
ENDROOT
BRANCH   1   2
ATOM      2  O   UNL     1      -0.599  -4.873   3.301  1.00  0.00    -0.456 OA
BRANCH   2   3
ATOM      3  C   UNL     1      -0.308  -4.609   1.990  1.00  0.00     0.374 C 
ATOM      4  O   UNL     1       0.001  -5.457   1.170  1.00  0.00    -0.242 OA
BRANCH   3   5
ATOM      5  C   UNL     1      -0.492  -3.203   1.713  1.00  0.00     0.211 A 
ATOM      6  C   UNL     1      -1.006  -1.530   0.351  1.00  0.00     0.117 A 
ATOM      7  C   UNL     1      -0.870  -0.988   1.615  1.00  0.00     0.048 A 
ATOM      8  O   UNL     1      -0.724  -2.861   0.411  1.00  0.00    -0.453 OA
ATOM      9  C   UNL     1      -0.552  -2.063   2.490  1.00  0.00     0.058 A 
BRANCH   6  10
ATOM     10  C   UNL     1      -1.492  -0.990  -0.964  1.00  0.00     0.110 C 
ATOM     11  C   UNL     1      -1.131   0.475  -1.181  1.00  0.00     0.028 C 
BRANCH  10  12
ATOM     12  S   UNL     1      -1.089  -2.033  -2.424  1.00  0.00    -0.142 SA
BRANCH  12  13
ATOM     13  C   UNL     1       0.707  -1.723  -2.701  1.00  0.00     0.099 C 
ATOM     14  C   UNL     1       1.005  -2.085  -4.159  1.00  0.00     0.025 C 
BRANCH  13  15
ATOM     15  C   UNL     1       1.620  -2.507  -1.733  1.00  0.00     0.273 C 
BRANCH  15  16
ATOM     16  N   UNL     1       1.445  -3.959  -1.784  1.00  0.00    -0.357 N 
ATOM     17  H   UNL     1       0.494  -4.197  -1.503  1.00  0.00     0.344 HD
ATOM     18  H   UNL     1       2.108  -4.404  -1.149  1.00  0.00     0.344 HD
ATOM     19  H   UNL     1       1.611  -4.288  -2.735  1.00  0.00     0.344 HD
ENDBRANCH  15  16
ENDBRANCH  13  15
ENDBRANCH  12  13
ENDBRANCH  10  12
ENDBRANCH   6  10
ENDBRANCH   3   5
ENDBRANCH   2   3
ENDBRANCH   1   2
BRANCH   1  20
ATOM     20  C   UNL     1      -2.179  -6.729   3.640  1.00  0.00     0.275 C 
BRANCH  20  21
ATOM     21  O   UNL     1      -2.742  -6.797   2.316  1.00  0.00    -0.458 OA
BRANCH  21  22
ATOM     22  C   UNL     1      -3.399  -5.683   1.909  1.00  0.00     0.338 C 
ATOM     23  O   UNL     1      -3.545  -4.654   2.549  1.00  0.00    -0.246 OA
BRANCH  22  24
ATOM     24  C   UNL     1      -3.825  -5.830   0.505  1.00  0.00     0.060 A 
ATOM     25  C   UNL     1      -3.338  -4.907  -0.421  1.00  0.00     0.016 A 
ATOM     26  C   UNL     1      -4.745  -6.802   0.108  1.00  0.00     0.016 A 
ATOM     27  C   UNL     1      -3.764  -4.944  -1.745  1.00  0.00     0.010 A 
ATOM     28  C   UNL     1      -5.175  -6.839  -1.227  1.00  0.00     0.010 A 
ATOM     29  C   UNL     1      -4.692  -5.904  -2.161  1.00  0.00    -0.014 A 
BRANCH  29  30
ATOM     30  C   UNL     1      -5.186  -5.875  -3.561  1.00  0.00     0.031 A 
ATOM     31  C   UNL     1      -6.559  -5.343  -3.859  1.00  0.00     0.074 A 
ATOM     32  C   UNL     1      -4.380  -6.265  -4.566  1.00  0.00     0.049 A 
ATOM     33  N   UNL     1      -7.192  -5.270  -5.002  1.00  0.00    -0.248 NA
ATOM     34  C   UNL     1      -7.320  -4.824  -2.714  1.00  0.00     0.031 C 
ATOM     35  C   UNL     1      -3.002  -6.735  -4.407  1.00  0.00     0.029 A 
ATOM     36  N   UNL     1      -4.596  -6.320  -5.920  1.00  0.00    -0.354 N 
ATOM     37  C   UNL     1      -8.431  -4.706  -4.716  1.00  0.00     0.074 A 
ATOM     38  C   UNL     1      -8.467  -4.485  -3.285  1.00  0.00     0.031 C 
ATOM     39  C   UNL     1      -2.496  -7.023  -5.617  1.00  0.00     0.029 A 
ATOM     40  C   UNL     1      -3.523  -6.806  -6.631  1.00  0.00     0.049 A 
ATOM     41  H   UNL     1      -5.440  -6.039  -6.343  1.00  0.00     0.167 HD
ATOM     42  C   UNL     1      -9.439  -4.398  -5.570  1.00  0.00     0.034 A 
ATOM     43  C   UNL     1      -3.393  -7.071  -7.946  1.00  0.00     0.034 A 
ATOM     44  C   UNL     1      -9.387  -4.627  -6.995  1.00  0.00     0.049 A 
ATOM     45  C   UNL     1      -4.558  -6.800  -8.863  1.00  0.00     0.074 A 
ATOM     46  C   UNL     1     -10.354  -4.361  -7.950  1.00  0.00     0.029 A 
ATOM     47  N   UNL     1      -8.307  -5.182  -7.672  1.00  0.00    -0.354 N 
ATOM     48  N   UNL     1      -5.739  -6.303  -8.575  1.00  0.00    -0.248 NA
ATOM     49  C   UNL     1      -4.373  -7.128 -10.283  1.00  0.00     0.031 C 
ATOM     50  C   UNL     1      -9.883  -4.808  -9.191  1.00  0.00     0.029 A 
ATOM     51  C   UNL     1      -8.596  -5.293  -9.024  1.00  0.00     0.049 A 
ATOM     52  H   UNL     1      -7.460  -5.457  -7.252  1.00  0.00     0.167 HD
ATOM     53  C   UNL     1      -6.430  -6.242  -9.782  1.00  0.00     0.074 A 
ATOM     54  C   UNL     1      -5.529  -6.739 -10.802  1.00  0.00     0.031 C 
ATOM     55  C   UNL     1      -7.694  -5.811 -10.026  1.00  0.00     0.034 A 
BRANCH  42  56
ATOM     56  C   UNL     1     -10.705  -3.841  -4.965  1.00  0.00     0.023 A 
ATOM     57  C   UNL     1     -10.736  -2.587  -4.330  1.00  0.00     0.031 A 
ATOM     58  C   UNL     1     -11.890  -4.598  -4.988  1.00  0.00     0.131 A 
ATOM     59  C   UNL     1     -11.906  -2.159  -3.683  1.00  0.00     0.055 A 
ATOM     60  C   UNL     1     -13.072  -4.134  -4.406  1.00  0.00     0.041 A 
ATOM     61  F   UNL     1     -11.915  -5.811  -5.561  1.00  0.00    -0.206 F 
ATOM     62  C   UNL     1     -13.080  -2.914  -3.735  1.00  0.00     0.022 A 
BRANCH  59  63
ATOM     63  S   UNL     1     -11.835  -0.668  -2.651  1.00  0.00     0.124 S 
ATOM     64  O   UNL     1     -10.794  -1.021  -1.690  1.00  0.00    -0.237 OA
ATOM     65  O   UNL     1     -11.489   0.369  -3.617  1.00  0.00    -0.237 OA
ATOM     66  O   UNL     1     -13.182  -0.573  -2.091  1.00  0.00    -0.744 OA
ENDBRANCH  59  63
ENDBRANCH  42  56
BRANCH  43  67
ATOM     67  C   UNL     1      -2.136  -7.677  -8.471  1.00  0.00     0.023 A 
ATOM     68  C   UNL     1      -1.314  -6.988  -9.376  1.00  0.00     0.031 A 
ATOM     69  C   UNL     1      -1.765  -8.983  -8.102  1.00  0.00     0.131 A 
ATOM     70  C   UNL     1      -0.180  -7.621  -9.909  1.00  0.00     0.055 A 
ATOM     71  C   UNL     1      -0.611  -9.590  -8.598  1.00  0.00     0.041 A 
ATOM     72  F   UNL     1      -2.521  -9.688  -7.245  1.00  0.00    -0.206 F 
ATOM     73  C   UNL     1       0.184  -8.911  -9.516  1.00  0.00     0.022 A 
BRANCH  70  74
ATOM     74  S   UNL     1       0.777  -6.762 -11.190  1.00  0.00     0.124 S 
ATOM     75  O   UNL     1      -0.230  -6.555 -12.225  1.00  0.00    -0.237 OA
ATOM     76  O   UNL     1       1.228  -5.567 -10.486  1.00  0.00    -0.237 OA
ATOM     77  O   UNL     1       1.829  -7.718 -11.528  1.00  0.00    -0.744 OA
ENDBRANCH  70  74
ENDBRANCH  43  67
BRANCH  55  78
ATOM     78  C   UNL     1      -8.151  -5.830 -11.463  1.00  0.00     0.023 A 
ATOM     79  C   UNL     1      -8.389  -7.035 -12.146  1.00  0.00     0.031 A 
ATOM     80  C   UNL     1      -8.331  -4.624 -12.163  1.00  0.00     0.131 A 
ATOM     81  C   UNL     1      -8.744  -7.010 -13.503  1.00  0.00     0.055 A 
ATOM     82  C   UNL     1      -8.733  -4.604 -13.499  1.00  0.00     0.041 A 
ATOM     83  F   UNL     1      -8.117  -3.445 -11.558  1.00  0.00    -0.206 F 
ATOM     84  C   UNL     1      -8.930  -5.802 -14.180  1.00  0.00     0.022 A 
BRANCH  81  85
ATOM     85  S   UNL     1      -8.886  -8.582 -14.399  1.00  0.00     0.124 S 
ATOM     86  O   UNL     1      -7.547  -9.142 -14.245  1.00  0.00    -0.237 OA
ATOM     87  O   UNL     1      -9.950  -9.263 -13.669  1.00  0.00    -0.237 OA
ATOM     88  O   UNL     1      -9.233  -8.172 -15.759  1.00  0.00    -0.744 OA
ENDBRANCH  81  85
ENDBRANCH  55  78
ENDBRANCH  29  30
ENDBRANCH  22  24
ENDBRANCH  21  22
ENDBRANCH  20  21
ENDBRANCH   1  20
TORSDOF 19
