REMARK SMILES O=C(CC[NH+]1CCC(n2nccc2NC(=O)c2ccccc2Cl)CC1)OCCOC(=O)c1ccc(-c2c3nc(c(-c4cc(S(=O)(=O)[O-])ccc4F)c4ccc([nH]4)c(-c4cc(S(=O)(=O)[O-])ccc4F)c4nc(c(-c5cc(S(=O)(=O)[O-])ccc5F)c5ccc2[nH]5)C=C4)C=C3)cc1
REMARK SMILES IDX 27 1 26 2 2 3 1 4 3 5 4 6 5 7 6 8 25 9 7 11 24 12 8 13 9 14
REMARK SMILES IDX 10 15 13 16 11 17 12 18 14 19 15 20 16 22 17 23 18 24 22 25
REMARK SMILES IDX 19 26 21 27 23 28 20 29 28 30 29 31 30 32 31 33 32 34 33 35
REMARK SMILES IDX 94 36 34 37 93 38 35 39 36 40 37 41 87 42 38 43 92 44 86 45
REMARK SMILES IDX 88 46 39 47 91 48 85 49 84 50 40 52 72 53 52 54 71 55 53 56
REMARK SMILES IDX 56 57 70 58 89 59 54 60 55 61 69 63 90 64 57 65 41 66 42 67
REMARK SMILES IDX 50 68 43 69 49 70 51 71 48 72 44 73 45 74 46 75 47 76 73 77
REMARK SMILES IDX 74 78 82 79 75 80 81 81 83 82 80 83 76 84 77 85 78 86 79 87
REMARK SMILES IDX 58 88 59 89 67 90 60 91 66 92 68 93 65 94 61 95 62 96 63 97
REMARK SMILES IDX 64 98
REMARK H PARENT 5 10 14 21 88 51 56 62
REMARK Flexibility Score: inf
ROOT
ATOM      1  C   UNL     1       3.733   1.907   0.132  1.00  0.00     0.274 C 
ENDROOT
BRANCH   1   2
ATOM      2  O   UNL     1       2.407   1.338  -0.021  1.00  0.00    -0.462 OA
BRANCH   2   3
ATOM      3  C   UNL     1       2.066   0.020  -0.037  1.00  0.00     0.311 C 
ATOM      4  O   UNL     1       0.926  -0.321  -0.349  1.00  0.00    -0.252 OA
BRANCH   3   5
ATOM      5  C   UNL     1       3.116  -1.032   0.232  1.00  0.00     0.184 C 
BRANCH   5   6
ATOM      6  C   UNL     1       3.557  -1.786  -1.031  1.00  0.00     0.274 C 
BRANCH   6   7
ATOM      7  N   UNL     1       4.495  -0.992  -1.835  1.00  0.00    -0.334 N 
ATOM      8  C   UNL     1       5.322  -1.777  -2.757  1.00  0.00     0.264 C 
ATOM      9  C   UNL     1       3.839   0.067  -2.607  1.00  0.00     0.264 C 
ATOM     10  H   UNL     1       5.102  -0.580  -1.127  1.00  0.00     0.348 HD
ATOM     11  C   UNL     1       6.433  -0.882  -3.349  1.00  0.00     0.089 C 
ATOM     12  C   UNL     1       4.939   1.085  -2.809  1.00  0.00     0.089 C 
ATOM     13  C   UNL     1       5.952   0.525  -3.780  1.00  0.00     0.121 C 
BRANCH  13  14
ATOM     14  N   UNL     1       7.071   1.421  -4.060  1.00  0.00    -0.246 N 
ATOM     15  N   UNL     1       7.633   1.273  -5.282  1.00  0.00    -0.179 NA
ATOM     16  C   UNL     1       7.673   2.435  -3.318  1.00  0.00     0.131 A 
ATOM     17  C   UNL     1       8.700   2.062  -5.250  1.00  0.00     0.137 A 
ATOM     18  C   UNL     1       8.816   2.739  -4.029  1.00  0.00     0.069 A 
BRANCH  16  19
ATOM     19  N   UNL     1       7.260   3.009  -2.117  1.00  0.00    -0.307 N 
ATOM     20  C   UNL     1       7.687   4.225  -1.484  1.00  0.00     0.258 C 
ATOM     21  H   UNL     1       6.571   2.504  -1.628  1.00  0.00     0.171 HD
ATOM     22  O   UNL     1       7.207   4.435  -0.383  1.00  0.00    -0.269 OA
BRANCH  20  23
ATOM     23  C   UNL     1       8.654   5.135  -2.093  1.00  0.00     0.058 A 
ATOM     24  C   UNL     1       9.919   5.229  -1.496  1.00  0.00     0.015 A 
ATOM     25  C   UNL     1       8.373   5.811  -3.283  1.00  0.00     0.053 A 
ATOM     26  C   UNL     1      10.938   5.911  -2.159  1.00  0.00     0.001 A 
ATOM     27  C   UNL     1       9.403   6.477  -3.947  1.00  0.00     0.021 A 
ATOM     28  Cl  UNL     1       6.801   5.808  -3.995  1.00  0.00    -0.083 Cl
ATOM     29  C   UNL     1      10.688   6.506  -3.396  1.00  0.00     0.002 A 
ENDBRANCH  20  23
ENDBRANCH  16  19
ENDBRANCH  13  14
ENDBRANCH   6   7
ENDBRANCH   5   6
ENDBRANCH   3   5
ENDBRANCH   2   3
ENDBRANCH   1   2
BRANCH   1  30
ATOM     30  C   UNL     1       4.001   2.504   1.499  1.00  0.00     0.275 C 
BRANCH  30  31
ATOM     31  O   UNL     1       3.939   1.433   2.419  1.00  0.00    -0.458 OA
BRANCH  31  32
ATOM     32  C   UNL     1       2.683   1.070   2.771  1.00  0.00     0.338 C 
ATOM     33  O   UNL     1       1.641   1.652   2.502  1.00  0.00    -0.246 OA
BRANCH  32  34
ATOM     34  C   UNL     1       2.788  -0.125   3.629  1.00  0.00     0.060 A 
ATOM     35  C   UNL     1       1.927   0.034   4.704  1.00  0.00     0.016 A 
ATOM     36  C   UNL     1       4.087  -0.646   3.777  1.00  0.00     0.016 A 
ATOM     37  C   UNL     1       2.535   0.238   5.911  1.00  0.00     0.010 A 
ATOM     38  C   UNL     1       4.702  -0.432   4.981  1.00  0.00     0.010 A 
ATOM     39  C   UNL     1       3.932   0.105   6.005  1.00  0.00    -0.014 A 
BRANCH  39  40
ATOM     40  C   UNL     1       4.497   0.226   7.322  1.00  0.00     0.031 A 
ATOM     41  C   UNL     1       4.099  -0.952   8.110  1.00  0.00     0.074 A 
ATOM     42  C   UNL     1       5.287   1.214   7.761  1.00  0.00     0.049 A 
ATOM     43  N   UNL     1       3.064  -1.027   8.876  1.00  0.00    -0.248 NA
ATOM     44  C   UNL     1       4.661  -2.256   7.718  1.00  0.00     0.031 C 
ATOM     45  C   UNL     1       5.948   2.286   7.026  1.00  0.00     0.029 A 
ATOM     46  N   UNL     1       5.719   1.396   9.032  1.00  0.00    -0.354 N 
ATOM     47  C   UNL     1       3.024  -2.348   9.284  1.00  0.00     0.074 A 
ATOM     48  C   UNL     1       3.795  -3.073   8.316  1.00  0.00     0.031 C 
ATOM     49  C   UNL     1       6.876   2.860   7.832  1.00  0.00     0.029 A 
ATOM     50  C   UNL     1       6.777   2.281   9.165  1.00  0.00     0.049 A 
ATOM     51  H   UNL     1       5.313   0.935   9.801  1.00  0.00     0.167 HD
ATOM     52  C   UNL     1       2.668  -2.650  10.559  1.00  0.00     0.034 A 
ATOM     53  C   UNL     1       7.545   2.429  10.279  1.00  0.00     0.034 A 
ATOM     54  C   UNL     1       1.976  -1.526  11.171  1.00  0.00     0.049 A 
ATOM     55  C   UNL     1       6.729   1.935  11.427  1.00  0.00     0.074 A 
ATOM     56  C   UNL     1       0.842  -0.802  10.846  1.00  0.00     0.029 A 
ATOM     57  N   UNL     1       2.683  -0.724  12.047  1.00  0.00    -0.354 N 
ATOM     58  N   UNL     1       5.629   2.524  11.818  1.00  0.00    -0.248 NA
ATOM     59  C   UNL     1       6.827   0.526  11.793  1.00  0.00     0.031 C 
ATOM     60  C   UNL     1       1.165   0.556  11.147  1.00  0.00     0.029 A 
ATOM     61  C   UNL     1       2.438   0.588  11.719  1.00  0.00     0.049 A 
ATOM     62  H   UNL     1       3.261  -1.038  12.779  1.00  0.00     0.167 HD
ATOM     63  C   UNL     1       4.734   1.496  12.080  1.00  0.00     0.074 A 
ATOM     64  C   UNL     1       5.556   0.287  12.136  1.00  0.00     0.031 C 
ATOM     65  C   UNL     1       3.385   1.671  11.931  1.00  0.00     0.034 A 
BRANCH  52  66
ATOM     66  C   UNL     1       3.368  -3.722  11.371  1.00  0.00     0.023 A 
ATOM     67  C   UNL     1       3.021  -3.770  12.728  1.00  0.00     0.031 A 
ATOM     68  C   UNL     1       4.530  -4.448  11.014  1.00  0.00     0.131 A 
ATOM     69  C   UNL     1       3.897  -4.320  13.673  1.00  0.00     0.055 A 
ATOM     70  C   UNL     1       5.369  -5.049  11.953  1.00  0.00     0.041 A 
ATOM     71  F   UNL     1       4.970  -4.580   9.759  1.00  0.00    -0.206 F 
ATOM     72  C   UNL     1       5.080  -4.946  13.299  1.00  0.00     0.022 A 
BRANCH  69  73
ATOM     73  S   UNL     1       3.548  -3.996  15.414  1.00  0.00     0.124 S 
ATOM     74  O   UNL     1       3.463  -2.539  15.415  1.00  0.00    -0.237 OA
ATOM     75  O   UNL     1       2.294  -4.718  15.601  1.00  0.00    -0.237 OA
ATOM     76  O   UNL     1       4.707  -4.561  16.098  1.00  0.00    -0.744 OA
ENDBRANCH  69  73
ENDBRANCH  52  66
BRANCH  53  77
ATOM     77  C   UNL     1       9.029   2.586  10.316  1.00  0.00     0.023 A 
ATOM     78  C   UNL     1       9.729   3.030  11.459  1.00  0.00     0.031 A 
ATOM     79  C   UNL     1       9.814   2.065   9.261  1.00  0.00     0.131 A 
ATOM     80  C   UNL     1      11.143   2.945  11.508  1.00  0.00     0.055 A 
ATOM     81  C   UNL     1      11.207   1.985   9.315  1.00  0.00     0.041 A 
ATOM     82  F   UNL     1       9.249   1.534   8.165  1.00  0.00    -0.206 F 
ATOM     83  C   UNL     1      11.878   2.417  10.444  1.00  0.00     0.022 A 
BRANCH  80  84
ATOM     84  S   UNL     1      12.060   3.455  13.001  1.00  0.00     0.124 S 
ATOM     85  O   UNL     1      11.850   4.897  13.015  1.00  0.00    -0.237 OA
ATOM     86  O   UNL     1      11.399   2.689  14.051  1.00  0.00    -0.237 OA
ATOM     87  O   UNL     1      13.434   3.039  12.715  1.00  0.00    -0.744 OA
ENDBRANCH  80  84
ENDBRANCH  53  77
BRANCH  65  88
ATOM     88  C   UNL     1       2.853   3.085  11.786  1.00  0.00     0.023 A 
ATOM     89  C   UNL     1       3.229   3.999  10.773  1.00  0.00     0.031 A 
ATOM     90  C   UNL     1       1.826   3.474  12.664  1.00  0.00     0.131 A 
ATOM     91  C   UNL     1       2.586   5.251  10.680  1.00  0.00     0.055 A 
ATOM     92  C   UNL     1       1.179   4.704  12.556  1.00  0.00     0.041 A 
ATOM     93  F   UNL     1       1.405   2.641  13.630  1.00  0.00    -0.206 F 
ATOM     94  C   UNL     1       1.562   5.601  11.566  1.00  0.00     0.022 A 
BRANCH  91  95
ATOM     95  S   UNL     1       3.084   6.464   9.412  1.00  0.00     0.124 S 
ATOM     96  O   UNL     1       4.538   6.486   9.509  1.00  0.00    -0.237 OA
ATOM     97  O   UNL     1       2.536   5.885   8.188  1.00  0.00    -0.237 OA
ATOM     98  O   UNL     1       2.426   7.699   9.845  1.00  0.00    -0.744 OA
ENDBRANCH  91  95
ENDBRANCH  65  88
ENDBRANCH  39  40
ENDBRANCH  32  34
ENDBRANCH  31  32
ENDBRANCH  30  31
ENDBRANCH   1  30
TORSDOF 19
