REMARK SMILES Cn1ccc(-c2n[nH]c(=O)n2-c2ccc(C(=O)OCCOC(=O)c3ccc(-c4c5nc(c(-c6cc(S(=O)(=O)[O-])ccc6F)c6ccc([nH]6)c(-c6cc(S(=O)(=O)[O-])ccc6F)c6nc(c(-c7cc(S(=O)(=O)[O-])ccc7F)c7ccc4[nH]7)C=C6)C=C5)cc3)cc2)n1
REMARK SMILES IDX 20 1 19 2 18 3 16 4 17 5 15 6 12 7 13 8 88 9 14 10 87 11
REMARK SMILES IDX 11 12 6 13 7 14 8 15 9 16 10 18 5 19 1 20 2 21 3 22 89 23
REMARK SMILES IDX 4 24 21 25 22 26 23 27 24 28 25 29 86 30 26 31 85 32 27 33
REMARK SMILES IDX 28 34 29 35 79 36 30 37 84 38 78 39 80 40 31 41 83 42 77 43
REMARK SMILES IDX 76 44 32 46 64 47 44 48 63 49 45 50 48 51 62 52 81 53 46 54
REMARK SMILES IDX 47 55 61 57 82 58 49 59 33 60 34 61 42 62 35 63 41 64 43 65
REMARK SMILES IDX 40 66 36 67 37 68 38 69 39 70 65 71 66 72 74 73 67 74 73 75
REMARK SMILES IDX 75 76 72 77 68 78 69 79 70 80 71 81 50 82 51 83 59 84 52 85
REMARK SMILES IDX 58 86 60 87 57 88 53 89 54 90 55 91 56 92
REMARK H PARENT 8 17 80 45 48 56
REMARK Flexibility Score: inf
ROOT
ATOM      1  C   UNL     1      -0.344   3.017   8.400  1.00  0.00     0.275 C 
ENDROOT
BRANCH   1   2
ATOM      2  C   UNL     1      -1.248   2.255   7.442  1.00  0.00     0.275 C 
BRANCH   2   3
ATOM      3  O   UNL     1      -0.599   2.036   6.180  1.00  0.00    -0.458 OA
BRANCH   3   4
ATOM      4  C   UNL     1      -0.762   3.030   5.259  1.00  0.00     0.338 C 
ATOM      5  O   UNL     1      -1.548   3.944   5.318  1.00  0.00    -0.246 OA
BRANCH   4   6
ATOM      6  C   UNL     1       0.242   2.876   4.171  1.00  0.00     0.060 A 
ATOM      7  C   UNL     1       1.988   2.637   1.991  1.00  0.00     0.052 A 
ATOM      8  C   UNL     1       1.519   3.896   2.369  1.00  0.00     0.028 A 
ATOM      9  C   UNL     1       1.670   1.522   2.784  1.00  0.00     0.028 A 
ATOM     10  C   UNL     1       0.622   4.011   3.439  1.00  0.00     0.018 A 
ATOM     11  C   UNL     1       0.809   1.638   3.873  1.00  0.00     0.018 A 
BRANCH   7  12
ATOM     12  N   UNL     1       2.729   2.462   0.810  1.00  0.00    -0.242 N 
ATOM     13  C   UNL     1       2.623   1.457  -0.108  1.00  0.00     0.189 A 
ATOM     14  N   UNL     1       3.536   1.456  -1.041  1.00  0.00    -0.150 NA
ATOM     15  N   UNL     1       4.266   2.582  -0.764  1.00  0.00    -0.226 N 
ATOM     16  C   UNL     1       3.755   3.252   0.353  1.00  0.00     0.348 A 
ATOM     17  H   UNL     1       5.047   2.881  -1.284  1.00  0.00     0.195 HD
ATOM     18  O   UNL     1       4.196   4.300   0.794  1.00  0.00    -0.246 OA
BRANCH  13  19
ATOM     19  C   UNL     1       1.509   0.523  -0.129  1.00  0.00     0.130 A 
ATOM     20  C   UNL     1      -1.944  -0.031   0.002  1.00  0.00     0.173 C 
ATOM     21  N   UNL     1      -0.508  -0.150  -0.063  1.00  0.00    -0.275 N 
ATOM     22  C   UNL     1       0.227  -1.291  -0.180  1.00  0.00     0.109 A 
ATOM     23  N   UNL     1       0.239   0.961  -0.028  1.00  0.00    -0.170 NA
ATOM     24  C   UNL     1       1.541  -0.888  -0.258  1.00  0.00     0.054 A 
ENDBRANCH  13  19
ENDBRANCH   7  12
ENDBRANCH   4   6
ENDBRANCH   3   4
ENDBRANCH   2   3
ENDBRANCH   1   2
BRANCH   1  25
ATOM     25  O   UNL     1      -0.132   4.359   7.968  1.00  0.00    -0.458 OA
BRANCH  25  26
ATOM     26  C   UNL     1       1.012   4.552   7.271  1.00  0.00     0.338 C 
ATOM     27  O   UNL     1       1.668   3.707   6.684  1.00  0.00    -0.246 OA
BRANCH  26  28
ATOM     28  C   UNL     1       1.492   5.914   7.508  1.00  0.00     0.060 A 
ATOM     29  C   UNL     1       2.545   6.390   6.719  1.00  0.00     0.016 A 
ATOM     30  C   UNL     1       1.084   6.569   8.677  1.00  0.00     0.016 A 
ATOM     31  C   UNL     1       3.281   7.466   7.176  1.00  0.00     0.010 A 
ATOM     32  C   UNL     1       1.834   7.618   9.143  1.00  0.00     0.010 A 
ATOM     33  C   UNL     1       2.957   8.020   8.416  1.00  0.00    -0.014 A 
BRANCH  33  34
ATOM     34  C   UNL     1       3.741   9.128   8.930  1.00  0.00     0.031 A 
ATOM     35  C   UNL     1       3.416  10.431   8.301  1.00  0.00     0.074 A 
ATOM     36  C   UNL     1       4.485   8.988  10.044  1.00  0.00     0.049 A 
ATOM     37  N   UNL     1       4.212  11.266   7.722  1.00  0.00    -0.248 NA
ATOM     38  C   UNL     1       1.990  10.787   8.175  1.00  0.00     0.031 C 
ATOM     39  C   UNL     1       4.579   7.795  10.893  1.00  0.00     0.029 A 
ATOM     40  N   UNL     1       5.174   9.926  10.750  1.00  0.00    -0.354 N 
ATOM     41  C   UNL     1       3.419  12.355   7.369  1.00  0.00     0.074 A 
ATOM     42  C   UNL     1       2.060  11.908   7.463  1.00  0.00     0.031 C 
ATOM     43  C   UNL     1       5.066   8.152  12.101  1.00  0.00     0.029 A 
ATOM     44  C   UNL     1       5.410   9.565  12.074  1.00  0.00     0.049 A 
ATOM     45  H   UNL     1       5.477  10.778  10.361  1.00  0.00     0.167 HD
ATOM     46  C   UNL     1       3.936  13.611   7.300  1.00  0.00     0.034 A 
ATOM     47  C   UNL     1       5.754  10.388  13.100  1.00  0.00     0.034 A 
ATOM     48  C   UNL     1       5.373  13.567   7.139  1.00  0.00     0.049 A 
ATOM     49  C   UNL     1       6.286  11.639  12.500  1.00  0.00     0.074 A 
ATOM     50  C   UNL     1       6.216  12.974   6.217  1.00  0.00     0.029 A 
ATOM     51  N   UNL     1       6.171  13.877   8.219  1.00  0.00    -0.354 N 
ATOM     52  N   UNL     1       7.388  11.695  11.803  1.00  0.00    -0.248 NA
ATOM     53  C   UNL     1       5.362  12.742  12.277  1.00  0.00     0.031 C 
ATOM     54  C   UNL     1       7.331  12.514   6.976  1.00  0.00     0.029 A 
ATOM     55  C   UNL     1       7.147  12.915   8.300  1.00  0.00     0.049 A 
ATOM     56  H   UNL     1       6.061  14.648   8.822  1.00  0.00     0.167 HD
ATOM     57  C   UNL     1       7.111  12.569  10.762  1.00  0.00     0.074 A 
ATOM     58  C   UNL     1       5.896  13.268  11.170  1.00  0.00     0.031 C 
ATOM     59  C   UNL     1       7.721  12.438   9.545  1.00  0.00     0.034 A 
BRANCH  46  60
ATOM     60  C   UNL     1       3.203  14.851   7.783  1.00  0.00     0.023 A 
ATOM     61  C   UNL     1       3.930  16.054   7.758  1.00  0.00     0.031 A 
ATOM     62  C   UNL     1       2.000  14.886   8.528  1.00  0.00     0.131 A 
ATOM     63  C   UNL     1       3.560  17.140   8.567  1.00  0.00     0.055 A 
ATOM     64  C   UNL     1       1.595  15.998   9.272  1.00  0.00     0.041 A 
ATOM     65  F   UNL     1       1.181  13.837   8.657  1.00  0.00    -0.206 F 
ATOM     66  C   UNL     1       2.400  17.120   9.333  1.00  0.00     0.022 A 
BRANCH  63  67
ATOM     67  S   UNL     1       4.752  18.487   8.766  1.00  0.00     0.124 S 
ATOM     68  O   UNL     1       5.957  17.751   9.135  1.00  0.00    -0.237 OA
ATOM     69  O   UNL     1       4.743  19.088   7.437  1.00  0.00    -0.237 OA
ATOM     70  O   UNL     1       4.165  19.302   9.826  1.00  0.00    -0.744 OA
ENDBRANCH  63  67
ENDBRANCH  46  60
BRANCH  47  71
ATOM     71  C   UNL     1       5.340  10.258  14.525  1.00  0.00     0.023 A 
ATOM     72  C   UNL     1       6.026  10.893  15.581  1.00  0.00     0.031 A 
ATOM     73  C   UNL     1       4.103   9.652  14.852  1.00  0.00     0.131 A 
ATOM     74  C   UNL     1       5.484  10.887  16.889  1.00  0.00     0.055 A 
ATOM     75  C   UNL     1       3.583   9.632  16.148  1.00  0.00     0.041 A 
ATOM     76  F   UNL     1       3.312   9.124  13.905  1.00  0.00    -0.206 F 
ATOM     77  C   UNL     1       4.270  10.257  17.173  1.00  0.00     0.022 A 
BRANCH  74  78
ATOM     78  S   UNL     1       6.312  11.793  18.235  1.00  0.00     0.124 S 
ATOM     79  O   UNL     1       7.517  11.000  18.449  1.00  0.00    -0.237 OA
ATOM     80  O   UNL     1       6.499  13.117  17.653  1.00  0.00    -0.237 OA
ATOM     81  O   UNL     1       5.341  11.740  19.330  1.00  0.00    -0.744 OA
ENDBRANCH  74  78
ENDBRANCH  47  71
BRANCH  59  82
ATOM     82  C   UNL     1       8.941  11.547   9.434  1.00  0.00     0.023 A 
ATOM     83  C   UNL     1       8.970  10.174   9.767  1.00  0.00     0.031 A 
ATOM     84  C   UNL     1      10.088  12.097   8.835  1.00  0.00     0.131 A 
ATOM     85  C   UNL     1      10.125   9.410   9.505  1.00  0.00     0.055 A 
ATOM     86  C   UNL     1      11.221  11.334   8.558  1.00  0.00     0.041 A 
ATOM     87  F   UNL     1      10.112  13.389   8.467  1.00  0.00    -0.206 F 
ATOM     88  C   UNL     1      11.245   9.987   8.898  1.00  0.00     0.022 A 
BRANCH  85  89
ATOM     89  S   UNL     1      10.198   7.648   9.961  1.00  0.00     0.124 S 
ATOM     90  O   UNL     1       9.689   7.625  11.328  1.00  0.00    -0.237 OA
ATOM     91  O   UNL     1       9.348   7.024   8.950  1.00  0.00    -0.237 OA
ATOM     92  O   UNL     1      11.621   7.324   9.838  1.00  0.00    -0.744 OA
ENDBRANCH  85  89
ENDBRANCH  59  82
ENDBRANCH  33  34
ENDBRANCH  26  28
ENDBRANCH  25  26
ENDBRANCH   1  25
TORSDOF 16
