REMARK SMILES Cc1ccc(C)c(NC(=O)/C=C/C(=O)OCCOC(=O)c2ccc(-c3c4nc(c(-c5cc(S(=O)(=O)[O-])ccc5F)c5ccc([nH]5)c(-c5cc(S(=O)(=O)[O-])ccc5F)c5nc(c(-c6cc(S(=O)(=O)[O-])ccc6F)c6ccc3[nH]6)C=C5)C=C4)cc2)c1
REMARK SMILES IDX 17 1 16 2 15 3 13 4 14 5 12 6 11 7 9 8 8 9 10 11 7 12 1 13
REMARK SMILES IDX 2 14 3 15 84 16 4 17 5 18 6 19 18 20 19 21 20 22 21 23 22 24
REMARK SMILES IDX 83 25 23 26 82 27 24 28 25 29 26 30 76 31 27 32 81 33 75 34
REMARK SMILES IDX 77 35 28 36 80 37 74 38 73 39 29 41 61 42 41 43 60 44 42 45
REMARK SMILES IDX 45 46 59 47 78 48 43 49 44 50 58 52 79 53 46 54 30 55 31 56
REMARK SMILES IDX 39 57 32 58 38 59 40 60 37 61 33 62 34 63 35 64 36 65 62 66
REMARK SMILES IDX 63 67 71 68 64 69 70 70 72 71 69 72 65 73 66 74 67 75 68 76
REMARK SMILES IDX 47 77 48 78 56 79 49 80 55 81 57 82 54 83 50 84 51 85 52 86
REMARK SMILES IDX 53 87
REMARK H PARENT 8 10 77 40 45 51
REMARK Flexibility Score: inf
ROOT
ATOM      1  C   UNL     1      -5.640  -4.003  -2.002  1.00  0.00     0.275 C 
ENDROOT
BRANCH   1   2
ATOM      2  C   UNL     1      -6.433  -4.226  -0.708  1.00  0.00     0.275 C 
BRANCH   2   3
ATOM      3  O   UNL     1      -6.333  -3.038   0.085  1.00  0.00    -0.459 OA
BRANCH   3   4
ATOM      4  C   UNL     1      -5.067  -2.858   0.795  1.00  0.00     0.331 C 
ATOM      5  O   UNL     1      -4.633  -4.029   0.980  1.00  0.00    -0.247 OA
BRANCH   4   6
ATOM      6  C   UNL     1      -4.220  -0.959   1.283  1.00  0.00     0.099 C 
ATOM      7  C   UNL     1      -3.920   0.333   0.759  1.00  0.00     0.079 C 
BRANCH   7   8
ATOM      8  C   UNL     1      -3.148   1.548   1.239  1.00  0.00     0.248 C 
ATOM      9  N   UNL     1      -1.803   1.767   0.996  1.00  0.00    -0.322 N 
ATOM     10  H   UNL     1      -1.488   2.642   1.320  1.00  0.00     0.170 HD
ATOM     11  O   UNL     1      -3.792   2.487   1.717  1.00  0.00    -0.270 OA
BRANCH   9  12
ATOM     12  C   UNL     1      -0.788   1.003   0.382  1.00  0.00     0.044 A 
ATOM     13  C   UNL     1       3.032   0.589   0.418  1.00  0.00     0.044 C 
ATOM     14  C   UNL     1       1.558   0.325   0.293  1.00  0.00    -0.049 A 
ATOM     15  C   UNL     1       1.154  -0.895  -0.249  1.00  0.00     0.004 A 
ATOM     16  C   UNL     1       0.566   1.247   0.683  1.00  0.00     0.029 A 
ATOM     17  C   UNL     1      -0.140  -1.021  -0.734  1.00  0.00     0.006 A 
ATOM     18  C   UNL     1      -1.035   0.043  -0.587  1.00  0.00    -0.027 A 
ATOM     19  C   UNL     1      -1.901   0.400  -1.770  1.00  0.00     0.046 C 
ENDBRANCH   9  12
ENDBRANCH   7   8
ENDBRANCH   4   6
ENDBRANCH   3   4
ENDBRANCH   2   3
ENDBRANCH   1   2
BRANCH   1  20
ATOM     20  O   UNL     1      -4.201  -3.896  -1.814  1.00  0.00    -0.458 OA
BRANCH  20  21
ATOM     21  C   UNL     1      -3.633  -2.661  -1.857  1.00  0.00     0.338 C 
ATOM     22  O   UNL     1      -3.000  -2.215  -2.796  1.00  0.00    -0.246 OA
BRANCH  21  23
ATOM     23  C   UNL     1      -3.819  -1.956  -0.569  1.00  0.00     0.060 A 
ATOM     24  C   UNL     1      -2.975  -2.614   0.911  1.00  0.00     0.016 A 
ATOM     25  C   UNL     1      -5.451  -1.166  -0.423  1.00  0.00     0.016 A 
ATOM     26  C   UNL     1      -3.870  -2.702   2.514  1.00  0.00     0.010 A 
ATOM     27  C   UNL     1      -6.298  -1.183   1.197  1.00  0.00     0.010 A 
ATOM     28  C   UNL     1      -5.570  -2.072   2.614  1.00  0.00    -0.014 A 
BRANCH  28  29
ATOM     29  C   UNL     1      -6.563  -2.468   3.677  1.00  0.00     0.031 A 
ATOM     30  C   UNL     1      -6.920  -1.196   4.321  1.00  0.00     0.074 A 
ATOM     31  C   UNL     1      -7.295  -3.591   3.975  1.00  0.00     0.049 A 
ATOM     32  N   UNL     1      -6.129  -0.548   5.119  1.00  0.00    -0.248 NA
ATOM     33  C   UNL     1      -7.968  -0.363   3.698  1.00  0.00     0.031 C 
ATOM     34  C   UNL     1      -7.323  -4.915   3.341  1.00  0.00     0.029 A 
ATOM     35  N   UNL     1      -8.264  -3.766   4.963  1.00  0.00    -0.354 N 
ATOM     36  C   UNL     1      -6.819   0.625   5.333  1.00  0.00     0.074 A 
ATOM     37  C   UNL     1      -7.539   0.834   4.113  1.00  0.00     0.031 C 
ATOM     38  C   UNL     1      -8.366  -5.659   3.817  1.00  0.00     0.029 A 
ATOM     39  C   UNL     1      -9.056  -4.943   4.886  1.00  0.00     0.049 A 
ATOM     40  H   UNL     1      -8.393  -3.104   5.681  1.00  0.00     0.167 HD
ATOM     41  C   UNL     1      -7.221   0.962   6.591  1.00  0.00     0.034 A 
ATOM     42  C   UNL     1     -10.147  -5.318   5.659  1.00  0.00     0.034 A 
ATOM     43  C   UNL     1      -6.562   0.112   7.581  1.00  0.00     0.049 A 
ATOM     44  C   UNL     1     -10.038  -4.561   6.928  1.00  0.00     0.074 A 
ATOM     45  C   UNL     1      -5.255  -0.276   7.826  1.00  0.00     0.029 A 
ATOM     46  N   UNL     1      -7.340  -0.813   8.248  1.00  0.00    -0.354 N 
ATOM     47  N   UNL     1      -9.095  -4.771   7.798  1.00  0.00    -0.248 NA
ATOM     48  C   UNL     1     -10.646  -3.243   6.965  1.00  0.00     0.031 C 
ATOM     49  C   UNL     1      -5.328  -1.649   8.214  1.00  0.00     0.029 A 
ATOM     50  C   UNL     1      -6.670  -2.010   8.313  1.00  0.00     0.049 A 
ATOM     51  H   UNL     1      -8.236  -0.641   8.619  1.00  0.00     0.167 HD
ATOM     52  C   UNL     1      -8.643  -3.504   8.119  1.00  0.00     0.074 A 
ATOM     53  C   UNL     1      -9.689  -2.597   7.636  1.00  0.00     0.031 C 
ATOM     54  C   UNL     1      -7.332  -3.296   8.442  1.00  0.00     0.034 A 
BRANCH  41  55
ATOM     55  C   UNL     1      -8.527   1.687   6.893  1.00  0.00     0.023 A 
ATOM     56  C   UNL     1      -8.748   1.993   8.243  1.00  0.00     0.031 A 
ATOM     57  C   UNL     1      -9.647   1.879   6.041  1.00  0.00     0.131 A 
ATOM     58  C   UNL     1     -10.032   2.314   8.709  1.00  0.00     0.055 A 
ATOM     59  C   UNL     1     -10.911   2.246   6.504  1.00  0.00     0.041 A 
ATOM     60  F   UNL     1      -9.641   1.674   4.722  1.00  0.00    -0.206 F 
ATOM     61  C   UNL     1     -11.120   2.432   7.852  1.00  0.00     0.022 A 
BRANCH  58  62
ATOM     62  S   UNL     1     -10.276   2.410  10.492  1.00  0.00     0.124 S 
ATOM     63  O   UNL     1      -9.844   1.081  10.908  1.00  0.00    -0.237 OA
ATOM     64  O   UNL     1      -9.397   3.518  10.851  1.00  0.00    -0.237 OA
ATOM     65  O   UNL     1     -11.706   2.679  10.620  1.00  0.00    -0.744 OA
ENDBRANCH  58  62
ENDBRANCH  41  55
BRANCH  42  66
ATOM     66  C   UNL     1     -11.454  -6.047   5.348  1.00  0.00     0.023 A 
ATOM     67  C   UNL     1     -12.411  -6.508   6.322  1.00  0.00     0.031 A 
ATOM     68  C   UNL     1     -11.929  -6.003   4.024  1.00  0.00     0.131 A 
ATOM     69  C   UNL     1     -13.743  -6.874   5.942  1.00  0.00     0.055 A 
ATOM     70  C   UNL     1     -13.243  -6.341   3.663  1.00  0.00     0.041 A 
ATOM     71  F   UNL     1     -11.154  -5.534   3.036  1.00  0.00    -0.206 F 
ATOM     72  C   UNL     1     -14.156  -6.765   4.616  1.00  0.00     0.022 A 
BRANCH  69  73
ATOM     73  S   UNL     1     -15.026  -7.433   7.148  1.00  0.00     0.124 S 
ATOM     74  O   UNL     1     -14.515  -8.727   7.584  1.00  0.00    -0.237 OA
ATOM     75  O   UNL     1     -15.029  -6.365   8.140  1.00  0.00    -0.237 OA
ATOM     76  O   UNL     1     -16.249  -7.509   6.343  1.00  0.00    -0.744 OA
ENDBRANCH  69  73
ENDBRANCH  42  66
BRANCH  54  77
ATOM     77  C   UNL     1      -6.484  -4.506   8.811  1.00  0.00     0.023 A 
ATOM     78  C   UNL     1      -6.295  -5.668   8.022  1.00  0.00     0.031 A 
ATOM     79  C   UNL     1      -5.788  -4.436  10.030  1.00  0.00     0.131 A 
ATOM     80  C   UNL     1      -5.454  -6.706   8.479  1.00  0.00     0.055 A 
ATOM     81  C   UNL     1      -4.937  -5.451  10.465  1.00  0.00     0.041 A 
ATOM     82  F   UNL     1      -5.912  -3.360  10.824  1.00  0.00    -0.206 F 
ATOM     83  C   UNL     1      -4.773  -6.595   9.695  1.00  0.00     0.022 A 
BRANCH  80  84
ATOM     84  S   UNL     1      -5.259  -8.251   7.526  1.00  0.00     0.124 S 
ATOM     85  O   UNL     1      -6.627  -8.613   7.179  1.00  0.00    -0.237 OA
ATOM     86  O   UNL     1      -4.407  -7.831   6.416  1.00  0.00    -0.237 OA
ATOM     87  O   UNL     1      -4.611  -9.158   8.476  1.00  0.00    -0.744 OA
ENDBRANCH  80  84
ENDBRANCH  54  77
ENDBRANCH  28  29
ENDBRANCH  21  23
ENDBRANCH  20  21
ENDBRANCH   1  20
TORSDOF 16
