REMARK SMILES Cc1ccc(OCCC(=O)N2C[C@H](O)C[C@@H]2C(=O)OCCOC(=O)c2ccc(-c3c4nc(c(-c5cc(S(=O)(=O)[O-])ccc5F)c5ccc([nH]5)c(-c5cc(S(=O)(=O)[O-])ccc5F)c5nc(c(-c6cc(S(=O)(=O)[O-])ccc6F)c6ccc3[nH]6)C=C5)C=C4)cc2)cc1
REMARK SMILES IDX 20 1 19 2 17 3 18 4 16 5 11 6 12 7 13 8 15 9 9 10 10 11 8 12
REMARK SMILES IDX 7 13 6 14 5 15 1 16 2 17 3 18 89 19 4 20 88 21 14 22 21 24
REMARK SMILES IDX 22 25 23 26 24 27 25 28 26 29 87 30 27 31 86 32 28 33 29 34
REMARK SMILES IDX 30 35 80 36 31 37 85 38 79 39 81 40 32 41 84 42 78 43 77 44
REMARK SMILES IDX 33 46 65 47 45 48 64 49 46 50 49 51 63 52 82 53 47 54 48 55
REMARK SMILES IDX 62 57 83 58 50 59 34 60 35 61 43 62 36 63 42 64 44 65 41 66
REMARK SMILES IDX 37 67 38 68 39 69 40 70 66 71 67 72 75 73 68 74 74 75 76 76
REMARK SMILES IDX 73 77 69 78 70 79 71 80 72 81 51 82 52 83 60 84 53 85 59 86
REMARK SMILES IDX 61 87 58 88 54 89 55 90 56 91 57 92
REMARK H PARENT 14 23 81 45 49 56
REMARK Flexibility Score: inf
ROOT
ATOM      1  C   UNL     1      -2.404  -1.034   5.801  1.00  0.00     0.274 C 
ENDROOT
BRANCH   1   2
ATOM      2  O   UNL     1      -2.392  -0.352   4.547  1.00  0.00    -0.461 OA
BRANCH   2   3
ATOM      3  C   UNL     1      -2.325  -1.169   3.474  1.00  0.00     0.329 C 
ATOM      4  O   UNL     1      -2.718  -2.318   3.484  1.00  0.00    -0.250 OA
BRANCH   3   5
ATOM      5  C   UNL     1      -1.684  -0.453   2.272  1.00  0.00     0.197 C 
ATOM      6  N   UNL     1      -2.680  -0.266   1.241  1.00  0.00    -0.326 N 
ATOM      7  C   UNL     1      -2.893  -1.533   0.559  1.00  0.00     0.152 C 
ATOM      8  C   UNL     1      -1.567  -2.304   0.750  1.00  0.00     0.136 C 
ATOM      9  C   UNL     1      -0.680  -1.380   1.596  1.00  0.00     0.070 C 
BRANCH   6  10
ATOM     10  C   UNL     1      -2.969   0.988   0.754  1.00  0.00     0.226 C 
ATOM     11  O   UNL     1      -2.304   1.982   1.040  1.00  0.00    -0.275 OA
BRANCH  10  12
ATOM     12  C   UNL     1      -4.202   1.122  -0.099  1.00  0.00     0.141 C 
BRANCH  12  13
ATOM     13  C   UNL     1      -3.929   1.435  -1.566  1.00  0.00     0.239 C 
BRANCH  13  14
ATOM     14  O   UNL     1      -3.174   0.436  -2.260  1.00  0.00    -0.493 OA
BRANCH  14  15
ATOM     15  C   UNL     1      -1.808   0.480  -2.147  1.00  0.00     0.119 A 
ATOM     16  C   UNL     1       2.336   0.036  -1.083  1.00  0.00     0.044 C 
ATOM     17  C   UNL     1       0.935   0.220  -1.585  1.00  0.00    -0.051 A 
ATOM     18  C   UNL     1       0.206  -0.872  -2.063  1.00  0.00     0.007 A 
ATOM     19  C   UNL     1       0.302   1.461  -1.486  1.00  0.00     0.007 A 
ATOM     20  C   UNL     1      -1.155  -0.737  -2.356  1.00  0.00     0.046 A 
ATOM     21  C   UNL     1      -1.058   1.593  -1.780  1.00  0.00     0.046 A 
ENDBRANCH  14  15
ENDBRANCH  13  14
ENDBRANCH  12  13
ENDBRANCH  10  12
ENDBRANCH   6  10
BRANCH   8  22
ATOM     22  O   UNL     1      -1.770  -3.555   1.403  1.00  0.00    -0.391 OA
ATOM     23  H   UNL     1      -2.178  -3.405   2.270  1.00  0.00     0.211 HD
ENDBRANCH   8  22
ENDBRANCH   3   5
ENDBRANCH   2   3
ENDBRANCH   1   2
BRANCH   1  24
ATOM     24  C   UNL     1      -1.143  -1.910   6.080  1.00  0.00     0.275 C 
BRANCH  24  25
ATOM     25  O   UNL     1      -0.120  -2.067   5.024  1.00  0.00    -0.458 OA
BRANCH  25  26
ATOM     26  C   UNL     1       0.963  -1.306   4.636  1.00  0.00     0.338 C 
ATOM     27  O   UNL     1       1.861  -1.782   3.950  1.00  0.00    -0.246 OA
BRANCH  26  28
ATOM     28  C   UNL     1       0.789   0.159   4.658  1.00  0.00     0.060 A 
ATOM     29  C   UNL     1       1.204   1.011   3.610  1.00  0.00     0.016 A 
ATOM     30  C   UNL     1      -0.022   0.655   5.633  1.00  0.00     0.016 A 
ATOM     31  C   UNL     1       0.715   2.324   3.557  1.00  0.00     0.010 A 
ATOM     32  C   UNL     1      -0.827   1.700   5.309  1.00  0.00     0.010 A 
ATOM     33  C   UNL     1      -0.331   2.642   4.417  1.00  0.00    -0.014 A 
BRANCH  33  34
ATOM     34  C   UNL     1      -0.795   3.956   4.843  1.00  0.00     0.031 A 
ATOM     35  C   UNL     1      -1.814   4.686   4.093  1.00  0.00     0.074 A 
ATOM     36  C   UNL     1      -0.479   4.171   6.148  1.00  0.00     0.049 A 
ATOM     37  N   UNL     1      -1.913   5.965   4.040  1.00  0.00    -0.248 NA
ATOM     38  C   UNL     1      -2.836   4.003   3.305  1.00  0.00     0.031 C 
ATOM     39  C   UNL     1      -1.011   5.032   7.182  1.00  0.00     0.029 A 
ATOM     40  N   UNL     1       0.547   3.492   6.820  1.00  0.00    -0.354 N 
ATOM     41  C   UNL     1      -3.192   6.229   3.586  1.00  0.00     0.074 A 
ATOM     42  C   UNL     1      -3.621   5.020   2.930  1.00  0.00     0.031 C 
ATOM     43  C   UNL     1      -0.109   5.084   8.191  1.00  0.00     0.029 A 
ATOM     44  C   UNL     1       1.071   4.316   7.796  1.00  0.00     0.049 A 
ATOM     45  H   UNL     1       0.846   2.574   6.628  1.00  0.00     0.167 HD
ATOM     46  C   UNL     1      -3.862   7.315   4.073  1.00  0.00     0.034 A 
ATOM     47  C   UNL     1       2.331   4.752   7.500  1.00  0.00     0.034 A 
ATOM     48  C   UNL     1      -3.073   7.923   5.153  1.00  0.00     0.049 A 
ATOM     49  C   UNL     1       2.240   6.178   7.003  1.00  0.00     0.074 A 
ATOM     50  C   UNL     1      -3.168   7.833   6.533  1.00  0.00     0.029 A 
ATOM     51  N   UNL     1      -1.797   8.401   4.884  1.00  0.00    -0.354 N 
ATOM     52  N   UNL     1       1.138   6.750   6.594  1.00  0.00    -0.248 NA
ATOM     53  C   UNL     1       3.367   7.092   7.028  1.00  0.00     0.031 C 
ATOM     54  C   UNL     1      -1.892   8.165   7.080  1.00  0.00     0.029 A 
ATOM     55  C   UNL     1      -1.031   8.465   6.036  1.00  0.00     0.049 A 
ATOM     56  H   UNL     1      -1.479   8.662   3.990  1.00  0.00     0.167 HD
ATOM     57  C   UNL     1       1.348   8.077   6.366  1.00  0.00     0.074 A 
ATOM     58  C   UNL     1       2.764   8.242   6.680  1.00  0.00     0.031 C 
ATOM     59  C   UNL     1       0.353   8.925   5.948  1.00  0.00     0.034 A 
BRANCH  46  60
ATOM     60  C   UNL     1      -5.330   7.634   3.854  1.00  0.00     0.023 A 
ATOM     61  C   UNL     1      -5.990   8.486   4.768  1.00  0.00     0.031 A 
ATOM     62  C   UNL     1      -6.121   7.191   2.773  1.00  0.00     0.131 A 
ATOM     63  C   UNL     1      -7.356   8.804   4.637  1.00  0.00     0.055 A 
ATOM     64  C   UNL     1      -7.493   7.476   2.662  1.00  0.00     0.041 A 
ATOM     65  F   UNL     1      -5.596   6.513   1.744  1.00  0.00    -0.206 F 
ATOM     66  C   UNL     1      -8.120   8.284   3.598  1.00  0.00     0.022 A 
BRANCH  63  67
ATOM     67  S   UNL     1      -8.112   9.942   5.832  1.00  0.00     0.124 S 
ATOM     68  O   UNL     1      -7.981   9.204   7.083  1.00  0.00    -0.237 OA
ATOM     69  O   UNL     1      -7.284  11.135   5.693  1.00  0.00    -0.237 OA
ATOM     70  O   UNL     1      -9.483  10.086   5.342  1.00  0.00    -0.744 OA
ENDBRANCH  63  67
ENDBRANCH  46  60
BRANCH  47  71
ATOM     71  C   UNL     1       3.205   3.631   6.950  1.00  0.00     0.023 A 
ATOM     72  C   UNL     1       3.243   2.418   7.692  1.00  0.00     0.031 A 
ATOM     73  C   UNL     1       3.663   3.560   5.625  1.00  0.00     0.131 A 
ATOM     74  C   UNL     1       3.564   1.190   7.083  1.00  0.00     0.055 A 
ATOM     75  C   UNL     1       4.072   2.340   5.044  1.00  0.00     0.041 A 
ATOM     76  F   UNL     1       3.631   4.640   4.831  1.00  0.00    -0.206 F 
ATOM     77  C   UNL     1       3.990   1.142   5.759  1.00  0.00     0.022 A 
BRANCH  74  78
ATOM     78  S   UNL     1       3.118  -0.344   7.965  1.00  0.00     0.124 S 
ATOM     79  O   UNL     1       4.141  -0.417   9.001  1.00  0.00    -0.237 OA
ATOM     80  O   UNL     1       1.758  -0.052   8.422  1.00  0.00    -0.237 OA
ATOM     81  O   UNL     1       3.187  -1.375   6.936  1.00  0.00    -0.744 OA
ENDBRANCH  74  78
ENDBRANCH  47  71
BRANCH  59  82
ATOM     82  C   UNL     1       0.591  10.329   5.447  1.00  0.00     0.023 A 
ATOM     83  C   UNL     1       1.863  10.790   5.117  1.00  0.00     0.031 A 
ATOM     84  C   UNL     1      -0.467  11.244   5.222  1.00  0.00     0.131 A 
ATOM     85  C   UNL     1       2.083  12.124   4.763  1.00  0.00     0.055 A 
ATOM     86  C   UNL     1      -0.263  12.529   4.716  1.00  0.00     0.041 A 
ATOM     87  F   UNL     1      -1.748  10.938   5.477  1.00  0.00    -0.206 F 
ATOM     88  C   UNL     1       1.027  12.993   4.521  1.00  0.00     0.022 A 
BRANCH  85  89
ATOM     89  S   UNL     1       3.793  12.701   4.788  1.00  0.00     0.124 S 
ATOM     90  O   UNL     1       4.157  12.487   6.187  1.00  0.00    -0.237 OA
ATOM     91  O   UNL     1       4.440  11.813   3.828  1.00  0.00    -0.237 OA
ATOM     92  O   UNL     1       3.688  14.099   4.380  1.00  0.00    -0.744 OA
ENDBRANCH  85  89
ENDBRANCH  59  82
ENDBRANCH  33  34
ENDBRANCH  26  28
ENDBRANCH  25  26
ENDBRANCH  24  25
ENDBRANCH   1  24
TORSDOF 20
