REMARK SMILES CC(C)[C@H](NC(=O)c1cc2cc(Cl)ccc2n1C)C(=O)N[C@@H](C(=O)OCCOC(=O)c1ccc(-c2c3nc(c(-c4cc(S(=O)(=O)[O-])ccc4F)c4ccc([nH]4)c(-c4cc(S(=O)(=O)[O-])ccc4F)c4nc(c(-c5cc(S(=O)(=O)[O-])ccc5F)c5ccc2[nH]5)C=C4)C=C3)cc1)c1ccccc1
REMARK SMILES IDX 26 1 25 2 23 3 24 4 22 5 21 6 19 7 20 8 4 10 2 11 1 12 3 13
REMARK SMILES IDX 5 14 6 15 7 17 8 18 9 19 17 20 10 21 16 22 18 23 11 24 15 25
REMARK SMILES IDX 12 26 14 27 13 28 94 29 95 30 99 31 96 32 98 33 97 34 27 35
REMARK SMILES IDX 28 36 29 37 30 38 31 39 32 40 93 41 33 42 92 43 34 44 35 45
REMARK SMILES IDX 36 46 86 47 37 48 91 49 85 50 87 51 38 52 90 53 84 54 83 55
REMARK SMILES IDX 39 57 71 58 51 59 70 60 52 61 55 62 69 63 88 64 53 65 54 66
REMARK SMILES IDX 68 68 89 69 56 70 40 71 41 72 49 73 42 74 48 75 50 76 47 77
REMARK SMILES IDX 43 78 44 79 45 80 46 81 72 82 73 83 81 84 74 85 80 86 82 87
REMARK SMILES IDX 79 88 75 89 76 90 77 91 78 92 57 93 58 94 66 95 59 96 65 97
REMARK SMILES IDX 67 98 64 99 60 100 61 101 62 102 63 103
REMARK H PARENT 21 9 5 16 87 56 55 67
REMARK Flexibility Score: inf
ROOT
ATOM      1  C   UNL     1       2.145  -4.158   3.216  1.00  0.00     0.274 C 
ENDROOT
BRANCH   1   2
ATOM      2  O   UNL     1       0.718  -4.130   2.921  1.00  0.00    -0.460 OA
BRANCH   2   3
ATOM      3  C   UNL     1       0.399  -3.910   1.613  1.00  0.00     0.333 C 
ATOM      4  O   UNL     1       1.207  -4.101   0.713  1.00  0.00    -0.249 OA
BRANCH   3   5
ATOM      5  C   UNL     1      -1.024  -3.347   1.341  1.00  0.00     0.223 C 
BRANCH   5   6
ATOM      6  N   UNL     1      -1.714  -2.575   2.371  1.00  0.00    -0.337 N 
ATOM      7  C   UNL     1      -2.007  -1.240   2.337  1.00  0.00     0.243 C 
ATOM      8  O   UNL     1      -2.969  -0.856   3.006  1.00  0.00    -0.273 OA
ATOM      9  H   UNL     1      -1.997  -3.068   3.174  1.00  0.00     0.164 HD
BRANCH   7  10
ATOM     10  C   UNL     1      -1.180  -0.256   1.467  1.00  0.00     0.174 C 
BRANCH  10  11
ATOM     11  C   UNL     1      -1.646  -0.134  -0.029  1.00  0.00     0.015 C 
ATOM     12  C   UNL     1      -0.645  -0.564  -1.115  1.00  0.00     0.010 C 
ATOM     13  C   UNL     1      -3.033  -0.736  -0.305  1.00  0.00     0.010 C 
ENDBRANCH  10  11
BRANCH  10  14
ATOM     14  N   UNL     1       0.249  -0.558   1.671  1.00  0.00    -0.339 N 
ATOM     15  C   UNL     1       0.985  -0.424   2.830  1.00  0.00     0.268 C 
ATOM     16  H   UNL     1       0.737  -0.897   0.886  1.00  0.00     0.164 HD
ATOM     17  O   UNL     1       2.179  -0.713   2.806  1.00  0.00    -0.268 OA
BRANCH  15  18
ATOM     18  C   UNL     1       0.328   0.048   4.030  1.00  0.00     0.107 A 
ATOM     19  C   UNL     1       0.400   1.316   4.587  1.00  0.00     0.042 A 
ATOM     20  N   UNL     1      -0.359  -0.711   4.958  1.00  0.00    -0.340 N 
ATOM     21  C   UNL     1      -0.453   1.359   5.725  1.00  0.00     0.002 A 
ATOM     22  C   UNL     1      -1.036   0.101   5.840  1.00  0.00     0.048 A 
ATOM     23  C   UNL     1      -0.261  -2.139   5.137  1.00  0.00     0.150 C 
ATOM     24  C   UNL     1      -0.802   2.348   6.662  1.00  0.00     0.030 A 
ATOM     25  C   UNL     1      -2.052  -0.189   6.763  1.00  0.00     0.028 A 
ATOM     26  C   UNL     1      -1.781   2.055   7.620  1.00  0.00     0.041 A 
ATOM     27  C   UNL     1      -2.425   0.821   7.648  1.00  0.00     0.023 A 
ATOM     28  Cl  UNL     1      -2.201   3.247   8.790  1.00  0.00    -0.084 Cl
ENDBRANCH  15  18
ENDBRANCH  10  14
ENDBRANCH   7  10
ENDBRANCH   5   6
BRANCH   5  29
ATOM     29  C   UNL     1      -2.058  -4.293   0.744  1.00  0.00    -0.014 A 
ATOM     30  C   UNL     1      -2.817  -5.162   1.550  1.00  0.00     0.006 A 
ATOM     31  C   UNL     1      -2.390  -4.194  -0.621  1.00  0.00     0.006 A 
ATOM     32  C   UNL     1      -3.876  -5.895   1.007  1.00  0.00     0.000 A 
ATOM     33  C   UNL     1      -3.460  -4.910  -1.155  1.00  0.00     0.000 A 
ATOM     34  C   UNL     1      -4.204  -5.758  -0.341  1.00  0.00     0.000 A 
ENDBRANCH   5  29
ENDBRANCH   3   5
ENDBRANCH   2   3
ENDBRANCH   1   2
BRANCH   1  35
ATOM     35  C   UNL     1       2.526  -5.292   4.176  1.00  0.00     0.275 C 
BRANCH  35  36
ATOM     36  O   UNL     1       2.728  -6.498   3.424  1.00  0.00    -0.458 OA
BRANCH  36  37
ATOM     37  C   UNL     1       1.652  -7.321   3.394  1.00  0.00     0.338 C 
ATOM     38  O   UNL     1       0.889  -7.549   4.314  1.00  0.00    -0.246 OA
BRANCH  37  39
ATOM     39  C   UNL     1       1.338  -7.503   1.963  1.00  0.00     0.060 A 
ATOM     40  C   UNL     1       2.311  -7.704   0.976  1.00  0.00     0.016 A 
ATOM     41  C   UNL     1       0.032  -7.197   1.612  1.00  0.00     0.016 A 
ATOM     42  C   UNL     1       1.996  -7.456  -0.368  1.00  0.00     0.010 A 
ATOM     43  C   UNL     1      -0.257  -6.947   0.282  1.00  0.00     0.010 A 
ATOM     44  C   UNL     1       0.723  -6.993  -0.708  1.00  0.00    -0.014 A 
BRANCH  44  45
ATOM     45  C   UNL     1       0.309  -6.713  -2.088  1.00  0.00     0.031 A 
ATOM     46  C   UNL     1      -0.486  -7.795  -2.716  1.00  0.00     0.074 A 
ATOM     47  C   UNL     1       0.364  -5.553  -2.783  1.00  0.00     0.049 A 
ATOM     48  N   UNL     1      -0.053  -8.672  -3.557  1.00  0.00    -0.248 NA
ATOM     49  C   UNL     1      -1.885  -7.987  -2.322  1.00  0.00     0.031 C 
ATOM     50  C   UNL     1       0.774  -4.218  -2.356  1.00  0.00     0.029 A 
ATOM     51  N   UNL     1      -0.033  -5.337  -4.078  1.00  0.00    -0.354 N 
ATOM     52  C   UNL     1      -1.164  -9.408  -3.945  1.00  0.00     0.074 A 
ATOM     53  C   UNL     1      -2.219  -9.065  -3.029  1.00  0.00     0.031 C 
ATOM     54  C   UNL     1       0.424  -3.301  -3.292  1.00  0.00     0.029 A 
ATOM     55  C   UNL     1      -0.051  -4.005  -4.467  1.00  0.00     0.049 A 
ATOM     56  H   UNL     1      -0.285  -6.070  -4.685  1.00  0.00     0.167 HD
ATOM     57  C   UNL     1      -1.192 -10.091  -5.121  1.00  0.00     0.034 A 
ATOM     58  C   UNL     1      -0.342  -3.510  -5.694  1.00  0.00     0.034 A 
ATOM     59  C   UNL     1       0.106 -10.110  -5.743  1.00  0.00     0.049 A 
ATOM     60  C   UNL     1      -0.051  -4.570  -6.683  1.00  0.00     0.074 A 
ATOM     61  C   UNL     1       1.349 -10.587  -5.385  1.00  0.00     0.029 A 
ATOM     62  N   UNL     1       0.315  -9.193  -6.744  1.00  0.00    -0.354 N 
ATOM     63  N   UNL     1       1.147  -4.998  -6.966  1.00  0.00    -0.248 NA
ATOM     64  C   UNL     1      -1.141  -5.380  -7.202  1.00  0.00     0.031 C 
ATOM     65  C   UNL     1       2.278  -9.637  -5.898  1.00  0.00     0.029 A 
ATOM     66  C   UNL     1       1.568  -8.650  -6.588  1.00  0.00     0.049 A 
ATOM     67  H   UNL     1      -0.326  -8.963  -7.455  1.00  0.00     0.167 HD
ATOM     68  C   UNL     1       0.969  -6.334  -7.261  1.00  0.00     0.074 A 
ATOM     69  C   UNL     1      -0.445  -6.449  -7.598  1.00  0.00     0.031 C 
ATOM     70  C   UNL     1       1.903  -7.268  -6.908  1.00  0.00     0.034 A 
BRANCH  57  71
ATOM     71  C   UNL     1      -2.450 -10.466  -5.856  1.00  0.00     0.023 A 
ATOM     72  C   UNL     1      -3.694  -9.852  -5.616  1.00  0.00     0.031 A 
ATOM     73  C   UNL     1      -2.395 -11.340  -6.959  1.00  0.00     0.131 A 
ATOM     74  C   UNL     1      -4.822 -10.153  -6.389  1.00  0.00     0.055 A 
ATOM     75  C   UNL     1      -3.502 -11.582  -7.781  1.00  0.00     0.041 A 
ATOM     76  F   UNL     1      -1.250 -11.954  -7.295  1.00  0.00    -0.206 F 
ATOM     77  C   UNL     1      -4.729 -10.997  -7.491  1.00  0.00     0.022 A 
BRANCH  74  78
ATOM     78  S   UNL     1      -6.442  -9.465  -5.953  1.00  0.00     0.124 S 
ATOM     79  O   UNL     1      -6.743  -8.647  -7.122  1.00  0.00    -0.237 OA
ATOM     80  O   UNL     1      -7.247 -10.675  -5.801  1.00  0.00    -0.237 OA
ATOM     81  O   UNL     1      -6.180  -8.739  -4.714  1.00  0.00    -0.744 OA
ENDBRANCH  74  78
ENDBRANCH  57  71
BRANCH  58  82
ATOM     82  C   UNL     1      -0.989  -2.246  -6.105  1.00  0.00     0.023 A 
ATOM     83  C   UNL     1      -2.070  -1.745  -5.357  1.00  0.00     0.031 A 
ATOM     84  C   UNL     1      -0.797  -1.725  -7.399  1.00  0.00     0.131 A 
ATOM     85  C   UNL     1      -2.959  -0.824  -5.937  1.00  0.00     0.055 A 
ATOM     86  C   UNL     1      -1.673  -0.792  -7.963  1.00  0.00     0.041 A 
ATOM     87  F   UNL     1       0.205  -2.171  -8.172  1.00  0.00    -0.206 F 
ATOM     88  C   UNL     1      -2.773  -0.352  -7.238  1.00  0.00     0.022 A 
BRANCH  85  89
ATOM     89  S   UNL     1      -4.438  -0.274  -5.042  1.00  0.00     0.124 S 
ATOM     90  O   UNL     1      -4.457   1.161  -5.319  1.00  0.00    -0.237 OA
ATOM     91  O   UNL     1      -5.486  -1.055  -5.688  1.00  0.00    -0.237 OA
ATOM     92  O   UNL     1      -4.139  -0.629  -3.659  1.00  0.00    -0.744 OA
ENDBRANCH  85  89
ENDBRANCH  58  82
BRANCH  70  93
ATOM     93  C   UNL     1       3.319  -6.816  -6.577  1.00  0.00     0.023 A 
ATOM     94  C   UNL     1       4.377  -7.568  -7.126  1.00  0.00     0.031 A 
ATOM     95  C   UNL     1       3.667  -5.828  -5.633  1.00  0.00     0.131 A 
ATOM     96  C   UNL     1       5.698  -7.368  -6.701  1.00  0.00     0.055 A 
ATOM     97  C   UNL     1       4.997  -5.573  -5.276  1.00  0.00     0.041 A 
ATOM     98  F   UNL     1       2.744  -5.129  -4.964  1.00  0.00    -0.206 F 
ATOM     99  C   UNL     1       6.019  -6.358  -5.794  1.00  0.00     0.022 A 
BRANCH  96 100
ATOM    100  S   UNL     1       7.005  -8.525  -7.187  1.00  0.00     0.124 S 
ATOM    101  O   UNL     1       7.881  -7.680  -7.994  1.00  0.00    -0.237 OA
ATOM    102  O   UNL     1       7.551  -8.938  -5.896  1.00  0.00    -0.237 OA
ATOM    103  O   UNL     1       6.298  -9.572  -7.919  1.00  0.00    -0.744 OA
ENDBRANCH  96 100
ENDBRANCH  70  93
ENDBRANCH  44  45
ENDBRANCH  37  39
ENDBRANCH  36  37
ENDBRANCH  35  36
ENDBRANCH   1  35
TORSDOF 20
