REMARK SMILES C[C@@H]1[C@@H](C(=O)OCCOC(=O)c2ccc(-c3c4nc(c(-c5cc(S(=O)(=O)[O-])ccc5F)c5ccc([nH]5)c(-c5cc(S(=O)(=O)[O-])ccc5F)c5nc(c(-c6cc(S(=O)(=O)[O-])ccc6F)c6ccc3[nH]6)C=C5)C=C4)cc2)CC[N@@H+]1CC(=O)N(C)C1CC1
REMARK SMILES IDX 7 1 6 2 4 3 5 4 3 5 1 6 2 7 77 8 75 9 76 10 78 12 79 13
REMARK SMILES IDX 80 14 81 15 82 16 83 17 84 18 85 19 8 20 9 21 10 22 11 23
REMARK SMILES IDX 12 24 13 25 74 26 14 27 73 28 15 29 16 30 17 31 67 32 18 33
REMARK SMILES IDX 72 34 66 35 68 36 19 37 71 38 65 39 64 40 20 42 52 43 32 44
REMARK SMILES IDX 51 45 33 46 36 47 50 48 69 49 34 50 35 51 49 53 70 54 37 55
REMARK SMILES IDX 21 56 22 57 30 58 23 59 29 60 31 61 28 62 24 63 25 64 26 65
REMARK SMILES IDX 27 66 53 67 54 68 62 69 55 70 61 71 63 72 60 73 56 74 57 75
REMARK SMILES IDX 58 76 59 77 38 78 39 79 47 80 40 81 46 82 48 83 45 84 41 85
REMARK SMILES IDX 42 86 43 87 44 88
REMARK H PARENT 77 11 68 41 36 52
REMARK Flexibility Score: inf
ROOT
ATOM      1  C   UNL     1      -2.357   2.195  -3.751  1.00  0.00     0.274 C 
ENDROOT
BRANCH   1   2
ATOM      2  O   UNL     1      -1.921   2.075  -2.384  1.00  0.00    -0.462 OA
BRANCH   2   3
ATOM      3  C   UNL     1      -1.601   0.823  -1.950  1.00  0.00     0.315 C 
ATOM      4  O   UNL     1      -1.766  -0.202  -2.595  1.00  0.00    -0.252 OA
BRANCH   3   5
ATOM      5  C   UNL     1      -1.009   0.896  -0.555  1.00  0.00     0.162 C 
ATOM      6  C   UNL     1       1.424   0.653   0.014  1.00  0.00     0.076 C 
ATOM      7  C   UNL     1       0.155  -0.091  -0.393  1.00  0.00     0.195 C 
ATOM      8  N   UNL     1      -0.324  -1.115   0.520  1.00  0.00    -0.324 N 
ATOM      9  C   UNL     1      -2.018   0.510   0.515  1.00  0.00     0.083 C 
ATOM     10  C   UNL     1      -1.729  -0.949   0.825  1.00  0.00     0.264 C 
ATOM     11  H   UNL     1      -0.219  -1.962  -0.037  1.00  0.00     0.348 HD
BRANCH   8  12
ATOM     12  C   UNL     1       0.550  -1.817   1.450  1.00  0.00     0.364 C 
BRANCH  12  13
ATOM     13  C   UNL     1       0.766  -1.039   2.760  1.00  0.00     0.277 C 
ATOM     14  O   UNL     1      -0.195  -0.825   3.512  1.00  0.00    -0.268 OA
BRANCH  13  15
ATOM     15  N   UNL     1       2.033  -0.540   3.062  1.00  0.00    -0.338 N 
ATOM     16  C   UNL     1       3.291  -0.942   2.437  1.00  0.00     0.147 C 
BRANCH  15  17
ATOM     17  C   UNL     1       2.146   0.407   4.151  1.00  0.00     0.085 C 
ATOM     18  C   UNL     1       2.983   1.658   4.064  1.00  0.00     0.027 C 
ATOM     19  C   UNL     1       1.490   1.764   4.052  1.00  0.00     0.027 C 
ENDBRANCH  15  17
ENDBRANCH  13  15
ENDBRANCH  12  13
ENDBRANCH   8  12
ENDBRANCH   3   5
ENDBRANCH   2   3
ENDBRANCH   1   2
BRANCH   1  20
ATOM     20  C   UNL     1      -1.347   3.030  -4.533  1.00  0.00     0.275 C 
BRANCH  20  21
ATOM     21  O   UNL     1      -0.101   2.314  -4.640  1.00  0.00    -0.458 OA
BRANCH  21  22
ATOM     22  C   UNL     1       0.959   2.888  -4.027  1.00  0.00     0.338 C 
ATOM     23  O   UNL     1       0.981   3.949  -3.422  1.00  0.00    -0.246 OA
BRANCH  22  24
ATOM     24  C   UNL     1       2.134   2.010  -4.137  1.00  0.00     0.060 A 
ATOM     25  C   UNL     1       2.188   0.872  -3.341  1.00  0.00     0.016 A 
ATOM     26  C   UNL     1       3.242   2.384  -4.892  1.00  0.00     0.016 A 
ATOM     27  C   UNL     1       3.382   0.166  -3.200  1.00  0.00     0.010 A 
ATOM     28  C   UNL     1       4.407   1.604  -4.838  1.00  0.00     0.010 A 
ATOM     29  C   UNL     1       4.512   0.508  -3.958  1.00  0.00    -0.014 A 
BRANCH  29  30
ATOM     30  C   UNL     1       5.803  -0.234  -3.799  1.00  0.00     0.031 A 
ATOM     31  C   UNL     1       7.072   0.513  -3.455  1.00  0.00     0.074 A 
ATOM     32  C   UNL     1       5.862  -1.576  -3.938  1.00  0.00     0.049 A 
ATOM     33  N   UNL     1       8.316   0.104  -3.495  1.00  0.00    -0.248 NA
ATOM     34  C   UNL     1       6.916   1.909  -3.021  1.00  0.00     0.031 C 
ATOM     35  C   UNL     1       4.720  -2.456  -4.196  1.00  0.00     0.029 A 
ATOM     36  N   UNL     1       6.930  -2.441  -3.877  1.00  0.00    -0.354 N 
ATOM     37  C   UNL     1       9.094   1.206  -3.148  1.00  0.00     0.074 A 
ATOM     38  C   UNL     1       8.177   2.302  -2.910  1.00  0.00     0.031 C 
ATOM     39  C   UNL     1       5.140  -3.729  -4.228  1.00  0.00     0.029 A 
ATOM     40  C   UNL     1       6.593  -3.756  -4.107  1.00  0.00     0.049 A 
ATOM     41  H   UNL     1       7.850  -2.146  -3.686  1.00  0.00     0.167 HD
ATOM     42  C   UNL     1      10.444   1.298  -3.040  1.00  0.00     0.034 A 
ATOM     43  C   UNL     1       7.359  -4.855  -4.264  1.00  0.00     0.034 A 
ATOM     44  C   UNL     1      11.350   0.190  -3.232  1.00  0.00     0.049 A 
ATOM     45  C   UNL     1       8.859  -4.718  -4.214  1.00  0.00     0.074 A 
ATOM     46  C   UNL     1      12.734   0.181  -3.158  1.00  0.00     0.029 A 
ATOM     47  N   UNL     1      10.965  -1.113  -3.522  1.00  0.00    -0.354 N 
ATOM     48  N   UNL     1       9.584  -3.647  -3.992  1.00  0.00    -0.248 NA
ATOM     49  C   UNL     1       9.643  -5.936  -4.459  1.00  0.00     0.031 C 
ATOM     50  C   UNL     1      13.185  -1.112  -3.451  1.00  0.00     0.029 A 
ATOM     51  C   UNL     1      12.082  -1.926  -3.645  1.00  0.00     0.049 A 
ATOM     52  H   UNL     1      10.034  -1.415  -3.626  1.00  0.00     0.167 HD
ATOM     53  C   UNL     1      10.909  -4.068  -4.056  1.00  0.00     0.074 A 
ATOM     54  C   UNL     1      10.883  -5.492  -4.316  1.00  0.00     0.031 C 
ATOM     55  C   UNL     1      12.047  -3.342  -3.915  1.00  0.00     0.034 A 
BRANCH  42  56
ATOM     56  C   UNL     1      11.028   2.662  -2.756  1.00  0.00     0.023 A 
ATOM     57  C   UNL     1      10.812   3.328  -1.538  1.00  0.00     0.031 A 
ATOM     58  C   UNL     1      11.794   3.316  -3.738  1.00  0.00     0.131 A 
ATOM     59  C   UNL     1      11.298   4.633  -1.361  1.00  0.00     0.055 A 
ATOM     60  C   UNL     1      12.340   4.583  -3.526  1.00  0.00     0.041 A 
ATOM     61  F   UNL     1      12.018   2.736  -4.928  1.00  0.00    -0.206 F 
ATOM     62  C   UNL     1      12.080   5.256  -2.336  1.00  0.00     0.022 A 
BRANCH  59  63
ATOM     63  S   UNL     1      10.776   5.559   0.109  1.00  0.00     0.124 S 
ATOM     64  O   UNL     1       9.323   5.552  -0.038  1.00  0.00    -0.237 OA
ATOM     65  O   UNL     1      11.311   4.750   1.198  1.00  0.00    -0.237 OA
ATOM     66  O   UNL     1      11.407   6.866  -0.066  1.00  0.00    -0.744 OA
ENDBRANCH  59  63
ENDBRANCH  42  56
BRANCH  43  67
ATOM     67  C   UNL     1       6.736  -6.175  -4.573  1.00  0.00     0.023 A 
ATOM     68  C   UNL     1       6.873  -7.263  -3.698  1.00  0.00     0.031 A 
ATOM     69  C   UNL     1       6.041  -6.382  -5.779  1.00  0.00     0.131 A 
ATOM     70  C   UNL     1       6.358  -8.519  -4.058  1.00  0.00     0.055 A 
ATOM     71  C   UNL     1       5.479  -7.617  -6.105  1.00  0.00     0.041 A 
ATOM     72  F   UNL     1       5.888  -5.378  -6.657  1.00  0.00    -0.206 F 
ATOM     73  C   UNL     1       5.648  -8.698  -5.247  1.00  0.00     0.022 A 
BRANCH  70  74
ATOM     74  S   UNL     1       6.709  -9.941  -2.988  1.00  0.00     0.124 S 
ATOM     75  O   UNL     1       8.168  -9.948  -2.973  1.00  0.00    -0.237 OA
ATOM     76  O   UNL     1       6.056  -9.550  -1.743  1.00  0.00    -0.237 OA
ATOM     77  O   UNL     1       6.086 -11.059  -3.693  1.00  0.00    -0.744 OA
ENDBRANCH  70  74
ENDBRANCH  43  67
BRANCH  55  78
ATOM     78  C   UNL     1      13.350  -4.096  -3.993  1.00  0.00     0.023 A 
ATOM     79  C   UNL     1      13.812  -4.652  -5.199  1.00  0.00     0.031 A 
ATOM     80  C   UNL     1      14.127  -4.283  -2.836  1.00  0.00     0.131 A 
ATOM     81  C   UNL     1      14.990  -5.413  -5.210  1.00  0.00     0.055 A 
ATOM     82  C   UNL     1      15.324  -4.998  -2.863  1.00  0.00     0.041 A 
ATOM     83  F   UNL     1      13.730  -3.774  -1.658  1.00  0.00    -0.206 F 
ATOM     84  C   UNL     1      15.756  -5.579  -4.053  1.00  0.00     0.022 A 
BRANCH  81  85
ATOM     85  S   UNL     1      15.472  -6.254  -6.744  1.00  0.00     0.124 S 
ATOM     86  O   UNL     1      14.321  -7.117  -6.992  1.00  0.00    -0.237 OA
ATOM     87  O   UNL     1      15.645  -5.140  -7.670  1.00  0.00    -0.237 OA
ATOM     88  O   UNL     1      16.703  -6.953  -6.381  1.00  0.00    -0.744 OA
ENDBRANCH  81  85
ENDBRANCH  55  78
ENDBRANCH  29  30
ENDBRANCH  22  24
ENDBRANCH  21  22
ENDBRANCH  20  21
ENDBRANCH   1  20
TORSDOF 18
