REMARK SMILES O=C(OCCOC(=O)[C@H]1[C@H]2CC[C@H](CC2)[C@@H]1C(=O)Nc1sc2c(c1C(=O)N1CCCCC1)CCCC2)c1ccc(-c2c3nc(c(-c4cc(S(=O)(=O)[O-])ccc4F)c4ccc([nH]4)c(-c4cc(S(=O)(=O)[O-])ccc4F)c4nc(c(-c5cc(S(=O)(=O)[O-])ccc5F)c5ccc2[nH]5)C=C4)C=C3)cc1
REMARK SMILES IDX 4 1 3 2 2 3 1 4 37 5 38 6 99 7 39 8 98 9 40 10 41 11 42 12
REMARK SMILES IDX 92 13 43 14 97 15 91 16 93 17 44 18 96 19 90 20 89 21 45 23
REMARK SMILES IDX 77 24 57 25 76 26 58 27 61 28 75 29 94 30 59 31 60 32 74 34
REMARK SMILES IDX 95 35 62 36 46 37 47 38 55 39 48 40 54 41 56 42 53 43 49 44
REMARK SMILES IDX 50 45 51 46 52 47 78 48 79 49 87 50 80 51 86 52 88 53 85 54
REMARK SMILES IDX 81 55 82 56 83 57 84 58 63 59 64 60 72 61 65 62 71 63 73 64
REMARK SMILES IDX 70 65 66 66 67 67 68 68 69 69 5 70 6 71 7 72 8 73 9 74 10 75
REMARK SMILES IDX 16 76 15 77 11 78 13 79 14 80 12 81 17 82 18 83 19 84 20 86
REMARK SMILES IDX 21 87 24 88 22 89 23 90 36 91 33 92 35 93 34 94 25 95 26 96
REMARK SMILES IDX 27 97 28 98 32 99 29 100 31 101 30 102
REMARK H PARENT 93 22 61 33 19 85
REMARK Flexibility Score: inf
ROOT
ATOM      1  C   UNL     1       4.252  -1.151   0.810  1.00  0.00     0.275 C 
ENDROOT
BRANCH   1   2
ATOM      2  O   UNL     1       3.391  -0.161   1.417  1.00  0.00    -0.458 OA
BRANCH   2   3
ATOM      3  C   UNL     1       3.357   1.194   1.354  1.00  0.00     0.338 C 
ATOM      4  O   UNL     1       2.636   1.781   2.163  1.00  0.00    -0.246 OA
BRANCH   3   5
ATOM      5  C   UNL     1       3.984   2.025   0.271  1.00  0.00     0.060 A 
ATOM      6  C   UNL     1       5.172   1.791  -0.396  1.00  0.00     0.016 A 
ATOM      7  C   UNL     1       3.320   3.208  -0.092  1.00  0.00     0.016 A 
ATOM      8  C   UNL     1       5.523   2.581  -1.522  1.00  0.00     0.010 A 
ATOM      9  C   UNL     1       3.634   3.924  -1.280  1.00  0.00     0.010 A 
ATOM     10  C   UNL     1       4.677   3.527  -2.117  1.00  0.00    -0.014 A 
BRANCH  10  11
ATOM     11  C   UNL     1       5.078   4.346  -3.346  1.00  0.00     0.031 A 
ATOM     12  C   UNL     1       5.792   5.613  -2.991  1.00  0.00     0.074 A 
ATOM     13  C   UNL     1       4.863   4.116  -4.679  1.00  0.00     0.049 A 
ATOM     14  N   UNL     1       6.130   6.621  -3.744  1.00  0.00    -0.248 NA
ATOM     15  C   UNL     1       6.071   5.791  -1.558  1.00  0.00     0.031 C 
ATOM     16  C   UNL     1       4.182   2.984  -5.282  1.00  0.00     0.029 A 
ATOM     17  N   UNL     1       5.232   4.818  -5.823  1.00  0.00    -0.354 N 
ATOM     18  C   UNL     1       6.593   7.578  -2.860  1.00  0.00     0.074 A 
ATOM     19  C   UNL     1       6.380   7.068  -1.526  1.00  0.00     0.031 C 
ATOM     20  C   UNL     1       4.241   2.989  -6.614  1.00  0.00     0.029 A 
ATOM     21  C   UNL     1       4.899   4.199  -7.027  1.00  0.00     0.049 A 
ATOM     22  H   UNL     1       5.694   5.687  -5.785  1.00  0.00     0.167 HD
ATOM     23  C   UNL     1       7.185   8.764  -3.124  1.00  0.00     0.034 A 
ATOM     24  C   UNL     1       5.061   4.531  -8.328  1.00  0.00     0.034 A 
ATOM     25  C   UNL     1       7.387   9.267  -4.450  1.00  0.00     0.049 A 
ATOM     26  C   UNL     1       5.698   5.856  -8.614  1.00  0.00     0.074 A 
ATOM     27  C   UNL     1       7.936  10.472  -4.838  1.00  0.00     0.029 A 
ATOM     28  N   UNL     1       7.032   8.590  -5.614  1.00  0.00    -0.354 N 
ATOM     29  N   UNL     1       6.134   6.747  -7.755  1.00  0.00    -0.248 NA
ATOM     30  C   UNL     1       5.850   6.240 -10.021  1.00  0.00     0.031 C 
ATOM     31  C   UNL     1       7.881  10.542  -6.234  1.00  0.00     0.029 A 
ATOM     32  C   UNL     1       7.356   9.354  -6.721  1.00  0.00     0.049 A 
ATOM     33  H   UNL     1       6.613   7.699  -5.644  1.00  0.00     0.167 HD
ATOM     34  C   UNL     1       6.628   7.792  -8.517  1.00  0.00     0.074 A 
ATOM     35  C   UNL     1       6.448   7.419  -9.907  1.00  0.00     0.031 C 
ATOM     36  C   UNL     1       7.179   8.956  -8.097  1.00  0.00     0.034 A 
BRANCH  23  37
ATOM     37  C   UNL     1       7.566   9.561  -1.904  1.00  0.00     0.023 A 
ATOM     38  C   UNL     1       8.459   9.024  -0.955  1.00  0.00     0.031 A 
ATOM     39  C   UNL     1       6.824  10.699  -1.555  1.00  0.00     0.131 A 
ATOM     40  C   UNL     1       8.428   9.503   0.361  1.00  0.00     0.055 A 
ATOM     41  C   UNL     1       6.909  11.257  -0.279  1.00  0.00     0.041 A 
ATOM     42  F   UNL     1       5.938  11.228  -2.413  1.00  0.00    -0.206 F 
ATOM     43  C   UNL     1       7.682  10.635   0.700  1.00  0.00     0.022 A 
BRANCH  40  44
ATOM     44  S   UNL     1       9.112   8.438   1.669  1.00  0.00     0.124 S 
ATOM     45  O   UNL     1       8.254   7.258   1.565  1.00  0.00    -0.237 OA
ATOM     46  O   UNL     1      10.493   8.255   1.239  1.00  0.00    -0.237 OA
ATOM     47  O   UNL     1       8.930   9.229   2.883  1.00  0.00    -0.744 OA
ENDBRANCH  40  44
ENDBRANCH  23  37
BRANCH  24  48
ATOM     48  C   UNL     1       4.569   3.648  -9.449  1.00  0.00     0.023 A 
ATOM     49  C   UNL     1       5.448   3.077 -10.392  1.00  0.00     0.031 A 
ATOM     50  C   UNL     1       3.195   3.384  -9.615  1.00  0.00     0.131 A 
ATOM     51  C   UNL     1       4.945   2.301 -11.457  1.00  0.00     0.055 A 
ATOM     52  C   UNL     1       2.705   2.570 -10.643  1.00  0.00     0.041 A 
ATOM     53  F   UNL     1       2.297   3.901  -8.760  1.00  0.00    -0.206 F 
ATOM     54  C   UNL     1       3.581   2.031 -11.577  1.00  0.00     0.022 A 
BRANCH  51  55
ATOM     55  S   UNL     1       6.087   1.699 -12.739  1.00  0.00     0.124 S 
ATOM     56  O   UNL     1       6.636   2.946 -13.259  1.00  0.00    -0.237 OA
ATOM     57  O   UNL     1       7.005   0.866 -11.970  1.00  0.00    -0.237 OA
ATOM     58  O   UNL     1       5.217   0.972 -13.662  1.00  0.00    -0.744 OA
ENDBRANCH  51  55
ENDBRANCH  24  48
BRANCH  36  59
ATOM     59  C   UNL     1       7.694   9.884  -9.157  1.00  0.00     0.023 A 
ATOM     60  C   UNL     1       6.828  10.612  -9.987  1.00  0.00     0.031 A 
ATOM     61  C   UNL     1       9.079  10.075  -9.292  1.00  0.00     0.131 A 
ATOM     62  C   UNL     1       7.364  11.491 -10.937  1.00  0.00     0.055 A 
ATOM     63  C   UNL     1       9.603  10.988 -10.203  1.00  0.00     0.041 A 
ATOM     64  F   UNL     1       9.941   9.393  -8.520  1.00  0.00    -0.206 F 
ATOM     65  C   UNL     1       8.743  11.700 -11.035  1.00  0.00     0.022 A 
BRANCH  62  66
ATOM     66  S   UNL     1       6.234  12.342 -12.071  1.00  0.00     0.124 S 
ATOM     67  O   UNL     1       5.668  11.229 -12.825  1.00  0.00    -0.237 OA
ATOM     68  O   UNL     1       5.323  13.023 -11.156  1.00  0.00    -0.237 OA
ATOM     69  O   UNL     1       7.117  13.224 -12.833  1.00  0.00    -0.744 OA
ENDBRANCH  62  66
ENDBRANCH  36  59
ENDBRANCH  10  11
ENDBRANCH   3   5
ENDBRANCH   2   3
ENDBRANCH   1   2
BRANCH   1  70
ATOM     70  C   UNL     1       3.524  -1.994  -0.232  1.00  0.00     0.274 C 
BRANCH  70  71
ATOM     71  O   UNL     1       3.106  -1.151  -1.302  1.00  0.00    -0.462 OA
BRANCH  71  72
ATOM     72  C   UNL     1       1.825  -1.257  -1.736  1.00  0.00     0.310 C 
ATOM     73  O   UNL     1       0.988  -2.022  -1.269  1.00  0.00    -0.252 OA
BRANCH  72  74
ATOM     74  C   UNL     1       1.567  -0.324  -2.908  1.00  0.00     0.115 C 
ATOM     75  C   UNL     1       0.129   0.271  -2.844  1.00  0.00     0.004 C 
ATOM     76  C   UNL     1       2.663   0.798  -3.003  1.00  0.00     0.096 C 
ATOM     77  C   UNL     1       0.059   1.329  -1.741  1.00  0.00     0.005 C 
ATOM     78  C   UNL     1      -0.187   0.963  -4.188  1.00  0.00     0.005 C 
ATOM     79  C   UNL     1       1.860   2.123  -3.338  1.00  0.00     0.002 C 
ATOM     80  C   UNL     1       0.882   2.522  -2.188  1.00  0.00     0.005 C 
ATOM     81  C   UNL     1       0.940   1.935  -4.556  1.00  0.00     0.005 C 
BRANCH  76  82
ATOM     82  C   UNL     1       3.982   0.111  -3.751  1.00  0.00     0.229 C 
ATOM     83  O   UNL     1       3.844  -0.997  -4.283  1.00  0.00    -0.274 OA
ATOM     84  N   UNL     1       5.255   0.708  -3.676  1.00  0.00    -0.317 N 
ATOM     85  H   UNL     1       5.304   1.657  -3.933  1.00  0.00     0.170 HD
BRANCH  84  86
ATOM     86  C   UNL     1       6.475   0.104  -3.276  1.00  0.00     0.108 A 
ATOM     87  S   UNL     1       6.376  -1.458  -2.600  1.00  0.00    -0.122 S 
ATOM     88  C   UNL     1       7.780   0.664  -3.103  1.00  0.00     0.078 A 
ATOM     89  C   UNL     1       7.687  -1.140  -1.587  1.00  0.00     0.011 A 
ATOM     90  C   UNL     1       8.440  -0.063  -2.013  1.00  0.00    -0.019 A 
ATOM     91  C   UNL     1       7.939  -1.939  -0.350  1.00  0.00     0.047 C 
ATOM     92  C   UNL     1       9.671   0.338  -1.246  1.00  0.00     0.037 C 
ATOM     93  C   UNL     1       8.767  -1.105   0.636  1.00  0.00     0.006 C 
ATOM     94  C   UNL     1      10.014  -0.571  -0.059  1.00  0.00     0.005 C 
BRANCH  88  95
ATOM     95  C   UNL     1       8.222   1.969  -3.711  1.00  0.00     0.257 C 
ATOM     96  O   UNL     1       7.455   2.562  -4.465  1.00  0.00    -0.269 OA
ATOM     97  N   UNL     1       9.400   2.611  -3.250  1.00  0.00    -0.339 N 
ATOM     98  C   UNL     1       9.354   4.070  -3.086  1.00  0.00     0.120 C 
ATOM     99  C   UNL     1      10.734   2.151  -3.640  1.00  0.00     0.120 C 
ATOM    100  C   UNL     1      10.329   4.532  -2.000  1.00  0.00     0.022 C 
ATOM    101  C   UNL     1      11.812   2.582  -2.624  1.00  0.00     0.022 C 
ATOM    102  C   UNL     1      11.757   4.073  -2.291  1.00  0.00     0.004 C 
ENDBRANCH  88  95
ENDBRANCH  84  86
ENDBRANCH  76  82
ENDBRANCH  72  74
ENDBRANCH  71  72
ENDBRANCH  70  71
ENDBRANCH   1  70
TORSDOF 17
