REMARK SMILES C[C@H]([C@@H](C)C(=O)OCCOC(=O)c1ccc(-c2c3nc(c(-c4cc(S(=O)(=O)[O-])ccc4F)c4ccc([nH]4)c(-c4cc(S(=O)(=O)[O-])ccc4F)c4nc(c(-c5cc(S(=O)(=O)[O-])ccc5F)c5ccc2[nH]5)C=C4)C=C3)cc1)[NH+]1CCN(c2nccs2)CC1
REMARK SMILES IDX 8 1 7 2 5 3 6 4 3 5 4 6 2 7 1 8 76 9 77 10 86 11 78 13 85 14
REMARK SMILES IDX 79 15 80 16 81 17 84 18 82 19 83 20 9 21 10 22 11 23 12 24
REMARK SMILES IDX 13 25 14 26 75 27 15 28 74 29 16 30 17 31 18 32 68 33 19 34
REMARK SMILES IDX 73 35 67 36 69 37 20 38 72 39 66 40 65 41 21 43 53 44 33 45
REMARK SMILES IDX 52 46 34 47 37 48 51 49 70 50 35 51 36 52 50 54 71 55 38 56
REMARK SMILES IDX 22 57 23 58 31 59 24 60 30 61 32 62 29 63 25 64 26 65 27 66
REMARK SMILES IDX 28 67 54 68 55 69 63 70 56 71 62 72 64 73 61 74 57 75 58 76
REMARK SMILES IDX 59 77 60 78 39 79 40 80 48 81 41 82 47 83 49 84 46 85 42 86
REMARK SMILES IDX 43 87 44 88 45 89
REMARK H PARENT 76 12 69 42 37 53
REMARK Flexibility Score: inf
ROOT
ATOM      1  C   UNL     1       4.576  -1.200  -0.643  1.00  0.00     0.274 C 
ENDROOT
BRANCH   1   2
ATOM      2  O   UNL     1       3.139  -1.198  -0.763  1.00  0.00    -0.462 OA
BRANCH   2   3
ATOM      3  C   UNL     1       2.453  -0.753   0.318  1.00  0.00     0.314 C 
ATOM      4  O   UNL     1       2.983  -0.376   1.359  1.00  0.00    -0.252 OA
BRANCH   3   5
ATOM      5  C   UNL     1       0.939  -0.875   0.185  1.00  0.00     0.154 C 
ATOM      6  C   UNL     1       0.559  -2.303   0.577  1.00  0.00     0.026 C 
BRANCH   5   7
ATOM      7  C   UNL     1       0.343  -0.287  -1.130  1.00  0.00     0.195 C 
ATOM      8  C   UNL     1       0.545  -1.204  -2.352  1.00  0.00     0.076 C 
BRANCH   7   9
ATOM      9  N   UNL     1      -1.095   0.070  -1.206  1.00  0.00    -0.329 N 
ATOM     10  C   UNL     1      -2.045  -0.409  -0.200  1.00  0.00     0.284 C 
ATOM     11  C   UNL     1      -1.367   1.501  -1.478  1.00  0.00     0.284 C 
ATOM     12  H   UNL     1      -1.296  -0.514  -2.018  1.00  0.00     0.348 HD
ATOM     13  C   UNL     1      -2.102   0.402   1.111  1.00  0.00     0.180 C 
ATOM     14  C   UNL     1      -1.456   2.416  -0.236  1.00  0.00     0.180 C 
ATOM     15  N   UNL     1      -2.260   1.824   0.838  1.00  0.00    -0.337 N 
BRANCH  15  16
ATOM     16  C   UNL     1      -2.736   2.658   1.800  1.00  0.00     0.185 A 
ATOM     17  N   UNL     1      -3.579   3.635   1.550  1.00  0.00    -0.229 NA
ATOM     18  S   UNL     1      -2.268   2.535   3.466  1.00  0.00    -0.106 S 
ATOM     19  C   UNL     1      -3.912   4.299   2.714  1.00  0.00     0.125 A 
ATOM     20  C   UNL     1      -3.276   3.860   3.852  1.00  0.00     0.088 A 
ENDBRANCH  15  16
ENDBRANCH   7   9
ENDBRANCH   5   7
ENDBRANCH   3   5
ENDBRANCH   2   3
ENDBRANCH   1   2
BRANCH   1  21
ATOM     21  C   UNL     1       5.218   0.061  -1.229  1.00  0.00     0.275 C 
BRANCH  21  22
ATOM     22  O   UNL     1       4.936   1.229  -0.438  1.00  0.00    -0.458 OA
BRANCH  22  23
ATOM     23  C   UNL     1       3.838   1.922  -0.824  1.00  0.00     0.338 C 
ATOM     24  O   UNL     1       3.123   1.681  -1.781  1.00  0.00    -0.246 OA
BRANCH  23  25
ATOM     25  C   UNL     1       3.521   2.961   0.168  1.00  0.00     0.060 A 
ATOM     26  C   UNL     1       2.294   2.877   0.830  1.00  0.00     0.016 A 
ATOM     27  C   UNL     1       4.364   4.052   0.376  1.00  0.00     0.016 A 
ATOM     28  C   UNL     1       1.882   3.900   1.680  1.00  0.00     0.010 A 
ATOM     29  C   UNL     1       3.957   5.073   1.242  1.00  0.00     0.010 A 
ATOM     30  C   UNL     1       2.706   5.013   1.885  1.00  0.00    -0.014 A 
BRANCH  30  31
ATOM     31  C   UNL     1       2.233   6.137   2.729  1.00  0.00     0.031 A 
ATOM     32  C   UNL     1       1.827   7.433   2.086  1.00  0.00     0.074 A 
ATOM     33  C   UNL     1       2.154   5.989   4.064  1.00  0.00     0.049 A 
ATOM     34  N   UNL     1       1.497   8.569   2.643  1.00  0.00    -0.248 NA
ATOM     35  C   UNL     1       1.797   7.449   0.616  1.00  0.00     0.031 C 
ATOM     36  C   UNL     1       2.468   4.762   4.796  1.00  0.00     0.029 A 
ATOM     37  N   UNL     1       1.796   6.881   5.044  1.00  0.00    -0.354 N 
ATOM     38  C   UNL     1       1.233   9.444   1.595  1.00  0.00     0.074 A 
ATOM     39  C   UNL     1       1.471   8.709   0.368  1.00  0.00     0.031 C 
ATOM     40  C   UNL     1       2.297   4.981   6.110  1.00  0.00     0.029 A 
ATOM     41  C   UNL     1       1.915   6.375   6.317  1.00  0.00     0.049 A 
ATOM     42  H   UNL     1       1.482   7.795   4.853  1.00  0.00     0.167 HD
ATOM     43  C   UNL     1       0.828  10.738   1.652  1.00  0.00     0.034 A 
ATOM     44  C   UNL     1       1.773   6.978   7.513  1.00  0.00     0.034 A 
ATOM     45  C   UNL     1       0.599  11.453   2.885  1.00  0.00     0.049 A 
ATOM     46  C   UNL     1       1.399   8.438   7.556  1.00  0.00     0.074 A 
ATOM     47  C   UNL     1       0.188  12.764   3.061  1.00  0.00     0.029 A 
ATOM     48  N   UNL     1       0.765  10.919   4.158  1.00  0.00    -0.354 N 
ATOM     49  N   UNL     1       1.182   9.264   6.559  1.00  0.00    -0.248 NA
ATOM     50  C   UNL     1       1.252   9.045   8.885  1.00  0.00     0.031 C 
ATOM     51  C   UNL     1       0.166  13.039   4.434  1.00  0.00     0.029 A 
ATOM     52  C   UNL     1       0.493  11.880   5.120  1.00  0.00     0.049 A 
ATOM     53  H   UNL     1       1.037   9.992   4.348  1.00  0.00     0.167 HD
ATOM     54  C   UNL     1       0.852  10.484   7.142  1.00  0.00     0.074 A 
ATOM     55  C   UNL     1       0.884  10.280   8.576  1.00  0.00     0.031 C 
ATOM     56  C   UNL     1       0.547  11.665   6.547  1.00  0.00     0.034 A 
BRANCH  43  57
ATOM     57  C   UNL     1       0.670  11.470   0.342  1.00  0.00     0.023 A 
ATOM     58  C   UNL     1      -0.302  11.101  -0.604  1.00  0.00     0.031 A 
ATOM     59  C   UNL     1       1.534  12.532   0.018  1.00  0.00     0.131 A 
ATOM     60  C   UNL     1      -0.340  11.739  -1.854  1.00  0.00     0.055 A 
ATOM     61  C   UNL     1       1.441  13.213  -1.198  1.00  0.00     0.041 A 
ATOM     62  F   UNL     1       2.497  12.915   0.871  1.00  0.00    -0.206 F 
ATOM     63  C   UNL     1       0.509  12.808  -2.148  1.00  0.00     0.022 A 
BRANCH  60  64
ATOM     64  S   UNL     1      -1.420  11.059  -3.144  1.00  0.00     0.124 S 
ATOM     65  O   UNL     1      -0.918   9.692  -3.259  1.00  0.00    -0.237 OA
ATOM     66  O   UNL     1      -2.746  11.208  -2.556  1.00  0.00    -0.237 OA
ATOM     67  O   UNL     1      -1.151  11.912  -4.301  1.00  0.00    -0.744 OA
ENDBRANCH  60  64
ENDBRANCH  43  57
BRANCH  44  68
ATOM     68  C   UNL     1       2.042   6.224   8.770  1.00  0.00     0.023 A 
ATOM     69  C   UNL     1       1.022   5.966   9.697  1.00  0.00     0.031 A 
ATOM     70  C   UNL     1       3.342   5.782   9.076  1.00  0.00     0.131 A 
ATOM     71  C   UNL     1       1.324   5.318  10.905  1.00  0.00     0.055 A 
ATOM     72  C   UNL     1       3.629   5.095  10.256  1.00  0.00     0.041 A 
ATOM     73  F   UNL     1       4.354   6.004   8.222  1.00  0.00    -0.206 F 
ATOM     74  C   UNL     1       2.618   4.869  11.184  1.00  0.00     0.022 A 
BRANCH  71  75
ATOM     75  S   UNL     1       0.011   5.130  12.142  1.00  0.00     0.124 S 
ATOM     76  O   UNL     1      -0.368   6.517  12.386  1.00  0.00    -0.237 OA
ATOM     77  O   UNL     1      -0.965   4.315  11.427  1.00  0.00    -0.237 OA
ATOM     78  O   UNL     1       0.684   4.461  13.254  1.00  0.00    -0.744 OA
ENDBRANCH  71  75
ENDBRANCH  44  68
BRANCH  56  79
ATOM     79  C   UNL     1       0.183  12.812   7.458  1.00  0.00     0.023 A 
ATOM     80  C   UNL     1       1.135  13.423   8.294  1.00  0.00     0.031 A 
ATOM     81  C   UNL     1      -1.140  13.284   7.503  1.00  0.00     0.131 A 
ATOM     82  C   UNL     1       0.738  14.438   9.177  1.00  0.00     0.055 A 
ATOM     83  C   UNL     1      -1.518  14.331   8.345  1.00  0.00     0.041 A 
ATOM     84  F   UNL     1      -2.088  12.734   6.728  1.00  0.00    -0.206 F 
ATOM     85  C   UNL     1      -0.579  14.905   9.197  1.00  0.00     0.022 A 
BRANCH  82  86
ATOM     86  S   UNL     1       1.948  15.086  10.363  1.00  0.00     0.124 S 
ATOM     87  O   UNL     1       2.319  13.886  11.105  1.00  0.00    -0.237 OA
ATOM     88  O   UNL     1       2.978  15.638   9.488  1.00  0.00    -0.237 OA
ATOM     89  O   UNL     1       1.188  16.075  11.124  1.00  0.00    -0.744 OA
ENDBRANCH  82  86
ENDBRANCH  56  79
ENDBRANCH  30  31
ENDBRANCH  23  25
ENDBRANCH  22  23
ENDBRANCH  21  22
ENDBRANCH   1  21
TORSDOF 17
