REMARK SMILES O=C(OCCOC(=O)c1cccc(Nc2ccnc3ccc(F)cc23)c1)c1ccc(-c2c3nc(c(-c4cc(S(=O)(=O)[O-])ccc4F)c4ccc([nH]4)c(-c4cc(S(=O)(=O)[O-])ccc4F)c4nc(c(-c5cc(S(=O)(=O)[O-])ccc5F)c5ccc2[nH]5)C=C4)C=C3)cc1
REMARK SMILES IDX 4 1 3 2 2 3 1 4 27 5 28 6 89 7 29 8 88 9 30 10 31 11 32 12
REMARK SMILES IDX 82 13 33 14 87 15 81 16 83 17 34 18 86 19 80 20 79 21 35 23
REMARK SMILES IDX 67 24 47 25 66 26 48 27 51 28 65 29 84 30 49 31 50 32 64 34
REMARK SMILES IDX 85 35 52 36 36 37 37 38 45 39 38 40 44 41 46 42 43 43 39 44
REMARK SMILES IDX 40 45 41 46 42 47 68 48 69 49 77 50 70 51 76 52 78 53 75 54
REMARK SMILES IDX 71 55 72 56 73 57 74 58 53 59 54 60 62 61 55 62 61 63 63 64
REMARK SMILES IDX 60 65 56 66 57 67 58 68 59 69 5 70 6 71 7 72 8 73 9 74 10 75
REMARK SMILES IDX 26 76 11 77 13 78 12 79 14 80 15 82 16 83 25 84 17 85 19 86
REMARK SMILES IDX 24 87 18 88 20 89 22 90 21 91 23 92
REMARK H PARENT 83 22 51 33 14 81
REMARK Flexibility Score: inf
ROOT
ATOM      1  C   UNL     1       4.043  -1.041   0.978  1.00  0.00     0.275 C 
ENDROOT
BRANCH   1   2
ATOM      2  O   UNL     1       3.071   0.020   0.935  1.00  0.00    -0.458 OA
BRANCH   2   3
ATOM      3  C   UNL     1       3.162   1.184   0.238  1.00  0.00     0.338 C 
ATOM      4  O   UNL     1       2.465   2.142   0.562  1.00  0.00    -0.246 OA
BRANCH   3   5
ATOM      5  C   UNL     1       3.906   1.246  -1.051  1.00  0.00     0.060 A 
ATOM      6  C   UNL     1       5.217   0.801  -1.246  1.00  0.00     0.016 A 
ATOM      7  C   UNL     1       3.221   1.810  -2.135  1.00  0.00     0.016 A 
ATOM      8  C   UNL     1       5.780   0.781  -2.527  1.00  0.00     0.010 A 
ATOM      9  C   UNL     1       3.783   1.803  -3.412  1.00  0.00     0.010 A 
ATOM     10  C   UNL     1       5.059   1.263  -3.621  1.00  0.00    -0.014 A 
BRANCH  10  11
ATOM     11  C   UNL     1       5.686   1.364  -4.958  1.00  0.00     0.031 A 
ATOM     12  C   UNL     1       6.164   2.711  -5.410  1.00  0.00     0.074 A 
ATOM     13  C   UNL     1       5.795   0.291  -5.764  1.00  0.00     0.049 A 
ATOM     14  N   UNL     1       6.740   3.052  -6.531  1.00  0.00    -0.248 NA
ATOM     15  C   UNL     1       5.970   3.819  -4.462  1.00  0.00     0.031 C 
ATOM     16  C   UNL     1       5.392  -1.073  -5.424  1.00  0.00     0.029 A 
ATOM     17  N   UNL     1       6.245   0.188  -7.056  1.00  0.00    -0.354 N 
ATOM     18  C   UNL     1       7.029   4.405  -6.399  1.00  0.00     0.074 A 
ATOM     19  C   UNL     1       6.460   4.840  -5.142  1.00  0.00     0.031 C 
ATOM     20  C   UNL     1       5.529  -1.857  -6.508  1.00  0.00     0.029 A 
ATOM     21  C   UNL     1       6.057  -1.056  -7.610  1.00  0.00     0.049 A 
ATOM     22  H   UNL     1       6.664   0.936  -7.541  1.00  0.00     0.167 HD
ATOM     23  C   UNL     1       7.755   5.199  -7.222  1.00  0.00     0.034 A 
ATOM     24  C   UNL     1       6.277  -1.490  -8.868  1.00  0.00     0.034 A 
ATOM     25  C   UNL     1       8.260   4.762  -8.497  1.00  0.00     0.049 A 
ATOM     26  C   UNL     1       6.938  -0.552  -9.847  1.00  0.00     0.074 A 
ATOM     27  C   UNL     1       9.014   5.462  -9.420  1.00  0.00     0.029 A 
ATOM     28  N   UNL     1       8.025   3.506  -9.044  1.00  0.00    -0.354 N 
ATOM     29  N   UNL     1       7.299   0.699  -9.673  1.00  0.00    -0.248 NA
ATOM     30  C   UNL     1       7.263  -1.095 -11.172  1.00  0.00     0.031 C 
ATOM     31  C   UNL     1       9.183   4.649 -10.549  1.00  0.00     0.029 A 
ATOM     32  C   UNL     1       8.588   3.420 -10.306  1.00  0.00     0.049 A 
ATOM     33  H   UNL     1       7.530   2.781  -8.598  1.00  0.00     0.167 HD
ATOM     34  C   UNL     1       7.944   1.076 -10.847  1.00  0.00     0.074 A 
ATOM     35  C   UNL     1       7.906  -0.077 -11.726  1.00  0.00     0.031 C 
ATOM     36  C   UNL     1       8.537   2.257 -11.162  1.00  0.00     0.034 A 
BRANCH  23  37
ATOM     37  C   UNL     1       8.001   6.606  -6.740  1.00  0.00     0.023 A 
ATOM     38  C   UNL     1       8.711   6.842  -5.546  1.00  0.00     0.031 A 
ATOM     39  C   UNL     1       7.424   7.706  -7.392  1.00  0.00     0.131 A 
ATOM     40  C   UNL     1       8.726   8.125  -4.981  1.00  0.00     0.055 A 
ATOM     41  C   UNL     1       7.519   8.998  -6.869  1.00  0.00     0.041 A 
ATOM     42  F   UNL     1       6.718   7.538  -8.521  1.00  0.00    -0.206 F 
ATOM     43  C   UNL     1       8.151   9.210  -5.646  1.00  0.00     0.022 A 
BRANCH  40  44
ATOM     44  S   UNL     1       9.332   8.311  -3.281  1.00  0.00     0.124 S 
ATOM     45  O   UNL     1       8.442   7.412  -2.550  1.00  0.00    -0.237 OA
ATOM     46  O   UNL     1      10.721   7.881  -3.392  1.00  0.00    -0.237 OA
ATOM     47  O   UNL     1       9.138   9.732  -3.001  1.00  0.00    -0.744 OA
ENDBRANCH  40  44
ENDBRANCH  23  37
BRANCH  24  48
ATOM     48  C   UNL     1       5.844  -2.854  -9.282  1.00  0.00     0.023 A 
ATOM     49  C   UNL     1       6.766  -3.862  -9.604  1.00  0.00     0.031 A 
ATOM     50  C   UNL     1       4.473  -3.149  -9.402  1.00  0.00     0.131 A 
ATOM     51  C   UNL     1       6.306  -5.107 -10.067  1.00  0.00     0.055 A 
ATOM     52  C   UNL     1       4.020  -4.396  -9.836  1.00  0.00     0.041 A 
ATOM     53  F   UNL     1       3.553  -2.223  -9.088  1.00  0.00    -0.206 F 
ATOM     54  C   UNL     1       4.940  -5.381 -10.182  1.00  0.00     0.022 A 
BRANCH  51  55
ATOM     55  S   UNL     1       7.525  -6.355 -10.569  1.00  0.00     0.124 S 
ATOM     56  O   UNL     1       8.274  -5.645 -11.598  1.00  0.00    -0.237 OA
ATOM     57  O   UNL     1       8.231  -6.602  -9.316  1.00  0.00    -0.237 OA
ATOM     58  O   UNL     1       6.701  -7.463 -11.046  1.00  0.00    -0.744 OA
ENDBRANCH  51  55
ENDBRANCH  24  48
BRANCH  36  59
ATOM     59  C   UNL     1       9.254   2.329 -12.486  1.00  0.00     0.023 A 
ATOM     60  C   UNL     1       8.560   2.325 -13.707  1.00  0.00     0.031 A 
ATOM     61  C   UNL     1      10.658   2.404 -12.517  1.00  0.00     0.131 A 
ATOM     62  C   UNL     1       9.277   2.349 -14.913  1.00  0.00     0.055 A 
ATOM     63  C   UNL     1      11.362   2.483 -13.718  1.00  0.00     0.041 A 
ATOM     64  F   UNL     1      11.367   2.408 -11.376  1.00  0.00    -0.206 F 
ATOM     65  C   UNL     1      10.671   2.446 -14.926  1.00  0.00     0.022 A 
BRANCH  62  66
ATOM     66  S   UNL     1       8.365   2.177 -16.471  1.00  0.00     0.124 S 
ATOM     67  O   UNL     1       7.750   0.863 -16.317  1.00  0.00    -0.237 OA
ATOM     68  O   UNL     1       7.455   3.317 -16.428  1.00  0.00    -0.237 OA
ATOM     69  O   UNL     1       9.410   2.258 -17.490  1.00  0.00    -0.744 OA
ENDBRANCH  62  66
ENDBRANCH  36  59
ENDBRANCH  10  11
ENDBRANCH   3   5
ENDBRANCH   2   3
ENDBRANCH   1   2
BRANCH   1  70
ATOM     70  C   UNL     1       3.801  -2.174  -0.022  1.00  0.00     0.275 C 
BRANCH  70  71
ATOM     71  O   UNL     1       3.308  -1.691  -1.279  1.00  0.00    -0.458 OA
BRANCH  71  72
ATOM     72  C   UNL     1       2.010  -1.984  -1.536  1.00  0.00     0.338 C 
ATOM     73  O   UNL     1       1.287  -2.744  -0.912  1.00  0.00    -0.246 OA
BRANCH  72  74
ATOM     74  C   UNL     1       1.509  -1.087  -2.588  1.00  0.00     0.062 A 
ATOM     75  C   UNL     1       0.448  -0.240  -2.250  1.00  0.00     0.016 A 
ATOM     76  C   UNL     1       2.043  -1.088  -3.882  1.00  0.00     0.041 A 
ATOM     77  C   UNL     1      -0.075   0.625  -3.204  1.00  0.00     0.003 A 
ATOM     78  C   UNL     1       1.509  -0.229  -4.851  1.00  0.00     0.039 A 
ATOM     79  C   UNL     1       0.445   0.619  -4.498  1.00  0.00     0.026 A 
BRANCH  78  80
ATOM     80  N   UNL     1       1.857  -0.348  -6.217  1.00  0.00    -0.355 N 
ATOM     81  H   UNL     1       2.700   0.035  -6.551  1.00  0.00     0.167 HD
BRANCH  80  82
ATOM     82  C   UNL     1       0.975  -1.027  -7.101  1.00  0.00     0.050 A 
ATOM     83  C   UNL     1       0.691  -2.371  -6.846  1.00  0.00     0.047 A 
ATOM     84  C   UNL     1       0.355  -0.383  -8.193  1.00  0.00     0.027 A 
ATOM     85  C   UNL     1      -0.280  -2.992  -7.596  1.00  0.00     0.114 A 
ATOM     86  C   UNL     1      -0.638  -1.117  -8.885  1.00  0.00     0.072 A 
ATOM     87  C   UNL     1       0.646   0.939  -8.602  1.00  0.00     0.051 A 
ATOM     88  N   UNL     1      -0.965  -2.384  -8.582  1.00  0.00    -0.256 NA
ATOM     89  C   UNL     1      -1.329  -0.502  -9.919  1.00  0.00     0.032 A 
ATOM     90  C   UNL     1      -0.049   1.510  -9.660  1.00  0.00     0.124 A 
ATOM     91  C   UNL     1      -1.044   0.805 -10.317  1.00  0.00     0.041 A 
ATOM     92  F   UNL     1       0.229   2.762 -10.045  1.00  0.00    -0.207 F 
ENDBRANCH  80  82
ENDBRANCH  78  80
ENDBRANCH  72  74
ENDBRANCH  71  72
ENDBRANCH  70  71
ENDBRANCH   1  70
TORSDOF 16
