REMARK SMILES C/C(=N/OCc1ccccc1Nc1c(Cl)cccc1Cl)C(=O)OCCOC(=O)c1ccc(-c2c3nc(c(-c4cc(S(=O)(=O)[O-])ccc4F)c4ccc([nH]4)c(-c4cc(S(=O)(=O)[O-])ccc4F)c4nc(c(-c5cc(S(=O)(=O)[O-])ccc5F)c5ccc2[nH]5)C=C4)C=C3)cc1
REMARK SMILES IDX 24 1 23 2 21 3 22 4 2 5 1 6 3 7 4 8 5 9 6 10 7 11 11 12 8 13
REMARK SMILES IDX 10 14 9 15 12 16 13 18 14 19 19 20 15 21 16 22 18 23 20 24
REMARK SMILES IDX 17 25 25 26 26 27 27 28 28 29 29 30 30 31 91 32 31 33 90 34
REMARK SMILES IDX 32 35 33 36 34 37 84 38 35 39 89 40 83 41 85 42 36 43 88 44
REMARK SMILES IDX 82 45 81 46 37 48 69 49 49 50 68 51 50 52 53 53 67 54 86 55
REMARK SMILES IDX 51 56 52 57 66 59 87 60 54 61 38 62 39 63 47 64 40 65 46 66
REMARK SMILES IDX 48 67 45 68 41 69 42 70 43 71 44 72 70 73 71 74 79 75 72 76
REMARK SMILES IDX 78 77 80 78 77 79 73 80 74 81 75 82 76 83 55 84 56 85 64 86
REMARK SMILES IDX 57 87 63 88 65 89 62 90 58 91 59 92 60 93 61 94
REMARK H PARENT 12 17 85 47 53 58
REMARK Flexibility Score: inf
ROOT
ATOM      1  C   UNL     1       0.714   3.291   3.478  1.00  0.00     0.275 C 
ENDROOT
BRANCH   1   2
ATOM      2  O   UNL     1       0.073   2.889   2.252  1.00  0.00    -0.458 OA
BRANCH   2   3
ATOM      3  C   UNL     1       0.824   2.216   1.361  1.00  0.00     0.355 C 
ATOM      4  O   UNL     1       1.997   1.902   1.491  1.00  0.00    -0.245 OA
BRANCH   3   5
ATOM      5  C   UNL     1       0.032   1.766   0.137  1.00  0.00     0.161 C 
ATOM      6  C   UNL     1       0.409   0.433  -0.454  1.00  0.00     0.079 C 
ATOM      7  N   UNL     1      -0.908   2.436  -0.458  1.00  0.00    -0.084 NA
BRANCH   7   8
ATOM      8  O   UNL     1      -1.053   3.737   0.035  1.00  0.00    -0.390 OA
BRANCH   8   9
ATOM      9  C   UNL     1      -1.696   4.522  -0.980  1.00  0.00     0.302 C 
BRANCH   9  10
ATOM     10  C   UNL     1      -0.838   4.588  -2.227  1.00  0.00     0.016 A 
ATOM     11  C   UNL     1      -1.336   4.024  -3.417  1.00  0.00     0.009 A 
ATOM     12  C   UNL     1       0.463   5.133  -2.201  1.00  0.00     0.045 A 
ATOM     13  C   UNL     1      -0.565   4.006  -4.576  1.00  0.00     0.001 A 
ATOM     14  C   UNL     1       1.218   5.114  -3.385  1.00  0.00     0.026 A 
ATOM     15  C   UNL     1       0.712   4.553  -4.560  1.00  0.00     0.002 A 
BRANCH  12  16
ATOM     16  N   UNL     1       0.981   5.689  -1.008  1.00  0.00    -0.353 N 
ATOM     17  H   UNL     1       0.516   5.417  -0.183  1.00  0.00     0.167 HD
BRANCH  16  18
ATOM     18  C   UNL     1       2.067   6.577  -0.822  1.00  0.00     0.076 A 
ATOM     19  C   UNL     1       3.112   6.236   0.062  1.00  0.00     0.066 A 
ATOM     20  C   UNL     1       2.211   7.778  -1.543  1.00  0.00     0.066 A 
ATOM     21  Cl  UNL     1       3.029   4.821   1.039  1.00  0.00    -0.082 Cl
ATOM     22  C   UNL     1       4.260   7.026   0.193  1.00  0.00     0.023 A 
ATOM     23  C   UNL     1       3.361   8.572  -1.409  1.00  0.00     0.023 A 
ATOM     24  Cl  UNL     1       0.950   8.412  -2.549  1.00  0.00    -0.082 Cl
ATOM     25  C   UNL     1       4.389   8.190  -0.552  1.00  0.00     0.003 A 
ENDBRANCH  16  18
ENDBRANCH  12  16
ENDBRANCH   9  10
ENDBRANCH   8   9
ENDBRANCH   7   8
ENDBRANCH   3   5
ENDBRANCH   2   3
ENDBRANCH   1   2
BRANCH   1  26
ATOM     26  C   UNL     1       0.235   2.438   4.655  1.00  0.00     0.275 C 
BRANCH  26  27
ATOM     27  O   UNL     1       0.834   1.129   4.628  1.00  0.00    -0.458 OA
BRANCH  27  28
ATOM     28  C   UNL     1       0.155   0.215   3.898  1.00  0.00     0.338 C 
ATOM     29  O   UNL     1      -0.909   0.372   3.325  1.00  0.00    -0.246 OA
BRANCH  28  30
ATOM     30  C   UNL     1       0.974  -0.991   3.727  1.00  0.00     0.060 A 
ATOM     31  C   UNL     1       1.532  -1.205   2.470  1.00  0.00     0.016 A 
ATOM     32  C   UNL     1       1.090  -1.956   4.723  1.00  0.00     0.016 A 
ATOM     33  C   UNL     1       2.145  -2.407   2.161  1.00  0.00     0.010 A 
ATOM     34  C   UNL     1       1.766  -3.148   4.434  1.00  0.00     0.010 A 
ATOM     35  C   UNL     1       2.277  -3.391   3.143  1.00  0.00    -0.014 A 
BRANCH  35  36
ATOM     36  C   UNL     1       2.907  -4.684   2.784  1.00  0.00     0.031 A 
ATOM     37  C   UNL     1       2.086  -5.941   2.798  1.00  0.00     0.074 A 
ATOM     38  C   UNL     1       4.196  -4.714   2.394  1.00  0.00     0.049 A 
ATOM     39  N   UNL     1       2.468  -7.182   2.647  1.00  0.00    -0.248 NA
ATOM     40  C   UNL     1       0.641  -5.777   3.020  1.00  0.00     0.031 C 
ATOM     41  C   UNL     1       5.067  -3.542   2.263  1.00  0.00     0.029 A 
ATOM     42  N   UNL     1       4.999  -5.763   2.026  1.00  0.00    -0.354 N 
ATOM     43  C   UNL     1       1.320  -7.953   2.796  1.00  0.00     0.074 A 
ATOM     44  C   UNL     1       0.232  -7.037   3.066  1.00  0.00     0.031 C 
ATOM     45  C   UNL     1       6.272  -3.936   1.826  1.00  0.00     0.029 A 
ATOM     46  C   UNL     1       6.290  -5.390   1.732  1.00  0.00     0.049 A 
ATOM     47  H   UNL     1       4.682  -6.694   1.978  1.00  0.00     0.167 HD
ATOM     48  C   UNL     1       1.195  -9.301   2.717  1.00  0.00     0.034 A 
ATOM     49  C   UNL     1       7.378  -6.139   1.466  1.00  0.00     0.034 A 
ATOM     50  C   UNL     1       2.298 -10.186   2.425  1.00  0.00     0.049 A 
ATOM     51  C   UNL     1       7.231  -7.638   1.460  1.00  0.00     0.074 A 
ATOM     52  C   UNL     1       2.293 -11.566   2.321  1.00  0.00     0.029 A 
ATOM     53  N   UNL     1       3.606  -9.777   2.188  1.00  0.00    -0.354 N 
ATOM     54  N   UNL     1       6.154  -8.363   1.663  1.00  0.00    -0.248 NA
ATOM     55  C   UNL     1       8.445  -8.420   1.198  1.00  0.00     0.031 C 
ATOM     56  C   UNL     1       3.606 -11.994   2.089  1.00  0.00     0.029 A 
ATOM     57  C   UNL     1       4.420 -10.878   1.968  1.00  0.00     0.049 A 
ATOM     58  H   UNL     1       3.910  -8.841   2.177  1.00  0.00     0.167 HD
ATOM     59  C   UNL     1       6.559  -9.687   1.534  1.00  0.00     0.074 A 
ATOM     60  C   UNL     1       7.973  -9.658   1.215  1.00  0.00     0.031 C 
ATOM     61  C   UNL     1       5.832 -10.826   1.667  1.00  0.00     0.034 A 
BRANCH  48  62
ATOM     62  C   UNL     1      -0.160  -9.893   3.023  1.00  0.00     0.023 A 
ATOM     63  C   UNL     1      -1.289  -9.637   2.225  1.00  0.00     0.031 A 
ATOM     64  C   UNL     1      -0.332 -10.698   4.164  1.00  0.00     0.131 A 
ATOM     65  C   UNL     1      -2.548 -10.119   2.618  1.00  0.00     0.055 A 
ATOM     66  C   UNL     1      -1.572 -11.242   4.505  1.00  0.00     0.041 A 
ATOM     67  F   UNL     1       0.703 -10.957   4.980  1.00  0.00    -0.206 F 
ATOM     68  C   UNL     1      -2.692 -10.941   3.738  1.00  0.00     0.022 A 
BRANCH  65  69
ATOM     69  S   UNL     1      -4.018  -9.538   1.727  1.00  0.00     0.124 S 
ATOM     70  O   UNL     1      -3.923  -8.092   1.913  1.00  0.00    -0.237 OA
ATOM     71  O   UNL     1      -3.780 -10.026   0.374  1.00  0.00    -0.237 OA
ATOM     72  O   UNL     1      -5.124 -10.179   2.436  1.00  0.00    -0.744 OA
ENDBRANCH  65  69
ENDBRANCH  48  62
BRANCH  49  73
ATOM     73  C   UNL     1       8.707  -5.494   1.260  1.00  0.00     0.023 A 
ATOM     74  C   UNL     1       9.396  -5.616   0.044  1.00  0.00     0.031 A 
ATOM     75  C   UNL     1       9.325  -4.770   2.297  1.00  0.00     0.131 A 
ATOM     76  C   UNL     1      10.677  -5.057  -0.092  1.00  0.00     0.055 A 
ATOM     77  C   UNL     1      10.573  -4.167   2.138  1.00  0.00     0.041 A 
ATOM     78  F   UNL     1       8.713  -4.625   3.484  1.00  0.00    -0.206 F 
ATOM     79  C   UNL     1      11.262  -4.320   0.940  1.00  0.00     0.022 A 
BRANCH  76  80
ATOM     80  S   UNL     1      11.610  -5.380  -1.614  1.00  0.00     0.124 S 
ATOM     81  O   UNL     1      11.657  -6.838  -1.630  1.00  0.00    -0.237 OA
ATOM     82  O   UNL     1      10.765  -4.754  -2.626  1.00  0.00    -0.237 OA
ATOM     83  O   UNL     1      12.890  -4.717  -1.376  1.00  0.00    -0.744 OA
ENDBRANCH  76  80
ENDBRANCH  49  73
BRANCH  61  84
ATOM     84  C   UNL     1       6.557 -12.126   1.421  1.00  0.00     0.023 A 
ATOM     85  C   UNL     1       7.568 -12.582   2.284  1.00  0.00     0.031 A 
ATOM     86  C   UNL     1       6.244 -12.906   0.294  1.00  0.00     0.131 A 
ATOM     87  C   UNL     1       8.272 -13.755   1.974  1.00  0.00     0.055 A 
ATOM     88  C   UNL     1       6.906 -14.104   0.025  1.00  0.00     0.041 A 
ATOM     89  F   UNL     1       5.289 -12.515  -0.565  1.00  0.00    -0.206 F 
ATOM     90  C   UNL     1       7.936 -14.528   0.860  1.00  0.00     0.022 A 
BRANCH  87  91
ATOM     91  S   UNL     1       9.701 -14.209   2.996  1.00  0.00     0.124 S 
ATOM     92  O   UNL     1      10.561 -13.039   2.851  1.00  0.00    -0.237 OA
ATOM     93  O   UNL     1       9.097 -14.397   4.311  1.00  0.00    -0.237 OA
ATOM     94  O   UNL     1      10.201 -15.429   2.364  1.00  0.00    -0.744 OA
ENDBRANCH  87  91
ENDBRANCH  61  84
ENDBRANCH  35  36
ENDBRANCH  28  30
ENDBRANCH  27  28
ENDBRANCH  26  27
ENDBRANCH   1  26
TORSDOF 19
