REMARK SMILES CCCNC(=O)N1[C@@H](C(=O)OCCOC(=O)c2ccc(-c3c4nc(c(-c5cc(S(=O)(=O)[O-])ccc5F)c5ccc([nH]5)c(-c5cc(S(=O)(=O)[O-])ccc5F)c5nc(c(-c6cc(S(=O)(=O)[O-])ccc6F)c6ccc3[nH]6)C=C5)C=C4)cc2)CC[C@H]2CCCC[C@@H]21
REMARK SMILES IDX 12 1 11 2 9 3 10 4 8 5 7 6 87 7 80 8 82 9 86 10 81 11 83 12
REMARK SMILES IDX 85 13 84 14 5 15 4 16 6 18 3 19 2 20 1 21 13 22 14 23 15 24
REMARK SMILES IDX 16 25 17 26 18 27 79 28 19 29 78 30 20 31 21 32 22 33 72 34
REMARK SMILES IDX 23 35 77 36 71 37 73 38 24 39 76 40 70 41 69 42 25 44 57 45
REMARK SMILES IDX 37 46 56 47 38 48 41 49 55 50 74 51 39 52 40 53 54 55 75 56
REMARK SMILES IDX 42 57 26 58 27 59 35 60 28 61 34 62 36 63 33 64 29 65 30 66
REMARK SMILES IDX 31 67 32 68 58 69 59 70 67 71 60 72 66 73 68 74 65 75 61 76
REMARK SMILES IDX 62 77 63 78 64 79 43 80 44 81 52 82 45 83 51 84 53 85 50 86
REMARK SMILES IDX 46 87 47 88 48 89 49 90
REMARK H PARENT 4 17 73 43 41 54
REMARK Flexibility Score: inf
ROOT
ATOM      1  C   UNL     1      -4.437  -4.768   1.300  1.00  0.00     0.274 C 
ENDROOT
BRANCH   1   2
ATOM      2  O   UNL     1      -3.696  -5.278   0.168  1.00  0.00    -0.461 OA
BRANCH   2   3
ATOM      3  C   UNL     1      -3.237  -4.362  -0.740  1.00  0.00     0.329 C 
ATOM      4  O   UNL     1      -3.503  -3.164  -0.719  1.00  0.00    -0.250 OA
BRANCH   3   5
ATOM      5  C   UNL     1      -2.330  -5.054  -1.800  1.00  0.00     0.197 C 
ATOM      6  N   UNL     1      -0.986  -4.476  -1.876  1.00  0.00    -0.308 N 
ATOM      7  C   UNL     1      -0.046  -5.055  -2.832  1.00  0.00     0.091 C 
ATOM      8  C   UNL     1      -3.003  -4.884  -3.183  1.00  0.00     0.038 C 
ATOM      9  C   UNL     1      -0.778  -5.692  -4.022  1.00  0.00     0.012 C 
ATOM     10  C   UNL     1       0.928  -6.102  -2.264  1.00  0.00     0.025 C 
ATOM     11  C   UNL     1      -2.007  -4.855  -4.363  1.00  0.00     0.008 C 
ATOM     12  C   UNL     1       0.236  -5.875  -5.149  1.00  0.00     0.006 C 
ATOM     13  C   UNL     1       1.969  -6.456  -3.334  1.00  0.00     0.002 C 
ATOM     14  C   UNL     1       1.353  -6.825  -4.691  1.00  0.00     0.000 C 
BRANCH   6  15
ATOM     15  C   UNL     1      -0.483  -3.940  -0.735  1.00  0.00     0.318 C 
ATOM     16  N   UNL     1       0.059  -2.704  -0.816  1.00  0.00    -0.338 N 
ATOM     17  H   UNL     1       0.331  -2.325   0.052  1.00  0.00     0.165 HD
ATOM     18  O   UNL     1      -0.639  -4.514   0.336  1.00  0.00    -0.249 OA
BRANCH  16  19
ATOM     19  C   UNL     1       0.313  -1.835  -1.949  1.00  0.00     0.117 C 
BRANCH  19  20
ATOM     20  C   UNL     1      -0.371  -0.475  -1.824  1.00  0.00     0.018 C 
ATOM     21  C   UNL     1       0.162   0.378  -0.684  1.00  0.00     0.006 C 
ENDBRANCH  19  20
ENDBRANCH  16  19
ENDBRANCH   6  15
ENDBRANCH   3   5
ENDBRANCH   2   3
ENDBRANCH   1   2
BRANCH   1  22
ATOM     22  C   UNL     1      -3.830  -5.286   2.612  1.00  0.00     0.275 C 
BRANCH  22  23
ATOM     23  O   UNL     1      -2.602  -4.585   2.869  1.00  0.00    -0.458 OA
BRANCH  23  24
ATOM     24  C   UNL     1      -1.711  -5.181   3.709  1.00  0.00     0.338 C 
ATOM     25  O   UNL     1      -1.922  -6.181   4.373  1.00  0.00    -0.246 OA
BRANCH  24  26
ATOM     26  C   UNL     1      -0.404  -4.454   3.667  1.00  0.00     0.060 A 
ATOM     27  C   UNL     1      -0.228  -3.388   2.799  1.00  0.00     0.016 A 
ATOM     28  C   UNL     1       0.708  -4.894   4.396  1.00  0.00     0.016 A 
ATOM     29  C   UNL     1       1.058  -2.929   2.514  1.00  0.00     0.010 A 
ATOM     30  C   UNL     1       1.985  -4.313   4.194  1.00  0.00     0.010 A 
ATOM     31  C   UNL     1       2.204  -3.359   3.186  1.00  0.00    -0.014 A 
BRANCH  31  32
ATOM     32  C   UNL     1       3.567  -2.880   2.719  1.00  0.00     0.031 A 
ATOM     33  C   UNL     1       4.727  -3.849   2.608  1.00  0.00     0.074 A 
ATOM     34  C   UNL     1       3.788  -1.622   2.257  1.00  0.00     0.049 A 
ATOM     35  N   UNL     1       6.010  -3.593   2.516  1.00  0.00    -0.248 NA
ATOM     36  C   UNL     1       4.413  -5.284   2.632  1.00  0.00     0.031 C 
ATOM     37  C   UNL     1       2.796  -0.547   2.185  1.00  0.00     0.029 A 
ATOM     38  N   UNL     1       4.907  -1.040   1.693  1.00  0.00    -0.354 N 
ATOM     39  C   UNL     1       6.657  -4.822   2.621  1.00  0.00     0.074 A 
ATOM     40  C   UNL     1       5.619  -5.825   2.731  1.00  0.00     0.031 C 
ATOM     41  C   UNL     1       3.282   0.468   1.458  1.00  0.00     0.029 A 
ATOM     42  C   UNL     1       4.696   0.236   1.210  1.00  0.00     0.049 A 
ATOM     43  H   UNL     1       5.778  -1.496   1.641  1.00  0.00     0.167 HD
ATOM     44  C   UNL     1       7.992  -5.072   2.660  1.00  0.00     0.034 A 
ATOM     45  C   UNL     1       5.540   1.164   0.706  1.00  0.00     0.034 A 
ATOM     46  C   UNL     1       9.007  -4.069   2.426  1.00  0.00     0.049 A 
ATOM     47  C   UNL     1       7.019   0.873   0.744  1.00  0.00     0.074 A 
ATOM     48  C   UNL     1      10.385  -4.194   2.500  1.00  0.00     0.029 A 
ATOM     49  N   UNL     1       8.755  -2.764   2.021  1.00  0.00    -0.354 N 
ATOM     50  N   UNL     1       7.635  -0.230   1.098  1.00  0.00    -0.248 NA
ATOM     51  C   UNL     1       7.917   1.977   0.383  1.00  0.00     0.031 C 
ATOM     52  C   UNL     1      10.961  -2.955   2.188  1.00  0.00     0.029 A 
ATOM     53  C   UNL     1       9.948  -2.075   1.849  1.00  0.00     0.049 A 
ATOM     54  H   UNL     1       7.859  -2.383   1.877  1.00  0.00     0.167 HD
ATOM     55  C   UNL     1       8.994   0.061   1.034  1.00  0.00     0.074 A 
ATOM     56  C   UNL     1       9.107   1.418   0.541  1.00  0.00     0.031 C 
ATOM     57  C   UNL     1      10.053  -0.712   1.385  1.00  0.00     0.034 A 
BRANCH  44  58
ATOM     58  C   UNL     1       8.424  -6.454   3.098  1.00  0.00     0.023 A 
ATOM     59  C   UNL     1       8.175  -7.613   2.345  1.00  0.00     0.031 A 
ATOM     60  C   UNL     1       9.062  -6.606   4.345  1.00  0.00     0.131 A 
ATOM     61  C   UNL     1       8.489  -8.873   2.882  1.00  0.00     0.055 A 
ATOM     62  C   UNL     1       9.448  -7.854   4.834  1.00  0.00     0.041 A 
ATOM     63  F   UNL     1       9.308  -5.538   5.122  1.00  0.00    -0.206 F 
ATOM     64  C   UNL     1       9.146  -9.001   4.109  1.00  0.00     0.022 A 
BRANCH  61  65
ATOM     65  S   UNL     1       7.887 -10.357   2.028  1.00  0.00     0.124 S 
ATOM     66  O   UNL     1       6.445 -10.124   2.014  1.00  0.00    -0.237 OA
ATOM     67  O   UNL     1       8.560 -10.273   0.737  1.00  0.00    -0.237 OA
ATOM     68  O   UNL     1       8.325 -11.453   2.890  1.00  0.00    -0.744 OA
ENDBRANCH  61  65
ENDBRANCH  44  58
BRANCH  45  69
ATOM     69  C   UNL     1       5.049   2.511   0.263  1.00  0.00     0.023 A 
ATOM     70  C   UNL     1       5.301   2.986  -1.037  1.00  0.00     0.031 A 
ATOM     71  C   UNL     1       4.378   3.376   1.148  1.00  0.00     0.131 A 
ATOM     72  C   UNL     1       4.909   4.287  -1.399  1.00  0.00     0.055 A 
ATOM     73  C   UNL     1       3.914   4.632   0.756  1.00  0.00     0.041 A 
ATOM     74  F   UNL     1       4.144   3.006   2.418  1.00  0.00    -0.206 F 
ATOM     75  C   UNL     1       4.190   5.100  -0.522  1.00  0.00     0.022 A 
BRANCH  72  76
ATOM     76  S   UNL     1       5.447   4.951  -3.001  1.00  0.00     0.124 S 
ATOM     77  O   UNL     1       6.899   4.868  -2.883  1.00  0.00    -0.237 OA
ATOM     78  O   UNL     1       4.825   4.024  -3.940  1.00  0.00    -0.237 OA
ATOM     79  O   UNL     1       4.898   6.306  -3.009  1.00  0.00    -0.744 OA
ENDBRANCH  72  76
ENDBRANCH  45  69
BRANCH  57  80
ATOM     80  C   UNL     1      11.421  -0.094   1.231  1.00  0.00     0.023 A 
ATOM     81  C   UNL     1      11.826   0.997   2.022  1.00  0.00     0.031 A 
ATOM     82  C   UNL     1      12.309  -0.567   0.250  1.00  0.00     0.131 A 
ATOM     83  C   UNL     1      13.058   1.621   1.773  1.00  0.00     0.055 A 
ATOM     84  C   UNL     1      13.559   0.021   0.048  1.00  0.00     0.041 A 
ATOM     85  F   UNL     1      11.972  -1.602  -0.536  1.00  0.00    -0.206 F 
ATOM     86  C   UNL     1      13.933   1.131   0.801  1.00  0.00     0.022 A 
BRANCH  83  87
ATOM     87  S   UNL     1      13.454   3.153   2.662  1.00  0.00     0.124 S 
ATOM     88  O   UNL     1      12.331   4.013   2.303  1.00  0.00    -0.237 OA
ATOM     89  O   UNL     1      13.498   2.706   4.051  1.00  0.00    -0.237 OA
ATOM     90  O   UNL     1      14.744   3.552   2.100  1.00  0.00    -0.744 OA
ENDBRANCH  83  87
ENDBRANCH  57  80
ENDBRANCH  31  32
ENDBRANCH  24  26
ENDBRANCH  23  24
ENDBRANCH  22  23
ENDBRANCH   1  22
TORSDOF 17
