REMARK SMILES Cc1cccc(N2C(=O)/C(=C/c3ccc(C(=O)OCCOC(=O)c4ccc(-c5c6nc(c(-c7cc(S(=O)(=O)[O-])ccc7F)c7ccc([nH]7)c(-c7cc(S(=O)(=O)[O-])ccc7F)c7nc(c(-c8cc(S(=O)(=O)[O-])ccc8F)c8ccc5[nH]8)C=C7)C=C6)cc4)cc3)c3ccccc3C2=O)c1
REMARK SMILES IDX 20 1 19 2 18 3 16 4 17 5 15 6 12 7 13 8 88 9 14 10 87 11
REMARK SMILES IDX 11 12 7 13 8 14 95 15 9 16 10 17 94 18 96 19 89 20 93 21
REMARK SMILES IDX 90 22 92 23 91 24 6 25 1 26 2 27 3 28 97 29 4 30 5 31 21 32
REMARK SMILES IDX 22 33 23 34 24 35 25 36 86 37 26 38 85 39 27 40 28 41 29 42
REMARK SMILES IDX 79 43 30 44 84 45 78 46 80 47 31 48 83 49 77 50 76 51 32 53
REMARK SMILES IDX 64 54 44 55 63 56 45 57 48 58 62 59 81 60 46 61 47 62 61 64
REMARK SMILES IDX 82 65 49 66 33 67 34 68 42 69 35 70 41 71 43 72 40 73 36 74
REMARK SMILES IDX 37 75 38 76 39 77 65 78 66 79 74 80 67 81 73 82 75 83 72 84
REMARK SMILES IDX 68 85 69 86 70 87 71 88 50 89 51 90 59 91 52 92 58 93 60 94
REMARK SMILES IDX 57 95 53 96 54 97 55 98 56 99
REMARK H PARENT 80 52 48 63
REMARK Flexibility Score: inf
ROOT
ATOM      1  C   UNL     1      -4.078  13.851   1.698  1.00  0.00     0.275 C 
ENDROOT
BRANCH   1   2
ATOM      2  C   UNL     1      -4.770  12.484   1.567  1.00  0.00     0.275 C 
BRANCH   2   3
ATOM      3  O   UNL     1      -3.917  11.435   1.099  1.00  0.00    -0.458 OA
BRANCH   3   4
ATOM      4  C   UNL     1      -4.630  10.342   0.705  1.00  0.00     0.338 C 
ATOM      5  O   UNL     1      -5.810  10.166   0.928  1.00  0.00    -0.246 OA
BRANCH   4   6
ATOM      6  C   UNL     1      -3.792   9.326   0.013  1.00  0.00     0.060 A 
ATOM      7  C   UNL     1      -2.300   7.110  -0.772  1.00  0.00    -0.025 A 
ATOM      8  C   UNL     1      -1.656   8.328  -0.533  1.00  0.00     0.009 A 
ATOM      9  C   UNL     1      -3.696   7.064  -0.847  1.00  0.00     0.009 A 
ATOM     10  C   UNL     1      -2.404   9.438  -0.130  1.00  0.00     0.016 A 
ATOM     11  C   UNL     1      -4.439   8.163  -0.426  1.00  0.00     0.016 A 
BRANCH   7  12
ATOM     12  C   UNL     1      -1.533   5.861  -0.688  1.00  0.00     0.022 C 
ATOM     13  N   UNL     1      -1.670   2.477   0.445  1.00  0.00    -0.242 N 
ATOM     14  C   UNL     1      -0.959   3.651   0.110  1.00  0.00     0.265 C 
ATOM     15  C   UNL     1      -3.018   2.533   0.880  1.00  0.00     0.265 C 
ATOM     16  O   UNL     1       0.181   3.733  -0.344  1.00  0.00    -0.268 OA
ATOM     17  C   UNL     1      -1.734   4.921   0.270  1.00  0.00     0.049 C 
ATOM     18  C   UNL     1      -3.478   3.792   1.516  1.00  0.00     0.048 A 
ATOM     19  O   UNL     1      -3.856   1.635   0.835  1.00  0.00    -0.268 OA
ATOM     20  C   UNL     1      -2.757   4.962   1.320  1.00  0.00    -0.000 A 
ATOM     21  C   UNL     1      -4.623   3.794   2.329  1.00  0.00     0.014 A 
ATOM     22  C   UNL     1      -3.096   6.098   2.070  1.00  0.00     0.010 A 
ATOM     23  C   UNL     1      -5.017   4.960   2.985  1.00  0.00     0.001 A 
ATOM     24  C   UNL     1      -4.237   6.106   2.876  1.00  0.00     0.001 A 
BRANCH  13  25
ATOM     25  C   UNL     1      -1.023   1.175   0.256  1.00  0.00     0.053 A 
ATOM     26  C   UNL     1       2.529  -0.257  -0.031  1.00  0.00     0.044 C 
ATOM     27  C   UNL     1       1.032  -0.188   0.033  1.00  0.00    -0.049 A 
ATOM     28  C   UNL     1       0.271  -1.349  -0.078  1.00  0.00     0.003 A 
ATOM     29  C   UNL     1       0.381   1.046   0.222  1.00  0.00     0.030 A 
ATOM     30  C   UNL     1      -1.113  -1.266  -0.024  1.00  0.00     0.002 A 
ATOM     31  C   UNL     1      -1.745  -0.025   0.133  1.00  0.00     0.027 A 
ENDBRANCH  13  25
ENDBRANCH   7  12
ENDBRANCH   4   6
ENDBRANCH   3   4
ENDBRANCH   2   3
ENDBRANCH   1   2
BRANCH   1  32
ATOM     32  O   UNL     1      -2.954  14.227   0.855  1.00  0.00    -0.458 OA
BRANCH  32  33
ATOM     33  C   UNL     1      -2.500  13.543  -0.223  1.00  0.00     0.338 C 
ATOM     34  O   UNL     1      -1.334  13.162  -0.303  1.00  0.00    -0.246 OA
BRANCH  33  35
ATOM     35  C   UNL     1      -3.515  13.177  -1.230  1.00  0.00     0.060 A 
ATOM     36  C   UNL     1      -3.285  12.063  -2.059  1.00  0.00     0.016 A 
ATOM     37  C   UNL     1      -4.758  13.796  -1.195  1.00  0.00     0.016 A 
ATOM     38  C   UNL     1      -4.342  11.484  -2.752  1.00  0.00     0.010 A 
ATOM     39  C   UNL     1      -5.827  13.137  -1.741  1.00  0.00     0.010 A 
ATOM     40  C   UNL     1      -5.614  12.014  -2.553  1.00  0.00    -0.014 A 
BRANCH  40  41
ATOM     41  C   UNL     1      -6.761  11.698  -3.381  1.00  0.00     0.031 A 
ATOM     42  C   UNL     1      -7.552  10.466  -3.187  1.00  0.00     0.074 A 
ATOM     43  C   UNL     1      -7.072  12.726  -4.205  1.00  0.00     0.049 A 
ATOM     44  N   UNL     1      -8.185   9.850  -4.123  1.00  0.00    -0.248 NA
ATOM     45  C   UNL     1      -7.668   9.773  -1.902  1.00  0.00     0.031 C 
ATOM     46  C   UNL     1      -8.271  12.994  -4.971  1.00  0.00     0.029 A 
ATOM     47  N   UNL     1      -6.254  13.805  -4.563  1.00  0.00    -0.354 N 
ATOM     48  C   UNL     1      -9.085   8.999  -3.502  1.00  0.00     0.074 A 
ATOM     49  C   UNL     1      -8.582   8.828  -2.165  1.00  0.00     0.031 C 
ATOM     50  C   UNL     1      -7.966  13.893  -5.932  1.00  0.00     0.029 A 
ATOM     51  C   UNL     1      -6.521  14.091  -5.890  1.00  0.00     0.049 A 
ATOM     52  H   UNL     1      -5.611  14.271  -3.981  1.00  0.00     0.167 HD
ATOM     53  C   UNL     1     -10.293   8.766  -4.096  1.00  0.00     0.034 A 
ATOM     54  C   UNL     1      -5.637  13.760  -6.883  1.00  0.00     0.034 A 
ATOM     55  C   UNL     1     -10.387   9.566  -5.311  1.00  0.00     0.049 A 
ATOM     56  C   UNL     1      -6.286  12.758  -7.812  1.00  0.00     0.074 A 
ATOM     57  C   UNL     1     -10.986  10.792  -5.546  1.00  0.00     0.029 A 
ATOM     58  N   UNL     1      -9.536   9.317  -6.371  1.00  0.00    -0.354 N 
ATOM     59  N   UNL     1      -7.105  11.819  -7.415  1.00  0.00    -0.248 NA
ATOM     60  C   UNL     1      -6.156  12.827  -9.262  1.00  0.00     0.031 C 
ATOM     61  C   UNL     1     -10.438  11.310  -6.745  1.00  0.00     0.029 A 
ATOM     62  C   UNL     1      -9.514  10.398  -7.224  1.00  0.00     0.049 A 
ATOM     63  H   UNL     1      -9.020   8.488  -6.498  1.00  0.00     0.167 HD
ATOM     64  C   UNL     1      -7.699  11.254  -8.517  1.00  0.00     0.074 A 
ATOM     65  C   UNL     1      -7.044  11.895  -9.647  1.00  0.00     0.031 C 
ATOM     66  C   UNL     1      -8.726  10.355  -8.437  1.00  0.00     0.034 A 
BRANCH  53  67
ATOM     67  C   UNL     1     -11.535   8.159  -3.476  1.00  0.00     0.023 A 
ATOM     68  C   UNL     1     -12.788   8.498  -4.042  1.00  0.00     0.031 A 
ATOM     69  C   UNL     1     -11.594   7.281  -2.382  1.00  0.00     0.131 A 
ATOM     70  C   UNL     1     -14.005   8.067  -3.492  1.00  0.00     0.055 A 
ATOM     71  C   UNL     1     -12.813   6.848  -1.825  1.00  0.00     0.041 A 
ATOM     72  F   UNL     1     -10.486   6.774  -1.825  1.00  0.00    -0.206 F 
ATOM     73  C   UNL     1     -14.027   7.250  -2.372  1.00  0.00     0.022 A 
BRANCH  70  74
ATOM     74  S   UNL     1     -15.548   8.620  -4.271  1.00  0.00     0.124 S 
ATOM     75  O   UNL     1     -15.477  10.068  -4.099  1.00  0.00    -0.237 OA
ATOM     76  O   UNL     1     -15.406   8.124  -5.635  1.00  0.00    -0.237 OA
ATOM     77  O   UNL     1     -16.583   7.956  -3.479  1.00  0.00    -0.744 OA
ENDBRANCH  70  74
ENDBRANCH  53  67
BRANCH  54  78
ATOM     78  C   UNL     1      -4.192  13.756  -6.475  1.00  0.00     0.023 A 
ATOM     79  C   UNL     1      -3.672  14.937  -5.899  1.00  0.00     0.031 A 
ATOM     80  C   UNL     1      -3.441  12.582  -6.317  1.00  0.00     0.131 A 
ATOM     81  C   UNL     1      -2.549  14.890  -5.055  1.00  0.00     0.055 A 
ATOM     82  C   UNL     1      -2.278  12.554  -5.527  1.00  0.00     0.041 A 
ATOM     83  F   UNL     1      -3.864  11.420  -6.833  1.00  0.00    -0.206 F 
ATOM     84  C   UNL     1      -1.850  13.701  -4.858  1.00  0.00     0.022 A 
BRANCH  81  85
ATOM     85  S   UNL     1      -2.200  16.343  -4.017  1.00  0.00     0.124 S 
ATOM     86  O   UNL     1      -1.649  17.285  -4.984  1.00  0.00    -0.237 OA
ATOM     87  O   UNL     1      -3.525  16.664  -3.491  1.00  0.00    -0.237 OA
ATOM     88  O   UNL     1      -1.259  15.837  -3.022  1.00  0.00    -0.744 OA
ENDBRANCH  81  85
ENDBRANCH  54  78
BRANCH  66  89
ATOM     89  C   UNL     1      -9.185   9.437  -9.542  1.00  0.00     0.023 A 
ATOM     90  C   UNL     1      -8.447   9.261 -10.711  1.00  0.00     0.031 A 
ATOM     91  C   UNL     1     -10.340   8.621  -9.417  1.00  0.00     0.131 A 
ATOM     92  C   UNL     1      -8.908   8.432 -11.741  1.00  0.00     0.055 A 
ATOM     93  C   UNL     1     -10.736   7.708 -10.395  1.00  0.00     0.041 A 
ATOM     94  F   UNL     1     -11.130   8.655  -8.334  1.00  0.00    -0.206 F 
ATOM     95  C   UNL     1     -10.033   7.629 -11.584  1.00  0.00     0.022 A 
BRANCH  92  96
ATOM     96  S   UNL     1      -8.050   8.536 -13.326  1.00  0.00     0.124 S 
ATOM     97  O   UNL     1      -8.255   9.938 -13.682  1.00  0.00    -0.237 OA
ATOM     98  O   UNL     1      -6.683   8.171 -12.966  1.00  0.00    -0.237 OA
ATOM     99  O   UNL     1      -8.756   7.570 -14.163  1.00  0.00    -0.744 OA
ENDBRANCH  92  96
ENDBRANCH  66  89
ENDBRANCH  40  41
ENDBRANCH  33  35
ENDBRANCH  32  33
ENDBRANCH   1  32
TORSDOF 16
