REMARK SMILES COc1cc([C@@H]2[NH2+][C@H](C(=O)OCCOC(=O)c3ccc(-c4c5nc(c(-c6cc(S(=O)(=O)[O-])ccc6F)c6ccc([nH]6)c(-c6cc(S(=O)(=O)[O-])ccc6F)c6nc(c(-c7cc(S(=O)(=O)[O-])ccc7F)c7ccc4[nH]7)C=C6)C=C5)cc3)CS2)ccc1OCc1ccc(Cl)cc1
REMARK SMILES IDX 12 1 11 2 9 3 10 4 8 5 6 6 7 7 81 8 80 11 5 12 3 13 4 14
REMARK SMILES IDX 84 15 83 16 82 17 2 18 1 19 85 20 86 21 87 22 88 23 93 24
REMARK SMILES IDX 89 25 92 26 90 27 91 28 13 29 14 30 15 31 16 32 17 33 18 34
REMARK SMILES IDX 79 35 19 36 78 37 20 38 21 39 22 40 72 41 23 42 77 43 71 44
REMARK SMILES IDX 73 45 24 46 76 47 70 48 69 49 25 51 57 52 37 53 56 54 38 55
REMARK SMILES IDX 41 56 55 57 74 58 39 59 40 60 54 62 75 63 42 64 26 65 27 66
REMARK SMILES IDX 35 67 28 68 34 69 36 70 33 71 29 72 30 73 31 74 32 75 58 76
REMARK SMILES IDX 59 77 67 78 60 79 66 80 68 81 65 82 61 83 62 84 63 85 64 86
REMARK SMILES IDX 43 87 44 88 52 89 45 90 51 91 53 92 50 93 46 94 47 95 48 96
REMARK SMILES IDX 49 97
REMARK H PARENT 7 9 7 10 73 50 41 61
REMARK Flexibility Score: inf
ROOT
ATOM      1  C   UNL     1       4.325   3.891  -4.677  1.00  0.00     0.274 C 
ENDROOT
BRANCH   1   2
ATOM      2  O   UNL     1       2.928   4.237  -4.720  1.00  0.00    -0.458 OA
BRANCH   2   3
ATOM      3  C   UNL     1       2.594   5.540  -4.886  1.00  0.00     0.365 C 
ATOM      4  O   UNL     1       3.407   6.455  -4.978  1.00  0.00    -0.245 OA
BRANCH   3   5
ATOM      5  C   UNL     1       1.077   5.786  -4.959  1.00  0.00     0.304 C 
ATOM      6  C   UNL     1      -0.310   4.427  -3.526  1.00  0.00     0.274 C 
ATOM      7  N   UNL     1       0.247   4.557  -4.869  1.00  0.00    -0.319 N 
ATOM      8  S   UNL     1      -0.638   6.093  -2.920  1.00  0.00    -0.087 SA
ATOM      9  H   UNL     1      -0.514   4.612  -5.546  1.00  0.00     0.348 HD
ATOM     10  H   UNL     1       0.830   3.744  -5.070  1.00  0.00     0.348 HD
ATOM     11  C   UNL     1       0.657   6.841  -3.936  1.00  0.00     0.153 C 
BRANCH   6  12
ATOM     12  C   UNL     1       0.570   3.571  -2.632  1.00  0.00     0.024 A 
ATOM     13  C   UNL     1       1.177   1.335  -1.823  1.00  0.00     0.161 A 
ATOM     14  C   UNL     1       0.322   2.187  -2.541  1.00  0.00     0.061 A 
ATOM     15  C   UNL     1       2.344   1.851  -1.252  1.00  0.00     0.161 A 
ATOM     16  C   UNL     1       2.595   3.221  -1.338  1.00  0.00     0.051 A 
ATOM     17  C   UNL     1       1.703   4.075  -1.979  1.00  0.00     0.015 A 
BRANCH  13  18
ATOM     18  O   UNL     1       0.910  -0.007  -1.758  1.00  0.00    -0.493 OA
ATOM     19  C   UNL     1      -0.377  -0.280  -1.200  1.00  0.00     0.278 C 
ENDBRANCH  13  18
BRANCH  15  20
ATOM     20  O   UNL     1       3.317   1.184  -0.557  1.00  0.00    -0.485 OA
BRANCH  20  21
ATOM     21  C   UNL     1       2.946   0.066   0.250  1.00  0.00     0.265 C 
BRANCH  21  22
ATOM     22  C   UNL     1       1.942   0.348   1.355  1.00  0.00    -0.011 A 
ATOM     23  C   UNL     1       1.655   1.649   1.799  1.00  0.00     0.009 A 
ATOM     24  C   UNL     1       1.270  -0.727   1.954  1.00  0.00     0.009 A 
ATOM     25  C   UNL     1       0.650   1.880   2.739  1.00  0.00     0.021 A 
ATOM     26  C   UNL     1       0.281  -0.500   2.915  1.00  0.00     0.021 A 
ATOM     27  C   UNL     1      -0.039   0.803   3.286  1.00  0.00     0.041 A 
ATOM     28  Cl  UNL     1      -1.296   1.085   4.426  1.00  0.00    -0.084 Cl
ENDBRANCH  21  22
ENDBRANCH  20  21
ENDBRANCH  15  20
ENDBRANCH   6  12
ENDBRANCH   3   5
ENDBRANCH   2   3
ENDBRANCH   1   2
BRANCH   1  29
ATOM     29  C   UNL     1       4.599   2.776  -5.684  1.00  0.00     0.275 C 
BRANCH  29  30
ATOM     30  O   UNL     1       4.425   3.282  -7.018  1.00  0.00    -0.458 OA
BRANCH  30  31
ATOM     31  C   UNL     1       3.185   3.111  -7.537  1.00  0.00     0.338 C 
ATOM     32  O   UNL     1       2.261   2.465  -7.081  1.00  0.00    -0.246 OA
BRANCH  31  33
ATOM     33  C   UNL     1       3.068   3.973  -8.718  1.00  0.00     0.060 A 
ATOM     34  C   UNL     1       2.289   5.127  -8.619  1.00  0.00     0.016 A 
ATOM     35  C   UNL     1       3.687   3.627  -9.917  1.00  0.00     0.016 A 
ATOM     36  C   UNL     1       2.119   5.952  -9.726  1.00  0.00     0.010 A 
ATOM     37  C   UNL     1       3.523   4.459 -11.026  1.00  0.00     0.010 A 
ATOM     38  C   UNL     1       2.734   5.621 -10.938  1.00  0.00    -0.014 A 
BRANCH  38  39
ATOM     39  C   UNL     1       2.521   6.464 -12.136  1.00  0.00     0.031 A 
ATOM     40  C   UNL     1       1.670   5.945 -13.258  1.00  0.00     0.074 A 
ATOM     41  C   UNL     1       3.109   7.672 -12.217  1.00  0.00     0.049 A 
ATOM     42  N   UNL     1       1.492   6.432 -14.457  1.00  0.00    -0.248 NA
ATOM     43  C   UNL     1       0.928   4.702 -12.992  1.00  0.00     0.031 C 
ATOM     44  C   UNL     1       3.911   8.291 -11.160  1.00  0.00     0.029 A 
ATOM     45  N   UNL     1       3.141   8.586 -13.239  1.00  0.00    -0.354 N 
ATOM     46  C   UNL     1       0.645   5.540 -15.105  1.00  0.00     0.074 A 
ATOM     47  C   UNL     1       0.353   4.478 -14.165  1.00  0.00     0.031 C 
ATOM     48  C   UNL     1       4.372   9.474 -11.596  1.00  0.00     0.029 A 
ATOM     49  C   UNL     1       3.954   9.666 -12.981  1.00  0.00     0.049 A 
ATOM     50  H   UNL     1       2.631   8.480 -14.074  1.00  0.00     0.167 HD
ATOM     51  C   UNL     1       0.165   5.608 -16.370  1.00  0.00     0.034 A 
ATOM     52  C   UNL     1       4.359  10.665 -13.790  1.00  0.00     0.034 A 
ATOM     53  C   UNL     1       0.470   6.685 -17.281  1.00  0.00     0.049 A 
ATOM     54  C   UNL     1       3.865  10.681 -15.216  1.00  0.00     0.074 A 
ATOM     55  C   UNL     1       0.020   6.874 -18.576  1.00  0.00     0.029 A 
ATOM     56  N   UNL     1       1.313   7.752 -16.995  1.00  0.00    -0.354 N 
ATOM     57  N   UNL     1       3.071   9.830 -15.824  1.00  0.00    -0.248 NA
ATOM     58  C   UNL     1       4.323  11.789 -16.062  1.00  0.00     0.031 C 
ATOM     59  C   UNL     1       0.645   8.014 -19.094  1.00  0.00     0.029 A 
ATOM     60  C   UNL     1       1.425   8.582 -18.099  1.00  0.00     0.049 A 
ATOM     61  H   UNL     1       1.765   7.898 -16.132  1.00  0.00     0.167 HD
ATOM     62  C   UNL     1       2.919  10.312 -17.120  1.00  0.00     0.074 A 
ATOM     63  C   UNL     1       3.687  11.539 -17.197  1.00  0.00     0.031 C 
ATOM     64  C   UNL     1       2.210   9.793 -18.156  1.00  0.00     0.034 A 
BRANCH  51  65
ATOM     65  C   UNL     1      -0.676   4.454 -16.859  1.00  0.00     0.023 A 
ATOM     66  C   UNL     1      -1.935   4.159 -16.308  1.00  0.00     0.031 A 
ATOM     67  C   UNL     1      -0.194   3.619 -17.884  1.00  0.00     0.131 A 
ATOM     68  C   UNL     1      -2.640   3.024 -16.741  1.00  0.00     0.055 A 
ATOM     69  C   UNL     1      -0.932   2.535 -18.361  1.00  0.00     0.041 A 
ATOM     70  F   UNL     1       1.012   3.838 -18.431  1.00  0.00    -0.206 F 
ATOM     71  C   UNL     1      -2.158   2.224 -17.780  1.00  0.00     0.022 A 
BRANCH  68  72
ATOM     72  S   UNL     1      -4.138   2.535 -15.844  1.00  0.00     0.124 S 
ATOM     73  O   UNL     1      -3.620   2.328 -14.493  1.00  0.00    -0.237 OA
ATOM     74  O   UNL     1      -5.007   3.692 -16.024  1.00  0.00    -0.237 OA
ATOM     75  O   UNL     1      -4.569   1.319 -16.531  1.00  0.00    -0.744 OA
ENDBRANCH  68  72
ENDBRANCH  51  65
BRANCH  52  76
ATOM     76  C   UNL     1       5.335  11.683 -13.305  1.00  0.00     0.023 A 
ATOM     77  C   UNL     1       4.994  13.041 -13.229  1.00  0.00     0.031 A 
ATOM     78  C   UNL     1       6.647  11.313 -12.954  1.00  0.00     0.131 A 
ATOM     79  C   UNL     1       5.963  13.986 -12.854  1.00  0.00     0.055 A 
ATOM     80  C   UNL     1       7.590  12.249 -12.527  1.00  0.00     0.041 A 
ATOM     81  F   UNL     1       7.029  10.027 -13.011  1.00  0.00    -0.206 F 
ATOM     82  C   UNL     1       7.254  13.597 -12.489  1.00  0.00     0.022 A 
BRANCH  79  83
ATOM     83  S   UNL     1       5.537  15.747 -12.940  1.00  0.00     0.124 S 
ATOM     84  O   UNL     1       5.132  15.888 -14.334  1.00  0.00    -0.237 OA
ATOM     85  O   UNL     1       4.471  15.848 -11.949  1.00  0.00    -0.237 OA
ATOM     86  O   UNL     1       6.785  16.417 -12.581  1.00  0.00    -0.744 OA
ENDBRANCH  79  83
ENDBRANCH  52  76
BRANCH  64  87
ATOM     87  C   UNL     1       2.211  10.581 -19.442  1.00  0.00     0.023 A 
ATOM     88  C   UNL     1       3.372  10.722 -20.220  1.00  0.00     0.031 A 
ATOM     89  C   UNL     1       1.035  11.213 -19.884  1.00  0.00     0.131 A 
ATOM     90  C   UNL     1       3.347  11.523 -21.372  1.00  0.00     0.055 A 
ATOM     91  C   UNL     1       1.000  11.958 -21.062  1.00  0.00     0.041 A 
ATOM     92  F   UNL     1      -0.102  11.112 -19.176  1.00  0.00    -0.206 F 
ATOM     93  C   UNL     1       2.164  12.127 -21.807  1.00  0.00     0.022 A 
BRANCH  90  94
ATOM     94  S   UNL     1       4.903  11.838 -22.248  1.00  0.00     0.124 S 
ATOM     95  O   UNL     1       5.711  12.473 -21.211  1.00  0.00    -0.237 OA
ATOM     96  O   UNL     1       5.316  10.496 -22.645  1.00  0.00    -0.237 OA
ATOM     97  O   UNL     1       4.506  12.715 -23.348  1.00  0.00    -0.744 OA
ENDBRANCH  90  94
ENDBRANCH  64  87
ENDBRANCH  38  39
ENDBRANCH  31  33
ENDBRANCH  30  31
ENDBRANCH  29  30
ENDBRANCH   1  29
TORSDOF 19
