REMARK SMILES O=C(CCC(=O)OCCOC(=O)c1ccc(-c2c3nc(c(-c4cc(S(=O)(=O)[O-])ccc4F)c4ccc([nH]4)c(-c4cc(S(=O)(=O)[O-])ccc4F)c4nc(c(-c5cc(S(=O)(=O)[O-])ccc5F)c5ccc2[nH]5)C=C4)C=C3)cc1)Nc1cccc2c1C(=O)c1ccccc1C2=O
REMARK SMILES IDX 8 1 7 2 5 3 6 4 4 5 3 6 2 7 1 8 76 9 77 11 78 12 82 13 79 14
REMARK SMILES IDX 81 15 83 16 80 17 91 18 84 19 85 20 90 21 92 22 86 23 89 24
REMARK SMILES IDX 87 25 88 26 9 27 10 28 11 29 12 30 13 31 14 32 75 33 15 34
REMARK SMILES IDX 74 35 16 36 17 37 18 38 68 39 19 40 73 41 67 42 69 43 20 44
REMARK SMILES IDX 72 45 66 46 65 47 21 49 53 50 33 51 52 52 34 53 37 54 51 55
REMARK SMILES IDX 70 56 35 57 36 58 50 60 71 61 38 62 22 63 23 64 31 65 24 66
REMARK SMILES IDX 30 67 32 68 29 69 25 70 26 71 27 72 28 73 54 74 55 75 63 76
REMARK SMILES IDX 56 77 62 78 64 79 61 80 57 81 58 82 59 83 60 84 39 85 40 86
REMARK SMILES IDX 48 87 41 88 47 89 49 90 46 91 42 92 43 93 44 94 45 95
REMARK H PARENT 76 10 69 48 37 59
REMARK Flexibility Score: inf
ROOT
ATOM      1  C   UNL     1       5.515  -2.378  -0.598  1.00  0.00     0.274 C 
ENDROOT
BRANCH   1   2
ATOM      2  O   UNL     1       4.227  -1.881  -0.163  1.00  0.00    -0.462 OA
BRANCH   2   3
ATOM      3  C   UNL     1       4.137  -1.458   1.127  1.00  0.00     0.306 C 
ATOM      4  O   UNL     1       5.050  -1.522   1.940  1.00  0.00    -0.252 OA
BRANCH   3   5
ATOM      5  C   UNL     1       2.725  -1.037   1.496  1.00  0.00     0.132 C 
BRANCH   5   6
ATOM      6  C   UNL     1       2.016  -0.164   0.467  1.00  0.00     0.112 C 
BRANCH   6   7
ATOM      7  C   UNL     1       1.078  -0.841  -0.538  1.00  0.00     0.224 C 
ATOM      8  O   UNL     1       0.166  -0.195  -1.052  1.00  0.00    -0.275 OA
ATOM      9  N   UNL     1       1.493  -2.091  -0.964  1.00  0.00    -0.325 N 
ATOM     10  H   UNL     1       1.841  -2.724  -0.294  1.00  0.00     0.169 HD
BRANCH   9  11
ATOM     11  C   UNL     1       1.441  -2.502  -2.322  1.00  0.00     0.053 A 
ATOM     12  C   UNL     1       2.572  -3.220  -2.735  1.00  0.00     0.027 A 
ATOM     13  C   UNL     1       0.623  -1.928  -3.298  1.00  0.00     0.057 A 
ATOM     14  C   UNL     1       3.051  -3.086  -4.036  1.00  0.00     0.003 A 
ATOM     15  C   UNL     1       1.176  -1.677  -4.551  1.00  0.00     0.036 A 
ATOM     16  C   UNL     1      -0.864  -2.069  -3.235  1.00  0.00     0.196 C 
ATOM     17  C   UNL     1       2.405  -2.227  -4.918  1.00  0.00     0.013 A 
ATOM     18  C   UNL     1       0.397  -0.941  -5.552  1.00  0.00     0.194 C 
ATOM     19  O   UNL     1      -1.430  -2.541  -2.257  1.00  0.00    -0.288 OA
ATOM     20  C   UNL     1      -1.639  -1.848  -4.491  1.00  0.00     0.034 A 
ATOM     21  C   UNL     1      -1.044  -1.213  -5.581  1.00  0.00     0.034 A 
ATOM     22  O   UNL     1       0.946  -0.244  -6.394  1.00  0.00    -0.289 OA
ATOM     23  C   UNL     1      -2.927  -2.376  -4.641  1.00  0.00     0.013 A 
ATOM     24  C   UNL     1      -1.740  -1.018  -6.779  1.00  0.00     0.013 A 
ATOM     25  C   UNL     1      -3.602  -2.246  -5.861  1.00  0.00     0.001 A 
ATOM     26  C   UNL     1      -3.019  -1.547  -6.921  1.00  0.00     0.001 A 
ENDBRANCH   9  11
ENDBRANCH   6   7
ENDBRANCH   5   6
ENDBRANCH   3   5
ENDBRANCH   2   3
ENDBRANCH   1   2
BRANCH   1  27
ATOM     27  C   UNL     1       6.320  -1.332  -1.374  1.00  0.00     0.275 C 
BRANCH  27  28
ATOM     28  O   UNL     1       7.032  -0.452  -0.488  1.00  0.00    -0.458 OA
BRANCH  28  29
ATOM     29  C   UNL     1       6.321   0.623  -0.070  1.00  0.00     0.338 C 
ATOM     30  O   UNL     1       5.189   0.916  -0.413  1.00  0.00    -0.246 OA
BRANCH  29  31
ATOM     31  C   UNL     1       7.064   1.348   0.978  1.00  0.00     0.060 A 
ATOM     32  C   UNL     1       6.346   1.771   2.100  1.00  0.00     0.016 A 
ATOM     33  C   UNL     1       8.419   1.666   0.840  1.00  0.00     0.016 A 
ATOM     34  C   UNL     1       6.973   2.541   3.076  1.00  0.00     0.010 A 
ATOM     35  C   UNL     1       9.046   2.443   1.819  1.00  0.00     0.010 A 
ATOM     36  C   UNL     1       8.318   2.903   2.930  1.00  0.00    -0.014 A 
BRANCH  36  37
ATOM     37  C   UNL     1       8.919   3.850   3.897  1.00  0.00     0.031 A 
ATOM     38  C   UNL     1       8.981   5.312   3.552  1.00  0.00     0.074 A 
ATOM     39  C   UNL     1       9.355   3.412   5.091  1.00  0.00     0.049 A 
ATOM     40  N   UNL     1       9.447   6.311   4.255  1.00  0.00    -0.248 NA
ATOM     41  C   UNL     1       8.447   5.695   2.236  1.00  0.00     0.031 C 
ATOM     42  C   UNL     1       9.324   2.019   5.540  1.00  0.00     0.029 A 
ATOM     43  N   UNL     1       9.904   4.094   6.146  1.00  0.00    -0.354 N 
ATOM     44  C   UNL     1       9.253   7.446   3.475  1.00  0.00     0.074 A 
ATOM     45  C   UNL     1       8.663   7.002   2.229  1.00  0.00     0.031 C 
ATOM     46  C   UNL     1       9.840   1.950   6.780  1.00  0.00     0.029 A 
ATOM     47  C   UNL     1      10.250   3.287   7.204  1.00  0.00     0.049 A 
ATOM     48  H   UNL     1      10.037   5.069   6.147  1.00  0.00     0.167 HD
ATOM     49  C   UNL     1       9.533   8.739   3.773  1.00  0.00     0.034 A 
ATOM     50  C   UNL     1      10.838   3.594   8.377  1.00  0.00     0.034 A 
ATOM     51  C   UNL     1      10.149   9.165   5.005  1.00  0.00     0.049 A 
ATOM     52  C   UNL     1      11.154   5.036   8.680  1.00  0.00     0.074 A 
ATOM     53  C   UNL     1      10.540  10.438   5.386  1.00  0.00     0.029 A 
ATOM     54  N   UNL     1      10.464   8.323   6.064  1.00  0.00    -0.354 N 
ATOM     55  N   UNL     1      10.986   6.096   7.922  1.00  0.00    -0.248 NA
ATOM     56  C   UNL     1      11.719   5.326  10.005  1.00  0.00     0.031 C 
ATOM     57  C   UNL     1      11.119  10.359   6.659  1.00  0.00     0.029 A 
ATOM     58  C   UNL     1      11.042   9.046   7.095  1.00  0.00     0.049 A 
ATOM     59  H   UNL     1      10.300   7.352   6.079  1.00  0.00     0.167 HD
ATOM     60  C   UNL     1      11.403   7.179   8.690  1.00  0.00     0.074 A 
ATOM     61  C   UNL     1      11.813   6.647   9.973  1.00  0.00     0.031 C 
ATOM     62  C   UNL     1      11.444   8.496   8.366  1.00  0.00     0.034 A 
BRANCH  49  63
ATOM     63  C   UNL     1       9.212   9.765   2.717  1.00  0.00     0.023 A 
ATOM     64  C   UNL     1       7.883  10.058   2.363  1.00  0.00     0.031 A 
ATOM     65  C   UNL     1      10.243  10.421   2.024  1.00  0.00     0.131 A 
ATOM     66  C   UNL     1       7.622  10.936   1.300  1.00  0.00     0.055 A 
ATOM     67  C   UNL     1       9.975  11.345   1.012  1.00  0.00     0.041 A 
ATOM     68  F   UNL     1      11.529  10.161   2.306  1.00  0.00    -0.206 F 
ATOM     69  C   UNL     1       8.658  11.598   0.637  1.00  0.00     0.022 A 
BRANCH  66  70
ATOM     70  S   UNL     1       5.913  11.113   0.718  1.00  0.00     0.124 S 
ATOM     71  O   UNL     1       5.618   9.758   0.259  1.00  0.00    -0.237 OA
ATOM     72  O   UNL     1       5.212  11.548   1.920  1.00  0.00    -0.237 OA
ATOM     73  O   UNL     1       6.015  12.115  -0.342  1.00  0.00    -0.744 OA
ENDBRANCH  66  70
ENDBRANCH  49  63
BRANCH  50  74
ATOM     74  C   UNL     1      11.191   2.520   9.345  1.00  0.00     0.023 A 
ATOM     75  C   UNL     1      10.559   2.425  10.594  1.00  0.00     0.031 A 
ATOM     76  C   UNL     1      12.216   1.604   9.049  1.00  0.00     0.131 A 
ATOM     77  C   UNL     1      10.989   1.464  11.522  1.00  0.00     0.055 A 
ATOM     78  C   UNL     1      12.611   0.623   9.959  1.00  0.00     0.041 A 
ATOM     79  F   UNL     1      12.847   1.651   7.865  1.00  0.00    -0.206 F 
ATOM     80  C   UNL     1      12.006   0.558  11.210  1.00  0.00     0.022 A 
BRANCH  77  81
ATOM     81  S   UNL     1      10.261   1.472  13.184  1.00  0.00     0.124 S 
ATOM     82  O   UNL     1      10.484   2.851  13.603  1.00  0.00    -0.237 OA
ATOM     83  O   UNL     1       8.877   1.102  12.906  1.00  0.00    -0.237 OA
ATOM     84  O   UNL     1      11.042   0.467  13.902  1.00  0.00    -0.744 OA
ENDBRANCH  77  81
ENDBRANCH  50  74
BRANCH  62  85
ATOM     85  C   UNL     1      11.903   9.445   9.442  1.00  0.00     0.023 A 
ATOM     86  C   UNL     1      13.240   9.480   9.873  1.00  0.00     0.031 A 
ATOM     87  C   UNL     1      10.979  10.303  10.063  1.00  0.00     0.131 A 
ATOM     88  C   UNL     1      13.608  10.319  10.936  1.00  0.00     0.055 A 
ATOM     89  C   UNL     1      11.359  11.166  11.091  1.00  0.00     0.041 A 
ATOM     90  F   UNL     1       9.691  10.306   9.687  1.00  0.00    -0.206 F 
ATOM     91  C   UNL     1      12.677  11.168  11.542  1.00  0.00     0.022 A 
BRANCH  88  92
ATOM     92  S   UNL     1      15.301  10.220  11.579  1.00  0.00     0.124 S 
ATOM     93  O   UNL     1      15.434   8.797  11.877  1.00  0.00    -0.237 OA
ATOM     94  O   UNL     1      16.089  10.712  10.454  1.00  0.00    -0.237 OA
ATOM     95  O   UNL     1      15.275  11.097  12.749  1.00  0.00    -0.744 OA
ENDBRANCH  88  92
ENDBRANCH  62  85
ENDBRANCH  36  37
ENDBRANCH  29  31
ENDBRANCH  28  29
ENDBRANCH  27  28
ENDBRANCH   1  27
TORSDOF 17
