REMARK SMILES C[C@]12C[C@@H](O)[C@H]3[C@@H](CCC4=CC(=O)C=C[C@]43C)[C@H]1CC[C@]2(O)C(=O)COC(=O)CCC(=O)OCCOC(=O)c1ccc(-c2c3nc(c(-c4cc(S(=O)(=O)[O-])ccc4F)c4ccc([nH]4)c(-c4cc(S(=O)(=O)[O-])ccc4F)c4nc(c(-c5cc(S(=O)(=O)[O-])ccc5F)c5ccc2[nH]5)C=C4)C=C3)cc1
REMARK SMILES IDX 31 1 32 2 30 3 29 4 27 5 28 6 26 7 25 8 23 9 24 10 21 11
REMARK SMILES IDX 17 12 16 13 15 14 10 15 6 16 14 17 11 18 9 19 7 20 4 21
REMARK SMILES IDX 12 22 8 23 18 24 3 25 13 26 2 27 19 28 1 29 20 30 5 31 22 33
REMARK SMILES IDX 33 35 34 36 35 37 36 38 37 39 38 40 39 41 40 42 101 43 41 44
REMARK SMILES IDX 100 45 42 46 43 47 44 48 94 49 45 50 99 51 93 52 95 53 46 54
REMARK SMILES IDX 98 55 92 56 91 57 47 59 79 60 59 61 78 62 60 63 63 64 77 65
REMARK SMILES IDX 96 66 61 67 62 68 76 70 97 71 64 72 48 73 49 74 57 75 50 76
REMARK SMILES IDX 56 77 58 78 55 79 51 80 52 81 53 82 54 83 80 84 81 85 89 86
REMARK SMILES IDX 82 87 88 88 90 89 87 90 83 91 84 92 85 93 86 94 65 95 66 96
REMARK SMILES IDX 74 97 67 98 73 99 75 100 72 101 68 102 69 103 70 104 71 105
REMARK H PARENT 5 32 22 34 95 58 63 69
REMARK Flexibility Score: inf
ROOT
ATOM      1  C   UNL     1       5.947  -2.943  -4.216  1.00  0.00     0.306 C 
ATOM      2  O   UNL     1       5.918  -2.404  -3.116  1.00  0.00    -0.252 OA
ENDROOT
BRANCH   1   3
ATOM      3  C   UNL     1       6.856  -2.455  -5.338  1.00  0.00     0.134 C 
BRANCH   3   4
ATOM      4  C   UNL     1       6.784  -3.237  -6.645  1.00  0.00     0.134 C 
BRANCH   4   5
ATOM      5  C   UNL     1       5.559  -2.830  -7.423  1.00  0.00     0.306 C 
ATOM      6  O   UNL     1       5.461  -1.765  -8.019  1.00  0.00    -0.252 OA
BRANCH   5   7
ATOM      7  O   UNL     1       4.538  -3.696  -7.221  1.00  0.00    -0.458 OA
BRANCH   7   8
ATOM      8  C   UNL     1       3.246  -3.309  -7.670  1.00  0.00     0.311 C 
BRANCH   8   9
ATOM      9  C   UNL     1       2.673  -1.872  -7.580  1.00  0.00     0.202 C 
ATOM     10  O   UNL     1       2.006  -1.421  -8.519  1.00  0.00    -0.293 OA
BRANCH   9  11
ATOM     11  C   UNL     1       2.817  -1.086  -6.253  1.00  0.00     0.132 C 
ATOM     12  C   UNL     1       1.048   0.037   0.126  1.00  0.00     0.021 C 
ATOM     13  C   UNL     1       0.101   0.188  -1.105  1.00  0.00     0.013 C 
ATOM     14  C   UNL     1      -1.072  -0.762  -0.831  1.00  0.00    -0.012 C 
ATOM     15  C   UNL     1      -0.466   1.625  -1.079  1.00  0.00    -0.056 C 
ATOM     16  C   UNL     1       0.961  -0.154  -2.402  1.00  0.00     0.035 C 
ATOM     17  C   UNL     1      -2.075  -0.443   0.004  1.00  0.00     0.048 C 
ATOM     18  C   UNL     1      -1.443   1.964  -0.209  1.00  0.00     0.052 C 
ATOM     19  C   UNL     1      -0.101   2.652  -2.112  1.00  0.00     0.032 C 
ATOM     20  C   UNL     1       0.575   0.711  -3.616  1.00  0.00    -0.000 C 
ATOM     21  C   UNL     1       1.011  -1.648  -2.782  1.00  0.00     0.119 C 
ATOM     22  C   UNL     1      -2.136   0.920   0.578  1.00  0.00     0.178 C 
ATOM     23  C   UNL     1       0.797   2.182  -3.240  1.00  0.00     0.009 C 
ATOM     24  C   UNL     1       1.307   0.378  -4.938  1.00  0.00     0.002 C 
ATOM     25  C   UNL     1       1.935  -1.903  -3.965  1.00  0.00     0.042 C 
ATOM     26  O   UNL     1      -2.814   1.185   1.560  1.00  0.00    -0.290 OA
ATOM     27  C   UNL     1       1.582  -1.126  -5.253  1.00  0.00     0.009 C 
ATOM     28  C   UNL     1       2.660   1.047  -5.183  1.00  0.00     0.008 C 
ATOM     29  C   UNL     1       0.310  -1.733  -5.875  1.00  0.00     0.015 C 
ATOM     30  C   UNL     1       3.054   0.414  -6.513  1.00  0.00     0.044 C 
BRANCH  21  31
ATOM     31  O   UNL     1       1.491  -2.438  -1.695  1.00  0.00    -0.393 OA
ATOM     32  H   UNL     1       2.400  -2.175  -1.482  1.00  0.00     0.210 HD
ENDBRANCH  21  31
BRANCH  11  33
ATOM     33  O   UNL     1       3.989  -1.503  -5.569  1.00  0.00    -0.381 OA
ATOM     34  H   UNL     1       4.073  -1.007  -4.739  1.00  0.00     0.212 HD
ENDBRANCH  11  33
ENDBRANCH   9  11
ENDBRANCH   8   9
ENDBRANCH   7   8
ENDBRANCH   5   7
ENDBRANCH   4   5
ENDBRANCH   3   4
ENDBRANCH   1   3
BRANCH   1  35
ATOM     35  O   UNL     1       5.200  -4.016  -4.572  1.00  0.00    -0.462 OA
BRANCH  35  36
ATOM     36  C   UNL     1       4.326  -4.595  -3.586  1.00  0.00     0.274 C 
BRANCH  36  37
ATOM     37  C   UNL     1       4.786  -6.008  -3.233  1.00  0.00     0.275 C 
BRANCH  37  38
ATOM     38  O   UNL     1       6.037  -5.969  -2.533  1.00  0.00    -0.458 OA
BRANCH  38  39
ATOM     39  C   UNL     1       7.131  -5.940  -3.324  1.00  0.00     0.338 C 
ATOM     40  O   UNL     1       7.181  -6.055  -4.544  1.00  0.00    -0.246 OA
BRANCH  39  41
ATOM     41  C   UNL     1       8.276  -5.559  -2.502  1.00  0.00     0.060 A 
ATOM     42  C   UNL     1       8.816  -4.283  -2.672  1.00  0.00     0.016 A 
ATOM     43  C   UNL     1       8.829  -6.456  -1.595  1.00  0.00     0.016 A 
ATOM     44  C   UNL     1       9.927  -3.888  -1.948  1.00  0.00     0.010 A 
ATOM     45  C   UNL     1       9.937  -6.056  -0.852  1.00  0.00     0.010 A 
ATOM     46  C   UNL     1      10.492  -4.776  -1.033  1.00  0.00    -0.014 A 
BRANCH  46  47
ATOM     47  C   UNL     1      11.708  -4.391  -0.296  1.00  0.00     0.031 A 
ATOM     48  C   UNL     1      13.004  -5.045  -0.655  1.00  0.00     0.074 A 
ATOM     49  C   UNL     1      11.626  -3.478   0.688  1.00  0.00     0.049 A 
ATOM     50  N   UNL     1      14.144  -5.023  -0.022  1.00  0.00    -0.248 NA
ATOM     51  C   UNL     1      13.007  -5.843  -1.891  1.00  0.00     0.031 C 
ATOM     52  C   UNL     1      10.419  -2.730   1.048  1.00  0.00     0.029 A 
ATOM     53  N   UNL     1      12.571  -3.041   1.575  1.00  0.00    -0.354 N 
ATOM     54  C   UNL     1      14.998  -5.830  -0.764  1.00  0.00     0.074 A 
ATOM     55  C   UNL     1      14.233  -6.342  -1.881  1.00  0.00     0.031 C 
ATOM     56  C   UNL     1      10.695  -1.937   2.096  1.00  0.00     0.029 A 
ATOM     57  C   UNL     1      12.070  -2.178   2.520  1.00  0.00     0.049 A 
ATOM     58  H   UNL     1      13.515  -3.317   1.541  1.00  0.00     0.167 HD
ATOM     59  C   UNL     1      16.301  -6.111  -0.521  1.00  0.00     0.034 A 
ATOM     60  C   UNL     1      12.646  -1.686   3.633  1.00  0.00     0.034 A 
ATOM     61  C   UNL     1      17.020  -5.585   0.613  1.00  0.00     0.049 A 
ATOM     62  C   UNL     1      14.060  -2.101   3.946  1.00  0.00     0.074 A 
ATOM     63  C   UNL     1      18.338  -5.795   0.975  1.00  0.00     0.029 A 
ATOM     64  N   UNL     1      16.472  -4.747   1.579  1.00  0.00    -0.354 N 
ATOM     65  N   UNL     1      14.857  -2.894   3.265  1.00  0.00    -0.248 NA
ATOM     66  C   UNL     1      14.650  -1.563   5.176  1.00  0.00     0.031 C 
ATOM     67  C   UNL     1      18.566  -5.142   2.192  1.00  0.00     0.029 A 
ATOM     68  C   UNL     1      17.414  -4.458   2.553  1.00  0.00     0.049 A 
ATOM     69  H   UNL     1      15.548  -4.407   1.571  1.00  0.00     0.167 HD
ATOM     70  C   UNL     1      16.053  -2.930   3.974  1.00  0.00     0.074 A 
ATOM     71  C   UNL     1      15.874  -2.068   5.127  1.00  0.00     0.031 C 
ATOM     72  C   UNL     1      17.199  -3.606   3.700  1.00  0.00     0.034 A 
BRANCH  59  73
ATOM     73  C   UNL     1      16.985  -7.076  -1.458  1.00  0.00     0.023 A 
ATOM     74  C   UNL     1      17.158  -6.788  -2.823  1.00  0.00     0.031 A 
ATOM     75  C   UNL     1      17.416  -8.330  -0.991  1.00  0.00     0.131 A 
ATOM     76  C   UNL     1      17.672  -7.769  -3.686  1.00  0.00     0.055 A 
ATOM     77  C   UNL     1      18.004  -9.271  -1.839  1.00  0.00     0.041 A 
ATOM     78  F   UNL     1      17.251  -8.674   0.296  1.00  0.00    -0.206 F 
ATOM     79  C   UNL     1      18.119  -8.999  -3.199  1.00  0.00     0.022 A 
BRANCH  76  80
ATOM     80  S   UNL     1      17.597  -7.474  -5.475  1.00  0.00     0.124 S 
ATOM     81  O   UNL     1      16.165  -7.271  -5.681  1.00  0.00    -0.237 OA
ATOM     82  O   UNL     1      18.439  -6.294  -5.635  1.00  0.00    -0.237 OA
ATOM     83  O   UNL     1      18.133  -8.707  -6.049  1.00  0.00    -0.744 OA
ENDBRANCH  76  80
ENDBRANCH  59  73
BRANCH  60  84
ATOM     84  C   UNL     1      11.875  -0.807   4.555  1.00  0.00     0.023 A 
ATOM     85  C   UNL     1      12.263   0.523   4.773  1.00  0.00     0.031 A 
ATOM     86  C   UNL     1      10.751  -1.290   5.251  1.00  0.00     0.131 A 
ATOM     87  C   UNL     1      11.556   1.315   5.691  1.00  0.00     0.055 A 
ATOM     88  C   UNL     1      10.020  -0.482   6.123  1.00  0.00     0.041 A 
ATOM     89  F   UNL     1      10.336  -2.555   5.079  1.00  0.00    -0.206 F 
ATOM     90  C   UNL     1      10.429   0.827   6.356  1.00  0.00     0.022 A 
BRANCH  87  91
ATOM     91  S   UNL     1      12.180   2.978   6.058  1.00  0.00     0.124 S 
ATOM     92  O   UNL     1      13.526   2.690   6.539  1.00  0.00    -0.237 OA
ATOM     93  O   UNL     1      12.090   3.629   4.755  1.00  0.00    -0.237 OA
ATOM     94  O   UNL     1      11.248   3.475   7.067  1.00  0.00    -0.744 OA
ENDBRANCH  87  91
ENDBRANCH  60  84
BRANCH  72  95
ATOM     95  C   UNL     1      18.352  -3.397   4.648  1.00  0.00     0.023 A 
ATOM     96  C   UNL     1      18.320  -3.879   5.967  1.00  0.00     0.031 A 
ATOM     97  C   UNL     1      19.496  -2.700   4.221  1.00  0.00     0.131 A 
ATOM     98  C   UNL     1      19.393  -3.614   6.831  1.00  0.00     0.055 A 
ATOM     99  C   UNL     1      20.586  -2.492   5.066  1.00  0.00     0.041 A 
ATOM    100  F   UNL     1      19.575  -2.216   2.971  1.00  0.00    -0.206 F 
ATOM    101  C   UNL     1      20.533  -2.940   6.383  1.00  0.00     0.022 A 
BRANCH  98 102
ATOM    102  S   UNL     1      19.247  -4.093   8.573  1.00  0.00     0.124 S 
ATOM    103  O   UNL     1      18.083  -3.324   9.002  1.00  0.00    -0.237 OA
ATOM    104  O   UNL     1      19.060  -5.538   8.486  1.00  0.00    -0.237 OA
ATOM    105  O   UNL     1      20.519  -3.668   9.154  1.00  0.00    -0.744 OA
ENDBRANCH  98 102
ENDBRANCH  72  95
ENDBRANCH  46  47
ENDBRANCH  39  41
ENDBRANCH  38  39
ENDBRANCH  37  38
ENDBRANCH  36  37
ENDBRANCH  35  36
ENDBRANCH   1  35
TORSDOF 22
