REMARK SMILES O=C(OCCOC(=O)[C@@H]1CC=CC[C@H]1C(=O)N1CC[NH+](Cc2ccc3c(c2)OCO3)CC1)c1ccc(-c2c3nc(c(-c4cc(S(=O)(=O)[O-])ccc4F)c4ccc([nH]4)c(-c4cc(S(=O)(=O)[O-])ccc4F)c4nc(c(-c5cc(S(=O)(=O)[O-])ccc5F)c5ccc2[nH]5)C=C4)C=C3)cc1
REMARK SMILES IDX 4 1 3 2 2 3 1 4 33 5 34 6 95 7 35 8 94 9 36 10 37 11 38 12
REMARK SMILES IDX 88 13 39 14 93 15 87 16 89 17 40 18 92 19 86 20 85 21 41 23
REMARK SMILES IDX 73 24 53 25 72 26 54 27 57 28 71 29 90 30 55 31 56 32 70 34
REMARK SMILES IDX 91 35 58 36 42 37 43 38 51 39 44 40 50 41 52 42 49 43 45 44
REMARK SMILES IDX 46 45 47 46 48 47 74 48 75 49 83 50 76 51 82 52 84 53 81 54
REMARK SMILES IDX 77 55 78 56 79 57 80 58 59 59 60 60 68 61 61 62 67 63 69 64
REMARK SMILES IDX 66 65 62 66 63 67 64 68 65 69 5 70 6 71 7 72 8 73 9 74 10 75
REMARK SMILES IDX 14 76 11 77 13 78 12 79 15 80 16 81 17 82 18 83 32 84 19 85
REMARK SMILES IDX 31 86 20 87 21 89 22 90 23 91 27 92 24 93 26 94 25 95 28 96
REMARK SMILES IDX 30 97 29 98
REMARK H PARENT 89 22 57 33 20 88
REMARK Flexibility Score: inf
ROOT
ATOM      1  C   UNL     1       3.567  -6.545   2.279  1.00  0.00     0.275 C 
ENDROOT
BRANCH   1   2
ATOM      2  O   UNL     1       4.580  -5.649   1.752  1.00  0.00    -0.458 OA
BRANCH   2   3
ATOM      3  C   UNL     1       4.431  -4.304   1.711  1.00  0.00     0.338 C 
ATOM      4  O   UNL     1       5.062  -3.547   2.431  1.00  0.00    -0.246 OA
BRANCH   3   5
ATOM      5  C   UNL     1       3.567  -3.809   0.567  1.00  0.00     0.060 A 
ATOM      6  C   UNL     1       2.305  -4.962   0.047  1.00  0.00     0.016 A 
ATOM      7  C   UNL     1       3.680  -2.179  -0.352  1.00  0.00     0.016 A 
ATOM      8  C   UNL     1       1.172  -4.631  -1.190  1.00  0.00     0.010 A 
ATOM      9  C   UNL     1       2.593  -1.988  -1.839  1.00  0.00     0.010 A 
ATOM     10  C   UNL     1       1.248  -3.163  -2.088  1.00  0.00    -0.014 A 
BRANCH  10  11
ATOM     11  C   UNL     1      -0.120  -2.858  -2.669  1.00  0.00     0.031 A 
ATOM     12  C   UNL     1      -0.337  -3.075  -4.123  1.00  0.00     0.074 A 
ATOM     13  C   UNL     1      -1.207  -2.569  -1.890  1.00  0.00     0.049 A 
ATOM     14  N   UNL     1      -1.385  -2.787  -4.843  1.00  0.00    -0.248 NA
ATOM     15  C   UNL     1       0.732  -3.779  -4.840  1.00  0.00     0.031 C 
ATOM     16  C   UNL     1      -1.340  -2.708  -0.432  1.00  0.00     0.029 A 
ATOM     17  N   UNL     1      -2.417  -1.986  -2.205  1.00  0.00    -0.354 N 
ATOM     18  C   UNL     1      -1.118  -3.300  -6.101  1.00  0.00     0.074 A 
ATOM     19  C   UNL     1       0.215  -3.865  -6.057  1.00  0.00     0.031 C 
ATOM     20  C   UNL     1      -2.365  -1.984   0.032  1.00  0.00     0.029 A 
ATOM     21  C   UNL     1      -3.083  -1.462  -1.104  1.00  0.00     0.049 A 
ATOM     22  H   UNL     1      -2.775  -1.946  -3.122  1.00  0.00     0.167 HD
ATOM     23  C   UNL     1      -1.937  -3.313  -7.178  1.00  0.00     0.034 A 
ATOM     24  C   UNL     1      -4.173  -0.678  -0.997  1.00  0.00     0.034 A 
ATOM     25  C   UNL     1      -3.243  -2.703  -7.184  1.00  0.00     0.049 A 
ATOM     26  C   UNL     1      -4.944  -0.465  -2.262  1.00  0.00     0.074 A 
ATOM     27  C   UNL     1      -4.131  -2.574  -8.235  1.00  0.00     0.029 A 
ATOM     28  N   UNL     1      -3.840  -2.099  -6.080  1.00  0.00    -0.354 N 
ATOM     29  N   UNL     1      -4.663  -0.912  -3.463  1.00  0.00    -0.248 NA
ATOM     30  C   UNL     1      -6.208   0.268  -2.160  1.00  0.00     0.031 C 
ATOM     31  C   UNL     1      -5.218  -1.813  -7.793  1.00  0.00     0.029 A 
ATOM     32  C   UNL     1      -5.059  -1.549  -6.440  1.00  0.00     0.049 A 
ATOM     33  H   UNL     1      -3.452  -2.067  -5.176  1.00  0.00     0.167 HD
ATOM     34  C   UNL     1      -5.755  -0.586  -4.247  1.00  0.00     0.074 A 
ATOM     35  C   UNL     1      -6.693   0.104  -3.381  1.00  0.00     0.031 C 
ATOM     36  C   UNL     1      -5.970  -0.856  -5.558  1.00  0.00     0.034 A 
BRANCH  23  37
ATOM     37  C   UNL     1      -1.377  -3.920  -8.434  1.00  0.00     0.023 A 
ATOM     38  C   UNL     1      -1.060  -5.288  -8.513  1.00  0.00     0.031 A 
ATOM     39  C   UNL     1      -1.048  -3.098  -9.524  1.00  0.00     0.131 A 
ATOM     40  C   UNL     1      -0.351  -5.773  -9.621  1.00  0.00     0.055 A 
ATOM     41  C   UNL     1      -0.419  -3.605 -10.661  1.00  0.00     0.041 A 
ATOM     42  F   UNL     1      -1.296  -1.779  -9.484  1.00  0.00    -0.206 F 
ATOM     43  C   UNL     1      -0.050  -4.946 -10.706  1.00  0.00     0.022 A 
BRANCH  40  44
ATOM     44  S   UNL     1       0.323  -7.456  -9.550  1.00  0.00     0.124 S 
ATOM     45  O   UNL     1       1.258  -7.352  -8.433  1.00  0.00    -0.237 OA
ATOM     46  O   UNL     1      -0.866  -8.267  -9.315  1.00  0.00    -0.237 OA
ATOM     47  O   UNL     1       0.947  -7.630 -10.861  1.00  0.00    -0.744 OA
ENDBRANCH  40  44
ENDBRANCH  23  37
BRANCH  24  48
ATOM     48  C   UNL     1      -4.625  -0.092   0.307  1.00  0.00     0.023 A 
ATOM     49  C   UNL     1      -5.872  -0.414   0.869  1.00  0.00     0.031 A 
ATOM     50  C   UNL     1      -3.854   0.889   0.960  1.00  0.00     0.131 A 
ATOM     51  C   UNL     1      -6.349   0.294   1.988  1.00  0.00     0.055 A 
ATOM     52  C   UNL     1      -4.310   1.555   2.104  1.00  0.00     0.041 A 
ATOM     53  F   UNL     1      -2.651   1.240   0.479  1.00  0.00    -0.206 F 
ATOM     54  C   UNL     1      -5.575   1.274   2.612  1.00  0.00     0.022 A 
BRANCH  51  55
ATOM     55  S   UNL     1      -8.058   0.011   2.534  1.00  0.00     0.124 S 
ATOM     56  O   UNL     1      -8.804   0.236   1.301  1.00  0.00    -0.237 OA
ATOM     57  O   UNL     1      -7.997  -1.369   3.005  1.00  0.00    -0.237 OA
ATOM     58  O   UNL     1      -8.255   1.016   3.576  1.00  0.00    -0.744 OA
ENDBRANCH  51  55
ENDBRANCH  24  48
BRANCH  36  59
ATOM     59  C   UNL     1      -7.296  -0.427  -6.115  1.00  0.00     0.023 A 
ATOM     60  C   UNL     1      -7.651   0.928  -6.200  1.00  0.00     0.031 A 
ATOM     61  C   UNL     1      -8.216  -1.390  -6.563  1.00  0.00     0.131 A 
ATOM     62  C   UNL     1      -8.920   1.282  -6.669  1.00  0.00     0.055 A 
ATOM     63  C   UNL     1      -9.445  -1.026  -7.108  1.00  0.00     0.041 A 
ATOM     64  F   UNL     1      -7.928  -2.700  -6.487  1.00  0.00    -0.206 F 
ATOM     65  C   UNL     1      -9.808   0.317  -7.151  1.00  0.00     0.022 A 
BRANCH  62  66
ATOM     66  S   UNL     1      -9.429   3.015  -6.540  1.00  0.00     0.124 S 
ATOM     67  O   UNL     1      -9.338   3.249  -5.102  1.00  0.00    -0.237 OA
ATOM     68  O   UNL     1      -8.433   3.697  -7.360  1.00  0.00    -0.237 OA
ATOM     69  O   UNL     1     -10.786   3.013  -7.084  1.00  0.00    -0.744 OA
ENDBRANCH  62  66
ENDBRANCH  36  59
ENDBRANCH  10  11
ENDBRANCH   3   5
ENDBRANCH   2   3
ENDBRANCH   1   2
BRANCH   1  70
ATOM     70  C   UNL     1       2.439  -5.936   3.142  1.00  0.00     0.274 C 
BRANCH  70  71
ATOM     71  O   UNL     1       1.746  -4.851   2.482  1.00  0.00    -0.462 OA
BRANCH  71  72
ATOM     72  C   UNL     1       2.080  -3.604   2.884  1.00  0.00     0.310 C 
ATOM     73  O   UNL     1       2.506  -3.373   4.013  1.00  0.00    -0.252 OA
BRANCH  72  74
ATOM     74  C   UNL     1       1.963  -2.485   1.805  1.00  0.00     0.115 C 
ATOM     75  C   UNL     1       0.821  -1.656   2.470  1.00  0.00     0.043 C 
ATOM     76  C   UNL     1       1.872  -2.788  -0.016  1.00  0.00     0.097 C 
ATOM     77  C   UNL     1       0.437  -0.354   1.904  1.00  0.00    -0.030 C 
ATOM     78  C   UNL     1       1.323  -1.015  -0.283  1.00  0.00     0.041 C 
ATOM     79  C   UNL     1       0.652  -0.085   0.634  1.00  0.00    -0.030 C 
BRANCH  76  80
ATOM     80  C   UNL     1       3.267  -3.809  -1.411  1.00  0.00     0.227 C 
ATOM     81  O   UNL     1       3.071  -4.593  -2.384  1.00  0.00    -0.275 OA
ATOM     82  N   UNL     1       4.918  -3.563  -1.528  1.00  0.00    -0.331 N 
ATOM     83  C   UNL     1       5.571  -3.833  -2.822  1.00  0.00     0.181 C 
ATOM     84  C   UNL     1       5.966  -3.253  -0.473  1.00  0.00     0.181 C 
ATOM     85  C   UNL     1       6.831  -2.914  -3.097  1.00  0.00     0.284 C 
ATOM     86  C   UNL     1       6.967  -2.167  -0.844  1.00  0.00     0.284 C 
ATOM     87  N   UNL     1       7.754  -2.525  -2.003  1.00  0.00    -0.328 N 
ATOM     88  H   UNL     1       8.266  -1.739  -2.404  1.00  0.00     0.348 HD
BRANCH  87  89
ATOM     89  C   UNL     1       8.910  -3.372  -1.656  1.00  0.00     0.299 C 
BRANCH  89  90
ATOM     90  C   UNL     1       8.624  -4.766  -1.136  1.00  0.00     0.010 A 
ATOM     91  C   UNL     1       8.188  -5.741  -2.055  1.00  0.00     0.013 A 
ATOM     92  C   UNL     1       8.635  -5.074   0.244  1.00  0.00     0.060 A 
ATOM     93  C   UNL     1       7.623  -6.941  -1.623  1.00  0.00     0.051 A 
ATOM     94  C   UNL     1       8.089  -6.283   0.641  1.00  0.00     0.166 A 
ATOM     95  C   UNL     1       7.570  -7.174  -0.269  1.00  0.00     0.165 A 
ATOM     96  O   UNL     1       7.919  -6.706   1.925  1.00  0.00    -0.454 OA
ATOM     97  O   UNL     1       6.993  -8.254   0.321  1.00  0.00    -0.454 OA
ATOM     98  C   UNL     1       7.219  -7.951   1.710  1.00  0.00     0.468 C 
ENDBRANCH  89  90
ENDBRANCH  87  89
ENDBRANCH  76  80
ENDBRANCH  72  74
ENDBRANCH  71  72
ENDBRANCH  70  71
ENDBRANCH   1  70
TORSDOF 17
