REMARK SMILES Cc1cc(S(F)(F)(F)(F)F)cc2c1O[C@H](C(F)(F)F)C(C(=O)OCCOC(=O)c1ccc(-c3c4nc(c(-c5cc(S(=O)(=O)[O-])ccc5F)c5ccc([nH]5)c(-c5cc(S(=O)(=O)[O-])ccc5F)c5nc(c(-c6cc(S(=O)(=O)[O-])ccc6F)c6ccc3[nH]6)C=C5)C=C4)cc1)=C2
REMARK SMILES IDX 25 1 24 2 23 3 21 4 22 5 20 6 1 7 2 8 3 9 13 10 4 11 12 12
REMARK SMILES IDX 14 13 11 14 92 15 15 16 5 17 6 18 7 19 8 20 9 21 10 22 16 23
REMARK SMILES IDX 17 24 18 25 19 26 26 27 27 28 28 29 29 30 30 31 91 32 31 33
REMARK SMILES IDX 90 34 32 35 33 36 34 37 84 38 35 39 89 40 83 41 85 42 36 43
REMARK SMILES IDX 88 44 82 45 81 46 37 48 69 49 49 50 68 51 50 52 53 53 67 54
REMARK SMILES IDX 86 55 51 56 52 57 66 59 87 60 54 61 38 62 39 63 47 64 40 65
REMARK SMILES IDX 46 66 48 67 45 68 41 69 42 70 43 71 44 72 70 73 71 74 79 75
REMARK SMILES IDX 72 76 78 77 80 78 77 79 73 80 74 81 75 82 76 83 55 84 56 85
REMARK SMILES IDX 64 86 57 87 63 88 65 89 62 90 58 91 59 92 60 93 61 94
REMARK H PARENT 85 47 53 58
REMARK Flexibility Score: inf
ROOT
ATOM      1  C   UNL     1      -7.278   2.497   3.378  1.00  0.00     0.275 C 
ENDROOT
BRANCH   1   2
ATOM      2  C   UNL     1      -7.222   1.700   2.085  1.00  0.00     0.275 C 
BRANCH   2   3
ATOM      3  O   UNL     1      -5.868   1.431   1.753  1.00  0.00    -0.459 OA
BRANCH   3   4
ATOM      4  C   UNL     1      -4.964   2.503   1.535  1.00  0.00     0.338 C 
ATOM      5  O   UNL     1      -5.366   3.704   1.635  1.00  0.00    -0.246 OA
BRANCH   4   6
ATOM      6  C   UNL     1      -3.514   2.215   1.180  1.00  0.00     0.087 C 
ATOM      7  C   UNL     1       0.976  -0.051   0.082  1.00  0.00     0.048 C 
ATOM      8  C   UNL     1       0.469   1.377   0.206  1.00  0.00    -0.007 A 
ATOM      9  C   UNL     1       1.332   2.430  -0.002  1.00  0.00     0.031 A 
ATOM     10  C   UNL     1      -0.862   1.636   0.530  1.00  0.00     0.130 A 
ATOM     11  C   UNL     1       0.891   3.742   0.114  1.00  0.00     0.108 A 
ATOM     12  C   UNL     1      -1.308   2.973   0.642  1.00  0.00     0.019 A 
ATOM     13  O   UNL     1      -1.831   0.558   0.765  1.00  0.00    -0.475 OA
ATOM     14  C   UNL     1      -0.410   4.020   0.425  1.00  0.00     0.036 A 
ATOM     15  C   UNL     1      -2.709   3.216   0.985  1.00  0.00     0.027 C 
ATOM     16  C   UNL     1      -3.103   0.885   1.076  1.00  0.00     0.316 C 
BRANCH  11  17
ATOM     17  S   UNL     1       2.056   5.102  -0.151  1.00  0.00     0.310 S 
ATOM     18  F   UNL     1       2.489   5.120   1.375  1.00  0.00    -0.094 F 
ATOM     19  F   UNL     1       0.903   6.104   0.235  1.00  0.00    -0.094 F 
ATOM     20  F   UNL     1       3.043   6.282  -0.381  1.00  0.00    -0.094 F 
ATOM     21  F   UNL     1       3.234   4.079  -0.398  1.00  0.00    -0.094 F 
ATOM     22  F   UNL     1       1.096   3.893   0.189  1.00  0.00    -0.094 F 
ENDBRANCH  11  17
BRANCH  16  23
ATOM     23  C   UNL     1      -3.868   0.404  -0.145  1.00  0.00     0.430 C 
ATOM     24  F   UNL     1      -3.633  -0.891  -0.335  1.00  0.00    -0.167 F 
ATOM     25  F   UNL     1      -5.171   0.595   0.044  1.00  0.00    -0.167 F 
ATOM     26  F   UNL     1      -3.471   1.088  -1.215  1.00  0.00    -0.167 F 
ENDBRANCH  16  23
ENDBRANCH   4   6
ENDBRANCH   3   4
ENDBRANCH   2   3
ENDBRANCH   1   2
BRANCH   1  27
ATOM     27  O   UNL     1      -6.579   3.722   3.210  1.00  0.00    -0.458 OA
BRANCH  27  28
ATOM     28  C   UNL     1      -5.200   3.711   2.873  1.00  0.00     0.338 C 
ATOM     29  O   UNL     1      -4.591   2.606   2.721  1.00  0.00    -0.246 OA
BRANCH  28  30
ATOM     30  C   UNL     1      -4.452   5.022   2.692  1.00  0.00     0.060 A 
ATOM     31  C   UNL     1      -3.595   5.212   1.614  1.00  0.00     0.016 A 
ATOM     32  C   UNL     1      -4.600   6.006   3.553  1.00  0.00     0.016 A 
ATOM     33  C   UNL     1      -3.348   6.549   1.231  1.00  0.00     0.010 A 
ATOM     34  C   UNL     1      -3.904   7.209   3.392  1.00  0.00     0.010 A 
ATOM     35  C   UNL     1      -3.290   7.486   2.261  1.00  0.00    -0.014 A 
BRANCH  35  36
ATOM     36  C   UNL     1      -2.537   8.794   2.083  1.00  0.00     0.031 A 
ATOM     37  C   UNL     1      -1.479   9.049   2.956  1.00  0.00     0.074 A 
ATOM     38  C   UNL     1      -2.937   9.658   1.077  1.00  0.00     0.049 A 
ATOM     39  N   UNL     1      -0.668  10.109   2.964  1.00  0.00    -0.248 NA
ATOM     40  C   UNL     1      -1.075   8.149   4.047  1.00  0.00     0.031 C 
ATOM     41  C   UNL     1      -3.998   9.403   0.186  1.00  0.00     0.029 A 
ATOM     42  N   UNL     1      -2.403  10.886   0.757  1.00  0.00    -0.354 N 
ATOM     43  C   UNL     1       0.237   9.989   3.938  1.00  0.00     0.074 A 
ATOM     44  C   UNL     1      -0.015   8.730   4.652  1.00  0.00     0.031 C 
ATOM     45  C   UNL     1      -4.110  10.468  -0.651  1.00  0.00     0.029 A 
ATOM     46  C   UNL     1      -3.120  11.405  -0.298  1.00  0.00     0.049 A 
ATOM     47  H   UNL     1      -1.641  11.319   1.205  1.00  0.00     0.167 HD
ATOM     48  C   UNL     1       1.264  10.879   4.256  1.00  0.00     0.034 A 
ATOM     49  C   UNL     1      -2.939  12.626  -0.929  1.00  0.00     0.034 A 
ATOM     50  C   UNL     1       1.473  12.080   3.596  1.00  0.00     0.049 A 
ATOM     51  C   UNL     1      -1.948  13.543  -0.573  1.00  0.00     0.074 A 
ATOM     52  C   UNL     1       2.508  12.985   3.900  1.00  0.00     0.029 A 
ATOM     53  N   UNL     1       0.740  12.610   2.558  1.00  0.00    -0.354 N 
ATOM     54  N   UNL     1      -1.018  13.405   0.374  1.00  0.00    -0.248 NA
ATOM     55  C   UNL     1      -1.766  14.852  -1.213  1.00  0.00     0.031 C 
ATOM     56  C   UNL     1       2.396  14.050   3.062  1.00  0.00     0.029 A 
ATOM     57  C   UNL     1       1.288  13.828   2.222  1.00  0.00     0.049 A 
ATOM     58  H   UNL     1      -0.041  12.190   2.129  1.00  0.00     0.167 HD
ATOM     59  C   UNL     1      -0.234  14.484   0.409  1.00  0.00     0.074 A 
ATOM     60  C   UNL     1      -0.708  15.434  -0.607  1.00  0.00     0.031 C 
ATOM     61  C   UNL     1       0.861  14.713   1.244  1.00  0.00     0.034 A 
BRANCH  48  62
ATOM     62  C   UNL     1       2.206  10.511   5.391  1.00  0.00     0.023 A 
ATOM     63  C   UNL     1       2.314  11.342   6.511  1.00  0.00     0.031 A 
ATOM     64  C   UNL     1       2.887   9.386   5.319  1.00  0.00     0.131 A 
ATOM     65  C   UNL     1       3.271  11.159   7.396  1.00  0.00     0.055 A 
ATOM     66  C   UNL     1       3.719   9.047   6.384  1.00  0.00     0.041 A 
ATOM     67  F   UNL     1       2.783   8.594   4.255  1.00  0.00    -0.206 F 
ATOM     68  C   UNL     1       4.167  10.115   7.193  1.00  0.00     0.022 A 
BRANCH  65  69
ATOM     69  S   UNL     1       3.419  12.241   8.839  1.00  0.00     0.124 S 
ATOM     70  O   UNL     1       3.291  11.407  10.116  1.00  0.00    -0.237 OA
ATOM     71  O   UNL     1       4.782  12.937   8.818  1.00  0.00    -0.237 OA
ATOM     72  O   UNL     1       2.178  13.417   8.800  1.00  0.00    -0.744 OA
ENDBRANCH  65  69
ENDBRANCH  48  62
BRANCH  49  73
ATOM     73  C   UNL     1      -3.871  12.986  -2.075  1.00  0.00     0.023 A 
ATOM     74  C   UNL     1      -5.250  13.074  -1.855  1.00  0.00     0.031 A 
ATOM     75  C   UNL     1      -3.367  13.176  -3.276  1.00  0.00     0.131 A 
ATOM     76  C   UNL     1      -6.093  13.095  -2.866  1.00  0.00     0.055 A 
ATOM     77  C   UNL     1      -4.241  13.464  -4.322  1.00  0.00     0.041 A 
ATOM     78  F   UNL     1      -2.056  13.097  -3.485  1.00  0.00    -0.206 F 
ATOM     79  C   UNL     1      -5.578  13.038  -4.156  1.00  0.00     0.022 A 
BRANCH  76  80
ATOM     80  S   UNL     1      -7.877  13.197  -2.583  1.00  0.00     0.124 S 
ATOM     81  O   UNL     1      -8.428  14.463  -3.244  1.00  0.00    -0.237 OA
ATOM     82  O   UNL     1      -8.560  11.968  -3.186  1.00  0.00    -0.237 OA
ATOM     83  O   UNL     1      -8.186  13.252  -0.901  1.00  0.00    -0.744 OA
ENDBRANCH  76  80
ENDBRANCH  49  73
BRANCH  61  84
ATOM     84  C   UNL     1       1.632  16.011   1.071  1.00  0.00     0.023 A 
ATOM     85  C   UNL     1       2.991  15.981   0.741  1.00  0.00     0.031 A 
ATOM     86  C   UNL     1       1.003  17.157   1.228  1.00  0.00     0.131 A 
ATOM     87  C   UNL     1       3.729  17.067   0.827  1.00  0.00     0.055 A 
ATOM     88  C   UNL     1       1.725  18.337   1.061  1.00  0.00     0.041 A 
ATOM     89  F   UNL     1      -0.290  17.187   1.538  1.00  0.00    -0.206 F 
ATOM     90  C   UNL     1       3.123  18.247   1.245  1.00  0.00     0.022 A 
BRANCH  87  91
ATOM     91  S   UNL     1       5.491  17.026   0.412  1.00  0.00     0.124 S 
ATOM     92  O   UNL     1       5.767  17.998  -0.738  1.00  0.00    -0.237 OA
ATOM     93  O   UNL     1       6.313  17.438   1.636  1.00  0.00    -0.237 OA
ATOM     94  O   UNL     1       5.928  15.443  -0.062  1.00  0.00    -0.744 OA
ENDBRANCH  87  91
ENDBRANCH  61  84
ENDBRANCH  35  36
ENDBRANCH  28  30
ENDBRANCH  27  28
ENDBRANCH   1  27
TORSDOF 16
