REMARK SMILES CCOc1cccc(C(=O)Nc2ccc(Cl)c(C(=O)OCCOC(=O)c3ccc(-c4c5nc(c(-c6cc(S(=O)(=O)[O-])ccc6F)c6ccc([nH]6)c(-c6cc(S(=O)(=O)[O-])ccc6F)c6nc(c(-c7cc(S(=O)(=O)[O-])ccc7F)c7ccc4[nH]7)C=C6)C=C5)cc3)c2)c1
REMARK SMILES IDX 21 1 20 2 18 3 19 4 17 5 12 6 13 7 89 8 14 9 15 10 16 11
REMARK SMILES IDX 11 12 9 13 10 14 8 16 4 17 5 18 90 19 6 20 7 21 3 22 2 23
REMARK SMILES IDX 1 24 22 25 23 26 24 27 25 28 26 29 27 30 88 31 28 32 87 33
REMARK SMILES IDX 29 34 30 35 31 36 81 37 32 38 86 39 80 40 82 41 33 42 85 43
REMARK SMILES IDX 79 44 78 45 34 47 66 48 46 49 65 50 47 51 50 52 64 53 83 54
REMARK SMILES IDX 48 55 49 56 63 58 84 59 51 60 35 61 36 62 44 63 37 64 43 65
REMARK SMILES IDX 45 66 42 67 38 68 39 69 40 70 41 71 67 72 68 73 76 74 69 75
REMARK SMILES IDX 75 76 77 77 74 78 70 79 71 80 72 81 73 82 52 83 53 84 61 85
REMARK SMILES IDX 54 86 60 87 62 88 59 89 55 90 56 91 57 92 58 93
REMARK H PARENT 11 15 82 46 50 57
REMARK Flexibility Score: inf
ROOT
ATOM      1  C   UNL     1      -0.376   1.326  -3.654  1.00  0.00     0.275 C 
ENDROOT
BRANCH   1   2
ATOM      2  O   UNL     1       0.575   0.371  -3.138  1.00  0.00    -0.458 OA
BRANCH   2   3
ATOM      3  C   UNL     1       0.396  -0.030  -1.851  1.00  0.00     0.339 C 
ATOM      4  O   UNL     1      -0.549   0.293  -1.146  1.00  0.00    -0.246 OA
BRANCH   3   5
ATOM      5  C   UNL     1       1.512  -0.930  -1.425  1.00  0.00     0.080 A 
ATOM      6  C   UNL     1       3.904  -1.310  -1.435  1.00  0.00     0.042 A 
ATOM      7  C   UNL     1       3.760  -2.407  -0.591  1.00  0.00     0.028 A 
ATOM      8  C   UNL     1       2.778  -0.703  -1.990  1.00  0.00     0.043 A 
ATOM      9  C   UNL     1       2.511  -2.673  -0.049  1.00  0.00     0.023 A 
ATOM     10  C   UNL     1       1.420  -1.858  -0.371  1.00  0.00     0.055 A 
ATOM     11  Cl  UNL     1       0.111  -1.974   0.745  1.00  0.00    -0.083 Cl
BRANCH   6  12
ATOM     12  N   UNL     1       5.188  -0.765  -1.541  1.00  0.00    -0.322 N 
ATOM     13  C   UNL     1       5.626   0.549  -1.535  1.00  0.00     0.255 C 
ATOM     14  O   UNL     1       6.832   0.744  -1.712  1.00  0.00    -0.269 OA
ATOM     15  H   UNL     1       5.906  -1.432  -1.635  1.00  0.00     0.170 HD
BRANCH  13  16
ATOM     16  C   UNL     1       4.757   1.745  -1.264  1.00  0.00     0.043 A 
ATOM     17  C   UNL     1       2.713   2.833  -0.537  1.00  0.00     0.120 A 
ATOM     18  C   UNL     1       3.139   4.043  -1.070  1.00  0.00     0.046 A 
ATOM     19  C   UNL     1       3.553   1.718  -0.553  1.00  0.00     0.060 A 
ATOM     20  C   UNL     1       4.410   4.131  -1.632  1.00  0.00     0.005 A 
ATOM     21  C   UNL     1       5.200   2.983  -1.755  1.00  0.00     0.014 A 
BRANCH  17  22
ATOM     22  O   UNL     1       1.385   2.683  -0.246  1.00  0.00    -0.494 OA
BRANCH  22  23
ATOM     23  C   UNL     1       1.063   2.756   1.143  1.00  0.00     0.226 C 
ATOM     24  C   UNL     1       0.921   1.371   1.743  1.00  0.00     0.049 C 
ENDBRANCH  22  23
ENDBRANCH  17  22
ENDBRANCH  13  16
ENDBRANCH   6  12
ENDBRANCH   3   5
ENDBRANCH   2   3
ENDBRANCH   1   2
BRANCH   1  25
ATOM     25  C   UNL     1      -1.382   0.674  -4.606  1.00  0.00     0.275 C 
BRANCH  25  26
ATOM     26  O   UNL     1      -2.295  -0.181  -3.892  1.00  0.00    -0.458 OA
BRANCH  26  27
ATOM     27  C   UNL     1      -2.001  -1.504  -3.950  1.00  0.00     0.338 C 
ATOM     28  O   UNL     1      -1.118  -2.030  -4.599  1.00  0.00    -0.246 OA
BRANCH  27  29
ATOM     29  C   UNL     1      -2.780  -2.227  -2.930  1.00  0.00     0.060 A 
ATOM     30  C   UNL     1      -2.131  -2.447  -1.725  1.00  0.00     0.016 A 
ATOM     31  C   UNL     1      -4.013  -2.825  -3.167  1.00  0.00     0.016 A 
ATOM     32  C   UNL     1      -2.675  -3.264  -0.747  1.00  0.00     0.010 A 
ATOM     33  C   UNL     1      -4.575  -3.653  -2.174  1.00  0.00     0.010 A 
ATOM     34  C   UNL     1      -3.894  -3.896  -0.964  1.00  0.00    -0.014 A 
BRANCH  34  35
ATOM     35  C   UNL     1      -4.280  -4.965  -0.004  1.00  0.00     0.031 A 
ATOM     36  C   UNL     1      -4.150  -6.397  -0.447  1.00  0.00     0.074 A 
ATOM     37  C   UNL     1      -4.551  -4.693   1.289  1.00  0.00     0.049 A 
ATOM     38  N   UNL     1      -4.537  -7.493   0.150  1.00  0.00    -0.248 NA
ATOM     39  C   UNL     1      -3.476  -6.619  -1.737  1.00  0.00     0.031 C 
ATOM     40  C   UNL     1      -4.512  -3.363   1.903  1.00  0.00     0.029 A 
ATOM     41  N   UNL     1      -4.888  -5.525   2.330  1.00  0.00    -0.354 N 
ATOM     42  C   UNL     1      -4.186  -8.532  -0.705  1.00  0.00     0.074 A 
ATOM     43  C   UNL     1      -3.570  -7.932  -1.869  1.00  0.00     0.031 C 
ATOM     44  C   UNL     1      -4.817  -3.473   3.208  1.00  0.00     0.029 A 
ATOM     45  C   UNL     1      -5.155  -4.861   3.507  1.00  0.00     0.049 A 
ATOM     46  H   UNL     1      -4.934  -6.505   2.243  1.00  0.00     0.167 HD
ATOM     47  C   UNL     1      -4.364  -9.864  -0.532  1.00  0.00     0.034 A 
ATOM     48  C   UNL     1      -5.668  -5.313   4.671  1.00  0.00     0.034 A 
ATOM     49  C   UNL     1      -4.963 -10.440   0.646  1.00  0.00     0.049 A 
ATOM     50  C   UNL     1      -5.996  -6.786   4.788  1.00  0.00     0.074 A 
ATOM     51  C   UNL     1      -5.289 -11.762   0.893  1.00  0.00     0.029 A 
ATOM     52  N   UNL     1      -5.310  -9.727   1.787  1.00  0.00    -0.354 N 
ATOM     53  N   UNL     1      -5.804  -7.750   3.915  1.00  0.00    -0.248 NA
ATOM     54  C   UNL     1      -6.608  -7.232   6.046  1.00  0.00     0.031 C 
ATOM     55  C   UNL     1      -5.882 -11.840   2.157  1.00  0.00     0.029 A 
ATOM     56  C   UNL     1      -5.850 -10.581   2.736  1.00  0.00     0.049 A 
ATOM     57  H   UNL     1      -5.190  -8.757   1.904  1.00  0.00     0.167 HD
ATOM     58  C   UNL     1      -6.232  -8.920   4.540  1.00  0.00     0.074 A 
ATOM     59  C   UNL     1      -6.670  -8.542   5.867  1.00  0.00     0.031 C 
ATOM     60  C   UNL     1      -6.264 -10.191   4.063  1.00  0.00     0.034 A 
BRANCH  47  61
ATOM     61  C   UNL     1      -3.980 -10.765  -1.678  1.00  0.00     0.023 A 
ATOM     62  C   UNL     1      -2.645 -10.923  -2.090  1.00  0.00     0.031 A 
ATOM     63  C   UNL     1      -4.978 -11.445  -2.399  1.00  0.00     0.131 A 
ATOM     64  C   UNL     1      -2.353 -11.690  -3.228  1.00  0.00     0.055 A 
ATOM     65  C   UNL     1      -4.672 -12.270  -3.482  1.00  0.00     0.041 A 
ATOM     66  F   UNL     1      -6.272 -11.306  -2.070  1.00  0.00    -0.206 F 
ATOM     67  C   UNL     1      -3.354 -12.386  -3.910  1.00  0.00     0.022 A 
BRANCH  64  68
ATOM     68  S   UNL     1      -0.663 -11.658  -3.888  1.00  0.00     0.124 S 
ATOM     69  O   UNL     1      -0.499 -10.243  -4.210  1.00  0.00    -0.237 OA
ATOM     70  O   UNL     1       0.125 -12.153  -2.766  1.00  0.00    -0.237 OA
ATOM     71  O   UNL     1      -0.730 -12.550  -5.045  1.00  0.00    -0.744 OA
ENDBRANCH  64  68
ENDBRANCH  47  61
BRANCH  48  72
ATOM     72  C   UNL     1      -6.013  -4.374   5.785  1.00  0.00     0.023 A 
ATOM     73  C   UNL     1      -5.504  -4.550   7.083  1.00  0.00     0.031 A 
ATOM     74  C   UNL     1      -6.967  -3.356   5.594  1.00  0.00     0.131 A 
ATOM     75  C   UNL     1      -6.008  -3.781   8.146  1.00  0.00     0.055 A 
ATOM     76  C   UNL     1      -7.406  -2.541   6.639  1.00  0.00     0.041 A 
ATOM     77  F   UNL     1      -7.507  -3.146   4.382  1.00  0.00    -0.206 F 
ATOM     78  C   UNL     1      -6.943  -2.767   7.930  1.00  0.00     0.022 A 
BRANCH  75  79
ATOM     79  S   UNL     1      -5.540  -4.228   9.843  1.00  0.00     0.124 S 
ATOM     80  O   UNL     1      -5.925  -5.633   9.894  1.00  0.00    -0.237 OA
ATOM     81  O   UNL     1      -4.107  -3.954   9.844  1.00  0.00    -0.237 OA
ATOM     82  O   UNL     1      -6.347  -3.328  10.665  1.00  0.00    -0.744 OA
ENDBRANCH  75  79
ENDBRANCH  48  72
BRANCH  60  83
ATOM     83  C   UNL     1      -6.705 -11.274   5.020  1.00  0.00     0.023 A 
ATOM     84  C   UNL     1      -8.006 -11.320   5.551  1.00  0.00     0.031 A 
ATOM     85  C   UNL     1      -5.790 -12.260   5.431  1.00  0.00     0.131 A 
ATOM     86  C   UNL     1      -8.331 -12.280   6.522  1.00  0.00     0.055 A 
ATOM     87  C   UNL     1      -6.141 -13.258   6.341  1.00  0.00     0.041 A 
ATOM     88  F   UNL     1      -4.533 -12.267   4.959  1.00  0.00    -0.206 F 
ATOM     89  C   UNL     1      -7.412 -13.260   6.907  1.00  0.00     0.022 A 
BRANCH  86  90
ATOM     90  S   UNL     1      -9.928 -12.150   7.373  1.00  0.00     0.124 S 
ATOM     91  O   UNL     1      -9.888 -10.786   7.888  1.00  0.00    -0.237 OA
ATOM     92  O   UNL     1     -10.876 -12.396   6.291  1.00  0.00    -0.237 OA
ATOM     93  O   UNL     1      -9.861 -13.200   8.388  1.00  0.00    -0.744 OA
ENDBRANCH  86  90
ENDBRANCH  60  83
ENDBRANCH  34  35
ENDBRANCH  27  29
ENDBRANCH  26  27
ENDBRANCH  25  26
ENDBRANCH   1  25
TORSDOF 18
