REMARK SMILES O=C(CCc1nc2ccccc2[nH]1)NCCC(=O)OCCOC(=O)c1ccc(-c2c3nc(c(-c4cc(S(=O)(=O)[O-])ccc4F)c4ccc([nH]4)c(-c4cc(S(=O)(=O)[O-])ccc4F)c4nc(c(-c5cc(S(=O)(=O)[O-])ccc5F)c5ccc2[nH]5)C=C4)C=C3)cc1
REMARK SMILES IDX 20 1 19 2 17 3 18 4 16 5 15 6 14 7 1 8 2 9 3 11 4 12 5 13
REMARK SMILES IDX 6 14 13 15 7 16 12 17 8 19 11 20 9 21 10 22 21 23 22 24
REMARK SMILES IDX 23 25 24 26 25 27 26 28 87 29 27 30 86 31 28 32 29 33 30 34
REMARK SMILES IDX 80 35 31 36 85 37 79 38 81 39 32 40 84 41 78 42 77 43 33 45
REMARK SMILES IDX 65 46 45 47 64 48 46 49 49 50 63 51 82 52 47 53 48 54 62 56
REMARK SMILES IDX 83 57 50 58 34 59 35 60 43 61 36 62 42 63 44 64 41 65 37 66
REMARK SMILES IDX 38 67 39 68 40 69 66 70 67 71 75 72 68 73 74 74 76 75 73 76
REMARK SMILES IDX 69 77 70 78 71 79 72 80 51 81 52 82 60 83 53 84 59 85 61 86
REMARK SMILES IDX 58 87 54 88 55 89 56 90 57 91
REMARK H PARENT 14 10 13 18 81 44 49 55
REMARK Flexibility Score: inf
ROOT
ATOM      1  C   UNL     1       6.032   3.839  -1.545  1.00  0.00     0.274 C 
ENDROOT
BRANCH   1   2
ATOM      2  O   UNL     1       4.846   3.053  -1.328  1.00  0.00    -0.462 OA
BRANCH   2   3
ATOM      3  C   UNL     1       3.669   3.727  -1.438  1.00  0.00     0.307 C 
ATOM      4  O   UNL     1       3.574   4.928  -1.662  1.00  0.00    -0.252 OA
BRANCH   3   5
ATOM      5  C   UNL     1       2.458   2.863  -1.190  1.00  0.00     0.144 C 
BRANCH   5   6
ATOM      6  C   UNL     1       2.582   1.439  -1.710  1.00  0.00     0.127 C 
BRANCH   6   7
ATOM      7  N   UNL     1       3.164   0.556  -0.722  1.00  0.00    -0.356 N 
ATOM      8  O   UNL     1       1.190  -0.189   0.180  1.00  0.00    -0.275 OA
ATOM      9  C   UNL     1       2.418  -0.184   0.160  1.00  0.00     0.220 C 
ATOM     10  H   UNL     1       4.145   0.482  -0.681  1.00  0.00     0.163 HD
BRANCH   9  11
ATOM     11  C   UNL     1       3.229  -0.992   1.152  1.00  0.00     0.108 C 
BRANCH  11  12
ATOM     12  C   UNL     1       3.879  -2.218   0.519  1.00  0.00     0.085 C 
BRANCH  12  13
ATOM     13  C   UNL     1       5.070  -1.885  -0.319  1.00  0.00     0.107 A 
ATOM     14  N   UNL     1       5.675  -0.716  -0.400  1.00  0.00    -0.233 NA
ATOM     15  N   UNL     1       5.649  -2.796  -1.169  1.00  0.00    -0.342 N 
ATOM     16  C   UNL     1       6.622  -0.861  -1.384  1.00  0.00     0.089 A 
ATOM     17  C   UNL     1       6.631  -2.157  -1.881  1.00  0.00     0.065 A 
ATOM     18  H   UNL     1       5.401  -3.746  -1.252  1.00  0.00     0.168 HD
ATOM     19  C   UNL     1       7.503   0.085  -1.919  1.00  0.00     0.030 A 
ATOM     20  C   UNL     1       7.485  -2.578  -2.902  1.00  0.00     0.028 A 
ATOM     21  C   UNL     1       8.344  -0.296  -2.970  1.00  0.00     0.002 A 
ATOM     22  C   UNL     1       8.336  -1.608  -3.448  1.00  0.00     0.002 A 
ENDBRANCH  12  13
ENDBRANCH  11  12
ENDBRANCH   9  11
ENDBRANCH   6   7
ENDBRANCH   5   6
ENDBRANCH   3   5
ENDBRANCH   2   3
ENDBRANCH   1   2
BRANCH   1  23
ATOM     23  C   UNL     1       6.579   3.669  -2.960  1.00  0.00     0.275 C 
BRANCH  23  24
ATOM     24  O   UNL     1       5.569   3.933  -3.939  1.00  0.00    -0.458 OA
BRANCH  24  25
ATOM     25  C   UNL     1       5.034   2.847  -4.546  1.00  0.00     0.338 C 
ATOM     26  O   UNL     1       5.304   1.674  -4.377  1.00  0.00    -0.246 OA
BRANCH  25  27
ATOM     27  C   UNL     1       4.082   3.353  -5.536  1.00  0.00     0.060 A 
ATOM     28  C   UNL     1       2.868   3.905  -5.117  1.00  0.00     0.016 A 
ATOM     29  C   UNL     1       4.468   3.378  -6.877  1.00  0.00     0.016 A 
ATOM     30  C   UNL     1       2.054   4.548  -6.043  1.00  0.00     0.010 A 
ATOM     31  C   UNL     1       3.673   4.058  -7.793  1.00  0.00     0.010 A 
ATOM     32  C   UNL     1       2.482   4.677  -7.372  1.00  0.00    -0.014 A 
BRANCH  32  33
ATOM     33  C   UNL     1       1.764   5.569  -8.308  1.00  0.00     0.031 A 
ATOM     34  C   UNL     1       1.014   4.994  -9.468  1.00  0.00     0.074 A 
ATOM     35  C   UNL     1       1.890   6.901  -8.143  1.00  0.00     0.049 A 
ATOM     36  N   UNL     1       0.457   5.612 -10.475  1.00  0.00    -0.248 NA
ATOM     37  C   UNL     1       0.888   3.529  -9.509  1.00  0.00     0.031 C 
ATOM     38  C   UNL     1       2.618   7.548  -7.046  1.00  0.00     0.029 A 
ATOM     39  N   UNL     1       1.444   7.950  -8.905  1.00  0.00    -0.354 N 
ATOM     40  C   UNL     1      -0.066   4.613 -11.287  1.00  0.00     0.074 A 
ATOM     41  C   UNL     1       0.254   3.348 -10.660  1.00  0.00     0.031 C 
ATOM     42  C   UNL     1       2.580   8.878  -7.215  1.00  0.00     0.029 A 
ATOM     43  C   UNL     1       1.877   9.177  -8.456  1.00  0.00     0.049 A 
ATOM     44  H   UNL     1       0.870   7.836  -9.696  1.00  0.00     0.167 HD
ATOM     45  C   UNL     1      -0.747   4.753 -12.450  1.00  0.00     0.034 A 
ATOM     46  C   UNL     1       1.760  10.400  -9.009  1.00  0.00     0.034 A 
ATOM     47  C   UNL     1      -1.052   6.032 -13.043  1.00  0.00     0.049 A 
ATOM     48  C   UNL     1       1.033  10.518 -10.324  1.00  0.00     0.074 A 
ATOM     49  C   UNL     1      -1.805   6.302 -14.172  1.00  0.00     0.029 A 
ATOM     50  N   UNL     1      -0.601   7.256 -12.564  1.00  0.00    -0.354 N 
ATOM     51  N   UNL     1       0.485   9.570 -11.049  1.00  0.00    -0.248 NA
ATOM     52  C   UNL     1       0.912  11.864 -10.897  1.00  0.00     0.031 C 
ATOM     53  C   UNL     1      -1.753   7.679 -14.412  1.00  0.00     0.029 A 
ATOM     54  C   UNL     1      -1.019   8.278 -13.400  1.00  0.00     0.049 A 
ATOM     55  H   UNL     1      -0.062   7.379 -11.749  1.00  0.00     0.167 HD
ATOM     56  C   UNL     1      -0.058  10.208 -12.158  1.00  0.00     0.074 A 
ATOM     57  C   UNL     1       0.210  11.623 -11.994  1.00  0.00     0.031 C 
ATOM     58  C   UNL     1      -0.718   9.678 -13.219  1.00  0.00     0.034 A 
BRANCH  45  59
ATOM     59  C   UNL     1      -1.155   3.498 -13.177  1.00  0.00     0.023 A 
ATOM     60  C   UNL     1      -2.112   2.613 -12.654  1.00  0.00     0.031 A 
ATOM     61  C   UNL     1      -0.566   3.180 -14.413  1.00  0.00     0.131 A 
ATOM     62  C   UNL     1      -2.414   1.426 -13.340  1.00  0.00     0.055 A 
ATOM     63  C   UNL     1      -0.916   2.030 -15.121  1.00  0.00     0.041 A 
ATOM     64  F   UNL     1       0.371   3.979 -14.949  1.00  0.00    -0.206 F 
ATOM     65  C   UNL     1      -1.839   1.139 -14.580  1.00  0.00     0.022 A 
BRANCH  62  66
ATOM     66  S   UNL     1      -3.498   0.210 -12.542  1.00  0.00     0.124 S 
ATOM     67  O   UNL     1      -2.728  -0.135 -11.350  1.00  0.00    -0.237 OA
ATOM     68  O   UNL     1      -4.719   0.974 -12.315  1.00  0.00    -0.237 OA
ATOM     69  O   UNL     1      -3.607  -0.857 -13.536  1.00  0.00    -0.744 OA
ENDBRANCH  62  66
ENDBRANCH  45  59
BRANCH  46  70
ATOM     70  C   UNL     1       2.392  11.590  -8.370  1.00  0.00     0.023 A 
ATOM     71  C   UNL     1       1.616  12.662  -7.904  1.00  0.00     0.031 A 
ATOM     72  C   UNL     1       3.791  11.693  -8.259  1.00  0.00     0.131 A 
ATOM     73  C   UNL     1       2.243  13.810  -7.392  1.00  0.00     0.055 A 
ATOM     74  C   UNL     1       4.408  12.813  -7.699  1.00  0.00     0.041 A 
ATOM     75  F   UNL     1       4.582  10.697  -8.688  1.00  0.00    -0.206 F 
ATOM     76  C   UNL     1       3.633  13.887  -7.276  1.00  0.00     0.022 A 
BRANCH  73  77
ATOM     77  S   UNL     1       1.217  15.247  -6.974  1.00  0.00     0.124 S 
ATOM     78  O   UNL     1       0.482  15.461  -8.216  1.00  0.00    -0.237 OA
ATOM     79  O   UNL     1       0.440  14.744  -5.847  1.00  0.00    -0.237 OA
ATOM     80  O   UNL     1       2.197  16.279  -6.644  1.00  0.00    -0.744 OA
ENDBRANCH  73  77
ENDBRANCH  46  70
BRANCH  58  81
ATOM     81  C   UNL     1      -1.203  10.648 -14.262  1.00  0.00     0.023 A 
ATOM     82  C   UNL     1      -0.305  11.307 -15.119  1.00  0.00     0.031 A 
ATOM     83  C   UNL     1      -2.575  10.921 -14.394  1.00  0.00     0.131 A 
ATOM     84  C   UNL     1      -0.788  12.242 -16.045  1.00  0.00     0.055 A 
ATOM     85  C   UNL     1      -3.054  11.813 -15.352  1.00  0.00     0.041 A 
ATOM     86  F   UNL     1      -3.471  10.317 -13.596  1.00  0.00    -0.206 F 
ATOM     87  C   UNL     1      -2.158  12.487 -16.178  1.00  0.00     0.022 A 
BRANCH  84  88
ATOM     88  S   UNL     1       0.405  13.179 -17.038  1.00  0.00     0.124 S 
ATOM     89  O   UNL     1       1.122  13.935 -16.017  1.00  0.00    -0.237 OA
ATOM     90  O   UNL     1       1.164  12.123 -17.700  1.00  0.00    -0.237 OA
ATOM     91  O   UNL     1      -0.440  13.979 -17.924  1.00  0.00    -0.744 OA
ENDBRANCH  84  88
ENDBRANCH  58  81
ENDBRANCH  32  33
ENDBRANCH  25  27
ENDBRANCH  24  25
ENDBRANCH  23  24
ENDBRANCH   1  23
TORSDOF 19
