REMARK SMILES NS(=O)(=O)c1ccc(C#Cc2cc(Cl)cc3c2O[C@H](C(F)(F)F)C(C(=O)OCCOC(=O)c2ccc(-c4c5nc(c(-c6cc(S(=O)(=O)[O-])ccc6F)c6ccc([nH]6)c(-c6cc(S(=O)(=O)[O-])ccc6F)c6nc(c(-c7cc(S(=O)(=O)[O-])ccc7F)c7ccc4[nH]7)C=C6)C=C5)cc2)=C3)cc1
REMARK SMILES IDX 28 1 27 2 25 3 26 4 24 5 11 6 12 7 17 8 13 9 16 10 18 11
REMARK SMILES IDX 14 12 15 13 96 14 19 15 10 16 9 17 8 18 5 19 6 20 98 21 7 22
REMARK SMILES IDX 97 23 2 24 3 25 4 26 1 27 20 30 21 31 22 32 23 33 29 34
REMARK SMILES IDX 30 35 31 36 32 37 33 38 34 39 95 40 35 41 94 42 36 43 37 44
REMARK SMILES IDX 38 45 88 46 39 47 93 48 87 49 89 50 40 51 92 52 86 53 85 54
REMARK SMILES IDX 41 56 73 57 53 58 72 59 54 60 57 61 71 62 90 63 55 64 56 65
REMARK SMILES IDX 70 67 91 68 58 69 42 70 43 71 51 72 44 73 50 74 52 75 49 76
REMARK SMILES IDX 45 77 46 78 47 79 48 80 74 81 75 82 83 83 76 84 82 85 84 86
REMARK SMILES IDX 81 87 77 88 78 89 79 90 80 91 59 92 60 93 68 94 61 95 67 96
REMARK SMILES IDX 69 97 66 98 62 99 63 100 64 101 65 102
REMARK H PARENT 1 28 1 29 89 55 57 66
REMARK Flexibility Score: inf
ROOT
ATOM      1  C   UNL     1      -0.080  14.820   0.878  1.00  0.00     0.275 C 
ENDROOT
BRANCH   1   2
ATOM      2  O   UNL     1       0.333  13.532   1.389  1.00  0.00    -0.459 OA
BRANCH   2   3
ATOM      3  C   UNL     1       1.635  13.430   1.746  1.00  0.00     0.338 C 
ATOM      4  O   UNL     1       2.487  14.296   1.625  1.00  0.00    -0.246 OA
BRANCH   3   5
ATOM      5  C   UNL     1       1.917  12.103   2.336  1.00  0.00     0.087 C 
ATOM      6  C   UNL     1       3.017   8.347   3.828  1.00  0.00     0.069 A 
ATOM      7  C   UNL     1       3.885   8.263   4.922  1.00  0.00     0.041 A 
ATOM      8  C   UNL     1       2.604   9.589   3.331  1.00  0.00     0.143 A 
ATOM      9  C   UNL     1       4.315   9.426   5.550  1.00  0.00     0.043 A 
ATOM     10  C   UNL     1       3.055  10.743   3.963  1.00  0.00     0.020 A 
ATOM     11  O   UNL     1       1.756   9.616   2.253  1.00  0.00    -0.474 OA
ATOM     12  Cl  UNL     1       5.382   9.331   6.894  1.00  0.00    -0.084 Cl
ATOM     13  C   UNL     1       3.894  10.666   5.084  1.00  0.00     0.032 A 
ATOM     14  C   UNL     1       2.675  12.033   3.436  1.00  0.00     0.027 C 
ATOM     15  C   UNL     1       1.477  10.881   1.589  1.00  0.00     0.316 C 
BRANCH   6  16
ATOM     16  C   UNL     1       2.564   7.144   3.217  1.00  0.00    -0.058 C 
ATOM     17  C   UNL     1       2.154   6.164   2.658  1.00  0.00    -0.062 C 
BRANCH  17  18
ATOM     18  C   UNL     1       1.669   5.044   1.933  1.00  0.00     0.025 A 
ATOM     19  C   UNL     1       0.834   2.893   0.398  1.00  0.00     0.082 A 
ATOM     20  C   UNL     1       0.264   4.152   0.185  1.00  0.00     0.023 A 
ATOM     21  C   UNL     1       1.788   2.695   1.401  1.00  0.00     0.023 A 
ATOM     22  C   UNL     1       0.688   5.232   0.956  1.00  0.00     0.018 A 
ATOM     23  C   UNL     1       2.207   3.779   2.170  1.00  0.00     0.018 A 
BRANCH  19  24
ATOM     24  S   UNL     1       0.359   1.581  -0.682  1.00  0.00     0.238 S 
ATOM     25  O   UNL     1       1.020   1.777  -1.951  1.00  0.00    -0.207 OA
ATOM     26  O   UNL     1      -1.066   1.379  -0.566  1.00  0.00    -0.207 OA
BRANCH  24  27
ATOM     27  N   UNL     1       1.061   0.207  -0.018  1.00  0.00    -0.225 NA
ATOM     28  H   UNL     1       0.830  -0.604  -0.593  1.00  0.00     0.137 HD
ATOM     29  H   UNL     1       0.705   0.066   0.927  1.00  0.00     0.137 HD
ENDBRANCH  24  27
ENDBRANCH  19  24
ENDBRANCH  17  18
ENDBRANCH   6  16
BRANCH  15  30
ATOM     30  C   UNL     1       2.099  10.862   0.182  1.00  0.00     0.430 C 
ATOM     31  F   UNL     1       1.740   9.750  -0.504  1.00  0.00    -0.167 F 
ATOM     32  F   UNL     1       1.687  11.918  -0.561  1.00  0.00    -0.167 F 
ATOM     33  F   UNL     1       3.450  10.899   0.219  1.00  0.00    -0.167 F 
ENDBRANCH  15  30
ENDBRANCH   3   5
ENDBRANCH   2   3
ENDBRANCH   1   2
BRANCH   1  34
ATOM     34  C   UNL     1      -0.890  15.609   1.912  1.00  0.00     0.275 C 
BRANCH  34  35
ATOM     35  O   UNL     1      -0.061  16.058   2.997  1.00  0.00    -0.458 OA
BRANCH  35  36
ATOM     36  C   UNL     1      -0.022  15.221   4.057  1.00  0.00     0.338 C 
ATOM     37  O   UNL     1      -0.619  14.165   4.188  1.00  0.00    -0.246 OA
BRANCH  36  38
ATOM     38  C   UNL     1       1.001  15.676   5.004  1.00  0.00     0.060 A 
ATOM     39  C   UNL     1       0.706  16.457   6.108  1.00  0.00     0.016 A 
ATOM     40  C   UNL     1       2.277  15.157   4.845  1.00  0.00     0.016 A 
ATOM     41  C   UNL     1       1.725  16.719   7.032  1.00  0.00     0.010 A 
ATOM     42  C   UNL     1       3.215  15.239   5.860  1.00  0.00     0.010 A 
ATOM     43  C   UNL     1       2.983  16.081   6.942  1.00  0.00    -0.014 A 
BRANCH  43  44
ATOM     44  C   UNL     1       4.060  16.311   7.946  1.00  0.00     0.031 A 
ATOM     45  C   UNL     1       5.448  16.744   7.521  1.00  0.00     0.074 A 
ATOM     46  C   UNL     1       3.791  16.113   9.253  1.00  0.00     0.049 A 
ATOM     47  N   UNL     1       6.470  17.067   8.273  1.00  0.00    -0.248 NA
ATOM     48  C   UNL     1       5.752  16.785   6.078  1.00  0.00     0.031 C 
ATOM     49  C   UNL     1       2.532  15.579   9.775  1.00  0.00     0.029 A 
ATOM     50  N   UNL     1       4.536  16.359  10.379  1.00  0.00    -0.354 N 
ATOM     51  C   UNL     1       7.519  17.338   7.398  1.00  0.00     0.074 A 
ATOM     52  C   UNL     1       7.050  17.043   6.069  1.00  0.00     0.031 C 
ATOM     53  C   UNL     1       2.553  15.630  11.114  1.00  0.00     0.029 A 
ATOM     54  C   UNL     1       3.850  16.136  11.553  1.00  0.00     0.049 A 
ATOM     55  H   UNL     1       5.471  16.665  10.351  1.00  0.00     0.167 HD
ATOM     56  C   UNL     1       8.743  17.844   7.671  1.00  0.00     0.034 A 
ATOM     57  C   UNL     1       4.214  16.330  12.837  1.00  0.00     0.034 A 
ATOM     58  C   UNL     1       9.177  18.183   9.000  1.00  0.00     0.049 A 
ATOM     59  C   UNL     1       5.566  16.932  13.118  1.00  0.00     0.074 A 
ATOM     60  C   UNL     1      10.364  18.778   9.383  1.00  0.00     0.029 A 
ATOM     61  N   UNL     1       8.445  17.964  10.158  1.00  0.00    -0.354 N 
ATOM     62  N   UNL     1       6.493  17.307  12.267  1.00  0.00    -0.248 NA
ATOM     63  C   UNL     1       5.920  17.159  14.525  1.00  0.00     0.031 C 
ATOM     64  C   UNL     1      10.388  18.840  10.774  1.00  0.00     0.029 A 
ATOM     65  C   UNL     1       9.172  18.384  11.258  1.00  0.00     0.049 A 
ATOM     66  H   UNL     1       7.543  17.570  10.192  1.00  0.00     0.167 HD
ATOM     67  C   UNL     1       7.526  17.839  13.033  1.00  0.00     0.074 A 
ATOM     68  C   UNL     1       7.095  17.767  14.413  1.00  0.00     0.031 C 
ATOM     69  C   UNL     1       8.723  18.334  12.630  1.00  0.00     0.034 A 
BRANCH  56  70
ATOM     70  C   UNL     1       9.697  18.128   6.532  1.00  0.00     0.023 A 
ATOM     71  C   UNL     1      10.972  17.530   6.520  1.00  0.00     0.031 A 
ATOM     72  C   UNL     1       9.417  19.106   5.560  1.00  0.00     0.131 A 
ATOM     73  C   UNL     1      11.935  17.960   5.598  1.00  0.00     0.055 A 
ATOM     74  C   UNL     1      10.360  19.485   4.603  1.00  0.00     0.041 A 
ATOM     75  F   UNL     1       8.220  19.714   5.527  1.00  0.00    -0.206 F 
ATOM     76  C   UNL     1      11.633  18.925   4.633  1.00  0.00     0.022 A 
BRANCH  73  77
ATOM     77  S   UNL     1      13.644  17.358   5.683  1.00  0.00     0.124 S 
ATOM     78  O   UNL     1      13.833  16.800   4.346  1.00  0.00    -0.237 OA
ATOM     79  O   UNL     1      14.384  18.587   5.956  1.00  0.00    -0.237 OA
ATOM     80  O   UNL     1      13.619  16.381   6.765  1.00  0.00    -0.744 OA
ENDBRANCH  73  77
ENDBRANCH  56  70
BRANCH  57  81
ATOM     81  C   UNL     1       3.235  16.024  13.924  1.00  0.00     0.023 A 
ATOM     82  C   UNL     1       2.719  14.725  14.081  1.00  0.00     0.031 A 
ATOM     83  C   UNL     1       2.710  17.043  14.738  1.00  0.00     0.131 A 
ATOM     84  C   UNL     1       1.655  14.497  14.963  1.00  0.00     0.055 A 
ATOM     85  C   UNL     1       1.710  16.792  15.681  1.00  0.00     0.041 A 
ATOM     86  F   UNL     1       3.152  18.304  14.616  1.00  0.00    -0.206 F 
ATOM     87  C   UNL     1       1.162  15.517  15.781  1.00  0.00     0.022 A 
BRANCH  84  88
ATOM     88  S   UNL     1       0.773  12.911  14.959  1.00  0.00     0.124 S 
ATOM     89  O   UNL     1       0.953  12.458  16.334  1.00  0.00    -0.237 OA
ATOM     90  O   UNL     1      -0.582  13.327  14.602  1.00  0.00    -0.237 OA
ATOM     91  O   UNL     1       1.470  12.133  13.940  1.00  0.00    -0.744 OA
ENDBRANCH  84  88
ENDBRANCH  57  81
BRANCH  69  92
ATOM     92  C   UNL     1       9.678  18.872  13.669  1.00  0.00     0.023 A 
ATOM     93  C   UNL     1      10.112  20.210  13.587  1.00  0.00     0.031 A 
ATOM     94  C   UNL     1      10.290  18.032  14.615  1.00  0.00     0.131 A 
ATOM     95  C   UNL     1      11.168  20.651  14.392  1.00  0.00     0.055 A 
ATOM     96  C   UNL     1      11.295  18.497  15.464  1.00  0.00     0.041 A 
ATOM     97  F   UNL     1       9.927  16.744  14.721  1.00  0.00    -0.206 F 
ATOM     98  C   UNL     1      11.752  19.806  15.341  1.00  0.00     0.022 A 
BRANCH  95  99
ATOM     99  S   UNL     1      11.902  22.293  14.152  1.00  0.00     0.124 S 
ATOM    100  O   UNL     1      11.685  22.913  15.456  1.00  0.00    -0.237 OA
ATOM    101  O   UNL     1      13.290  21.965  13.840  1.00  0.00    -0.237 OA
ATOM    102  O   UNL     1      11.130  22.867  13.055  1.00  0.00    -0.744 OA
ENDBRANCH  95  99
ENDBRANCH  69  92
ENDBRANCH  43  44
ENDBRANCH  36  38
ENDBRANCH  35  36
ENDBRANCH  34  35
ENDBRANCH   1  34
TORSDOF 19
