REMARK SMILES Cc1ccc2cc(C[N@H+]3CC[NH2+][C@H](C(=O)OCCOC(=O)c4ccc(-c5c6nc(c(-c7cc(S(=O)(=O)[O-])ccc7F)c7ccc([nH]7)c(-c7cc(S(=O)(=O)[O-])ccc7F)c7nc(c(-c8cc(S(=O)(=O)[O-])ccc8F)c8ccc5[nH]8)C=C7)C=C6)cc4)C3)c(N3CCOCC3)nc2c1
REMARK SMILES IDX 17 1 16 2 14 3 15 4 13 5 9 6 10 7 85 8 11 10 12 11 8 14 7 15
REMARK SMILES IDX 1 16 2 17 3 18 95 19 4 20 94 21 5 22 93 23 6 24 86 25 87 26
REMARK SMILES IDX 88 27 92 28 89 29 91 30 90 31 18 32 19 33 20 34 21 35 22 36
REMARK SMILES IDX 23 37 84 38 24 39 83 40 25 41 26 42 27 43 77 44 28 45 82 46
REMARK SMILES IDX 76 47 78 48 29 49 81 50 75 51 74 52 30 54 62 55 42 56 61 57
REMARK SMILES IDX 43 58 46 59 60 60 79 61 44 62 45 63 59 65 80 66 47 67 31 68
REMARK SMILES IDX 32 69 40 70 33 71 39 72 41 73 38 74 34 75 35 76 36 77 37 78
REMARK SMILES IDX 63 79 64 80 72 81 65 82 71 83 73 84 70 85 66 86 67 87 68 88
REMARK SMILES IDX 69 89 48 90 49 91 57 92 50 93 56 94 58 95 55 96 51 97 52 98
REMARK SMILES IDX 53 99 54 100
REMARK H PARENT 9 9 12 12 12 13 78 53 46 64
REMARK Flexibility Score: inf
ROOT
ATOM      1  C   UNL     1       4.310  -6.011  -1.322  1.00  0.00     0.274 C 
ENDROOT
BRANCH   1   2
ATOM      2  O   UNL     1       2.998  -5.735  -1.854  1.00  0.00    -0.457 OA
BRANCH   2   3
ATOM      3  C   UNL     1       2.179  -6.803  -2.082  1.00  0.00     0.371 C 
ATOM      4  O   UNL     1       2.546  -7.973  -2.051  1.00  0.00    -0.245 OA
BRANCH   3   5
ATOM      5  C   UNL     1       0.727  -6.355  -2.306  1.00  0.00     0.348 C 
ATOM      6  N   UNL     1      -1.654  -7.252  -2.201  1.00  0.00    -0.321 N 
ATOM      7  C   UNL     1      -1.911  -6.512  -3.442  1.00  0.00     0.324 C 
ATOM      8  C   UNL     1      -0.225  -7.552  -2.059  1.00  0.00     0.341 C 
ATOM      9  H   UNL     1      -2.124  -8.151  -2.305  1.00  0.00     0.348 HD
ATOM     10  C   UNL     1      -0.898  -5.381  -3.771  1.00  0.00     0.323 C 
ATOM     11  N   UNL     1       0.521  -5.799  -3.677  1.00  0.00    -0.325 N 
ATOM     12  H   UNL     1       1.133  -4.997  -3.825  1.00  0.00     0.347 HD
ATOM     13  H   UNL     1       0.741  -6.497  -4.388  1.00  0.00     0.347 HD
BRANCH   6  14
ATOM     14  C   UNL     1      -2.362  -6.790  -0.988  1.00  0.00     0.303 C 
BRANCH  14  15
ATOM     15  C   UNL     1      -2.325  -5.314  -0.641  1.00  0.00     0.049 A 
ATOM     16  C   UNL     1       0.249   0.597  -0.271  1.00  0.00     0.044 C 
ATOM     17  C   UNL     1      -0.250  -0.796  -0.044  1.00  0.00    -0.049 A 
ATOM     18  C   UNL     1       0.446  -1.636   0.821  1.00  0.00     0.004 A 
ATOM     19  C   UNL     1      -1.413  -1.279  -0.676  1.00  0.00     0.032 A 
ATOM     20  C   UNL     1       0.034  -2.952   0.974  1.00  0.00     0.010 A 
ATOM     21  C   UNL     1      -1.834  -2.604  -0.559  1.00  0.00     0.073 A 
ATOM     22  C   UNL     1      -1.049  -3.450   0.232  1.00  0.00     0.001 A 
ATOM     23  N   UNL     1      -2.930  -3.057  -1.208  1.00  0.00    -0.230 NA
ATOM     24  C   UNL     1      -1.321  -4.815   0.186  1.00  0.00     0.023 A 
ATOM     25  C   UNL     1      -3.214  -4.385  -1.189  1.00  0.00     0.138 A 
BRANCH  25  26
ATOM     26  N   UNL     1      -4.398  -4.822  -1.754  1.00  0.00    -0.352 N 
ATOM     27  C   UNL     1      -5.398  -5.414  -0.847  1.00  0.00     0.146 C 
ATOM     28  C   UNL     1      -4.995  -4.063  -2.847  1.00  0.00     0.146 C 
ATOM     29  C   UNL     1      -6.319  -6.323  -1.677  1.00  0.00     0.181 C 
ATOM     30  C   UNL     1      -5.933  -5.015  -3.616  1.00  0.00     0.181 C 
ATOM     31  O   UNL     1      -6.935  -5.597  -2.760  1.00  0.00    -0.378 OA
ENDBRANCH  25  26
ENDBRANCH  14  15
ENDBRANCH   6  14
ENDBRANCH   3   5
ENDBRANCH   2   3
ENDBRANCH   1   2
BRANCH   1  32
ATOM     32  C   UNL     1       4.461  -5.441   0.099  1.00  0.00     0.275 C 
BRANCH  32  33
ATOM     33  O   UNL     1       3.837  -6.267   1.110  1.00  0.00    -0.458 OA
BRANCH  33  34
ATOM     34  C   UNL     1       2.507  -6.062   1.227  1.00  0.00     0.338 C 
ATOM     35  O   UNL     1       1.851  -5.288   0.552  1.00  0.00    -0.246 OA
BRANCH  34  36
ATOM     36  C   UNL     1       1.846  -6.952   2.194  1.00  0.00     0.060 A 
ATOM     37  C   UNL     1       2.269  -7.110   3.510  1.00  0.00     0.016 A 
ATOM     38  C   UNL     1       0.656  -7.546   1.769  1.00  0.00     0.016 A 
ATOM     39  C   UNL     1       1.503  -7.903   4.380  1.00  0.00     0.010 A 
ATOM     40  C   UNL     1      -0.129  -8.290   2.637  1.00  0.00     0.010 A 
ATOM     41  C   UNL     1       0.312  -8.511   3.942  1.00  0.00    -0.014 A 
BRANCH  41  42
ATOM     42  C   UNL     1      -0.455  -9.444   4.800  1.00  0.00     0.031 A 
ATOM     43  C   UNL     1      -0.444 -10.915   4.481  1.00  0.00     0.074 A 
ATOM     44  C   UNL     1      -1.204  -8.974   5.814  1.00  0.00     0.049 A 
ATOM     45  N   UNL     1      -0.974 -11.906   5.148  1.00  0.00    -0.248 NA
ATOM     46  C   UNL     1       0.229 -11.325   3.236  1.00  0.00     0.031 C 
ATOM     47  C   UNL     1      -1.373  -7.561   6.147  1.00  0.00     0.029 A 
ATOM     48  N   UNL     1      -1.965  -9.633   6.747  1.00  0.00    -0.354 N 
ATOM     49  C   UNL     1      -0.684 -13.052   4.416  1.00  0.00     0.074 A 
ATOM     50  C   UNL     1      -0.007 -12.628   3.213  1.00  0.00     0.031 C 
ATOM     51  C   UNL     1      -2.157  -7.459   7.233  1.00  0.00     0.029 A 
ATOM     52  C   UNL     1      -2.553  -8.798   7.669  1.00  0.00     0.049 A 
ATOM     53  H   UNL     1      -2.079 -10.611   6.756  1.00  0.00     0.167 HD
ATOM     54  C   UNL     1      -0.922 -14.343   4.741  1.00  0.00     0.034 A 
ATOM     55  C   UNL     1      -3.298  -9.085   8.758  1.00  0.00     0.034 A 
ATOM     56  C   UNL     1      -1.587 -14.744   5.952  1.00  0.00     0.049 A 
ATOM     57  C   UNL     1      -3.531 -10.533   9.119  1.00  0.00     0.074 A 
ATOM     58  C   UNL     1      -1.808 -16.026   6.420  1.00  0.00     0.029 A 
ATOM     59  N   UNL     1      -2.139 -13.875   6.881  1.00  0.00    -0.354 N 
ATOM     60  N   UNL     1      -3.115 -11.615   8.502  1.00  0.00    -0.248 NA
ATOM     61  C   UNL     1      -4.311 -10.805  10.335  1.00  0.00     0.031 C 
ATOM     62  C   UNL     1      -2.544 -15.934   7.602  1.00  0.00     0.029 A 
ATOM     63  C   UNL     1      -2.722 -14.593   7.909  1.00  0.00     0.049 A 
ATOM     64  H   UNL     1      -2.118 -12.892   6.818  1.00  0.00     0.167 HD
ATOM     65  C   UNL     1      -3.551 -12.691   9.271  1.00  0.00     0.074 A 
ATOM     66  C   UNL     1      -4.249 -12.129  10.409  1.00  0.00     0.031 C 
ATOM     67  C   UNL     1      -3.391 -14.021   9.053  1.00  0.00     0.034 A 
BRANCH  54  68
ATOM     68  C   UNL     1      -0.422 -15.425   3.817  1.00  0.00     0.023 A 
ATOM     69  C   UNL     1      -1.325 -16.320   3.216  1.00  0.00     0.031 A 
ATOM     70  C   UNL     1       0.956 -15.646   3.635  1.00  0.00     0.131 A 
ATOM     71  C   UNL     1      -0.838 -17.413   2.488  1.00  0.00     0.055 A 
ATOM     72  C   UNL     1       1.435 -16.711   2.872  1.00  0.00     0.041 A 
ATOM     73  F   UNL     1       1.859 -14.822   4.192  1.00  0.00    -0.206 F 
ATOM     74  C   UNL     1       0.535 -17.608   2.305  1.00  0.00     0.022 A 
BRANCH  71  75
ATOM     75  S   UNL     1      -1.962 -18.658   1.798  1.00  0.00     0.124 S 
ATOM     76  O   UNL     1      -1.615 -18.623   0.379  1.00  0.00    -0.237 OA
ATOM     77  O   UNL     1      -1.551 -19.865   2.511  1.00  0.00    -0.237 OA
ATOM     78  O   UNL     1      -3.290 -18.152   2.125  1.00  0.00    -0.744 OA
ENDBRANCH  71  75
ENDBRANCH  54  68
BRANCH  55  79
ATOM     79  C   UNL     1      -3.759  -7.971   9.639  1.00  0.00     0.023 A 
ATOM     80  C   UNL     1      -4.652  -6.990   9.173  1.00  0.00     0.031 A 
ATOM     81  C   UNL     1      -3.224  -7.818  10.930  1.00  0.00     0.131 A 
ATOM     82  C   UNL     1      -4.939  -5.874   9.972  1.00  0.00     0.055 A 
ATOM     83  C   UNL     1      -3.562  -6.737  11.746  1.00  0.00     0.041 A 
ATOM     84  F   UNL     1      -2.353  -8.719  11.412  1.00  0.00    -0.206 F 
ATOM     85  C   UNL     1      -4.412  -5.750  11.262  1.00  0.00     0.022 A 
BRANCH  82  86
ATOM     86  S   UNL     1      -5.905  -4.483   9.320  1.00  0.00     0.124 S 
ATOM     87  O   UNL     1      -7.044  -4.449  10.232  1.00  0.00    -0.237 OA
ATOM     88  O   UNL     1      -4.959  -3.377   9.450  1.00  0.00    -0.237 OA
ATOM     89  O   UNL     1      -6.205  -4.885   7.950  1.00  0.00    -0.744 OA
ENDBRANCH  82  86
ENDBRANCH  55  79
BRANCH  67  90
ATOM     90  C   UNL     1      -3.959 -14.998  10.054  1.00  0.00     0.023 A 
ATOM     91  C   UNL     1      -3.096 -15.873  10.745  1.00  0.00     0.031 A 
ATOM     92  C   UNL     1      -5.345 -15.190  10.183  1.00  0.00     0.131 A 
ATOM     93  C   UNL     1      -3.629 -16.930  11.492  1.00  0.00     0.055 A 
ATOM     94  C   UNL     1      -5.871 -16.215  10.970  1.00  0.00     0.041 A 
ATOM     95  F   UNL     1      -6.206 -14.392   9.533  1.00  0.00    -0.206 F 
ATOM     96  C   UNL     1      -5.011 -17.102  11.614  1.00  0.00     0.022 A 
BRANCH  93  97
ATOM     97  S   UNL     1      -2.550 -18.181  12.245  1.00  0.00     0.124 S 
ATOM     98  O   UNL     1      -2.858 -18.028  13.665  1.00  0.00    -0.237 OA
ATOM     99  O   UNL     1      -3.035 -19.414  11.631  1.00  0.00    -0.237 OA
ATOM    100  O   UNL     1      -1.206 -17.770  11.852  1.00  0.00    -0.744 OA
ENDBRANCH  93  97
ENDBRANCH  67  90
ENDBRANCH  41  42
ENDBRANCH  34  36
ENDBRANCH  33  34
ENDBRANCH  32  33
ENDBRANCH   1  32
TORSDOF 17
