REMARK SMILES Cc1nn([C@H]2CCS(=O)(=O)C2)c(C)c1/C=C(\CC(=O)OCCOC(=O)c1ccc(-c2c3nc(c(-c4cc(S(=O)(=O)[O-])ccc4F)c4ccc([nH]4)c(-c4cc(S(=O)(=O)[O-])ccc4F)c4nc(c(-c5cc(S(=O)(=O)[O-])ccc5F)c5ccc2[nH]5)C=C4)C=C3)cc1)c1nc2ccccc2s1
REMARK SMILES IDX 21 1 20 2 18 3 19 4 17 5 16 6 15 7 14 8 1 9 2 10 3 11 4 12
REMARK SMILES IDX 12 13 13 14 5 15 6 16 11 17 7 18 8 19 9 20 10 21 89 22 90 23
REMARK SMILES IDX 97 24 91 25 96 26 92 27 95 28 93 29 94 30 22 31 23 32 24 33
REMARK SMILES IDX 25 34 26 35 27 36 88 37 28 38 87 39 29 40 30 41 31 42 81 43
REMARK SMILES IDX 32 44 86 45 80 46 82 47 33 48 85 49 79 50 78 51 34 53 66 54
REMARK SMILES IDX 46 55 65 56 47 57 50 58 64 59 83 60 48 61 49 62 63 64 84 65
REMARK SMILES IDX 51 66 35 67 36 68 44 69 37 70 43 71 45 72 42 73 38 74 39 75
REMARK SMILES IDX 40 76 41 77 67 78 68 79 76 80 69 81 75 82 77 83 74 84 70 85
REMARK SMILES IDX 71 86 72 87 73 88 52 89 53 90 61 91 54 92 60 93 62 94 59 95
REMARK SMILES IDX 55 96 56 97 57 98 58 99
REMARK H PARENT 82 52 50 63
REMARK Flexibility Score: inf
ROOT
ATOM      1  C   UNL     1       2.502  -1.450  10.592  1.00  0.00     0.274 C 
ENDROOT
BRANCH   1   2
ATOM      2  O   UNL     1       2.214  -2.087   9.329  1.00  0.00    -0.462 OA
BRANCH   2   3
ATOM      3  C   UNL     1       2.207  -1.219   8.299  1.00  0.00     0.310 C 
ATOM      4  O   UNL     1       2.121   0.008   8.439  1.00  0.00    -0.252 OA
BRANCH   3   5
ATOM      5  C   UNL     1       2.324  -1.782   6.891  1.00  0.00     0.161 C 
BRANCH   5   6
ATOM      6  C   UNL     1       2.378  -3.164   6.223  1.00  0.00    -0.000 C 
ATOM      7  C   UNL     1       1.442  -3.468   5.279  1.00  0.00     0.019 C 
BRANCH   7   8
ATOM      8  C   UNL     1       0.362  -2.594   4.924  1.00  0.00     0.019 A 
ATOM      9  C   UNL     1      -1.670  -4.192   4.980  1.00  0.00     0.069 C 
ATOM     10  C   UNL     1      -1.024  -2.856   4.956  1.00  0.00     0.067 A 
ATOM     11  N   UNL     1      -1.729  -1.708   5.002  1.00  0.00    -0.177 NA
ATOM     12  N   UNL     1      -0.779  -0.750   4.918  1.00  0.00    -0.265 N 
ATOM     13  C   UNL     1       0.455  -1.259   4.567  1.00  0.00     0.043 A 
ATOM     14  C   UNL     1       1.616  -0.405   4.169  1.00  0.00     0.067 C 
BRANCH  12  15
ATOM     15  C   UNL     1      -1.049   0.653   5.125  1.00  0.00     0.123 C 
ATOM     16  C   UNL     1      -2.495   1.138   5.314  1.00  0.00     0.044 C 
ATOM     17  C   UNL     1      -0.330   1.275   6.333  1.00  0.00     0.164 C 
ATOM     18  C   UNL     1      -2.375   2.668   5.406  1.00  0.00     0.139 C 
ATOM     19  S   UNL     1      -0.773   2.987   6.145  1.00  0.00     0.152 S 
ATOM     20  O   UNL     1       0.086   3.557   5.124  1.00  0.00    -0.229 OA
ATOM     21  O   UNL     1      -0.951   3.606   7.439  1.00  0.00    -0.229 OA
ENDBRANCH  12  15
ENDBRANCH   7   8
BRANCH   6  22
ATOM     22  C   UNL     1       3.506  -4.053   6.424  1.00  0.00     0.121 A 
ATOM     23  N   UNL     1       4.269  -3.989   7.487  1.00  0.00    -0.236 NA
ATOM     24  S   UNL     1       4.115  -5.187   5.236  1.00  0.00    -0.114 S 
ATOM     25  C   UNL     1       5.357  -4.819   7.391  1.00  0.00     0.082 A 
ATOM     26  C   UNL     1       5.400  -5.658   6.286  1.00  0.00     0.055 A 
ATOM     27  C   UNL     1       6.428  -4.865   8.286  1.00  0.00     0.030 A 
ATOM     28  C   UNL     1       6.419  -6.623   6.174  1.00  0.00     0.021 A 
ATOM     29  C   UNL     1       7.173  -6.023   8.394  1.00  0.00     0.002 A 
ATOM     30  C   UNL     1       7.226  -6.861   7.300  1.00  0.00     0.002 A 
ENDBRANCH   6  22
ENDBRANCH   5   6
ENDBRANCH   3   5
ENDBRANCH   2   3
ENDBRANCH   1   2
BRANCH   1  31
ATOM     31  C   UNL     1       3.985  -1.583  10.953  1.00  0.00     0.275 C 
BRANCH  31  32
ATOM     32  O   UNL     1       4.880  -0.637  10.331  1.00  0.00    -0.458 OA
BRANCH  32  33
ATOM     33  C   UNL     1       5.232  -0.956   9.064  1.00  0.00     0.338 C 
ATOM     34  O   UNL     1       4.560  -1.538   8.254  1.00  0.00    -0.246 OA
BRANCH  33  35
ATOM     35  C   UNL     1       6.651  -0.857   8.765  1.00  0.00     0.060 A 
ATOM     36  C   UNL     1       7.016  -1.206   7.448  1.00  0.00     0.016 A 
ATOM     37  C   UNL     1       7.542  -0.912   9.828  1.00  0.00     0.016 A 
ATOM     38  C   UNL     1       8.236  -1.804   7.236  1.00  0.00     0.010 A 
ATOM     39  C   UNL     1       8.752  -1.525   9.615  1.00  0.00     0.010 A 
ATOM     40  C   UNL     1       9.059  -2.031   8.343  1.00  0.00    -0.014 A 
BRANCH  40  41
ATOM     41  C   UNL     1      10.414  -2.520   8.118  1.00  0.00     0.031 A 
ATOM     42  C   UNL     1      11.175  -1.475   7.391  1.00  0.00     0.074 A 
ATOM     43  C   UNL     1      10.886  -3.642   8.701  1.00  0.00     0.049 A 
ATOM     44  N   UNL     1      11.621  -1.512   6.178  1.00  0.00    -0.248 NA
ATOM     45  C   UNL     1      11.126  -0.103   7.956  1.00  0.00     0.031 C 
ATOM     46  C   UNL     1      10.131  -4.550   9.558  1.00  0.00     0.029 A 
ATOM     47  N   UNL     1      12.141  -4.171   8.762  1.00  0.00    -0.354 N 
ATOM     48  C   UNL     1      12.208  -0.262   6.008  1.00  0.00     0.074 A 
ATOM     49  C   UNL     1      11.519   0.611   6.904  1.00  0.00     0.031 C 
ATOM     50  C   UNL     1      10.965  -5.393  10.200  1.00  0.00     0.029 A 
ATOM     51  C   UNL     1      12.325  -5.107   9.793  1.00  0.00     0.049 A 
ATOM     52  H   UNL     1      12.858  -3.919   8.136  1.00  0.00     0.167 HD
ATOM     53  C   UNL     1      13.499  -0.184   5.585  1.00  0.00     0.034 A 
ATOM     54  C   UNL     1      13.507  -5.520  10.347  1.00  0.00     0.034 A 
ATOM     55  C   UNL     1      13.841  -1.380   4.832  1.00  0.00     0.049 A 
ATOM     56  C   UNL     1      14.566  -5.161   9.366  1.00  0.00     0.074 A 
ATOM     57  C   UNL     1      13.264  -2.022   3.751  1.00  0.00     0.029 A 
ATOM     58  N   UNL     1      14.658  -2.317   5.429  1.00  0.00    -0.354 N 
ATOM     59  N   UNL     1      14.660  -5.720   8.189  1.00  0.00    -0.248 NA
ATOM     60  C   UNL     1      15.131  -3.821   9.463  1.00  0.00     0.031 C 
ATOM     61  C   UNL     1      13.398  -3.413   4.022  1.00  0.00     0.029 A 
ATOM     62  C   UNL     1      14.161  -3.572   5.180  1.00  0.00     0.049 A 
ATOM     63  H   UNL     1      15.469  -2.118   5.951  1.00  0.00     0.167 HD
ATOM     64  C   UNL     1      14.863  -4.665   7.310  1.00  0.00     0.074 A 
ATOM     65  C   UNL     1      15.206  -3.524   8.161  1.00  0.00     0.031 C 
ATOM     66  C   UNL     1      14.423  -4.733   6.017  1.00  0.00     0.034 A 
BRANCH  53  67
ATOM     67  C   UNL     1      14.542   0.695   6.274  1.00  0.00     0.023 A 
ATOM     68  C   UNL     1      15.859   0.547   5.818  1.00  0.00     0.031 A 
ATOM     69  C   UNL     1      14.408   1.434   7.481  1.00  0.00     0.131 A 
ATOM     70  C   UNL     1      16.950   0.953   6.605  1.00  0.00     0.055 A 
ATOM     71  C   UNL     1      15.495   1.870   8.242  1.00  0.00     0.041 A 
ATOM     72  F   UNL     1      13.239   1.758   8.039  1.00  0.00    -0.206 F 
ATOM     73  C   UNL     1      16.780   1.596   7.825  1.00  0.00     0.022 A 
BRANCH  70  74
ATOM     74  S   UNL     1      18.599   0.463   6.066  1.00  0.00     0.124 S 
ATOM     75  O   UNL     1      18.449  -0.985   5.983  1.00  0.00    -0.237 OA
ATOM     76  O   UNL     1      18.717   1.175   4.798  1.00  0.00    -0.237 OA
ATOM     77  O   UNL     1      19.461   0.949   7.140  1.00  0.00    -0.744 OA
ENDBRANCH  70  74
ENDBRANCH  53  67
BRANCH  54  78
ATOM     78  C   UNL     1      13.791  -5.867  11.785  1.00  0.00     0.023 A 
ATOM     79  C   UNL     1      14.974  -6.518  12.222  1.00  0.00     0.031 A 
ATOM     80  C   UNL     1      12.967  -5.344  12.811  1.00  0.00     0.131 A 
ATOM     81  C   UNL     1      15.274  -6.623  13.610  1.00  0.00     0.055 A 
ATOM     82  C   UNL     1      13.266  -5.453  14.172  1.00  0.00     0.041 A 
ATOM     83  F   UNL     1      11.870  -4.625  12.531  1.00  0.00    -0.206 F 
ATOM     84  C   UNL     1      14.426  -6.083  14.578  1.00  0.00     0.022 A 
BRANCH  81  85
ATOM     85  S   UNL     1      16.824  -7.396  14.200  1.00  0.00     0.124 S 
ATOM     86  O   UNL     1      16.606  -8.805  13.895  1.00  0.00    -0.237 OA
ATOM     87  O   UNL     1      17.842  -6.708  13.414  1.00  0.00    -0.237 OA
ATOM     88  O   UNL     1      16.844  -7.078  15.630  1.00  0.00    -0.744 OA
ENDBRANCH  81  85
ENDBRANCH  54  78
BRANCH  66  89
ATOM     89  C   UNL     1      14.040  -6.088   5.447  1.00  0.00     0.023 A 
ATOM     90  C   UNL     1      13.039  -6.955   5.949  1.00  0.00     0.031 A 
ATOM     91  C   UNL     1      14.670  -6.453   4.244  1.00  0.00     0.131 A 
ATOM     92  C   UNL     1      12.714  -8.136   5.245  1.00  0.00     0.055 A 
ATOM     93  C   UNL     1      14.331  -7.606   3.541  1.00  0.00     0.041 A 
ATOM     94  F   UNL     1      15.613  -5.663   3.704  1.00  0.00    -0.206 F 
ATOM     95  C   UNL     1      13.355  -8.457   4.043  1.00  0.00     0.022 A 
BRANCH  92  96
ATOM     96  S   UNL     1      11.472  -9.309   5.889  1.00  0.00     0.124 S 
ATOM     97  O   UNL     1      11.817  -9.434   7.299  1.00  0.00    -0.237 OA
ATOM     98  O   UNL     1      10.211  -8.630   5.602  1.00  0.00    -0.237 OA
ATOM     99  O   UNL     1      11.703 -10.518   5.095  1.00  0.00    -0.744 OA
ENDBRANCH  92  96
ENDBRANCH  66  89
ENDBRANCH  40  41
ENDBRANCH  33  35
ENDBRANCH  32  33
ENDBRANCH  31  32
ENDBRANCH   1  31
TORSDOF 18
