REMARK SMILES O=C(OCCOC(=O)c1cccc([C@@H]2CCC[N@@H+](Cc3cccc(OCCO)c3)C2)c1)c1ccc(-c2c3nc(c(-c4cc(S(=O)(=O)[O-])ccc4F)c4ccc([nH]4)c(-c4cc(S(=O)(=O)[O-])ccc4F)c4nc(c(-c5cc(S(=O)(=O)[O-])ccc5F)c5ccc2[nH]5)C=C4)C=C3)cc1
REMARK SMILES IDX 7 1 8 2 6 3 5 4 4 5 3 6 2 7 1 8 32 9 33 10 94 11 34 12 93 13
REMARK SMILES IDX 35 14 36 15 37 16 87 17 38 18 92 19 86 20 88 21 39 22 91 23
REMARK SMILES IDX 85 24 84 25 40 27 72 28 52 29 71 30 53 31 56 32 70 33 89 34
REMARK SMILES IDX 54 35 55 36 69 38 90 39 57 40 41 41 42 42 50 43 43 44 49 45
REMARK SMILES IDX 51 46 48 47 44 48 45 49 46 50 47 51 73 52 74 53 82 54 75 55
REMARK SMILES IDX 81 56 83 57 80 58 76 59 77 60 78 61 79 62 58 63 59 64 67 65
REMARK SMILES IDX 60 66 66 67 68 68 65 69 61 70 62 71 63 72 64 73 9 74 10 75
REMARK SMILES IDX 31 76 11 77 13 78 12 79 14 80 15 81 30 82 16 83 18 84 17 85
REMARK SMILES IDX 19 87 20 88 21 89 29 90 22 91 24 92 23 93 25 94 26 95 27 96
REMARK SMILES IDX 28 97
REMARK H PARENT 88 26 56 37 18 86 28 98
REMARK Flexibility Score: inf
ROOT
ATOM      1  C   UNL     1       2.263   2.099   0.461  1.00  0.00     0.338 C 
ATOM      2  O   UNL     1       1.471   2.089  -0.471  1.00  0.00    -0.246 OA
ENDROOT
BRANCH   1   3
ATOM      3  O   UNL     1       3.614   2.001   0.406  1.00  0.00    -0.458 OA
BRANCH   3   4
ATOM      4  C   UNL     1       4.182   1.871  -0.896  1.00  0.00     0.275 C 
BRANCH   4   5
ATOM      5  C   UNL     1       4.414   0.410  -1.284  1.00  0.00     0.275 C 
BRANCH   5   6
ATOM      6  O   UNL     1       3.270  -0.429  -1.044  1.00  0.00    -0.458 OA
BRANCH   6   7
ATOM      7  C   UNL     1       2.834  -1.073   0.064  1.00  0.00     0.338 C 
ATOM      8  O   UNL     1       1.741  -1.640  -0.015  1.00  0.00    -0.246 OA
BRANCH   7   9
ATOM      9  C   UNL     1       3.550  -1.158   1.390  1.00  0.00     0.060 A 
ATOM     10  C   UNL     1       4.785  -0.598   1.722  1.00  0.00     0.016 A 
ATOM     11  C   UNL     1       2.881  -1.871   2.410  1.00  0.00     0.016 A 
ATOM     12  C   UNL     1       5.339  -0.760   3.004  1.00  0.00     0.010 A 
ATOM     13  C   UNL     1       3.416  -2.014   3.700  1.00  0.00     0.010 A 
ATOM     14  C   UNL     1       4.663  -1.468   4.003  1.00  0.00    -0.014 A 
BRANCH  14  15
ATOM     15  C   UNL     1       5.293  -1.617   5.350  1.00  0.00     0.031 A 
ATOM     16  C   UNL     1       6.035  -2.866   5.652  1.00  0.00     0.074 A 
ATOM     17  C   UNL     1       5.199  -0.613   6.245  1.00  0.00     0.049 A 
ATOM     18  N   UNL     1       6.799  -3.136   6.670  1.00  0.00    -0.248 NA
ATOM     19  C   UNL     1       5.875  -3.965   4.689  1.00  0.00     0.031 C 
ATOM     20  C   UNL     1       4.317   0.501   5.992  1.00  0.00     0.029 A 
ATOM     21  N   UNL     1       5.743  -0.309   7.477  1.00  0.00    -0.354 N 
ATOM     22  C   UNL     1       7.227  -4.438   6.469  1.00  0.00     0.074 A 
ATOM     23  C   UNL     1       6.611  -4.911   5.249  1.00  0.00     0.031 C 
ATOM     24  C   UNL     1       4.389   1.362   7.010  1.00  0.00     0.029 A 
ATOM     25  C   UNL     1       5.403   0.965   7.940  1.00  0.00     0.049 A 
ATOM     26  H   UNL     1       6.315  -0.930   7.982  1.00  0.00     0.167 HD
ATOM     27  C   UNL     1       8.055  -5.167   7.251  1.00  0.00     0.034 A 
ATOM     28  C   UNL     1       5.879   1.773   8.927  1.00  0.00     0.034 A 
ATOM     29  C   UNL     1       8.565  -4.701   8.503  1.00  0.00     0.049 A 
ATOM     30  C   UNL     1       7.068   0.790   9.779  1.00  0.00     0.074 A 
ATOM     31  C   UNL     1       9.364  -5.352   9.422  1.00  0.00     0.029 A 
ATOM     32  N   UNL     1       8.277  -3.451   9.020  1.00  0.00    -0.354 N 
ATOM     33  N   UNL     1       7.237  -0.558   9.688  1.00  0.00    -0.248 NA
ATOM     34  C   UNL     1       8.096   1.254  10.733  1.00  0.00     0.031 C 
ATOM     35  C   UNL     1       9.487  -4.523  10.543  1.00  0.00     0.029 A 
ATOM     36  C   UNL     1       8.838  -3.330  10.269  1.00  0.00     0.049 A 
ATOM     37  H   UNL     1       7.750  -2.755   8.564  1.00  0.00     0.167 HD
ATOM     38  C   UNL     1       8.198  -0.967  10.660  1.00  0.00     0.074 A 
ATOM     39  C   UNL     1       8.660   0.213  11.284  1.00  0.00     0.031 C 
ATOM     40  C   UNL     1       8.831  -2.120  11.023  1.00  0.00     0.034 A 
BRANCH  27  41
ATOM     41  C   UNL     1       8.325  -6.563   6.803  1.00  0.00     0.023 A 
ATOM     42  C   UNL     1       9.004  -6.809   5.601  1.00  0.00     0.031 A 
ATOM     43  C   UNL     1       7.756  -7.642   7.496  1.00  0.00     0.131 A 
ATOM     44  C   UNL     1       8.977  -8.095   5.056  1.00  0.00     0.055 A 
ATOM     45  C   UNL     1       7.824  -8.939   6.997  1.00  0.00     0.041 A 
ATOM     46  F   UNL     1       7.072  -7.441   8.634  1.00  0.00    -0.206 F 
ATOM     47  C   UNL     1       8.414  -9.167   5.755  1.00  0.00     0.022 A 
BRANCH  44  48
ATOM     48  S   UNL     1       9.476  -8.291   3.326  1.00  0.00     0.124 S 
ATOM     49  O   UNL     1       8.469  -7.484   2.641  1.00  0.00    -0.237 OA
ATOM     50  O   UNL     1      10.832  -7.753   3.323  1.00  0.00    -0.237 OA
ATOM     51  O   UNL     1       9.373  -9.731   3.104  1.00  0.00    -0.744 OA
ENDBRANCH  44  48
ENDBRANCH  27  41
BRANCH  28  52
ATOM     52  C   UNL     1       5.227   3.457   9.073  1.00  0.00     0.023 A 
ATOM     53  C   UNL     1       5.911   4.780   9.225  1.00  0.00     0.031 A 
ATOM     54  C   UNL     1       3.855   3.778   9.045  1.00  0.00     0.131 A 
ATOM     55  C   UNL     1       5.436   6.075   9.533  1.00  0.00     0.055 A 
ATOM     56  C   UNL     1       3.321   5.124   9.225  1.00  0.00     0.041 A 
ATOM     57  F   UNL     1       2.932   2.819   8.897  1.00  0.00    -0.206 F 
ATOM     58  C   UNL     1       4.094   6.260   9.531  1.00  0.00     0.022 A 
BRANCH  55  59
ATOM     59  S   UNL     1       6.671   7.386  10.016  1.00  0.00     0.124 S 
ATOM     60  O   UNL     1       7.433   6.760  11.090  1.00  0.00    -0.237 OA
ATOM     61  O   UNL     1       7.405   7.600   8.773  1.00  0.00    -0.237 OA
ATOM     62  O   UNL     1       5.826   8.494  10.447  1.00  0.00    -0.744 OA
ENDBRANCH  55  59
ENDBRANCH  28  52
BRANCH  40  63
ATOM     63  C   UNL     1       9.699  -2.062  12.293  1.00  0.00     0.023 A 
ATOM     64  C   UNL     1       9.108  -1.759  13.538  1.00  0.00     0.031 A 
ATOM     65  C   UNL     1      11.104  -2.153  12.244  1.00  0.00     0.131 A 
ATOM     66  C   UNL     1       9.915  -1.476  14.653  1.00  0.00     0.055 A 
ATOM     67  C   UNL     1      11.898  -1.942  13.378  1.00  0.00     0.041 A 
ATOM     68  F   UNL     1      11.737  -2.394  11.085  1.00  0.00    -0.206 F 
ATOM     69  C   UNL     1      11.306  -1.585  14.587  1.00  0.00     0.022 A 
BRANCH  66  70
ATOM     70  S   UNL     1       9.131  -0.826  16.157  1.00  0.00     0.124 S 
ATOM     71  O   UNL     1       8.654   0.477  15.704  1.00  0.00    -0.237 OA
ATOM     72  O   UNL     1       8.104  -1.824  16.435  1.00  0.00    -0.237 OA
ATOM     73  O   UNL     1      10.227  -0.783  17.123  1.00  0.00    -0.744 OA
ENDBRANCH  66  70
ENDBRANCH  40  63
ENDBRANCH  14  15
ENDBRANCH   7   9
ENDBRANCH   6   7
ENDBRANCH   5   6
ENDBRANCH   4   5
ENDBRANCH   3   4
ENDBRANCH   1   3
BRANCH   1  74
ATOM     74  C   UNL     1       1.895   2.152   1.880  1.00  0.00     0.060 A 
ATOM     75  C   UNL     1       0.970   1.244   2.397  1.00  0.00     0.016 A 
ATOM     76  C   UNL     1       2.544   3.084   2.702  1.00  0.00     0.020 A 
ATOM     77  C   UNL     1       0.719   1.254   3.765  1.00  0.00     0.001 A 
ATOM     78  C   UNL     1       2.292   3.124   4.069  1.00  0.00    -0.038 A 
ATOM     79  C   UNL     1       1.369   2.188   4.591  1.00  0.00     0.004 A 
BRANCH  78  80
ATOM     80  C   UNL     1       3.060   4.087   4.978  1.00  0.00     0.074 C 
ATOM     81  C   UNL     1       2.962   5.575   4.636  1.00  0.00     0.020 C 
ATOM     82  C   UNL     1       4.545   3.682   5.206  1.00  0.00     0.270 C 
ATOM     83  C   UNL     1       4.148   6.089   3.808  1.00  0.00     0.062 C 
ATOM     84  N   UNL     1       5.650   4.240   4.453  1.00  0.00    -0.331 N 
ATOM     85  C   UNL     1       5.549   5.680   4.344  1.00  0.00     0.262 C 
ATOM     86  H   UNL     1       5.561   3.959   3.477  1.00  0.00     0.348 HD
BRANCH  84  87
ATOM     87  C   UNL     1       6.987   3.578   4.682  1.00  0.00     0.299 C 
BRANCH  87  88
ATOM     88  C   UNL     1       7.899   3.571   5.949  1.00  0.00     0.010 A 
ATOM     89  C   UNL     1       9.264   3.303   5.829  1.00  0.00     0.010 A 
ATOM     90  C   UNL     1       7.464   3.606   7.290  1.00  0.00     0.056 A 
ATOM     91  C   UNL     1      10.091   3.139   6.968  1.00  0.00     0.004 A 
ATOM     92  C   UNL     1       8.249   3.436   8.522  1.00  0.00     0.119 A 
ATOM     93  C   UNL     1       9.595   3.208   8.286  1.00  0.00     0.046 A 
BRANCH  92  94
ATOM     94  O   UNL     1       7.925   3.487   9.903  1.00  0.00    -0.491 OA
BRANCH  94  95
ATOM     95  C   UNL     1       7.000   3.615  11.228  1.00  0.00     0.257 C 
BRANCH  95  96
ATOM     96  C   UNL     1       5.501   3.101  11.694  1.00  0.00     0.197 C 
BRANCH  96  97
ATOM     97  O   UNL     1       4.992   1.810  11.360  1.00  0.00    -0.393 OA
ATOM     98  H   UNL     1       4.843   1.759  10.403  1.00  0.00     0.210 HD
ENDBRANCH  96  97
ENDBRANCH  95  96
ENDBRANCH  94  95
ENDBRANCH  92  94
ENDBRANCH  87  88
ENDBRANCH  84  87
ENDBRANCH  78  80
ENDBRANCH   1  74
TORSDOF 21
