REMARK SMILES Cc1cc(NC[C@H](C)[NH+](C)C)cc(C(=O)OCCOC(=O)c2ccc(-c3c4nc(c(-c5cc(S(=O)(=O)[O-])ccc5F)c5ccc([nH]5)c(-c5cc(S(=O)(=O)[O-])ccc5F)c5nc(c(-c6cc(S(=O)(=O)[O-])ccc6F)c6ccc3[nH]6)C=C5)C=C4)cc2)c1N
REMARK SMILES IDX 17 1 16 2 14 3 15 4 13 5 1 6 2 7 3 8 85 9 4 10 12 11 86 12
REMARK SMILES IDX 5 15 6 17 7 18 8 19 9 20 10 21 11 22 18 24 19 25 20 26 21 27
REMARK SMILES IDX 22 28 23 29 84 30 24 31 83 32 25 33 26 34 27 35 77 36 28 37
REMARK SMILES IDX 82 38 76 39 78 40 29 41 81 42 75 43 74 44 30 46 62 47 42 48
REMARK SMILES IDX 61 49 43 50 46 51 60 52 79 53 44 54 45 55 59 57 80 58 47 59
REMARK SMILES IDX 31 60 32 61 40 62 33 63 39 64 41 65 38 66 34 67 35 68 36 69
REMARK SMILES IDX 37 70 63 71 64 72 72 73 65 74 71 75 73 76 70 77 66 78 67 79
REMARK SMILES IDX 68 80 69 81 48 82 49 83 57 84 50 85 56 86 58 87 55 88 51 89
REMARK SMILES IDX 52 90 53 91 54 92
REMARK H PARENT 86 13 86 14 5 16 9 23 78 45 46 56
REMARK Flexibility Score: inf
ROOT
ATOM      1  C   UNL     1      -5.037   7.952  -1.032  1.00  0.00     0.275 C 
ENDROOT
BRANCH   1   2
ATOM      2  O   UNL     1      -5.245   7.033   0.060  1.00  0.00    -0.458 OA
BRANCH   2   3
ATOM      3  C   UNL     1      -4.637   7.335   1.240  1.00  0.00     0.340 C 
ATOM      4  O   UNL     1      -3.896   8.284   1.446  1.00  0.00    -0.246 OA
BRANCH   3   5
ATOM      5  C   UNL     1      -5.041   6.352   2.283  1.00  0.00     0.085 A 
ATOM      6  C   UNL     1      -6.061   6.183   5.954  1.00  0.00     0.047 C 
ATOM      7  C   UNL     1      -5.695   5.800   4.543  1.00  0.00    -0.025 A 
ATOM      8  C   UNL     1      -5.888   4.468   4.132  1.00  0.00     0.031 A 
ATOM      9  C   UNL     1      -5.169   6.737   3.635  1.00  0.00     0.049 A 
ATOM     10  C   UNL     1      -5.609   4.045   2.829  1.00  0.00     0.035 A 
ATOM     11  C   UNL     1      -5.250   5.018   1.899  1.00  0.00     0.043 A 
BRANCH   9  12
ATOM     12  N   UNL     1      -4.915   8.042   4.052  1.00  0.00    -0.398 N 
ATOM     13  H   UNL     1      -5.013   8.283   5.002  1.00  0.00     0.156 HD
ATOM     14  H   UNL     1      -4.638   8.723   3.397  1.00  0.00     0.156 HD
ENDBRANCH   9  12
BRANCH  10  15
ATOM     15  N   UNL     1      -5.739   2.706   2.513  1.00  0.00    -0.379 N 
ATOM     16  H   UNL     1      -6.101   2.096   3.196  1.00  0.00     0.160 HD
BRANCH  15  17
ATOM     17  C   UNL     1      -5.365   2.152   1.219  1.00  0.00     0.177 C 
BRANCH  17  18
ATOM     18  C   UNL     1      -5.359   0.595   1.220  1.00  0.00     0.199 C 
ATOM     19  C   UNL     1      -4.516   0.106   0.029  1.00  0.00     0.077 C 
BRANCH  18  20
ATOM     20  N   UNL     1      -6.663  -0.114   1.242  1.00  0.00    -0.336 N 
ATOM     21  C   UNL     1      -7.388   0.066   2.500  1.00  0.00     0.332 C 
ATOM     22  C   UNL     1      -7.545   0.210   0.121  1.00  0.00     0.332 C 
ATOM     23  H   UNL     1      -6.401  -1.095   1.147  1.00  0.00     0.347 HD
ENDBRANCH  18  20
ENDBRANCH  17  18
ENDBRANCH  15  17
ENDBRANCH  10  15
ENDBRANCH   3   5
ENDBRANCH   2   3
ENDBRANCH   1   2
BRANCH   1  24
ATOM     24  C   UNL     1      -6.275   8.827  -1.228  1.00  0.00     0.275 C 
BRANCH  24  25
ATOM     25  O   UNL     1      -6.421   9.661  -0.071  1.00  0.00    -0.458 OA
BRANCH  25  26
ATOM     26  C   UNL     1      -7.676  10.087   0.212  1.00  0.00     0.338 C 
ATOM     27  O   UNL     1      -8.658   9.967  -0.499  1.00  0.00    -0.246 OA
BRANCH  26  28
ATOM     28  C   UNL     1      -7.670  10.737   1.548  1.00  0.00     0.060 A 
ATOM     29  C   UNL     1      -6.748  10.344   2.518  1.00  0.00     0.016 A 
ATOM     30  C   UNL     1      -8.622  11.704   1.869  1.00  0.00     0.016 A 
ATOM     31  C   UNL     1      -6.799  10.871   3.808  1.00  0.00     0.010 A 
ATOM     32  C   UNL     1      -8.620  12.292   3.145  1.00  0.00     0.010 A 
ATOM     33  C   UNL     1      -7.720  11.868   4.143  1.00  0.00    -0.014 A 
BRANCH  33  34
ATOM     34  C   UNL     1      -7.799  12.396   5.542  1.00  0.00     0.031 A 
ATOM     35  C   UNL     1      -9.112  12.340   6.282  1.00  0.00     0.074 A 
ATOM     36  C   UNL     1      -6.717  12.889   6.183  1.00  0.00     0.049 A 
ATOM     37  N   UNL     1      -9.484  12.972   7.366  1.00  0.00    -0.248 NA
ATOM     38  C   UNL     1     -10.151  11.472   5.708  1.00  0.00     0.031 C 
ATOM     39  C   UNL     1      -5.356  12.941   5.645  1.00  0.00     0.029 A 
ATOM     40  N   UNL     1      -6.589  13.433   7.441  1.00  0.00    -0.354 N 
ATOM     41  C   UNL     1     -10.826  12.652   7.551  1.00  0.00     0.074 A 
ATOM     42  C   UNL     1     -11.194  11.757   6.473  1.00  0.00     0.031 C 
ATOM     43  C   UNL     1      -4.529  13.432   6.581  1.00  0.00     0.029 A 
ATOM     44  C   UNL     1      -5.309  13.841   7.744  1.00  0.00     0.049 A 
ATOM     45  H   UNL     1      -7.344  13.521   8.067  1.00  0.00     0.167 HD
ATOM     46  C   UNL     1     -11.672  13.079   8.522  1.00  0.00     0.034 A 
ATOM     47  C   UNL     1      -4.822  14.521   8.803  1.00  0.00     0.034 A 
ATOM     48  C   UNL     1     -11.269  13.903   9.636  1.00  0.00     0.049 A 
ATOM     49  C   UNL     1      -5.778  14.988   9.873  1.00  0.00     0.074 A 
ATOM     50  C   UNL     1     -12.046  14.407  10.666  1.00  0.00     0.029 A 
ATOM     51  N   UNL     1      -9.967  14.319   9.886  1.00  0.00    -0.354 N 
ATOM     52  N   UNL     1      -7.076  14.811   9.954  1.00  0.00    -0.248 NA
ATOM     53  C   UNL     1      -5.207  15.773  10.975  1.00  0.00     0.031 C 
ATOM     54  C   UNL     1     -11.223  15.155  11.516  1.00  0.00     0.029 A 
ATOM     55  C   UNL     1      -9.921  15.071  11.050  1.00  0.00     0.049 A 
ATOM     56  H   UNL     1      -9.190  14.109   9.319  1.00  0.00     0.167 HD
ATOM     57  C   UNL     1      -7.475  15.470  11.114  1.00  0.00     0.074 A 
ATOM     58  C   UNL     1      -6.277  16.015  11.718  1.00  0.00     0.031 C 
ATOM     59  C   UNL     1      -8.721  15.623  11.628  1.00  0.00     0.034 A 
BRANCH  46  60
ATOM     60  C   UNL     1     -13.132  12.723   8.377  1.00  0.00     0.023 A 
ATOM     61  C   UNL     1     -13.600  11.403   8.475  1.00  0.00     0.031 A 
ATOM     62  C   UNL     1     -14.070  13.737   8.106  1.00  0.00     0.131 A 
ATOM     63  C   UNL     1     -14.955  11.124   8.238  1.00  0.00     0.055 A 
ATOM     64  C   UNL     1     -15.429  13.463   7.947  1.00  0.00     0.041 A 
ATOM     65  F   UNL     1     -13.677  15.015   7.981  1.00  0.00    -0.206 F 
ATOM     66  C   UNL     1     -15.877  12.147   7.999  1.00  0.00     0.022 A 
BRANCH  63  67
ATOM     67  S   UNL     1     -15.479   9.391   8.120  1.00  0.00     0.124 S 
ATOM     68  O   UNL     1     -14.676   8.916   6.996  1.00  0.00    -0.237 OA
ATOM     69  O   UNL     1     -15.118   8.862   9.431  1.00  0.00    -0.237 OA
ATOM     70  O   UNL     1     -16.914   9.482   7.859  1.00  0.00    -0.744 OA
ENDBRANCH  63  67
ENDBRANCH  46  60
BRANCH  47  71
ATOM     71  C   UNL     1      -3.378  14.896   8.867  1.00  0.00     0.023 A 
ATOM     72  C   UNL     1      -2.545  14.420   9.893  1.00  0.00     0.031 A 
ATOM     73  C   UNL     1      -2.821  15.782   7.926  1.00  0.00     0.131 A 
ATOM     74  C   UNL     1      -1.212  14.856   9.971  1.00  0.00     0.055 A 
ATOM     75  C   UNL     1      -1.480  16.165   7.973  1.00  0.00     0.041 A 
ATOM     76  F   UNL     1      -3.574  16.278   6.931  1.00  0.00    -0.206 F 
ATOM     77  C   UNL     1      -0.670  15.710   9.008  1.00  0.00     0.022 A 
BRANCH  74  78
ATOM     78  S   UNL     1      -0.212  14.358  11.401  1.00  0.00     0.124 S 
ATOM     79  O   UNL     1      -1.002  14.878  12.512  1.00  0.00    -0.237 OA
ATOM     80  O   UNL     1      -0.182  12.906  11.259  1.00  0.00    -0.237 OA
ATOM     81  O   UNL     1       1.065  15.031  11.175  1.00  0.00    -0.744 OA
ENDBRANCH  74  78
ENDBRANCH  47  71
BRANCH  59  82
ATOM     82  C   UNL     1      -8.832  16.390  12.921  1.00  0.00     0.023 A 
ATOM     83  C   UNL     1      -8.605  17.776  12.974  1.00  0.00     0.031 A 
ATOM     84  C   UNL     1      -9.142  15.720  14.117  1.00  0.00     0.131 A 
ATOM     85  C   UNL     1      -8.639  18.441  14.209  1.00  0.00     0.055 A 
ATOM     86  C   UNL     1      -9.221  16.395  15.335  1.00  0.00     0.041 A 
ATOM     87  F   UNL     1      -9.366  14.396  14.119  1.00  0.00    -0.206 F 
ATOM     88  C   UNL     1      -8.957  17.761  15.388  1.00  0.00     0.022 A 
BRANCH  85  89
ATOM     89  S   UNL     1      -8.183  20.196  14.268  1.00  0.00     0.124 S 
ATOM     90  O   UNL     1      -6.821  20.174  13.744  1.00  0.00    -0.237 OA
ATOM     91  O   UNL     1      -9.188  20.810  13.407  1.00  0.00    -0.237 OA
ATOM     92  O   UNL     1      -8.295  20.532  15.687  1.00  0.00    -0.744 OA
ENDBRANCH  85  89
ENDBRANCH  59  82
ENDBRANCH  33  34
ENDBRANCH  26  28
ENDBRANCH  25  26
ENDBRANCH  24  25
ENDBRANCH   1  24
TORSDOF 19
