REMARK SMILES COC(=O)c1ccc(C[N@@H+](CC(=O)OCCOC(=O)c2ccc(-c3c4nc(c(-c5cc(S(=O)(=O)[O-])ccc5F)c5ccc([nH]5)c(-c5cc(S(=O)(=O)[O-])ccc5F)c5nc(c(-c6cc(S(=O)(=O)[O-])ccc6F)c6ccc3[nH]6)C=C5)C=C4)cc2)C(C)(C)C)cc1
REMARK SMILES IDX 15 1 14 2 12 3 13 4 11 5 10 6 9 8 8 9 5 10 6 11 88 12 7 13
REMARK SMILES IDX 87 14 3 15 4 16 2 17 1 18 83 19 84 20 85 21 86 22 16 23
REMARK SMILES IDX 17 24 18 25 19 26 20 27 21 28 82 29 22 30 81 31 23 32 24 33
REMARK SMILES IDX 25 34 75 35 26 36 80 37 74 38 76 39 27 40 79 41 73 42 72 43
REMARK SMILES IDX 28 45 60 46 40 47 59 48 41 49 44 50 58 51 77 52 42 53 43 54
REMARK SMILES IDX 57 56 78 57 45 58 29 59 30 60 38 61 31 62 37 63 39 64 36 65
REMARK SMILES IDX 32 66 33 67 34 68 35 69 61 70 62 71 70 72 63 73 69 74 71 75
REMARK SMILES IDX 68 76 64 77 65 78 66 79 67 80 46 81 47 82 55 83 48 84 54 85
REMARK SMILES IDX 56 86 53 87 49 88 50 89 51 90 52 91
REMARK H PARENT 10 7 76 44 44 55
REMARK Flexibility Score: inf
ROOT
ATOM      1  C   UNL     1      -4.761  -0.061   9.668  1.00  0.00     0.274 C 
ENDROOT
BRANCH   1   2
ATOM      2  O   UNL     1      -3.486  -0.479   9.110  1.00  0.00    -0.458 OA
BRANCH   2   3
ATOM      3  C   UNL     1      -2.577  -1.009   9.971  1.00  0.00     0.361 C 
ATOM      4  O   UNL     1      -2.702  -0.934  11.195  1.00  0.00    -0.245 OA
BRANCH   3   5
ATOM      5  C   UNL     1      -1.350  -1.709   9.357  1.00  0.00     0.387 C 
BRANCH   5   6
ATOM      6  N   UNL     1      -1.165  -1.812   7.885  1.00  0.00    -0.318 N 
ATOM      7  H   UNL     1      -0.217  -2.156   7.732  1.00  0.00     0.349 HD
BRANCH   6   8
ATOM      8  C   UNL     1      -1.189  -0.483   7.267  1.00  0.00     0.299 C 
BRANCH   8   9
ATOM      9  C   UNL     1      -0.510  -0.376   5.926  1.00  0.00     0.006 A 
ATOM     10  C   UNL     1       0.629  -0.478   3.377  1.00  0.00     0.060 A 
ATOM     11  C   UNL     1       1.408  -0.777   4.500  1.00  0.00     0.016 A 
ATOM     12  C   UNL     1      -0.705  -0.082   3.532  1.00  0.00     0.016 A 
ATOM     13  C   UNL     1       0.847  -0.700   5.775  1.00  0.00     0.010 A 
ATOM     14  C   UNL     1      -1.270  -0.029   4.802  1.00  0.00     0.010 A 
BRANCH  10  15
ATOM     15  C   UNL     1       1.235  -0.642   2.031  1.00  0.00     0.337 C 
ATOM     16  O   UNL     1       2.229  -1.298   1.804  1.00  0.00    -0.246 OA
BRANCH  15  17
ATOM     17  O   UNL     1       0.525   0.086   1.128  1.00  0.00    -0.465 OA
ATOM     18  C   UNL     1       1.028   0.013  -0.203  1.00  0.00     0.282 C 
ENDBRANCH  15  17
ENDBRANCH  10  15
ENDBRANCH   8   9
ENDBRANCH   6   8
BRANCH   6  19
ATOM     19  C   UNL     1      -1.675  -3.017   7.147  1.00  0.00     0.090 C 
ATOM     20  C   UNL     1      -3.030  -2.821   6.415  1.00  0.00     0.078 C 
ATOM     21  C   UNL     1      -0.670  -3.456   6.041  1.00  0.00     0.078 C 
ATOM     22  C   UNL     1      -1.722  -4.297   8.028  1.00  0.00     0.078 C 
ENDBRANCH   6  19
ENDBRANCH   5   6
ENDBRANCH   3   5
ENDBRANCH   2   3
ENDBRANCH   1   2
BRANCH   1  23
ATOM     23  C   UNL     1      -5.928  -0.959   9.197  1.00  0.00     0.275 C 
BRANCH  23  24
ATOM     24  O   UNL     1      -6.066  -2.179   9.972  1.00  0.00    -0.458 OA
BRANCH  24  25
ATOM     25  C   UNL     1      -5.114  -3.071   9.646  1.00  0.00     0.338 C 
ATOM     26  O   UNL     1      -4.242  -2.869   8.822  1.00  0.00    -0.246 OA
BRANCH  25  27
ATOM     27  C   UNL     1      -5.067  -4.350  10.337  1.00  0.00     0.060 A 
ATOM     28  C   UNL     1      -3.862  -4.628  10.989  1.00  0.00     0.016 A 
ATOM     29  C   UNL     1      -5.944  -5.375   9.981  1.00  0.00     0.016 A 
ATOM     30  C   UNL     1      -3.503  -5.944  11.236  1.00  0.00     0.010 A 
ATOM     31  C   UNL     1      -5.622  -6.693  10.323  1.00  0.00     0.010 A 
ATOM     32  C   UNL     1      -4.400  -6.986  10.953  1.00  0.00    -0.014 A 
BRANCH  32  33
ATOM     33  C   UNL     1      -4.094  -8.346  11.459  1.00  0.00     0.031 A 
ATOM     34  C   UNL     1      -3.868  -9.511  10.541  1.00  0.00     0.074 A 
ATOM     35  C   UNL     1      -4.021  -8.495  12.796  1.00  0.00     0.049 A 
ATOM     36  N   UNL     1      -3.718 -10.775  10.843  1.00  0.00    -0.248 NA
ATOM     37  C   UNL     1      -3.811  -9.226   9.101  1.00  0.00     0.031 C 
ATOM     38  C   UNL     1      -4.197  -7.411  13.771  1.00  0.00     0.029 A 
ATOM     39  N   UNL     1      -3.778  -9.596  13.572  1.00  0.00    -0.354 N 
ATOM     40  C   UNL     1      -3.571 -11.447   9.634  1.00  0.00     0.074 A 
ATOM     41  C   UNL     1      -3.664 -10.443   8.591  1.00  0.00     0.031 C 
ATOM     42  C   UNL     1      -4.019  -7.892  15.005  1.00  0.00     0.029 A 
ATOM     43  C   UNL     1      -3.829  -9.331  14.921  1.00  0.00     0.049 A 
ATOM     44  H   UNL     1      -3.586 -10.488  13.203  1.00  0.00     0.167 HD
ATOM     45  C   UNL     1      -3.383 -12.776   9.429  1.00  0.00     0.034 A 
ATOM     46  C   UNL     1      -3.787 -10.158  15.980  1.00  0.00     0.034 A 
ATOM     47  C   UNL     1      -3.298 -13.746  10.501  1.00  0.00     0.049 A 
ATOM     48  C   UNL     1      -3.629 -11.627  15.722  1.00  0.00     0.074 A 
ATOM     49  C   UNL     1      -3.129 -15.118  10.417  1.00  0.00     0.029 A 
ATOM     50  N   UNL     1      -3.376 -13.445  11.858  1.00  0.00    -0.354 N 
ATOM     51  N   UNL     1      -3.544 -12.255  14.571  1.00  0.00    -0.248 NA
ATOM     52  C   UNL     1      -3.558 -12.497  16.898  1.00  0.00     0.031 C 
ATOM     53  C   UNL     1      -3.167 -15.650  11.712  1.00  0.00     0.029 A 
ATOM     54  C   UNL     1      -3.277 -14.605  12.614  1.00  0.00     0.049 A 
ATOM     55  H   UNL     1      -3.484 -12.539  12.228  1.00  0.00     0.167 HD
ATOM     56  C   UNL     1      -3.389 -13.598  14.888  1.00  0.00     0.074 A 
ATOM     57  C   UNL     1      -3.367 -13.681  16.336  1.00  0.00     0.031 C 
ATOM     58  C   UNL     1      -3.275 -14.667  14.059  1.00  0.00     0.034 A 
BRANCH  45  59
ATOM     59  C   UNL     1      -3.320 -13.267   7.999  1.00  0.00     0.023 A 
ATOM     60  C   UNL     1      -2.285 -12.891   7.124  1.00  0.00     0.031 A 
ATOM     61  C   UNL     1      -4.317 -14.126   7.501  1.00  0.00     0.131 A 
ATOM     62  C   UNL     1      -2.304 -13.324   5.787  1.00  0.00     0.055 A 
ATOM     63  C   UNL     1      -4.290 -14.613   6.192  1.00  0.00     0.041 A 
ATOM     64  F   UNL     1      -5.343 -14.505   8.279  1.00  0.00    -0.206 F 
ATOM     65  C   UNL     1      -3.285 -14.202   5.322  1.00  0.00     0.022 A 
BRANCH  62  66
ATOM     66  S   UNL     1      -1.097 -12.623   4.627  1.00  0.00     0.124 S 
ATOM     67  O   UNL     1      -1.400 -11.197   4.714  1.00  0.00    -0.237 OA
ATOM     68  O   UNL     1       0.175 -13.044   5.202  1.00  0.00    -0.237 OA
ATOM     69  O   UNL     1      -1.443 -13.250   3.352  1.00  0.00    -0.744 OA
ENDBRANCH  62  66
ENDBRANCH  45  59
BRANCH  46  70
ATOM     70  C   UNL     1      -3.959  -9.614  17.355  1.00  0.00     0.023 A 
ATOM     71  C   UNL     1      -2.934  -9.708  18.306  1.00  0.00     0.031 A 
ATOM     72  C   UNL     1      -5.161  -8.988  17.738  1.00  0.00     0.131 A 
ATOM     73  C   UNL     1      -3.143  -9.219  19.605  1.00  0.00     0.055 A 
ATOM     74  C   UNL     1      -5.340  -8.447  19.010  1.00  0.00     0.041 A 
ATOM     75  F   UNL     1      -6.173  -8.864  16.863  1.00  0.00    -0.206 F 
ATOM     76  C   UNL     1      -4.330  -8.574  19.958  1.00  0.00     0.022 A 
BRANCH  73  77
ATOM     77  S   UNL     1      -1.867  -9.520  20.856  1.00  0.00     0.124 S 
ATOM     78  O   UNL     1      -1.731 -10.971  20.800  1.00  0.00    -0.237 OA
ATOM     79  O   UNL     1      -0.743  -8.749  20.333  1.00  0.00    -0.237 OA
ATOM     80  O   UNL     1      -2.464  -8.995  22.082  1.00  0.00    -0.744 OA
ENDBRANCH  73  77
ENDBRANCH  46  70
BRANCH  58  81
ATOM     81  C   UNL     1      -3.068 -16.005  14.722  1.00  0.00     0.023 A 
ATOM     82  C   UNL     1      -4.066 -16.599  15.515  1.00  0.00     0.031 A 
ATOM     83  C   UNL     1      -1.834 -16.668  14.600  1.00  0.00     0.131 A 
ATOM     84  C   UNL     1      -3.787 -17.781  16.215  1.00  0.00     0.055 A 
ATOM     85  C   UNL     1      -1.586 -17.878  15.246  1.00  0.00     0.041 A 
ATOM     86  F   UNL     1      -0.846 -16.141  13.860  1.00  0.00    -0.206 F 
ATOM     87  C   UNL     1      -2.559 -18.433  16.073  1.00  0.00     0.022 A 
BRANCH  84  88
ATOM     88  S   UNL     1      -5.009 -18.393  17.407  1.00  0.00     0.124 S 
ATOM     89  O   UNL     1      -5.149 -17.254  18.310  1.00  0.00    -0.237 OA
ATOM     90  O   UNL     1      -6.160 -18.677  16.556  1.00  0.00    -0.237 OA
ATOM     91  O   UNL     1      -4.363 -19.569  17.988  1.00  0.00    -0.744 OA
ENDBRANCH  84  88
ENDBRANCH  58  81
ENDBRANCH  32  33
ENDBRANCH  25  27
ENDBRANCH  24  25
ENDBRANCH  23  24
ENDBRANCH   1  23
TORSDOF 20
