REMARK SMILES O=C(OCCOC(=O)[C@]12C[NH2+]C[C@H]1CN(C(=O)c1ccccc1-n1cncn1)C2)c1ccc(-c2c3nc(c(-c4cc(S(=O)(=O)[O-])ccc4F)c4ccc([nH]4)c(-c4cc(S(=O)(=O)[O-])ccc4F)c4nc(c(-c5cc(S(=O)(=O)[O-])ccc5F)c5ccc2[nH]5)C=C4)C=C3)cc1
REMARK SMILES IDX 4 1 3 2 2 3 1 4 30 5 31 6 92 7 32 8 91 9 33 10 34 11 35 12
REMARK SMILES IDX 85 13 36 14 90 15 84 16 86 17 37 18 89 19 83 20 82 21 38 23
REMARK SMILES IDX 70 24 50 25 69 26 51 27 54 28 68 29 87 30 52 31 53 32 67 34
REMARK SMILES IDX 88 35 55 36 39 37 40 38 48 39 41 40 47 41 49 42 46 43 42 44
REMARK SMILES IDX 43 45 44 46 45 47 71 48 72 49 80 50 73 51 79 52 81 53 78 54
REMARK SMILES IDX 74 55 75 56 76 57 77 58 56 59 57 60 65 61 58 62 64 63 66 64
REMARK SMILES IDX 63 65 59 66 60 67 61 68 62 69 5 70 6 71 7 72 8 73 9 74 10 75
REMARK SMILES IDX 13 76 29 77 11 78 12 79 14 80 15 81 16 84 17 85 18 86 19 87
REMARK SMILES IDX 23 88 20 89 22 90 21 91 24 92 25 93 28 94 26 95 27 96
REMARK H PARENT 86 22 54 33 11 82 11 83
REMARK Flexibility Score: inf
ROOT
ATOM      1  C   UNL     1       4.859  -1.122  -0.293  1.00  0.00     0.275 C 
ENDROOT
BRANCH   1   2
ATOM      2  O   UNL     1       3.762  -1.910   0.212  1.00  0.00    -0.458 OA
BRANCH   2   3
ATOM      3  C   UNL     1       2.548  -1.361   0.430  1.00  0.00     0.338 C 
ATOM      4  O   UNL     1       1.619  -1.479  -0.355  1.00  0.00    -0.246 OA
BRANCH   3   5
ATOM      5  C   UNL     1       2.380  -0.831   1.810  1.00  0.00     0.060 A 
ATOM      6  C   UNL     1       3.459  -0.619   2.679  1.00  0.00     0.016 A 
ATOM      7  C   UNL     1       1.080  -0.517   2.234  1.00  0.00     0.016 A 
ATOM      8  C   UNL     1       3.242  -0.108   3.956  1.00  0.00     0.010 A 
ATOM      9  C   UNL     1       0.862  -0.017   3.514  1.00  0.00     0.010 A 
ATOM     10  C   UNL     1       1.942   0.168   4.382  1.00  0.00    -0.014 A 
BRANCH  10  11
ATOM     11  C   UNL     1       1.742   0.704   5.728  1.00  0.00     0.031 A 
ATOM     12  C   UNL     1       2.225   2.090   5.971  1.00  0.00     0.074 A 
ATOM     13  C   UNL     1       1.001   0.080   6.665  1.00  0.00     0.049 A 
ATOM     14  N   UNL     1       3.189   2.487   6.737  1.00  0.00    -0.248 NA
ATOM     15  C   UNL     1       1.619   3.167   5.181  1.00  0.00     0.031 C 
ATOM     16  C   UNL     1       0.205  -1.137   6.501  1.00  0.00     0.029 A 
ATOM     17  N   UNL     1       0.702   0.480   7.935  1.00  0.00    -0.354 N 
ATOM     18  C   UNL     1       3.150   3.883   6.720  1.00  0.00     0.074 A 
ATOM     19  C   UNL     1       2.315   4.224   5.601  1.00  0.00     0.031 C 
ATOM     20  C   UNL     1      -0.660  -1.242   7.533  1.00  0.00     0.029 A 
ATOM     21  C   UNL     1      -0.384  -0.185   8.492  1.00  0.00     0.049 A 
ATOM     22  H   UNL     1       1.209   1.176   8.412  1.00  0.00     0.167 HD
ATOM     23  C   UNL     1       3.613   4.626   7.769  1.00  0.00     0.034 A 
ATOM     24  C   UNL     1      -1.055   0.138   9.629  1.00  0.00     0.034 A 
ATOM     25  C   UNL     1       4.436   3.818   8.652  1.00  0.00     0.049 A 
ATOM     26  C   UNL     1      -0.137   0.944  10.468  1.00  0.00     0.074 A 
ATOM     27  C   UNL     1       5.561   3.031   8.486  1.00  0.00     0.029 A 
ATOM     28  N   UNL     1       3.926   3.448   9.881  1.00  0.00    -0.354 N 
ATOM     29  N   UNL     1       0.961   0.464  10.985  1.00  0.00    -0.248 NA
ATOM     30  C   UNL     1      -0.184   2.395  10.366  1.00  0.00     0.031 C 
ATOM     31  C   UNL     1       5.342   1.898   9.327  1.00  0.00     0.029 A 
ATOM     32  C   UNL     1       4.146   2.103  10.015  1.00  0.00     0.049 A 
ATOM     33  H   UNL     1       3.488   4.039  10.535  1.00  0.00     0.167 HD
ATOM     34  C   UNL     1       1.894   1.480  10.849  1.00  0.00     0.074 A 
ATOM     35  C   UNL     1       1.104   2.680  10.581  1.00  0.00     0.031 C 
ATOM     36  C   UNL     1       3.222   1.203  10.676  1.00  0.00     0.034 A 
BRANCH  23  37
ATOM     37  C   UNL     1       3.004   5.944   8.246  1.00  0.00     0.023 A 
ATOM     38  C   UNL     1       3.474   6.433   9.481  1.00  0.00     0.031 A 
ATOM     39  C   UNL     1       1.814   6.542   7.782  1.00  0.00     0.131 A 
ATOM     40  C   UNL     1       2.666   7.243  10.296  1.00  0.00     0.055 A 
ATOM     41  C   UNL     1       1.051   7.421   8.561  1.00  0.00     0.041 A 
ATOM     42  F   UNL     1       1.284   6.281   6.584  1.00  0.00    -0.206 F 
ATOM     43  C   UNL     1       1.444   7.729   9.851  1.00  0.00     0.022 A 
BRANCH  40  44
ATOM     44  S   UNL     1       3.137   7.406  12.036  1.00  0.00     0.124 S 
ATOM     45  O   UNL     1       3.274   6.003  12.416  1.00  0.00    -0.237 OA
ATOM     46  O   UNL     1       4.374   8.173  11.940  1.00  0.00    -0.237 OA
ATOM     47  O   UNL     1       2.004   8.112  12.629  1.00  0.00    -0.744 OA
ENDBRANCH  40  44
ENDBRANCH  23  37
BRANCH  24  48
ATOM     48  C   UNL     1      -2.519   0.015   9.861  1.00  0.00     0.023 A 
ATOM     49  C   UNL     1      -3.097  -0.010  11.147  1.00  0.00     0.031 A 
ATOM     50  C   UNL     1      -3.410   0.138   8.769  1.00  0.00     0.131 A 
ATOM     51  C   UNL     1      -4.502   0.073  11.297  1.00  0.00     0.055 A 
ATOM     52  C   UNL     1      -4.795   0.208   8.922  1.00  0.00     0.041 A 
ATOM     53  F   UNL     1      -2.957   0.279   7.513  1.00  0.00    -0.206 F 
ATOM     54  C   UNL     1      -5.348   0.183  10.190  1.00  0.00     0.022 A 
BRANCH  51  55
ATOM     55  S   UNL     1      -5.255   0.136  12.955  1.00  0.00     0.124 S 
ATOM     56  O   UNL     1      -5.046  -1.222  13.444  1.00  0.00    -0.237 OA
ATOM     57  O   UNL     1      -4.486   1.188  13.611  1.00  0.00    -0.237 OA
ATOM     58  O   UNL     1      -6.651   0.482  12.684  1.00  0.00    -0.744 OA
ENDBRANCH  51  55
ENDBRANCH  24  48
BRANCH  36  59
ATOM     59  C   UNL     1       3.717  -0.199  10.957  1.00  0.00     0.023 A 
ATOM     60  C   UNL     1       3.214  -1.366  10.339  1.00  0.00     0.031 A 
ATOM     61  C   UNL     1       4.834  -0.337  11.800  1.00  0.00     0.131 A 
ATOM     62  C   UNL     1       3.818  -2.612  10.590  1.00  0.00     0.055 A 
ATOM     63  C   UNL     1       5.441  -1.570  12.032  1.00  0.00     0.041 A 
ATOM     64  F   UNL     1       5.383   0.740  12.387  1.00  0.00    -0.206 F 
ATOM     65  C   UNL     1       4.929  -2.715  11.433  1.00  0.00     0.022 A 
BRANCH  62  66
ATOM     66  S   UNL     1       3.162  -4.131   9.830  1.00  0.00     0.124 S 
ATOM     67  O   UNL     1       1.721  -4.019  10.018  1.00  0.00    -0.237 OA
ATOM     68  O   UNL     1       3.639  -4.024   8.454  1.00  0.00    -0.237 OA
ATOM     69  O   UNL     1       3.795  -5.199  10.608  1.00  0.00    -0.744 OA
ENDBRANCH  62  66
ENDBRANCH  36  59
ENDBRANCH  10  11
ENDBRANCH   3   5
ENDBRANCH   2   3
ENDBRANCH   1   2
BRANCH   1  70
ATOM     70  C   UNL     1       4.550  -0.021  -1.305  1.00  0.00     0.274 C 
BRANCH  70  71
ATOM     71  O   UNL     1       4.261   1.238  -0.659  1.00  0.00    -0.461 OA
BRANCH  71  72
ATOM     72  C   UNL     1       3.007   1.747  -0.861  1.00  0.00     0.320 C 
ATOM     73  O   UNL     1       2.094   1.133  -1.397  1.00  0.00    -0.251 OA
BRANCH  72  74
ATOM     74  C   UNL     1       2.977   3.233  -0.399  1.00  0.00     0.144 C 
ATOM     75  C   UNL     1       2.170   2.665   0.848  1.00  0.00     0.281 C 
ATOM     76  C   UNL     1       2.206   4.588  -0.152  1.00  0.00     0.088 C 
ATOM     77  C   UNL     1       2.768   3.503  -1.971  1.00  0.00     0.145 C 
ATOM     78  N   UNL     1       2.190   3.648   1.940  1.00  0.00    -0.345 N 
ATOM     79  C   UNL     1       2.308   4.941   1.310  1.00  0.00     0.267 C 
ATOM     80  C   UNL     1       2.831   5.649  -1.034  1.00  0.00     0.130 C 
ATOM     81  N   UNL     1       3.054   4.905  -2.232  1.00  0.00    -0.337 N 
ATOM     82  H   UNL     1       2.986   3.479   2.554  1.00  0.00     0.346 HD
ATOM     83  H   UNL     1       1.347   3.587   2.512  1.00  0.00     0.346 HD
BRANCH  81  84
ATOM     84  C   UNL     1       3.481   5.495  -3.405  1.00  0.00     0.256 C 
ATOM     85  O   UNL     1       3.752   6.678  -3.520  1.00  0.00    -0.269 OA
BRANCH  84  86
ATOM     86  C   UNL     1       3.626   4.621  -4.593  1.00  0.00     0.065 A 
ATOM     87  C   UNL     1       4.946   4.394  -5.015  1.00  0.00     0.016 A 
ATOM     88  C   UNL     1       2.566   3.919  -5.189  1.00  0.00     0.079 A 
ATOM     89  C   UNL     1       5.216   3.449  -6.005  1.00  0.00     0.001 A 
ATOM     90  C   UNL     1       2.856   2.946  -6.163  1.00  0.00     0.029 A 
ATOM     91  C   UNL     1       4.173   2.721  -6.572  1.00  0.00     0.002 A 
BRANCH  88  92
ATOM     92  N   UNL     1       1.213   4.106  -4.811  1.00  0.00    -0.220 N 
ATOM     93  C   UNL     1       0.593   5.181  -4.220  1.00  0.00     0.225 A 
ATOM     94  N   UNL     1       0.306   3.106  -4.957  1.00  0.00    -0.155 NA
ATOM     95  N   UNL     1      -0.621   4.857  -3.836  1.00  0.00    -0.223 NA
ATOM     96  C   UNL     1      -0.736   3.572  -4.268  1.00  0.00     0.246 A 
ENDBRANCH  88  92
ENDBRANCH  84  86
ENDBRANCH  81  84
ENDBRANCH  72  74
ENDBRANCH  71  72
ENDBRANCH  70  71
ENDBRANCH   1  70
TORSDOF 17
