REMARK SMILES O=C(OCCOC(=O)[C@H]1Cc2[nH]cnc2CN1S(=O)(=O)c1cccs1)c1ccc(-c2c3nc(c(-c4cc(S(=O)(=O)[O-])ccc4F)c4ccc([nH]4)c(-c4cc(S(=O)(=O)[O-])ccc4F)c4nc(c(-c5cc(S(=O)(=O)[O-])ccc5F)c5ccc2[nH]5)C=C4)C=C3)cc1
REMARK SMILES IDX 4 1 3 2 2 3 1 4 26 5 27 6 88 7 28 8 87 9 29 10 30 11 31 12
REMARK SMILES IDX 81 13 32 14 86 15 80 16 82 17 33 18 85 19 79 20 78 21 34 23
REMARK SMILES IDX 66 24 46 25 65 26 47 27 50 28 64 29 83 30 48 31 49 32 63 34
REMARK SMILES IDX 84 35 51 36 35 37 36 38 44 39 37 40 43 41 45 42 42 43 38 44
REMARK SMILES IDX 39 45 40 46 41 47 67 48 68 49 76 50 69 51 75 52 77 53 74 54
REMARK SMILES IDX 70 55 71 56 72 57 73 58 52 59 53 60 61 61 54 62 60 63 62 64
REMARK SMILES IDX 59 65 55 66 56 67 57 68 58 69 5 70 6 71 7 72 8 73 9 74 10 75
REMARK SMILES IDX 17 76 11 77 16 78 12 79 15 80 13 81 14 83 18 84 19 85 20 86
REMARK SMILES IDX 21 87 22 88 25 89 23 90 24 91
REMARK H PARENT 82 22 50 33 12 82
REMARK Flexibility Score: inf
ROOT
ATOM      1  C   UNL     1       4.809  -0.993   0.581  1.00  0.00     0.275 C 
ENDROOT
BRANCH   1   2
ATOM      2  O   UNL     1       3.474  -1.317   1.006  1.00  0.00    -0.458 OA
BRANCH   2   3
ATOM      3  C   UNL     1       2.404  -0.553   1.304  1.00  0.00     0.338 C 
ATOM      4  O   UNL     1       1.298  -1.093   1.340  1.00  0.00    -0.246 OA
BRANCH   3   5
ATOM      5  C   UNL     1       2.466   0.896   1.661  1.00  0.00     0.060 A 
ATOM      6  C   UNL     1       3.590   1.575   2.140  1.00  0.00     0.016 A 
ATOM      7  C   UNL     1       1.220   1.554   1.692  1.00  0.00     0.016 A 
ATOM      8  C   UNL     1       3.447   2.811   2.767  1.00  0.00     0.010 A 
ATOM      9  C   UNL     1       1.068   2.766   2.348  1.00  0.00     0.010 A 
ATOM     10  C   UNL     1       2.175   3.354   2.945  1.00  0.00    -0.014 A 
BRANCH  10  11
ATOM     11  C   UNL     1       2.035   4.626   3.644  1.00  0.00     0.031 A 
ATOM     12  C   UNL     1       2.522   5.777   2.841  1.00  0.00     0.074 A 
ATOM     13  C   UNL     1       1.381   4.762   4.819  1.00  0.00     0.049 A 
ATOM     14  N   UNL     1       3.560   6.515   3.053  1.00  0.00    -0.248 NA
ATOM     15  C   UNL     1       1.892   6.018   1.530  1.00  0.00     0.031 C 
ATOM     16  C   UNL     1       0.645   3.740   5.566  1.00  0.00     0.029 A 
ATOM     17  N   UNL     1       1.152   5.884   5.561  1.00  0.00    -0.354 N 
ATOM     18  C   UNL     1       3.526   7.502   2.073  1.00  0.00     0.074 A 
ATOM     19  C   UNL     1       2.647   7.007   1.053  1.00  0.00     0.031 C 
ATOM     20  C   UNL     1      -0.134   4.335   6.502  1.00  0.00     0.029 A 
ATOM     21  C   UNL     1       0.135   5.764   6.513  1.00  0.00     0.049 A 
ATOM     22  H   UNL     1       1.663   6.716   5.435  1.00  0.00     0.167 HD
ATOM     23  C   UNL     1       3.985   8.760   2.329  1.00  0.00     0.034 A 
ATOM     24  C   UNL     1      -0.469   6.771   7.215  1.00  0.00     0.034 A 
ATOM     25  C   UNL     1       4.867   8.759   3.479  1.00  0.00     0.049 A 
ATOM     26  C   UNL     1       0.461   7.929   7.178  1.00  0.00     0.074 A 
ATOM     27  C   UNL     1       6.006   8.047   3.817  1.00  0.00     0.029 A 
ATOM     28  N   UNL     1       4.398   9.268   4.672  1.00  0.00    -0.354 N 
ATOM     29  N   UNL     1       1.627   7.917   7.766  1.00  0.00    -0.248 NA
ATOM     30  C   UNL     1       0.338   8.859   6.064  1.00  0.00     0.031 C 
ATOM     31  C   UNL     1       5.820   7.701   5.189  1.00  0.00     0.029 A 
ATOM     32  C   UNL     1       4.657   8.328   5.640  1.00  0.00     0.049 A 
ATOM     33  H   UNL     1       3.961  10.140   4.805  1.00  0.00     0.167 HD
ATOM     34  C   UNL     1       2.496   8.479   6.845  1.00  0.00     0.074 A 
ATOM     35  C   UNL     1       1.633   9.111   5.844  1.00  0.00     0.031 C 
ATOM     36  C   UNL     1       3.816   8.125   6.803  1.00  0.00     0.034 A 
BRANCH  23  37
ATOM     37  C   UNL     1       3.303  10.025   1.832  1.00  0.00     0.023 A 
ATOM     38  C   UNL     1       3.828  11.245   2.297  1.00  0.00     0.031 A 
ATOM     39  C   UNL     1       2.029  10.108   1.222  1.00  0.00     0.131 A 
ATOM     40  C   UNL     1       3.047  12.412   2.303  1.00  0.00     0.055 A 
ATOM     41  C   UNL     1       1.287  11.290   1.161  1.00  0.00     0.041 A 
ATOM     42  F   UNL     1       1.385   9.051   0.719  1.00  0.00    -0.206 F 
ATOM     43  C   UNL     1       1.775  12.444   1.743  1.00  0.00     0.022 A 
BRANCH  40  44
ATOM     44  S   UNL     1       3.649  13.824   3.260  1.00  0.00     0.124 S 
ATOM     45  O   UNL     1       3.839  13.213   4.571  1.00  0.00    -0.237 OA
ATOM     46  O   UNL     1       4.863  14.178   2.532  1.00  0.00    -0.237 OA
ATOM     47  O   UNL     1       2.557  14.788   3.163  1.00  0.00    -0.744 OA
ENDBRANCH  40  44
ENDBRANCH  23  37
BRANCH  24  48
ATOM     48  C   UNL     1      -1.914   6.900   7.601  1.00  0.00     0.023 A 
ATOM     49  C   UNL     1      -2.397   7.815   8.572  1.00  0.00     0.031 A 
ATOM     50  C   UNL     1      -2.894   6.270   6.803  1.00  0.00     0.131 A 
ATOM     51  C   UNL     1      -3.792   8.055   8.708  1.00  0.00     0.055 A 
ATOM     52  C   UNL     1      -4.264   6.513   6.937  1.00  0.00     0.041 A 
ATOM     53  F   UNL     1      -2.549   5.454   5.795  1.00  0.00    -0.206 F 
ATOM     54  C   UNL     1      -4.719   7.414   7.884  1.00  0.00     0.022 A 
BRANCH  51  55
ATOM     55  S   UNL     1      -4.440   9.270   9.913  1.00  0.00     0.124 S 
ATOM     56  O   UNL     1      -4.145   8.632  11.190  1.00  0.00    -0.237 OA
ATOM     57  O   UNL     1      -3.677  10.471   9.594  1.00  0.00    -0.237 OA
ATOM     58  O   UNL     1      -5.865   9.351   9.586  1.00  0.00    -0.744 OA
ENDBRANCH  51  55
ENDBRANCH  24  48
BRANCH  36  59
ATOM     59  C   UNL     1       4.396   7.307   7.941  1.00  0.00     0.023 A 
ATOM     60  C   UNL     1       3.898   6.062   8.395  1.00  0.00     0.031 A 
ATOM     61  C   UNL     1       5.594   7.773   8.513  1.00  0.00     0.131 A 
ATOM     62  C   UNL     1       4.592   5.347   9.394  1.00  0.00     0.055 A 
ATOM     63  C   UNL     1       6.288   7.052   9.482  1.00  0.00     0.041 A 
ATOM     64  F   UNL     1       6.136   8.933   8.107  1.00  0.00    -0.206 F 
ATOM     65  C   UNL     1       5.785   5.839   9.933  1.00  0.00     0.022 A 
BRANCH  62  66
ATOM     66  S   UNL     1       3.948   3.767  10.038  1.00  0.00     0.124 S 
ATOM     67  O   UNL     1       2.528   4.029  10.235  1.00  0.00    -0.237 OA
ATOM     68  O   UNL     1       4.284   2.833   8.966  1.00  0.00    -0.237 OA
ATOM     69  O   UNL     1       4.710   3.570  11.273  1.00  0.00    -0.744 OA
ENDBRANCH  62  66
ENDBRANCH  36  59
ENDBRANCH  10  11
ENDBRANCH   3   5
ENDBRANCH   2   3
ENDBRANCH   1   2
BRANCH   1  70
ATOM     70  C   UNL     1       4.921  -0.719  -0.913  1.00  0.00     0.274 C 
BRANCH  70  71
ATOM     71  O   UNL     1       4.413   0.560  -1.324  1.00  0.00    -0.461 OA
BRANCH  71  72
ATOM     72  C   UNL     1       3.096   0.613  -1.655  1.00  0.00     0.325 C 
ATOM     73  O   UNL     1       2.301  -0.290  -1.446  1.00  0.00    -0.250 OA
BRANCH  72  74
ATOM     74  C   UNL     1       2.700   1.875  -2.377  1.00  0.00     0.189 C 
ATOM     75  C   UNL     1       3.588   3.050  -1.869  1.00  0.00     0.088 C 
ATOM     76  N   UNL     1       2.723   1.788  -3.911  1.00  0.00    -0.176 NA
ATOM     77  C   UNL     1       3.188   4.268  -2.593  1.00  0.00     0.041 A 
ATOM     78  C   UNL     1       2.107   3.049  -4.536  1.00  0.00     0.161 C 
ATOM     79  N   UNL     1       3.357   5.570  -2.234  1.00  0.00    -0.348 N 
ATOM     80  C   UNL     1       2.530   4.277  -3.796  1.00  0.00     0.077 A 
ATOM     81  C   UNL     1       2.739   6.318  -3.203  1.00  0.00     0.197 A 
ATOM     82  H   UNL     1       3.828   5.907  -1.438  1.00  0.00     0.167 HD
ATOM     83  N   UNL     1       2.241   5.565  -4.164  1.00  0.00    -0.240 NA
BRANCH  76  84
ATOM     84  S   UNL     1       1.928   0.426  -4.613  1.00  0.00     0.253 S 
ATOM     85  O   UNL     1       0.624   0.331  -4.008  1.00  0.00    -0.206 OA
ATOM     86  O   UNL     1       2.049   0.568  -6.058  1.00  0.00    -0.206 OA
BRANCH  84  87
ATOM     87  C   UNL     1       2.734  -1.128  -4.255  1.00  0.00     0.135 A 
ATOM     88  C   UNL     1       2.359  -2.196  -3.455  1.00  0.00     0.033 A 
ATOM     89  S   UNL     1       4.216  -1.451  -5.048  1.00  0.00    -0.131 S 
ATOM     90  C   UNL     1       3.322  -3.244  -3.438  1.00  0.00     0.013 A 
ATOM     91  C   UNL     1       4.361  -2.990  -4.303  1.00  0.00     0.066 A 
ENDBRANCH  84  87
ENDBRANCH  76  84
ENDBRANCH  72  74
ENDBRANCH  71  72
ENDBRANCH  70  71
ENDBRANCH   1  70
TORSDOF 16
