REMARK SMILES O=C(C[C@H](Cc1ccc(Cl)cc1)C(=O)Nc1cc(Cl)ccc1Cl)OCCOC(=O)c1ccc(-c2c3nc(c(-c4cc(S(=O)(=O)[O-])ccc4F)c4ccc([nH]4)c(-c4cc(S(=O)(=O)[O-])ccc4F)c4nc(c(-c5cc(S(=O)(=O)[O-])ccc5F)c5ccc2[nH]5)C=C4)C=C3)cc1
REMARK SMILES IDX 25 1 24 2 2 3 1 4 3 5 4 6 13 7 14 8 15 9 16 11 17 12 22 13
REMARK SMILES IDX 18 14 21 15 23 16 19 17 20 18 5 19 6 20 7 21 12 22 8 23
REMARK SMILES IDX 11 24 9 25 10 26 26 27 27 28 28 29 29 30 30 31 31 32 92 33
REMARK SMILES IDX 32 34 91 35 33 36 34 37 35 38 85 39 36 40 90 41 84 42 86 43
REMARK SMILES IDX 37 44 89 45 83 46 82 47 38 49 70 50 50 51 69 52 51 53 54 54
REMARK SMILES IDX 68 55 87 56 52 57 53 58 67 60 88 61 55 62 39 63 40 64 48 65
REMARK SMILES IDX 41 66 47 67 49 68 46 69 42 70 43 71 44 72 45 73 71 74 72 75
REMARK SMILES IDX 80 76 73 77 79 78 81 79 78 80 74 81 75 82 76 83 77 84 56 85
REMARK SMILES IDX 57 86 65 87 58 88 64 89 66 90 63 91 59 92 60 93 61 94 62 95
REMARK H PARENT 15 10 86 48 54 59
REMARK Flexibility Score: inf
ROOT
ATOM      1  C   UNL     1       6.879  -2.445  -2.587  1.00  0.00     0.274 C 
ENDROOT
BRANCH   1   2
ATOM      2  O   UNL     1       5.507  -2.353  -2.209  1.00  0.00    -0.462 OA
BRANCH   2   3
ATOM      3  C   UNL     1       4.894  -1.183  -2.513  1.00  0.00     0.306 C 
ATOM      4  O   UNL     1       5.192  -0.463  -3.458  1.00  0.00    -0.252 OA
BRANCH   3   5
ATOM      5  C   UNL     1       4.020  -0.745  -1.359  1.00  0.00     0.136 C 
BRANCH   5   6
ATOM      6  C   UNL     1       3.115  -1.813  -0.735  1.00  0.00     0.094 C 
BRANCH   6   7
ATOM      7  C   UNL     1       3.823  -3.197  -0.405  1.00  0.00     0.228 C 
ATOM      8  O   UNL     1       3.426  -4.219  -0.980  1.00  0.00    -0.274 OA
ATOM      9  N   UNL     1       4.954  -3.327   0.389  1.00  0.00    -0.324 N 
ATOM     10  H   UNL     1       5.546  -4.087   0.187  1.00  0.00     0.169 HD
BRANCH   9  11
ATOM     11  C   UNL     1       5.345  -2.494   1.447  1.00  0.00     0.061 A 
ATOM     12  C   UNL     1       4.302  -1.852   2.095  1.00  0.00     0.048 A 
ATOM     13  C   UNL     1       6.618  -2.320   1.931  1.00  0.00     0.064 A 
ATOM     14  C   UNL     1       4.299  -0.577   2.850  1.00  0.00     0.043 A 
ATOM     15  C   UNL     1       6.835  -1.253   2.789  1.00  0.00     0.024 A 
ATOM     16  Cl  UNL     1       7.902  -3.397   1.550  1.00  0.00    -0.082 Cl
ATOM     17  Cl  UNL     1       2.351   0.869   3.274  1.00  0.00    -0.084 Cl
ATOM     18  C   UNL     1       5.766  -0.382   3.167  1.00  0.00     0.022 A 
ENDBRANCH   9  11
ENDBRANCH   6   7
BRANCH   6  19
ATOM     19  C   UNL     1       2.069  -1.179   0.248  1.00  0.00     0.049 C 
BRANCH  19  20
ATOM     20  C   UNL     1       2.536  -0.475   1.523  1.00  0.00    -0.047 A 
ATOM     21  C   UNL     1       3.651   0.964   1.467  1.00  0.00     0.005 A 
ATOM     22  C   UNL     1       2.227  -1.313   3.141  1.00  0.00     0.005 A 
ATOM     23  C   UNL     1       4.394   1.613   3.002  1.00  0.00     0.021 A 
ATOM     24  C   UNL     1       3.074  -0.742   4.643  1.00  0.00     0.021 A 
ATOM     25  C   UNL     1       4.105   0.746   4.592  1.00  0.00     0.041 A 
ATOM     26  Cl  UNL     1       4.771   1.377   6.050  1.00  0.00    -0.084 Cl
ENDBRANCH  19  20
ENDBRANCH   6  19
ENDBRANCH   5   6
ENDBRANCH   3   5
ENDBRANCH   2   3
ENDBRANCH   1   2
BRANCH   1  27
ATOM     27  C   UNL     1       7.775  -1.586  -1.679  1.00  0.00     0.275 C 
BRANCH  27  28
ATOM     28  O   UNL     1       7.121  -0.397  -1.187  1.00  0.00    -0.458 OA
BRANCH  28  29
ATOM     29  C   UNL     1       7.658   0.790  -1.551  1.00  0.00     0.338 C 
ATOM     30  O   UNL     1       8.691   0.957  -2.174  1.00  0.00    -0.246 OA
BRANCH  29  31
ATOM     31  C   UNL     1       6.769   1.895  -1.120  1.00  0.00     0.060 A 
ATOM     32  C   UNL     1       6.041   2.604  -2.079  1.00  0.00     0.016 A 
ATOM     33  C   UNL     1       6.730   2.306   0.210  1.00  0.00     0.016 A 
ATOM     34  C   UNL     1       5.310   3.751  -1.717  1.00  0.00     0.010 A 
ATOM     35  C   UNL     1       5.973   3.439   0.564  1.00  0.00     0.010 A 
ATOM     36  C   UNL     1       5.274   4.206  -0.389  1.00  0.00    -0.014 A 
BRANCH  36  37
ATOM     37  C   UNL     1       4.623   5.518  -0.016  1.00  0.00     0.031 A 
ATOM     38  C   UNL     1       5.430   6.598   0.687  1.00  0.00     0.074 A 
ATOM     39  C   UNL     1       3.321   5.782  -0.278  1.00  0.00     0.049 A 
ATOM     40  N   UNL     1       5.054   7.781   1.114  1.00  0.00    -0.248 NA
ATOM     41  C   UNL     1       6.832   6.282   0.994  1.00  0.00     0.031 C 
ATOM     42  C   UNL     1       2.366   4.853  -0.883  1.00  0.00     0.029 A 
ATOM     43  N   UNL     1       2.571   6.923  -0.069  1.00  0.00    -0.354 N 
ATOM     44  C   UNL     1       6.161   8.324   1.764  1.00  0.00     0.074 A 
ATOM     45  C   UNL     1       7.178   7.296   1.768  1.00  0.00     0.031 C 
ATOM     46  C   UNL     1       1.181   5.471  -1.037  1.00  0.00     0.029 A 
ATOM     47  C   UNL     1       1.269   6.835  -0.515  1.00  0.00     0.049 A 
ATOM     48  H   UNL     1       2.936   7.731   0.360  1.00  0.00     0.167 HD
ATOM     49  C   UNL     1       6.354   9.574   2.261  1.00  0.00     0.034 A 
ATOM     50  C   UNL     1       0.261   7.737  -0.514  1.00  0.00     0.034 A 
ATOM     51  C   UNL     1       5.377  10.632   2.208  1.00  0.00     0.049 A 
ATOM     52  C   UNL     1       0.489   9.128   0.043  1.00  0.00     0.074 A 
ATOM     53  C   UNL     1       5.518  11.953   2.601  1.00  0.00     0.029 A 
ATOM     54  N   UNL     1       4.081  10.498   1.734  1.00  0.00    -0.354 N 
ATOM     55  N   UNL     1       1.574   9.643   0.572  1.00  0.00    -0.248 NA
ATOM     56  C   UNL     1      -0.645  10.066  -0.014  1.00  0.00     0.031 C 
ATOM     57  C   UNL     1       4.290  12.599   2.429  1.00  0.00     0.029 A 
ATOM     58  C   UNL     1       3.405  11.705   1.851  1.00  0.00     0.049 A 
ATOM     59  H   UNL     1       3.696   9.669   1.367  1.00  0.00     0.167 HD
ATOM     60  C   UNL     1       1.262  10.971   0.867  1.00  0.00     0.074 A 
ATOM     61  C   UNL     1      -0.105  11.183   0.448  1.00  0.00     0.031 C 
ATOM     62  C   UNL     1       2.044  11.929   1.427  1.00  0.00     0.034 A 
BRANCH  49  63
ATOM     63  C   UNL     1       7.694   9.866   2.900  1.00  0.00     0.023 A 
ATOM     64  C   UNL     1       8.893   9.759   2.172  1.00  0.00     0.031 A 
ATOM     65  C   UNL     1       7.784  10.216   4.259  1.00  0.00     0.131 A 
ATOM     66  C   UNL     1      10.125   9.882   2.827  1.00  0.00     0.055 A 
ATOM     67  C   UNL     1       9.013  10.445   4.881  1.00  0.00     0.041 A 
ATOM     68  F   UNL     1       6.678  10.326   5.012  1.00  0.00    -0.206 F 
ATOM     69  C   UNL     1      10.195  10.254   4.171  1.00  0.00     0.022 A 
BRANCH  66  70
ATOM     70  S   UNL     1      11.620   9.359   1.944  1.00  0.00     0.124 S 
ATOM     71  O   UNL     1      11.309   7.963   1.645  1.00  0.00    -0.237 OA
ATOM     72  O   UNL     1      11.647  10.266   0.803  1.00  0.00    -0.237 OA
ATOM     73  O   UNL     1      12.684   9.556   2.926  1.00  0.00    -0.744 OA
ENDBRANCH  66  70
ENDBRANCH  49  63
BRANCH  50  74
ATOM     74  C   UNL     1      -1.088   7.384  -1.060  1.00  0.00     0.023 A 
ATOM     75  C   UNL     1      -1.619   8.054  -2.177  1.00  0.00     0.031 A 
ATOM     76  C   UNL     1      -1.906   6.439  -0.415  1.00  0.00     0.131 A 
ATOM     77  C   UNL     1      -2.946   7.818  -2.575  1.00  0.00     0.055 A 
ATOM     78  C   UNL     1      -3.204   6.165  -0.852  1.00  0.00     0.041 A 
ATOM     79  F   UNL     1      -1.454   5.772   0.658  1.00  0.00    -0.206 F 
ATOM     80  C   UNL     1      -3.737   6.867  -1.928  1.00  0.00     0.022 A 
BRANCH  77  81
ATOM     81  S   UNL     1      -3.662   8.850  -3.886  1.00  0.00     0.124 S 
ATOM     82  O   UNL     1      -3.540  10.185  -3.312  1.00  0.00    -0.237 OA
ATOM     83  O   UNL     1      -2.788   8.555  -5.017  1.00  0.00    -0.237 OA
ATOM     84  O   UNL     1      -5.028   8.345  -4.009  1.00  0.00    -0.744 OA
ENDBRANCH  77  81
ENDBRANCH  50  74
BRANCH  62  85
ATOM     85  C   UNL     1       1.472  13.323   1.563  1.00  0.00     0.023 A 
ATOM     86  C   UNL     1       0.389  13.611   2.413  1.00  0.00     0.031 A 
ATOM     87  C   UNL     1       2.038  14.389   0.838  1.00  0.00     0.131 A 
ATOM     88  C   UNL     1      -0.123  14.917   2.480  1.00  0.00     0.055 A 
ATOM     89  C   UNL     1       1.565  15.697   0.956  1.00  0.00     0.041 A 
ATOM     90  F   UNL     1       3.073  14.178   0.009  1.00  0.00    -0.206 F 
ATOM     91  C   UNL     1       0.471  15.966   1.772  1.00  0.00     0.022 A 
BRANCH  88  92
ATOM     92  S   UNL     1      -1.631  15.220   3.443  1.00  0.00     0.124 S 
ATOM     93  O   UNL     1      -2.583  14.312   2.811  1.00  0.00    -0.237 OA
ATOM     94  O   UNL     1      -1.214  14.866   4.796  1.00  0.00    -0.237 OA
ATOM     95  O   UNL     1      -1.895  16.642   3.230  1.00  0.00    -0.744 OA
ENDBRANCH  88  92
ENDBRANCH  62  85
ENDBRANCH  36  37
ENDBRANCH  29  31
ENDBRANCH  28  29
ENDBRANCH  27  28
ENDBRANCH   1  27
TORSDOF 19
