REMARK SMILES O=C(CCSC1=NC=NC2=[NH+]C=N[C@@H]12)OCCOC(=O)c1ccc(-c2c3nc(c(-c4cc(S(=O)(=O)[O-])ccc4F)c4ccc([nH]4)c(-c4cc(S(=O)(=O)[O-])ccc4F)c4nc(c(-c5cc(S(=O)(=O)[O-])ccc5F)c5ccc2[nH]5)C=C4)C=C3)cc1
REMARK SMILES IDX 16 1 15 2 2 3 1 4 3 5 4 6 5 7 6 8 7 9 14 10 8 11 10 12 13 13
REMARK SMILES IDX 9 14 11 15 12 16 17 18 18 19 19 20 20 21 21 22 22 23 83 24
REMARK SMILES IDX 23 25 82 26 24 27 25 28 26 29 76 30 27 31 81 32 75 33 77 34
REMARK SMILES IDX 28 35 80 36 74 37 73 38 29 40 61 41 41 42 60 43 42 44 45 45
REMARK SMILES IDX 59 46 78 47 43 48 44 49 58 51 79 52 46 53 30 54 31 55 39 56
REMARK SMILES IDX 32 57 38 58 40 59 37 60 33 61 34 62 35 63 36 64 62 65 63 66
REMARK SMILES IDX 71 67 64 68 70 69 72 70 69 71 65 72 66 73 67 74 68 75 47 76
REMARK SMILES IDX 48 77 56 78 49 79 55 80 57 81 54 82 50 83 51 84 52 85 53 86
REMARK H PARENT 11 17 77 39 45 50
REMARK Flexibility Score: inf
ROOT
ATOM      1  C   UNL     1       3.949   1.723  -0.321  1.00  0.00     0.274 C 
ENDROOT
BRANCH   1   2
ATOM      2  O   UNL     1       2.648   1.127  -0.504  1.00  0.00    -0.462 OA
BRANCH   2   3
ATOM      3  C   UNL     1       2.343  -0.190  -0.438  1.00  0.00     0.306 C 
ATOM      4  O   UNL     1       1.207  -0.582  -0.703  1.00  0.00    -0.252 OA
BRANCH   3   5
ATOM      5  C   UNL     1       3.418  -1.185  -0.077  1.00  0.00     0.134 C 
BRANCH   5   6
ATOM      6  C   UNL     1       3.883  -1.998  -1.280  1.00  0.00     0.088 C 
BRANCH   6   7
ATOM      7  S   UNL     1       5.217  -1.237  -2.275  1.00  0.00    -0.106 SA
BRANCH   7   8
ATOM      8  C   UNL     1       4.390   0.099  -3.056  1.00  0.00     0.128 C 
ATOM      9  N   UNL     1       3.109   0.051  -3.220  1.00  0.00    -0.214 NA
ATOM     10  C   UNL     1       5.208   1.236  -3.582  1.00  0.00     0.340 C 
ATOM     11  C   UNL     1       2.473   1.127  -3.794  1.00  0.00     0.320 C 
ATOM     12  C   UNL     1       4.303   2.401  -3.661  1.00  0.00     0.285 C 
ATOM     13  N   UNL     1       6.271   1.775  -2.696  1.00  0.00    -0.130 NA
ATOM     14  N   UNL     1       3.018   2.272  -4.064  1.00  0.00    -0.092 NA
ATOM     15  N   UNL     1       4.822   3.481  -3.195  1.00  0.00    -0.248 N 
ATOM     16  C   UNL     1       5.996   3.048  -2.629  1.00  0.00     0.362 C 
ATOM     17  H   UNL     1       4.465   4.397  -3.234  1.00  0.00     0.266 HD
ENDBRANCH   7   8
ENDBRANCH   6   7
ENDBRANCH   5   6
ENDBRANCH   3   5
ENDBRANCH   2   3
ENDBRANCH   1   2
BRANCH   1  18
ATOM     18  C   UNL     1       4.192   2.322   1.042  1.00  0.00     0.275 C 
BRANCH  18  19
ATOM     19  O   UNL     1       4.061   1.287   1.990  1.00  0.00    -0.458 OA
BRANCH  19  20
ATOM     20  C   UNL     1       2.787   1.019   2.376  1.00  0.00     0.338 C 
ATOM     21  O   UNL     1       1.766   1.554   2.003  1.00  0.00    -0.246 OA
BRANCH  20  22
ATOM     22  C   UNL     1       2.904   0.078   3.498  1.00  0.00     0.060 A 
ATOM     23  C   UNL     1       2.032   0.426   4.522  1.00  0.00     0.016 A 
ATOM     24  C   UNL     1       4.180  -0.464   3.732  1.00  0.00     0.016 A 
ATOM     25  C   UNL     1       2.598   0.647   5.748  1.00  0.00     0.010 A 
ATOM     26  C   UNL     1       4.756  -0.196   4.944  1.00  0.00     0.010 A 
ATOM     27  C   UNL     1       3.977   0.438   5.906  1.00  0.00    -0.014 A 
BRANCH  27  28
ATOM     28  C   UNL     1       4.514   0.634   7.227  1.00  0.00     0.031 A 
ATOM     29  C   UNL     1       4.108  -0.491   8.086  1.00  0.00     0.074 A 
ATOM     30  C   UNL     1       5.310   1.642   7.611  1.00  0.00     0.049 A 
ATOM     31  N   UNL     1       3.083  -0.518   8.868  1.00  0.00    -0.248 NA
ATOM     32  C   UNL     1       4.675  -1.816   7.783  1.00  0.00     0.031 C 
ATOM     33  C   UNL     1       5.991   2.652   6.806  1.00  0.00     0.029 A 
ATOM     34  N   UNL     1       5.736   1.908   8.869  1.00  0.00    -0.354 N 
ATOM     35  C   UNL     1       3.055  -1.809   9.368  1.00  0.00     0.074 A 
ATOM     36  C   UNL     1       3.823  -2.595   8.447  1.00  0.00     0.031 C 
ATOM     37  C   UNL     1       6.921   3.270   7.577  1.00  0.00     0.029 A 
ATOM     38  C   UNL     1       6.806   2.786   8.947  1.00  0.00     0.049 A 
ATOM     39  H   UNL     1       5.319   1.509   9.666  1.00  0.00     0.167 HD
ATOM     40  C   UNL     1       2.701  -2.033  10.660  1.00  0.00     0.034 A 
ATOM     41  C   UNL     1       7.574   3.004  10.049  1.00  0.00     0.034 A 
ATOM     42  C   UNL     1       2.008  -0.876  11.203  1.00  0.00     0.049 A 
ATOM     43  C   UNL     1       6.758   2.587  11.227  1.00  0.00     0.074 A 
ATOM     44  C   UNL     1       0.872  -0.175  10.839  1.00  0.00     0.029 A 
ATOM     45  N   UNL     1       2.716  -0.023  12.030  1.00  0.00    -0.354 N 
ATOM     46  N   UNL     1       5.661   3.202  11.584  1.00  0.00    -0.248 NA
ATOM     47  C   UNL     1       6.857   1.205  11.682  1.00  0.00     0.031 C 
ATOM     48  C   UNL     1       1.194   1.198  11.059  1.00  0.00     0.029 A 
ATOM     49  C   UNL     1       2.469   1.266  11.623  1.00  0.00     0.049 A 
ATOM     50  H   UNL     1       3.295  -0.293  12.778  1.00  0.00     0.167 HD
ATOM     51  C   UNL     1       4.766   2.193  11.915  1.00  0.00     0.074 A 
ATOM     52  C   UNL     1       5.587   0.990  12.046  1.00  0.00     0.031 C 
ATOM     53  C   UNL     1       3.417   2.360  11.762  1.00  0.00     0.034 A 
BRANCH  40  54
ATOM     54  C   UNL     1       3.383  -3.063  11.539  1.00  0.00     0.023 A 
ATOM     55  C   UNL     1       3.023  -3.038  12.895  1.00  0.00     0.031 A 
ATOM     56  C   UNL     1       4.537  -3.825  11.231  1.00  0.00     0.131 A 
ATOM     57  C   UNL     1       3.875  -3.564  13.875  1.00  0.00     0.055 A 
ATOM     58  C   UNL     1       5.351  -4.401  12.208  1.00  0.00     0.041 A 
ATOM     59  F   UNL     1       4.994  -4.014   9.991  1.00  0.00    -0.206 F 
ATOM     60  C   UNL     1       5.048  -4.232  13.544  1.00  0.00     0.022 A 
BRANCH  57  61
ATOM     61  S   UNL     1       3.511  -3.163  15.598  1.00  0.00     0.124 S 
ATOM     62  O   UNL     1       3.440  -1.707  15.540  1.00  0.00    -0.237 OA
ATOM     63  O   UNL     1       2.248  -3.864  15.803  1.00  0.00    -0.237 OA
ATOM     64  O   UNL     1       4.657  -3.710  16.319  1.00  0.00    -0.744 OA
ENDBRANCH  57  61
ENDBRANCH  40  54
BRANCH  41  65
ATOM     65  C   UNL     1       9.057   3.167  10.082  1.00  0.00     0.023 A 
ATOM     66  C   UNL     1       9.753   3.692  11.194  1.00  0.00     0.031 A 
ATOM     67  C   UNL     1       9.848   2.573   9.070  1.00  0.00     0.131 A 
ATOM     68  C   UNL     1      11.167   3.614  11.254  1.00  0.00     0.055 A 
ATOM     69  C   UNL     1      11.241   2.502   9.134  1.00  0.00     0.041 A 
ATOM     70  F   UNL     1       9.287   1.960   8.016  1.00  0.00    -0.206 F 
ATOM     71  C   UNL     1      11.907   3.015  10.232  1.00  0.00     0.022 A 
BRANCH  68  72
ATOM     72  S   UNL     1      12.075   4.223  12.715  1.00  0.00     0.124 S 
ATOM     73  O   UNL     1      11.870   5.664  12.630  1.00  0.00    -0.237 OA
ATOM     74  O   UNL     1      11.406   3.533  13.811  1.00  0.00    -0.237 OA
ATOM     75  O   UNL     1      13.451   3.786  12.469  1.00  0.00    -0.744 OA
ENDBRANCH  68  72
ENDBRANCH  41  65
BRANCH  53  76
ATOM     76  C   UNL     1       2.883   3.760  11.526  1.00  0.00     0.023 A 
ATOM     77  C   UNL     1       3.252   4.605  10.453  1.00  0.00     0.031 A 
ATOM     78  C   UNL     1       1.855   4.204  12.378  1.00  0.00     0.131 A 
ATOM     79  C   UNL     1       2.602   5.844  10.276  1.00  0.00     0.055 A 
ATOM     80  C   UNL     1       1.201   5.419  12.186  1.00  0.00     0.041 A 
ATOM     81  F   UNL     1       1.441   3.437  13.401  1.00  0.00    -0.206 F 
ATOM     82  C   UNL     1       1.576   6.247  11.136  1.00  0.00     0.022 A 
BRANCH  79  83
ATOM     83  S   UNL     1       3.090   6.971   8.928  1.00  0.00     0.124 S 
ATOM     84  O   UNL     1       4.545   7.008   9.022  1.00  0.00    -0.237 OA
ATOM     85  O   UNL     1       2.543   6.308   7.748  1.00  0.00    -0.237 OA
ATOM     86  O   UNL     1       2.426   8.229   9.279  1.00  0.00    -0.744 OA
ENDBRANCH  79  83
ENDBRANCH  53  76
ENDBRANCH  27  28
ENDBRANCH  20  22
ENDBRANCH  19  20
ENDBRANCH  18  19
ENDBRANCH   1  18
TORSDOF 17
