REMARK SMILES O=C(COc1cc(-c2ccccc2)nc(NCc2ccc(Cl)c(Cl)c2)n1)OCCOC(=O)c1ccc(-c2c3nc(c(-c4cc(S(=O)(=O)[O-])ccc4F)c4ccc([nH]4)c(-c4cc(S(=O)(=O)[O-])ccc4F)c4nc(c(-c5cc(S(=O)(=O)[O-])ccc5F)c5ccc2[nH]5)C=C4)C=C3)cc1
REMARK SMILES IDX 28 1 27 2 2 3 1 4 3 5 4 6 5 7 6 8 26 9 7 10 15 11 14 12 8 13
REMARK SMILES IDX 9 14 13 15 10 16 12 17 11 18 16 19 17 21 18 22 19 23 25 24
REMARK SMILES IDX 20 25 23 26 21 27 24 28 22 29 29 30 30 31 31 32 32 33 33 34
REMARK SMILES IDX 34 35 95 36 35 37 94 38 36 39 37 40 38 41 88 42 39 43 93 44
REMARK SMILES IDX 87 45 89 46 40 47 92 48 86 49 85 50 41 52 73 53 53 54 72 55
REMARK SMILES IDX 54 56 57 57 71 58 90 59 55 60 56 61 70 63 91 64 58 65 42 66
REMARK SMILES IDX 43 67 51 68 44 69 50 70 52 71 49 72 45 73 46 74 47 75 48 76
REMARK SMILES IDX 74 77 75 78 83 79 76 80 82 81 84 82 81 83 77 84 78 85 79 86
REMARK SMILES IDX 80 87 59 88 60 89 68 90 61 91 67 92 69 93 66 94 62 95 63 96
REMARK SMILES IDX 64 97 65 98
REMARK H PARENT 16 20 89 51 57 62
REMARK Flexibility Score: inf
ROOT
ATOM      1  C   UNL     1       4.529  -1.131   0.425  1.00  0.00     0.274 C 
ENDROOT
BRANCH   1   2
ATOM      2  O   UNL     1       3.183  -0.706   0.721  1.00  0.00    -0.460 OA
BRANCH   2   3
ATOM      3  C   UNL     1       2.525   0.236   0.001  1.00  0.00     0.344 C 
ATOM      4  O   UNL     1       1.306   0.357   0.102  1.00  0.00    -0.248 OA
BRANCH   3   5
ATOM      5  C   UNL     1       3.349   1.202  -0.836  1.00  0.00     0.353 C 
BRANCH   5   6
ATOM      6  O   UNL     1       4.247   1.950  -0.021  1.00  0.00    -0.466 OA
BRANCH   6   7
ATOM      7  C   UNL     1       3.661   3.133   0.336  1.00  0.00     0.219 A 
ATOM      8  C   UNL     1       2.641   3.159   1.245  1.00  0.00     0.097 A 
ATOM      9  N   UNL     1       4.157   4.210  -0.268  1.00  0.00    -0.177 NA
ATOM     10  C   UNL     1       2.071   4.389   1.468  1.00  0.00     0.080 A 
ATOM     11  C   UNL     1       3.566   5.372   0.016  1.00  0.00     0.226 A 
ATOM     12  N   UNL     1       2.525   5.505   0.856  1.00  0.00    -0.213 NA
BRANCH  10  13
ATOM     13  C   UNL     1       0.907   4.502   2.361  1.00  0.00     0.000 A 
ATOM     14  C   UNL     1      -0.270   5.149   1.956  1.00  0.00     0.010 A 
ATOM     15  C   UNL     1       0.904   3.856   3.614  1.00  0.00     0.010 A 
ATOM     16  C   UNL     1      -1.419   5.114   2.755  1.00  0.00     0.001 A 
ATOM     17  C   UNL     1      -0.240   3.821   4.412  1.00  0.00     0.001 A 
ATOM     18  C   UNL     1      -1.405   4.443   3.978  1.00  0.00     0.000 A 
ENDBRANCH  10  13
BRANCH  11  19
ATOM     19  N   UNL     1       4.019   6.508  -0.590  1.00  0.00    -0.350 N 
ATOM     20  H   UNL     1       3.771   7.384  -0.217  1.00  0.00     0.164 HD
BRANCH  19  21
ATOM     21  C   UNL     1       4.855   6.452  -1.767  1.00  0.00     0.152 C 
BRANCH  21  22
ATOM     22  C   UNL     1       4.280   7.426  -2.765  1.00  0.00    -0.027 A 
ATOM     23  C   UNL     1       4.886   8.664  -2.998  1.00  0.00     0.007 A 
ATOM     24  C   UNL     1       3.032   7.148  -3.348  1.00  0.00     0.027 A 
ATOM     25  C   UNL     1       4.204   9.645  -3.716  1.00  0.00     0.022 A 
ATOM     26  C   UNL     1       2.339   8.135  -4.048  1.00  0.00     0.060 A 
ATOM     27  C   UNL     1       2.910   9.401  -4.189  1.00  0.00     0.059 A 
ATOM     28  Cl  UNL     1       0.758   7.744  -4.616  1.00  0.00    -0.083 Cl
ATOM     29  Cl  UNL     1       2.037  10.749  -4.802  1.00  0.00    -0.083 Cl
ENDBRANCH  21  22
ENDBRANCH  19  21
ENDBRANCH  11  19
ENDBRANCH   6   7
ENDBRANCH   5   6
ENDBRANCH   3   5
ENDBRANCH   2   3
ENDBRANCH   1   2
BRANCH   1  30
ATOM     30  C   UNL     1       4.524  -2.283  -0.582  1.00  0.00     0.275 C 
BRANCH  30  31
ATOM     31  O   UNL     1       4.080  -1.815  -1.869  1.00  0.00    -0.458 OA
BRANCH  31  32
ATOM     32  C   UNL     1       2.771  -2.043  -2.169  1.00  0.00     0.338 C 
ATOM     33  O   UNL     1       1.979  -2.679  -1.506  1.00  0.00    -0.246 OA
BRANCH  32  34
ATOM     34  C   UNL     1       2.408  -1.203  -3.337  1.00  0.00     0.060 A 
ATOM     35  C   UNL     1       1.198  -0.497  -3.308  1.00  0.00     0.016 A 
ATOM     36  C   UNL     1       3.264  -1.080  -4.435  1.00  0.00     0.016 A 
ATOM     37  C   UNL     1       0.839   0.326  -4.382  1.00  0.00     0.010 A 
ATOM     38  C   UNL     1       2.898  -0.269  -5.512  1.00  0.00     0.010 A 
ATOM     39  C   UNL     1       1.678   0.429  -5.500  1.00  0.00    -0.014 A 
BRANCH  39  40
ATOM     40  C   UNL     1       1.243   1.155  -6.721  1.00  0.00     0.031 A 
ATOM     41  C   UNL     1       0.594   0.373  -7.832  1.00  0.00     0.074 A 
ATOM     42  C   UNL     1       1.488   2.469  -6.875  1.00  0.00     0.049 A 
ATOM     43  N   UNL     1       0.238   0.767  -9.027  1.00  0.00    -0.248 NA
ATOM     44  C   UNL     1       0.338  -1.050  -7.564  1.00  0.00     0.031 C 
ATOM     45  C   UNL     1       2.126   3.333  -5.882  1.00  0.00     0.029 A 
ATOM     46  N   UNL     1       1.254   3.303  -7.943  1.00  0.00    -0.354 N 
ATOM     47  C   UNL     1      -0.259  -0.363  -9.666  1.00  0.00     0.074 A 
ATOM     48  C   UNL     1      -0.150  -1.459  -8.726  1.00  0.00     0.031 C 
ATOM     49  C   UNL     1       2.251   4.570  -6.398  1.00  0.00     0.029 A 
ATOM     50  C   UNL     1       1.724   4.584  -7.761  1.00  0.00     0.049 A 
ATOM     51  H   UNL     1       0.794   3.010  -8.762  1.00  0.00     0.167 HD
ATOM     52  C   UNL     1      -0.750  -0.479 -10.924  1.00  0.00     0.034 A 
ATOM     53  C   UNL     1       1.749   5.635  -8.607  1.00  0.00     0.034 A 
ATOM     54  C   UNL     1      -0.857   0.615 -11.856  1.00  0.00     0.049 A 
ATOM     55  C   UNL     1       1.208   5.468 -10.012  1.00  0.00     0.074 A 
ATOM     56  C   UNL     1      -1.408   0.612 -13.126  1.00  0.00     0.029 A 
ATOM     57  N   UNL     1      -0.383   1.900 -11.633  1.00  0.00    -0.354 N 
ATOM     58  N   UNL     1       0.674   4.409 -10.575  1.00  0.00    -0.248 NA
ATOM     59  C   UNL     1       1.283   6.641 -10.899  1.00  0.00     0.031 C 
ATOM     60  C   UNL     1      -1.198   1.871 -13.699  1.00  0.00     0.029 A 
ATOM     61  C   UNL     1      -0.582   2.681 -12.760  1.00  0.00     0.049 A 
ATOM     62  H   UNL     1       0.033   2.211 -10.796  1.00  0.00     0.167 HD
ATOM     63  C   UNL     1       0.344   4.797 -11.873  1.00  0.00     0.074 A 
ATOM     64  C   UNL     1       0.702   6.191 -11.999  1.00  0.00     0.031 C 
ATOM     65  C   UNL     1      -0.199   4.065 -12.878  1.00  0.00     0.034 A 
BRANCH  52  66
ATOM     66  C   UNL     1      -1.150  -1.854 -11.391  1.00  0.00     0.023 A 
ATOM     67  C   UNL     1      -2.245  -2.538 -10.839  1.00  0.00     0.031 A 
ATOM     68  C   UNL     1      -0.414  -2.489 -12.408  1.00  0.00     0.131 A 
ATOM     69  C   UNL     1      -2.540  -3.840 -11.268  1.00  0.00     0.055 A 
ATOM     70  C   UNL     1      -0.756  -3.757 -12.879  1.00  0.00     0.041 A 
ATOM     71  F   UNL     1       0.655  -1.889 -12.954  1.00  0.00    -0.206 F 
ATOM     72  C   UNL     1      -1.818  -4.445 -12.301  1.00  0.00     0.022 A 
BRANCH  69  73
ATOM     73  S   UNL     1      -3.810  -4.780 -10.379  1.00  0.00     0.124 S 
ATOM     74  O   UNL     1      -3.262  -4.810  -9.025  1.00  0.00    -0.237 OA
ATOM     75  O   UNL     1      -5.001  -3.960 -10.568  1.00  0.00    -0.237 OA
ATOM     76  O   UNL     1      -3.826  -6.070 -11.066  1.00  0.00    -0.744 OA
ENDBRANCH  69  73
ENDBRANCH  52  66
BRANCH  53  77
ATOM     77  C   UNL     1       2.365   6.938  -8.217  1.00  0.00     0.023 A 
ATOM     78  C   UNL     1       1.603   8.118  -8.219  1.00  0.00     0.031 A 
ATOM     79  C   UNL     1       3.750   7.047  -8.001  1.00  0.00     0.131 A 
ATOM     80  C   UNL     1       2.244   9.362  -8.121  1.00  0.00     0.055 A 
ATOM     81  C   UNL     1       4.372   8.284  -7.819  1.00  0.00     0.041 A 
ATOM     82  F   UNL     1       4.526   5.951  -7.995  1.00  0.00    -0.206 F 
ATOM     83  C   UNL     1       3.621   9.452  -7.903  1.00  0.00     0.022 A 
BRANCH  80  84
ATOM     84  S   UNL     1       1.273  10.869  -8.419  1.00  0.00     0.124 S 
ATOM     85  O   UNL     1       1.042  10.778  -9.857  1.00  0.00    -0.237 OA
ATOM     86  O   UNL     1       0.101  10.668  -7.575  1.00  0.00    -0.237 OA
ATOM     87  O   UNL     1       2.175  11.940  -8.000  1.00  0.00    -0.744 OA
ENDBRANCH  80  84
ENDBRANCH  53  77
BRANCH  65  88
ATOM     88  C   UNL     1      -0.446   4.772 -14.188  1.00  0.00     0.023 A 
ATOM     89  C   UNL     1       0.616   5.204 -15.003  1.00  0.00     0.031 A 
ATOM     90  C   UNL     1      -1.759   5.021 -14.625  1.00  0.00     0.131 A 
ATOM     91  C   UNL     1       0.348   5.902 -16.190  1.00  0.00     0.055 A 
ATOM     92  C   UNL     1      -2.020   5.670 -15.833  1.00  0.00     0.041 A 
ATOM     93  F   UNL     1      -2.810   4.631 -13.887  1.00  0.00    -0.206 F 
ATOM     94  C   UNL     1      -0.964   6.124 -16.617  1.00  0.00     0.022 A 
BRANCH  91  95
ATOM     95  S   UNL     1       1.739   6.571 -17.145  1.00  0.00     0.124 S 
ATOM     96  O   UNL     1       2.325   7.521 -16.206  1.00  0.00    -0.237 OA
ATOM     97  O   UNL     1       2.532   5.377 -17.422  1.00  0.00    -0.237 OA
ATOM     98  O   UNL     1       1.096   7.169 -18.314  1.00  0.00    -0.744 OA
ENDBRANCH  91  95
ENDBRANCH  65  88
ENDBRANCH  39  40
ENDBRANCH  32  34
ENDBRANCH  31  32
ENDBRANCH  30  31
ENDBRANCH   1  30
TORSDOF 20
