REMARK SMILES Cn1cc(C(=O)OCCOC(=O)c2ccc(-c3c4nc(c(-c5cc(S(=O)(=O)[O-])ccc5F)c5ccc([nH]5)c(-c5cc(S(=O)(=O)[O-])ccc5F)c5nc(c(-c6cc(S(=O)(=O)[O-])ccc6F)c6ccc3[nH]6)C=C5)C=C4)cc2)c(C(=O)Nc2ccc(-n3cncn3)cc2)n1
REMARK SMILES IDX 8 1 7 2 5 3 6 4 4 5 1 6 2 7 3 8 91 9 76 10 77 11 78 12 79 13
REMARK SMILES IDX 80 15 81 16 90 17 82 18 89 19 83 20 84 21 85 22 88 23 86 24
REMARK SMILES IDX 87 25 9 26 10 27 11 28 12 29 13 30 14 31 75 32 15 33 74 34
REMARK SMILES IDX 16 35 17 36 18 37 68 38 19 39 73 40 67 41 69 42 20 43 72 44
REMARK SMILES IDX 66 45 65 46 21 48 53 49 33 50 52 51 34 52 37 53 51 54 70 55
REMARK SMILES IDX 35 56 36 57 50 59 71 60 38 61 22 62 23 63 31 64 24 65 30 66
REMARK SMILES IDX 32 67 29 68 25 69 26 70 27 71 28 72 54 73 55 74 63 75 56 76
REMARK SMILES IDX 62 77 64 78 61 79 57 80 58 81 59 82 60 83 39 84 40 85 48 86
REMARK SMILES IDX 41 87 47 88 49 89 46 90 42 91 43 92 44 93 45 94
REMARK H PARENT 79 14 69 47 37 58
REMARK Flexibility Score: inf
ROOT
ATOM      1  C   UNL     1       2.649  -3.477  -1.757  1.00  0.00     0.275 C 
ENDROOT
BRANCH   1   2
ATOM      2  O   UNL     1       1.790  -2.479  -1.195  1.00  0.00    -0.458 OA
BRANCH   2   3
ATOM      3  C   UNL     1       1.876  -2.190   0.134  1.00  0.00     0.342 C 
ATOM      4  O   UNL     1       2.485  -2.851   0.963  1.00  0.00    -0.246 OA
BRANCH   3   5
ATOM      5  C   UNL     1       1.056  -1.041   0.420  1.00  0.00     0.111 A 
ATOM      6  C   UNL     1      -2.121   0.623   0.105  1.00  0.00     0.173 C 
ATOM      7  N   UNL     1      -0.779   0.154   0.350  1.00  0.00    -0.274 N 
ATOM      8  C   UNL     1      -0.291  -1.071   0.082  1.00  0.00     0.125 A 
ATOM      9  N   UNL     1       0.128   0.976   0.865  1.00  0.00    -0.167 NA
ATOM     10  C   UNL     1       1.294   0.280   0.938  1.00  0.00     0.165 A 
BRANCH  10  11
ATOM     11  C   UNL     1       2.438   1.050   1.520  1.00  0.00     0.277 C 
ATOM     12  O   UNL     1       2.310   2.255   1.779  1.00  0.00    -0.267 OA
ATOM     13  N   UNL     1       3.604   0.511   2.010  1.00  0.00    -0.321 N 
ATOM     14  H   UNL     1       3.909   0.952   2.836  1.00  0.00     0.170 HD
BRANCH  13  15
ATOM     15  C   UNL     1       4.450  -0.513   1.605  1.00  0.00     0.041 A 
ATOM     16  C   UNL     1       5.232  -1.137   2.576  1.00  0.00     0.028 A 
ATOM     17  C   UNL     1       4.600  -0.877   0.278  1.00  0.00     0.028 A 
ATOM     18  C   UNL     1       5.945  -2.293   2.255  1.00  0.00     0.030 A 
ATOM     19  C   UNL     1       5.375  -1.987  -0.069  1.00  0.00     0.030 A 
ATOM     20  C   UNL     1       5.933  -2.773   0.941  1.00  0.00     0.067 A 
BRANCH  20  21
ATOM     21  N   UNL     1       6.311  -4.115   0.686  1.00  0.00    -0.221 N 
ATOM     22  C   UNL     1       6.304  -4.800  -0.508  1.00  0.00     0.225 A 
ATOM     23  N   UNL     1       6.535  -4.998   1.693  1.00  0.00    -0.155 NA
ATOM     24  N   UNL     1       6.383  -6.096  -0.299  1.00  0.00    -0.223 NA
ATOM     25  C   UNL     1       6.490  -6.167   1.056  1.00  0.00     0.246 A 
ENDBRANCH  20  21
ENDBRANCH  13  15
ENDBRANCH  10  11
ENDBRANCH   3   5
ENDBRANCH   2   3
ENDBRANCH   1   2
BRANCH   1  26
ATOM     26  C   UNL     1       3.149  -2.974  -3.119  1.00  0.00     0.275 C 
BRANCH  26  27
ATOM     27  O   UNL     1       3.769  -1.673  -2.996  1.00  0.00    -0.458 OA
BRANCH  27  28
ATOM     28  C   UNL     1       2.947  -0.616  -3.254  1.00  0.00     0.338 C 
ATOM     29  O   UNL     1       1.801  -0.689  -3.667  1.00  0.00    -0.246 OA
BRANCH  28  30
ATOM     30  C   UNL     1       3.571   0.660  -2.810  1.00  0.00     0.060 A 
ATOM     31  C   UNL     1       2.729   1.635  -2.259  1.00  0.00     0.016 A 
ATOM     32  C   UNL     1       4.949   0.902  -2.884  1.00  0.00     0.016 A 
ATOM     33  C   UNL     1       3.251   2.854  -1.814  1.00  0.00     0.010 A 
ATOM     34  C   UNL     1       5.471   2.131  -2.445  1.00  0.00     0.010 A 
ATOM     35  C   UNL     1       4.620   3.129  -1.938  1.00  0.00    -0.014 A 
BRANCH  35  36
ATOM     36  C   UNL     1       5.089   4.533  -1.764  1.00  0.00     0.031 A 
ATOM     37  C   UNL     1       5.030   5.447  -2.961  1.00  0.00     0.074 A 
ATOM     38  C   UNL     1       5.495   5.026  -0.579  1.00  0.00     0.049 A 
ATOM     39  N   UNL     1       5.248   6.735  -3.040  1.00  0.00    -0.248 NA
ATOM     40  C   UNL     1       4.664   4.818  -4.240  1.00  0.00     0.031 C 
ATOM     41  C   UNL     1       5.578   4.276   0.672  1.00  0.00     0.029 A 
ATOM     42  N   UNL     1       5.908   6.294  -0.238  1.00  0.00    -0.354 N 
ATOM     43  C   UNL     1       4.991   7.080  -4.362  1.00  0.00     0.074 A 
ATOM     44  C   UNL     1       4.672   5.854  -5.063  1.00  0.00     0.031 C 
ATOM     45  C   UNL     1       6.020   5.098   1.643  1.00  0.00     0.029 A 
ATOM     46  C   UNL     1       6.255   6.431   1.086  1.00  0.00     0.049 A 
ATOM     47  H   UNL     1       5.950   7.036  -0.884  1.00  0.00     0.167 HD
ATOM     48  C   UNL     1       4.994   8.305  -4.942  1.00  0.00     0.034 A 
ATOM     49  C   UNL     1       6.707   7.506   1.767  1.00  0.00     0.034 A 
ATOM     50  C   UNL     1       5.372   9.521  -4.272  1.00  0.00     0.049 A 
ATOM     51  C   UNL     1       6.850   8.838   1.060  1.00  0.00     0.074 A 
ATOM     52  C   UNL     1       5.414  10.809  -4.779  1.00  0.00     0.029 A 
ATOM     53  N   UNL     1       5.807   9.599  -2.957  1.00  0.00    -0.354 N 
ATOM     54  N   UNL     1       6.547   9.159  -0.176  1.00  0.00    -0.248 NA
ATOM     55  C   UNL     1       7.389   9.957   1.851  1.00  0.00     0.031 C 
ATOM     56  C   UNL     1       5.942  11.652  -3.794  1.00  0.00     0.029 A 
ATOM     57  C   UNL     1       6.166  10.902  -2.651  1.00  0.00     0.049 A 
ATOM     58  H   UNL     1       5.854   8.839  -2.333  1.00  0.00     0.167 HD
ATOM     59  C   UNL     1       6.822  10.521  -0.295  1.00  0.00     0.074 A 
ATOM     60  C   UNL     1       7.314  10.963   0.992  1.00  0.00     0.031 C 
ATOM     61  C   UNL     1       6.670  11.336  -1.370  1.00  0.00     0.034 A 
BRANCH  48  62
ATOM     62  C   UNL     1       4.611   8.360  -6.397  1.00  0.00     0.023 A 
ATOM     63  C   UNL     1       3.301   8.063  -6.816  1.00  0.00     0.031 A 
ATOM     64  C   UNL     1       5.572   8.655  -7.377  1.00  0.00     0.131 A 
ATOM     65  C   UNL     1       3.005   8.002  -8.185  1.00  0.00     0.055 A 
ATOM     66  C   UNL     1       5.254   8.659  -8.735  1.00  0.00     0.041 A 
ATOM     67  F   UNL     1       6.842   8.920  -7.030  1.00  0.00    -0.206 F 
ATOM     68  C   UNL     1       3.968   8.318  -9.147  1.00  0.00     0.022 A 
BRANCH  65  69
ATOM     69  S   UNL     1       1.383   7.371  -8.695  1.00  0.00     0.124 S 
ATOM     70  O   UNL     1       1.382   6.037  -8.098  1.00  0.00    -0.237 OA
ATOM     71  O   UNL     1       0.467   8.338  -8.103  1.00  0.00    -0.237 OA
ATOM     72  O   UNL     1       1.452   7.390 -10.155  1.00  0.00    -0.744 OA
ENDBRANCH  65  69
ENDBRANCH  48  62
BRANCH  49  73
ATOM     73  C   UNL     1       7.111   7.389   3.199  1.00  0.00     0.023 A 
ATOM     74  C   UNL     1       6.442   8.102   4.209  1.00  0.00     0.031 A 
ATOM     75  C   UNL     1       8.250   6.647   3.559  1.00  0.00     0.131 A 
ATOM     76  C   UNL     1       6.953   8.104   5.518  1.00  0.00     0.055 A 
ATOM     77  C   UNL     1       8.725   6.613   4.871  1.00  0.00     0.041 A 
ATOM     78  F   UNL     1       8.931   5.957   2.630  1.00  0.00    -0.206 F 
ATOM     79  C   UNL     1       8.084   7.357   5.856  1.00  0.00     0.022 A 
BRANCH  76  80
ATOM     80  S   UNL     1       6.180   9.184   6.756  1.00  0.00     0.124 S 
ATOM     81  O   UNL     1       6.327  10.497   6.138  1.00  0.00    -0.237 OA
ATOM     82  O   UNL     1       4.824   8.652   6.820  1.00  0.00    -0.237 OA
ATOM     83  O   UNL     1       6.990   8.964   7.952  1.00  0.00    -0.744 OA
ENDBRANCH  76  80
ENDBRANCH  49  73
BRANCH  61  84
ATOM     84  C   UNL     1       7.002  12.798  -1.190  1.00  0.00     0.023 A 
ATOM     85  C   UNL     1       8.323  13.243  -1.010  1.00  0.00     0.031 A 
ATOM     86  C   UNL     1       5.977  13.761  -1.212  1.00  0.00     0.131 A 
ATOM     87  C   UNL     1       8.582  14.610  -0.821  1.00  0.00     0.055 A 
ATOM     88  C   UNL     1       6.245  15.124  -1.070  1.00  0.00     0.041 A 
ATOM     89  F   UNL     1       4.697  13.393  -1.383  1.00  0.00    -0.206 F 
ATOM     90  C   UNL     1       7.552  15.554  -0.864  1.00  0.00     0.022 A 
BRANCH  87  91
ATOM     91  S   UNL     1      10.280  15.140  -0.462  1.00  0.00     0.124 S 
ATOM     92  O   UNL     1      10.569  14.422   0.775  1.00  0.00    -0.237 OA
ATOM     93  O   UNL     1      11.005  14.690  -1.645  1.00  0.00    -0.237 OA
ATOM     94  O   UNL     1      10.165  16.591  -0.324  1.00  0.00    -0.744 OA
ENDBRANCH  87  91
ENDBRANCH  61  84
ENDBRANCH  35  36
ENDBRANCH  28  30
ENDBRANCH  27  28
ENDBRANCH  26  27
ENDBRANCH   1  26
TORSDOF 17
