REMARK SMILES CCCc1c(C(=O)OCCOC(=O)c2ccc(-c3c4nc(c(-c5cc(S(=O)(=O)[O-])ccc5F)c5ccc([nH]5)c(-c5cc(S(=O)(=O)[O-])ccc5F)c5nc(c(-c6cc(S(=O)(=O)[O-])ccc6F)c6ccc3[nH]6)C=C5)C=C4)cc2)nnn1[C@@H](C)[C@H](C)O
REMARK SMILES IDX 9 1 8 2 6 3 7 4 5 5 4 6 79 7 77 8 78 9 3 10 2 11 1 12 80 13
REMARK SMILES IDX 81 14 82 15 83 16 84 17 10 19 11 20 12 21 13 22 14 23 15 24
REMARK SMILES IDX 76 25 16 26 75 27 17 28 18 29 19 30 69 31 20 32 74 33 68 34
REMARK SMILES IDX 70 35 21 36 73 37 67 38 66 39 22 41 54 42 34 43 53 44 35 45
REMARK SMILES IDX 38 46 52 47 71 48 36 49 37 50 51 52 72 53 39 54 23 55 24 56
REMARK SMILES IDX 32 57 25 58 31 59 33 60 30 61 26 62 27 63 28 64 29 65 55 66
REMARK SMILES IDX 56 67 64 68 57 69 63 70 65 71 62 72 58 73 59 74 60 75 61 76
REMARK SMILES IDX 40 77 41 78 49 79 42 80 48 81 50 82 47 83 43 84 44 85 45 86
REMARK SMILES IDX 46 87
REMARK H PARENT 84 18 70 40 38 51
REMARK Flexibility Score: inf
ROOT
ATOM      1  C   UNL     1       8.195   3.573   4.253  1.00  0.00     0.275 C 
ENDROOT
BRANCH   1   2
ATOM      2  O   UNL     1       7.125   2.692   3.868  1.00  0.00    -0.457 OA
BRANCH   2   3
ATOM      3  C   UNL     1       6.653   1.853   4.841  1.00  0.00     0.360 C 
ATOM      4  O   UNL     1       7.239   1.673   5.908  1.00  0.00    -0.244 OA
BRANCH   3   5
ATOM      5  C   UNL     1       5.370   1.220   4.527  1.00  0.00     0.193 A 
ATOM      6  C   UNL     1       4.633   1.156   3.340  1.00  0.00     0.074 A 
ATOM      7  N   UNL     1       3.505   0.443   3.712  1.00  0.00    -0.243 N 
ATOM      8  N   UNL     1       4.664   0.589   5.526  1.00  0.00    -0.123 NA
ATOM      9  N   UNL     1       3.522   0.157   5.029  1.00  0.00    -0.066 NA
BRANCH   6  10
ATOM     10  C   UNL     1       4.888   1.788   2.000  1.00  0.00     0.058 C 
BRANCH  10  11
ATOM     11  C   UNL     1       4.828   0.859   0.785  1.00  0.00     0.003 C 
ATOM     12  C   UNL     1       3.660   1.188  -0.142  1.00  0.00     0.004 C 
ENDBRANCH  10  11
ENDBRANCH   6  10
BRANCH   7  13
ATOM     13  C   UNL     1       2.477  -0.205   2.897  1.00  0.00     0.135 C 
ATOM     14  C   UNL     1       2.337  -1.686   3.283  1.00  0.00     0.036 C 
BRANCH  13  15
ATOM     15  C   UNL     1       1.137   0.562   2.896  1.00  0.00     0.135 C 
ATOM     16  C   UNL     1       0.098  -0.100   1.988  1.00  0.00     0.040 C 
BRANCH  15  17
ATOM     17  O   UNL     1       1.351   1.875   2.370  1.00  0.00    -0.391 OA
ATOM     18  H   UNL     1       1.672   1.810   1.457  1.00  0.00     0.211 HD
ENDBRANCH  15  17
ENDBRANCH  13  15
ENDBRANCH   7  13
ENDBRANCH   3   5
ENDBRANCH   2   3
ENDBRANCH   1   2
BRANCH   1  19
ATOM     19  C   UNL     1       7.670   4.890   4.809  1.00  0.00     0.275 C 
BRANCH  19  20
ATOM     20  O   UNL     1       6.979   4.693   6.040  1.00  0.00    -0.458 OA
BRANCH  20  21
ATOM     21  C   UNL     1       5.642   4.520   5.905  1.00  0.00     0.338 C 
ATOM     22  O   UNL     1       5.047   4.226   4.882  1.00  0.00    -0.246 OA
BRANCH  21  23
ATOM     23  C   UNL     1       4.967   4.984   7.118  1.00  0.00     0.060 A 
ATOM     24  C   UNL     1       3.578   4.824   7.176  1.00  0.00     0.016 A 
ATOM     25  C   UNL     1       5.654   5.863   7.964  1.00  0.00     0.016 A 
ATOM     26  C   UNL     1       2.847   5.694   7.956  1.00  0.00     0.010 A 
ATOM     27  C   UNL     1       4.925   6.758   8.700  1.00  0.00     0.010 A 
ATOM     28  C   UNL     1       3.531   6.703   8.635  1.00  0.00    -0.014 A 
BRANCH  28  29
ATOM     29  C   UNL     1       2.775   7.706   9.353  1.00  0.00     0.031 A 
ATOM     30  C   UNL     1       2.396   7.285  10.721  1.00  0.00     0.074 A 
ATOM     31  C   UNL     1       2.667   8.958   8.867  1.00  0.00     0.049 A 
ATOM     32  N   UNL     1       1.215   7.136  11.220  1.00  0.00    -0.248 NA
ATOM     33  C   UNL     1       3.475   6.784  11.595  1.00  0.00     0.031 C 
ATOM     34  C   UNL     1       3.324   9.509   7.677  1.00  0.00     0.029 A 
ATOM     35  N   UNL     1       2.088  10.051   9.428  1.00  0.00    -0.354 N 
ATOM     36  C   UNL     1       1.424   6.755  12.543  1.00  0.00     0.074 A 
ATOM     37  C   UNL     1       2.778   6.295  12.615  1.00  0.00     0.031 C 
ATOM     38  C   UNL     1       3.327  10.858   7.765  1.00  0.00     0.029 A 
ATOM     39  C   UNL     1       2.598  11.257   8.959  1.00  0.00     0.049 A 
ATOM     40  H   UNL     1       1.374   9.995  10.103  1.00  0.00     0.167 HD
ATOM     41  C   UNL     1       0.576   7.139  13.534  1.00  0.00     0.034 A 
ATOM     42  C   UNL     1       2.545  12.460   9.595  1.00  0.00     0.034 A 
ATOM     43  C   UNL     1      -0.708   7.528  12.990  1.00  0.00     0.049 A 
ATOM     44  C   UNL     1       1.462  12.357  10.615  1.00  0.00     0.074 A 
ATOM     45  C   UNL     1      -1.624   6.900  12.164  1.00  0.00     0.029 A 
ATOM     46  N   UNL     1      -1.024   8.869  12.932  1.00  0.00    -0.354 N 
ATOM     47  N   UNL     1       0.202  12.172  10.317  1.00  0.00    -0.248 NA
ATOM     48  C   UNL     1       1.837  11.946  11.963  1.00  0.00     0.031 C 
ATOM     49  C   UNL     1      -2.069   7.919  11.271  1.00  0.00     0.029 A 
ATOM     50  C   UNL     1      -1.477   9.123  11.659  1.00  0.00     0.049 A 
ATOM     51  H   UNL     1      -0.942   9.522  13.664  1.00  0.00     0.167 HD
ATOM     52  C   UNL     1      -0.263  11.251  11.247  1.00  0.00     0.074 A 
ATOM     53  C   UNL     1       0.763  11.219  12.289  1.00  0.00     0.031 C 
ATOM     54  C   UNL     1      -1.275  10.378  10.954  1.00  0.00     0.034 A 
BRANCH  41  55
ATOM     55  C   UNL     1       1.032   7.526  14.930  1.00  0.00     0.023 A 
ATOM     56  C   UNL     1       0.034   7.950  15.824  1.00  0.00     0.031 A 
ATOM     57  C   UNL     1       2.363   7.771  15.349  1.00  0.00     0.131 A 
ATOM     58  C   UNL     1       0.359   8.678  16.981  1.00  0.00     0.055 A 
ATOM     59  C   UNL     1       2.683   8.431  16.538  1.00  0.00     0.041 A 
ATOM     60  F   UNL     1       3.438   7.473  14.611  1.00  0.00    -0.206 F 
ATOM     61  C   UNL     1       1.678   8.924  17.345  1.00  0.00     0.022 A 
BRANCH  58  62
ATOM     62  S   UNL     1      -0.988   9.463  17.896  1.00  0.00     0.124 S 
ATOM     63  O   UNL     1      -1.684  10.180  16.833  1.00  0.00    -0.237 OA
ATOM     64  O   UNL     1      -1.680   8.307  18.456  1.00  0.00    -0.237 OA
ATOM     65  O   UNL     1      -0.292  10.305  18.866  1.00  0.00    -0.744 OA
ENDBRANCH  58  62
ENDBRANCH  41  55
BRANCH  42  66
ATOM     66  C   UNL     1       3.639  13.483   9.620  1.00  0.00     0.023 A 
ATOM     67  C   UNL     1       3.432  14.831   9.985  1.00  0.00     0.031 A 
ATOM     68  C   UNL     1       4.988  13.082   9.461  1.00  0.00     0.131 A 
ATOM     69  C   UNL     1       4.536  15.708  10.141  1.00  0.00     0.055 A 
ATOM     70  C   UNL     1       6.070  13.955   9.594  1.00  0.00     0.041 A 
ATOM     71  F   UNL     1       5.317  11.799   9.247  1.00  0.00    -0.206 F 
ATOM     72  C   UNL     1       5.848  15.275   9.939  1.00  0.00     0.022 A 
BRANCH  69  73
ATOM     73  S   UNL     1       4.290  17.427  10.700  1.00  0.00     0.124 S 
ATOM     74  O   UNL     1       3.616  18.032   9.558  1.00  0.00    -0.237 OA
ATOM     75  O   UNL     1       3.493  17.252  11.908  1.00  0.00    -0.237 OA
ATOM     76  O   UNL     1       5.653  17.909  10.934  1.00  0.00    -0.744 OA
ENDBRANCH  69  73
ENDBRANCH  42  66
BRANCH  54  77
ATOM     77  C   UNL     1      -2.096  10.584   9.694  1.00  0.00     0.023 A 
ATOM     78  C   UNL     1      -1.567  10.653   8.384  1.00  0.00     0.031 A 
ATOM     79  C   UNL     1      -3.497  10.544   9.825  1.00  0.00     0.131 A 
ATOM     80  C   UNL     1      -2.435  10.680   7.272  1.00  0.00     0.055 A 
ATOM     81  C   UNL     1      -4.351  10.549   8.722  1.00  0.00     0.041 A 
ATOM     82  F   UNL     1      -4.065  10.451  11.039  1.00  0.00    -0.206 F 
ATOM     83  C   UNL     1      -3.822  10.621   7.440  1.00  0.00     0.022 A 
BRANCH  80  84
ATOM     84  S   UNL     1      -1.779  10.803   5.575  1.00  0.00     0.124 S 
ATOM     85  O   UNL     1      -0.783  11.864   5.669  1.00  0.00    -0.237 OA
ATOM     86  O   UNL     1      -1.264   9.457   5.337  1.00  0.00    -0.237 OA
ATOM     87  O   UNL     1      -2.959  11.148   4.779  1.00  0.00    -0.744 OA
ENDBRANCH  80  84
ENDBRANCH  54  77
ENDBRANCH  28  29
ENDBRANCH  21  23
ENDBRANCH  20  21
ENDBRANCH  19  20
ENDBRANCH   1  19
TORSDOF 19
