REMARK SMILES Cc1nc(NC(=O)[C@H]2[C@@H]3CC[C@@H](C3)[C@@H]2C(=O)OCCOC(=O)c2ccc(-c3c4nc(c(-c5cc(S(=O)(=O)[O-])ccc5F)c5ccc([nH]5)c(-c5cc(S(=O)(=O)[O-])ccc5F)c5nc(c(-c6cc(S(=O)(=O)[O-])ccc6F)c6ccc3[nH]6)C=C5)C=C4)cc2)sc1-c1ccccc1
REMARK SMILES IDX 18 1 17 2 15 3 16 4 14 5 8 6 9 7 10 8 13 9 12 10 11 11 6 12
REMARK SMILES IDX 5 13 7 15 4 16 1 17 2 18 3 19 87 20 86 21 88 22 89 23 93 24
REMARK SMILES IDX 90 25 92 26 91 27 19 28 20 29 21 30 22 31 23 32 24 33 85 34
REMARK SMILES IDX 25 35 84 36 26 37 27 38 28 39 78 40 29 41 83 42 77 43 79 44
REMARK SMILES IDX 30 45 82 46 76 47 75 48 31 50 63 51 43 52 62 53 44 54 47 55
REMARK SMILES IDX 61 56 80 57 45 58 46 59 60 61 81 62 48 63 32 64 33 65 41 66
REMARK SMILES IDX 34 67 40 68 42 69 39 70 35 71 36 72 37 73 38 74 64 75 65 76
REMARK SMILES IDX 73 77 66 78 72 79 74 80 71 81 67 82 68 83 69 84 70 85 49 86
REMARK SMILES IDX 50 87 58 88 51 89 57 90 59 91 56 92 52 93 53 94 54 95 55 96
REMARK H PARENT 5 14 79 49 47 60
REMARK Flexibility Score: inf
ROOT
ATOM      1  C   UNL     1      -3.865   1.160   2.656  1.00  0.00     0.274 C 
ENDROOT
BRANCH   1   2
ATOM      2  O   UNL     1      -3.453   1.488   1.317  1.00  0.00    -0.462 OA
BRANCH   2   3
ATOM      3  C   UNL     1      -2.821   2.690   1.144  1.00  0.00     0.310 C 
ATOM      4  O   UNL     1      -2.754   3.582   1.974  1.00  0.00    -0.252 OA
BRANCH   3   5
ATOM      5  C   UNL     1      -2.155   2.691  -0.218  1.00  0.00     0.115 C 
ATOM      6  C   UNL     1      -1.037   3.721  -0.455  1.00  0.00     0.096 C 
ATOM      7  C   UNL     1      -1.595   4.544  -1.645  1.00  0.00     0.003 C 
ATOM      8  C   UNL     1      -2.831   5.342  -1.176  1.00  0.00     0.005 C 
ATOM      9  C   UNL     1      -2.228   3.448  -2.498  1.00  0.00     0.009 C 
ATOM     10  C   UNL     1      -3.148   2.973  -1.369  1.00  0.00     0.004 C 
ATOM     11  C   UNL     1      -3.926   4.269  -1.089  1.00  0.00     0.005 C 
BRANCH   6  12
ATOM     12  C   UNL     1       0.443   3.358  -0.741  1.00  0.00     0.230 C 
ATOM     13  N   UNL     1       1.017   2.137  -0.854  1.00  0.00    -0.302 N 
ATOM     14  H   UNL     1       1.994   2.131  -0.731  1.00  0.00     0.172 HD
ATOM     15  O   UNL     1       1.243   4.310  -0.778  1.00  0.00    -0.274 OA
BRANCH  13  16
ATOM     16  C   UNL     1       0.472   0.919  -1.108  1.00  0.00     0.190 A 
ATOM     17  C   UNL     1      -2.424  -1.093  -1.472  1.00  0.00     0.068 C 
ATOM     18  C   UNL     1      -0.998  -0.686  -1.352  1.00  0.00     0.058 A 
ATOM     19  N   UNL     1      -0.699   0.638  -1.603  1.00  0.00    -0.225 NA
ATOM     20  C   UNL     1       0.068  -1.451  -0.896  1.00  0.00     0.059 A 
ATOM     21  S   UNL     1       1.444  -0.426  -0.708  1.00  0.00    -0.096 S 
BRANCH  20  22
ATOM     22  C   UNL     1       0.089  -2.872  -0.539  1.00  0.00    -0.006 A 
ATOM     23  C   UNL     1       0.527  -3.307   0.718  1.00  0.00     0.009 A 
ATOM     24  C   UNL     1      -0.445  -3.819  -1.427  1.00  0.00     0.009 A 
ATOM     25  C   UNL     1       0.400  -4.649   1.089  1.00  0.00     0.001 A 
ATOM     26  C   UNL     1      -0.582  -5.157  -1.054  1.00  0.00     0.001 A 
ATOM     27  C   UNL     1      -0.167  -5.570   0.209  1.00  0.00     0.000 A 
ENDBRANCH  20  22
ENDBRANCH  13  16
ENDBRANCH   6  12
ENDBRANCH   3   5
ENDBRANCH   2   3
ENDBRANCH   1   2
BRANCH   1  28
ATOM     28  C   UNL     1      -2.803   0.279   3.311  1.00  0.00     0.275 C 
BRANCH  28  29
ATOM     29  O   UNL     1      -1.601   1.051   3.475  1.00  0.00    -0.458 OA
BRANCH  29  30
ATOM     30  C   UNL     1      -0.439   0.411   3.219  1.00  0.00     0.338 C 
ATOM     31  O   UNL     1      -0.291  -0.773   2.952  1.00  0.00    -0.246 OA
BRANCH  30  32
ATOM     32  C   UNL     1       0.674   1.372   3.315  1.00  0.00     0.060 A 
ATOM     33  C   UNL     1       0.628   2.564   2.596  1.00  0.00     0.016 A 
ATOM     34  C   UNL     1       1.807   1.056   4.062  1.00  0.00     0.016 A 
ATOM     35  C   UNL     1       1.737   3.408   2.556  1.00  0.00     0.010 A 
ATOM     36  C   UNL     1       2.882   1.953   4.100  1.00  0.00     0.010 A 
ATOM     37  C   UNL     1       2.875   3.126   3.322  1.00  0.00    -0.014 A 
BRANCH  37  38
ATOM     38  C   UNL     1       4.060   4.034   3.283  1.00  0.00     0.031 A 
ATOM     39  C   UNL     1       5.407   3.502   2.866  1.00  0.00     0.074 A 
ATOM     40  C   UNL     1       3.938   5.336   3.616  1.00  0.00     0.049 A 
ATOM     41  N   UNL     1       6.585   4.068   2.939  1.00  0.00    -0.248 NA
ATOM     42  C   UNL     1       5.431   2.139   2.315  1.00  0.00     0.031 C 
ATOM     43  C   UNL     1       2.691   5.999   4.001  1.00  0.00     0.029 A 
ATOM     44  N   UNL     1       4.877   6.338   3.682  1.00  0.00    -0.354 N 
ATOM     45  C   UNL     1       7.498   3.112   2.502  1.00  0.00     0.074 A 
ATOM     46  C   UNL     1       6.732   1.926   2.178  1.00  0.00     0.031 C 
ATOM     47  C   UNL     1       2.934   7.298   4.229  1.00  0.00     0.029 A 
ATOM     48  C   UNL     1       4.365   7.545   4.098  1.00  0.00     0.049 A 
ATOM     49  H   UNL     1       5.825   6.204   3.453  1.00  0.00     0.167 HD
ATOM     50  C   UNL     1       8.847   3.214   2.388  1.00  0.00     0.034 A 
ATOM     51  C   UNL     1       4.976   8.711   4.391  1.00  0.00     0.034 A 
ATOM     52  C   UNL     1       9.590   4.421   2.670  1.00  0.00     0.049 A 
ATOM     53  C   UNL     1       6.473   8.800   4.270  1.00  0.00     0.074 A 
ATOM     54  C   UNL     1      10.953   4.641   2.560  1.00  0.00     0.029 A 
ATOM     55  N   UNL     1       9.034   5.617   3.111  1.00  0.00    -0.354 N 
ATOM     56  N   UNL     1       7.330   7.871   3.916  1.00  0.00    -0.248 NA
ATOM     57  C   UNL     1       7.086  10.093   4.601  1.00  0.00     0.031 C 
ATOM     58  C   UNL     1      11.227   5.945   2.991  1.00  0.00     0.029 A 
ATOM     59  C   UNL     1      10.028   6.566   3.303  1.00  0.00     0.049 A 
ATOM     60  H   UNL     1       8.073   5.768   3.264  1.00  0.00     0.167 HD
ATOM     61  C   UNL     1       8.585   8.469   3.979  1.00  0.00     0.074 A 
ATOM     62  C   UNL     1       8.369   9.845   4.378  1.00  0.00     0.031 C 
ATOM     63  C   UNL     1       9.805   7.927   3.732  1.00  0.00     0.034 A 
BRANCH  50  64
ATOM     64  C   UNL     1       9.608   1.963   2.011  1.00  0.00     0.023 A 
ATOM     65  C   UNL     1       9.444   1.328   0.768  1.00  0.00     0.031 A 
ATOM     66  C   UNL     1      10.483   1.371   2.940  1.00  0.00     0.131 A 
ATOM     67  C   UNL     1      10.079   0.100   0.520  1.00  0.00     0.055 A 
ATOM     68  C   UNL     1      11.177   0.193   2.655  1.00  0.00     0.041 A 
ATOM     69  F   UNL     1      10.665   1.917   4.153  1.00  0.00    -0.206 F 
ATOM     70  C   UNL     1      10.963  -0.459   1.446  1.00  0.00     0.022 A 
BRANCH  67  71
ATOM     71  S   UNL     1       9.607  -0.838  -0.960  1.00  0.00     0.124 S 
ATOM     72  O   UNL     1       8.160  -0.949  -0.792  1.00  0.00    -0.237 OA
ATOM     73  O   UNL     1      10.061   0.029  -2.041  1.00  0.00    -0.237 OA
ATOM     74  O   UNL     1      10.340  -2.095  -0.818  1.00  0.00    -0.744 OA
ENDBRANCH  67  71
ENDBRANCH  50  64
BRANCH  51  75
ATOM     75  C   UNL     1       4.178   9.860   4.906  1.00  0.00     0.023 A 
ATOM     76  C   UNL     1       4.042  11.047   4.169  1.00  0.00     0.031 A 
ATOM     77  C   UNL     1       3.541   9.783   6.159  1.00  0.00     0.131 A 
ATOM     78  C   UNL     1       3.305  12.117   4.702  1.00  0.00     0.055 A 
ATOM     79  C   UNL     1       2.768  10.829   6.660  1.00  0.00     0.041 A 
ATOM     80  F   UNL     1       3.642   8.670   6.904  1.00  0.00    -0.206 F 
ATOM     81  C   UNL     1       2.653  12.009   5.934  1.00  0.00     0.022 A 
BRANCH  78  82
ATOM     82  S   UNL     1       3.252  13.683   3.787  1.00  0.00     0.124 S 
ATOM     83  O   UNL     1       4.662  14.052   3.746  1.00  0.00    -0.237 OA
ATOM     84  O   UNL     1       2.658  13.275   2.518  1.00  0.00    -0.237 OA
ATOM     85  O   UNL     1       2.407  14.536   4.620  1.00  0.00    -0.744 OA
ENDBRANCH  78  82
ENDBRANCH  51  75
BRANCH  63  86
ATOM     86  C   UNL     1      10.993   8.846   3.869  1.00  0.00     0.023 A 
ATOM     87  C   UNL     1      11.396   9.349   5.119  1.00  0.00     0.031 A 
ATOM     88  C   UNL     1      11.711   9.250   2.730  1.00  0.00     0.131 A 
ATOM     89  C   UNL     1      12.450  10.273   5.194  1.00  0.00     0.055 A 
ATOM     90  C   UNL     1      12.793  10.127   2.817  1.00  0.00     0.041 A 
ATOM     91  F   UNL     1      11.368   8.803   1.512  1.00  0.00    -0.206 F 
ATOM     92  C   UNL     1      13.159  10.655   4.053  1.00  0.00     0.022 A 
BRANCH  89  93
ATOM     93  S   UNL     1      12.821  11.045   6.794  1.00  0.00     0.124 S 
ATOM     94  O   UNL     1      11.545  11.664   7.137  1.00  0.00    -0.237 OA
ATOM     95  O   UNL     1      13.216   9.901   7.609  1.00  0.00    -0.237 OA
ATOM     96  O   UNL     1      13.899  11.982   6.480  1.00  0.00    -0.744 OA
ENDBRANCH  89  93
ENDBRANCH  63  86
ENDBRANCH  37  38
ENDBRANCH  30  32
ENDBRANCH  29  30
ENDBRANCH  28  29
ENDBRANCH   1  28
TORSDOF 17
