REMARK SMILES CC[C@](C)([NH3+])C(=O)N1CC[NH+]([C@H](C)C(=O)OCCOC(=O)c2ccc(-c3c4nc(c(-c5cc(S(=O)(=O)[O-])ccc5F)c5ccc([nH]5)c(-c5cc(S(=O)(=O)[O-])ccc5F)c5nc(c(-c6cc(S(=O)(=O)[O-])ccc6F)c6ccc3[nH]6)C=C5)C=C4)cc2)CC1
REMARK SMILES IDX 17 1 16 2 14 3 15 4 12 5 13 6 11 7 6 8 7 9 8 10 9 11 86 12
REMARK SMILES IDX 10 13 85 14 3 16 4 17 2 18 1 19 5 20 18 24 19 25 20 26 21 27
REMARK SMILES IDX 22 28 23 29 84 30 24 31 83 32 25 33 26 34 27 35 77 36 28 37
REMARK SMILES IDX 82 38 76 39 78 40 29 41 81 42 75 43 74 44 30 46 62 47 42 48
REMARK SMILES IDX 61 49 43 50 46 51 60 52 79 53 44 54 45 55 59 57 80 58 47 59
REMARK SMILES IDX 31 60 32 61 40 62 33 63 39 64 41 65 38 66 34 67 35 68 36 69
REMARK SMILES IDX 37 70 63 71 64 72 72 73 65 74 71 75 73 76 70 77 66 78 67 79
REMARK SMILES IDX 68 80 69 81 48 82 49 83 57 84 50 85 56 86 58 87 55 88 51 89
REMARK SMILES IDX 52 90 53 91 54 92
REMARK H PARENT 11 15 5 21 5 22 5 23 78 45 46 56
REMARK Flexibility Score: inf
ROOT
ATOM      1  C   UNL     1       7.774   6.721  -2.449  1.00  0.00     0.274 C 
ENDROOT
BRANCH   1   2
ATOM      2  O   UNL     1       6.587   6.248  -1.788  1.00  0.00    -0.458 OA
BRANCH   2   3
ATOM      3  C   UNL     1       6.329   6.793  -0.564  1.00  0.00     0.364 C 
ATOM      4  O   UNL     1       7.068   7.591   0.002  1.00  0.00    -0.245 OA
BRANCH   3   5
ATOM      5  C   UNL     1       5.010   6.280   0.047  1.00  0.00     0.292 C 
ATOM      6  C   UNL     1       3.999   5.785  -0.996  1.00  0.00     0.088 C 
BRANCH   5   7
ATOM      7  N   UNL     1       5.298   5.347   1.164  1.00  0.00    -0.321 N 
ATOM      8  C   UNL     1       3.962   1.830   2.729  1.00  0.00     0.283 C 
ATOM      9  O   UNL     1       4.542   0.743   2.582  1.00  0.00    -0.268 OA
ATOM     10  N   UNL     1       4.710   2.993   2.705  1.00  0.00    -0.326 N 
ATOM     11  C   UNL     1       5.932   3.027   1.906  1.00  0.00     0.181 C 
ATOM     12  C   UNL     1       4.392   4.302   3.267  1.00  0.00     0.181 C 
ATOM     13  C   UNL     1       5.718   4.001   0.726  1.00  0.00     0.284 C 
ATOM     14  C   UNL     1       4.185   5.325   2.141  1.00  0.00     0.284 C 
ATOM     15  H   UNL     1       6.117   5.715   1.648  1.00  0.00     0.348 HD
BRANCH   8  16
ATOM     16  C   UNL     1       2.390   1.865   2.654  1.00  0.00     0.171 C 
ATOM     17  C   UNL     1       1.851   0.467   3.017  1.00  0.00     0.090 C 
BRANCH  16  18
ATOM     18  C   UNL     1       1.939   2.266   1.225  1.00  0.00     0.075 C 
ATOM     19  C   UNL     1       2.531   1.434   0.090  1.00  0.00     0.011 C 
ENDBRANCH  16  18
BRANCH  16  20
ATOM     20  N   UNL     1       1.770   2.800   3.621  1.00  0.00    -0.345 N 
ATOM     21  H   UNL     1       2.057   2.550   4.567  1.00  0.00     0.345 HD
ATOM     22  H   UNL     1       0.754   2.742   3.547  1.00  0.00     0.345 HD
ATOM     23  H   UNL     1       2.072   3.752   3.414  1.00  0.00     0.345 HD
ENDBRANCH  16  20
ENDBRANCH   8  16
ENDBRANCH   5   7
ENDBRANCH   3   5
ENDBRANCH   2   3
ENDBRANCH   1   2
BRANCH   1  24
ATOM     24  C   UNL     1       7.450   7.776  -3.512  1.00  0.00     0.275 C 
BRANCH  24  25
ATOM     25  O   UNL     1       6.923   8.983  -2.931  1.00  0.00    -0.458 OA
BRANCH  25  26
ATOM     26  C   UNL     1       5.570   9.051  -2.891  1.00  0.00     0.338 C 
ATOM     27  O   UNL     1       4.785   8.229  -3.331  1.00  0.00    -0.246 OA
BRANCH  26  28
ATOM     28  C   UNL     1       5.144  10.202  -2.077  1.00  0.00     0.060 A 
ATOM     29  C   UNL     1       4.408   9.934  -0.922  1.00  0.00     0.016 A 
ATOM     30  C   UNL     1       5.381  11.520  -2.471  1.00  0.00     0.016 A 
ATOM     31  C   UNL     1       3.915  10.974  -0.143  1.00  0.00     0.010 A 
ATOM     32  C   UNL     1       4.874  12.569  -1.693  1.00  0.00     0.010 A 
ATOM     33  C   UNL     1       4.133  12.301  -0.527  1.00  0.00    -0.014 A 
BRANCH  33  34
ATOM     34  C   UNL     1       3.516  13.384   0.277  1.00  0.00     0.031 A 
ATOM     35  C   UNL     1       2.283  14.078  -0.227  1.00  0.00     0.074 A 
ATOM     36  C   UNL     1       4.018  13.682   1.490  1.00  0.00     0.049 A 
ATOM     37  N   UNL     1       1.597  15.049   0.318  1.00  0.00    -0.248 NA
ATOM     38  C   UNL     1       1.751  13.612  -1.516  1.00  0.00     0.031 C 
ATOM     39  C   UNL     1       5.177  13.030   2.104  1.00  0.00     0.029 A 
ATOM     40  N   UNL     1       3.611  14.594   2.429  1.00  0.00    -0.354 N 
ATOM     41  C   UNL     1       0.558  15.323  -0.566  1.00  0.00     0.074 A 
ATOM     42  C   UNL     1       0.723  14.429  -1.694  1.00  0.00     0.031 C 
ATOM     43  C   UNL     1       5.380  13.558   3.322  1.00  0.00     0.029 A 
ATOM     44  C   UNL     1       4.398  14.613   3.557  1.00  0.00     0.049 A 
ATOM     45  H   UNL     1       2.830  15.181   2.308  1.00  0.00     0.167 HD
ATOM     46  C   UNL     1      -0.440  16.234  -0.443  1.00  0.00     0.034 A 
ATOM     47  C   UNL     1       4.347  15.407   4.644  1.00  0.00     0.034 A 
ATOM     48  C   UNL     1      -0.585  17.121   0.688  1.00  0.00     0.049 A 
ATOM     49  C   UNL     1       3.265  16.453   4.728  1.00  0.00     0.074 A 
ATOM     50  C   UNL     1      -1.550  18.088   0.910  1.00  0.00     0.029 A 
ATOM     51  N   UNL     1       0.264  17.152   1.788  1.00  0.00    -0.354 N 
ATOM     52  N   UNL     1       2.306  16.722   3.871  1.00  0.00    -0.248 NA
ATOM     53  C   UNL     1       3.258  17.298   5.927  1.00  0.00     0.031 C 
ATOM     54  C   UNL     1      -1.250  18.742   2.112  1.00  0.00     0.029 A 
ATOM     55  C   UNL     1      -0.139  18.138   2.677  1.00  0.00     0.049 A 
ATOM     56  H   UNL     1       1.040  16.560   1.918  1.00  0.00     0.167 HD
ATOM     57  C   UNL     1       1.576  17.763   4.436  1.00  0.00     0.074 A 
ATOM     58  C   UNL     1       2.186  18.047   5.720  1.00  0.00     0.031 C 
ATOM     59  C   UNL     1       0.501  18.429   3.939  1.00  0.00     0.034 A 
BRANCH  46  60
ATOM     60  C   UNL     1      -1.407  16.354  -1.597  1.00  0.00     0.023 A 
ATOM     61  C   UNL     1      -2.277  15.307  -1.950  1.00  0.00     0.031 A 
ATOM     62  C   UNL     1      -1.428  17.521  -2.382  1.00  0.00     0.131 A 
ATOM     63  C   UNL     1      -3.079  15.421  -3.097  1.00  0.00     0.055 A 
ATOM     64  C   UNL     1      -2.282  17.657  -3.478  1.00  0.00     0.041 A 
ATOM     65  F   UNL     1      -0.603  18.544  -2.107  1.00  0.00    -0.206 F 
ATOM     66  C   UNL     1      -3.104  16.597  -3.850  1.00  0.00     0.022 A 
BRANCH  63  67
ATOM     67  S   UNL     1      -3.986  13.959  -3.672  1.00  0.00     0.124 S 
ATOM     68  O   UNL     1      -2.902  13.002  -3.884  1.00  0.00    -0.237 OA
ATOM     69  O   UNL     1      -4.876  13.678  -2.552  1.00  0.00    -0.237 OA
ATOM     70  O   UNL     1      -4.646  14.421  -4.892  1.00  0.00    -0.744 OA
ENDBRANCH  63  67
ENDBRANCH  46  60
BRANCH  47  71
ATOM     71  C   UNL     1       5.374  15.285   5.718  1.00  0.00     0.023 A 
ATOM     72  C   UNL     1       5.024  14.903   7.023  1.00  0.00     0.031 A 
ATOM     73  C   UNL     1       6.721  15.601   5.461  1.00  0.00     0.131 A 
ATOM     74  C   UNL     1       6.002  14.885   8.031  1.00  0.00     0.055 A 
ATOM     75  C   UNL     1       7.698  15.532   6.455  1.00  0.00     0.041 A 
ATOM     76  F   UNL     1       7.107  15.974   4.231  1.00  0.00    -0.206 F 
ATOM     77  C   UNL     1       7.338  15.185   7.752  1.00  0.00     0.022 A 
BRANCH  74  78
ATOM     78  S   UNL     1       5.486  14.541   9.736  1.00  0.00     0.124 S 
ATOM     79  O   UNL     1       4.506  15.595   9.970  1.00  0.00    -0.237 OA
ATOM     80  O   UNL     1       4.956  13.186   9.623  1.00  0.00    -0.237 OA
ATOM     81  O   UNL     1       6.728  14.661  10.498  1.00  0.00    -0.744 OA
ENDBRANCH  74  78
ENDBRANCH  47  71
BRANCH  59  82
ATOM     82  C   UNL     1      -0.079  19.515   4.813  1.00  0.00     0.023 A 
ATOM     83  C   UNL     1       0.645  20.684   5.109  1.00  0.00     0.031 A 
ATOM     84  C   UNL     1      -1.346  19.356   5.400  1.00  0.00     0.131 A 
ATOM     85  C   UNL     1       0.131  21.612   6.027  1.00  0.00     0.055 A 
ATOM     86  C   UNL     1      -1.881  20.314   6.264  1.00  0.00     0.041 A 
ATOM     87  F   UNL     1      -2.080  18.259   5.154  1.00  0.00    -0.206 F 
ATOM     88  C   UNL     1      -1.134  21.441   6.596  1.00  0.00     0.022 A 
BRANCH  85  89
ATOM     89  S   UNL     1       1.190  22.985   6.562  1.00  0.00     0.124 S 
ATOM     90  O   UNL     1       2.370  22.284   7.056  1.00  0.00    -0.237 OA
ATOM     91  O   UNL     1       1.367  23.740   5.326  1.00  0.00    -0.237 OA
ATOM     92  O   UNL     1       0.392  23.654   7.588  1.00  0.00    -0.744 OA
ENDBRANCH  85  89
ENDBRANCH  59  82
ENDBRANCH  33  34
ENDBRANCH  26  28
ENDBRANCH  25  26
ENDBRANCH  24  25
ENDBRANCH   1  24
TORSDOF 18
