REMARK SMILES COCC[C@@H](C)NC(=O)N1Cc2nc[nH]c2C[C@@H]1C(=O)OCCOC(=O)c1ccc(-c2c3nc(c(-c4cc(S(=O)(=O)[O-])ccc4F)c4ccc([nH]4)c(-c4cc(S(=O)(=O)[O-])ccc4F)c4nc(c(-c5cc(S(=O)(=O)[O-])ccc5F)c5ccc2[nH]5)C=C4)C=C3)cc1
REMARK SMILES IDX 22 1 21 2 19 3 20 4 18 5 10 6 11 7 12 8 17 9 13 10 16 11
REMARK SMILES IDX 14 12 15 13 8 15 7 16 9 18 5 19 6 20 4 21 3 22 2 23 1 24
REMARK SMILES IDX 23 25 24 26 25 27 26 28 27 29 28 30 89 31 29 32 88 33 30 34
REMARK SMILES IDX 31 35 32 36 82 37 33 38 87 39 81 40 83 41 34 42 86 43 80 44
REMARK SMILES IDX 79 45 35 47 67 48 47 49 66 50 48 51 51 52 65 53 84 54 49 55
REMARK SMILES IDX 50 56 64 58 85 59 52 60 36 61 37 62 45 63 38 64 44 65 46 66
REMARK SMILES IDX 43 67 39 68 40 69 41 70 42 71 68 72 69 73 77 74 70 75 76 76
REMARK SMILES IDX 78 77 75 78 71 79 72 80 73 81 74 82 53 83 54 84 62 85 55 86
REMARK SMILES IDX 61 87 63 88 60 89 56 90 57 91 58 92 59 93
REMARK H PARENT 15 14 7 17 83 46 51 57
REMARK Flexibility Score: inf
ROOT
ATOM      1  C   UNL     1       3.572  -0.440  -4.541  1.00  0.00     0.274 C 
ENDROOT
BRANCH   1   2
ATOM      2  O   UNL     1       2.150  -0.184  -4.439  1.00  0.00    -0.461 OA
BRANCH   2   3
ATOM      3  C   UNL     1       1.679   0.033  -3.180  1.00  0.00     0.329 C 
ATOM      4  O   UNL     1       2.392   0.003  -2.177  1.00  0.00    -0.250 OA
BRANCH   3   5
ATOM      5  C   UNL     1       0.176   0.341  -3.099  1.00  0.00     0.203 C 
ATOM      6  N   UNL     1      -0.803  -0.797  -3.121  1.00  0.00    -0.305 N 
ATOM      7  C   UNL     1      -2.252  -0.482  -3.042  1.00  0.00     0.180 C 
ATOM      8  C   UNL     1      -2.560   0.901  -3.498  1.00  0.00     0.081 A 
ATOM      9  C   UNL     1      -0.184   1.498  -4.074  1.00  0.00     0.093 C 
ATOM     10  N   UNL     1      -3.795   1.496  -3.458  1.00  0.00    -0.240 NA
ATOM     11  C   UNL     1      -1.623   1.790  -3.951  1.00  0.00     0.042 A 
ATOM     12  C   UNL     1      -3.593   2.735  -3.864  1.00  0.00     0.197 A 
ATOM     13  N   UNL     1      -2.275   2.969  -4.164  1.00  0.00    -0.348 N 
ATOM     14  H   UNL     1      -1.879   3.816  -4.471  1.00  0.00     0.167 HD
BRANCH   6  15
ATOM     15  C   UNL     1      -0.489  -2.098  -3.380  1.00  0.00     0.318 C 
ATOM     16  N   UNL     1       0.439  -2.736  -2.625  1.00  0.00    -0.335 N 
ATOM     17  H   UNL     1       0.752  -3.589  -3.004  1.00  0.00     0.165 HD
ATOM     18  O   UNL     1      -1.096  -2.777  -4.209  1.00  0.00    -0.249 OA
BRANCH  16  19
ATOM     19  C   UNL     1       1.058  -2.382  -1.346  1.00  0.00     0.083 C 
ATOM     20  C   UNL     1       2.534  -2.788  -1.387  1.00  0.00     0.031 C 
BRANCH  19  21
ATOM     21  C   UNL     1       0.336  -2.992  -0.139  1.00  0.00     0.053 C 
BRANCH  21  22
ATOM     22  C   UNL     1       0.857  -2.459   1.206  1.00  0.00     0.162 C 
BRANCH  22  23
ATOM     23  O   UNL     1       0.250  -1.234   1.614  1.00  0.00    -0.385 OA
ATOM     24  C   UNL     1       0.806  -0.059   1.037  1.00  0.00     0.194 C 
ENDBRANCH  22  23
ENDBRANCH  21  22
ENDBRANCH  19  21
ENDBRANCH  16  19
ENDBRANCH   6  15
ENDBRANCH   3   5
ENDBRANCH   2   3
ENDBRANCH   1   2
BRANCH   1  25
ATOM     25  C   UNL     1       4.453   0.815  -4.542  1.00  0.00     0.275 C 
BRANCH  25  26
ATOM     26  O   UNL     1       4.312   1.537  -3.322  1.00  0.00    -0.458 OA
BRANCH  26  27
ATOM     27  C   UNL     1       3.262   2.395  -3.329  1.00  0.00     0.338 C 
ATOM     28  O   UNL     1       2.555   2.650  -4.285  1.00  0.00    -0.246 OA
BRANCH  27  29
ATOM     29  C   UNL     1       3.074   3.000  -1.999  1.00  0.00     0.060 A 
ATOM     30  C   UNL     1       1.954   3.827  -1.841  1.00  0.00     0.016 A 
ATOM     31  C   UNL     1       4.220   3.159  -1.237  1.00  0.00     0.016 A 
ATOM     32  C   UNL     1       2.143   5.067  -1.281  1.00  0.00     0.010 A 
ATOM     33  C   UNL     1       4.418   4.402  -0.712  1.00  0.00     0.010 A 
ATOM     34  C   UNL     1       3.430   5.381  -0.872  1.00  0.00    -0.014 A 
BRANCH  34  35
ATOM     35  C   UNL     1       3.788   6.763  -0.621  1.00  0.00     0.031 A 
ATOM     36  C   UNL     1       3.756   7.073   0.825  1.00  0.00     0.074 A 
ATOM     37  C   UNL     1       4.311   7.534  -1.596  1.00  0.00     0.049 A 
ATOM     38  N   UNL     1       2.780   7.599   1.497  1.00  0.00    -0.248 NA
ATOM     39  C   UNL     1       4.755   6.384   1.671  1.00  0.00     0.031 C 
ATOM     40  C   UNL     1       4.633   7.179  -2.983  1.00  0.00     0.029 A 
ATOM     41  N   UNL     1       4.788   8.801  -1.503  1.00  0.00    -0.354 N 
ATOM     42  C   UNL     1       3.210   7.504   2.815  1.00  0.00     0.074 A 
ATOM     43  C   UNL     1       4.101   6.389   2.830  1.00  0.00     0.031 C 
ATOM     44  C   UNL     1       5.459   8.119  -3.506  1.00  0.00     0.029 A 
ATOM     45  C   UNL     1       5.642   9.185  -2.536  1.00  0.00     0.049 A 
ATOM     46  H   UNL     1       4.548   9.403  -0.762  1.00  0.00     0.167 HD
ATOM     47  C   UNL     1       3.212   8.577   3.657  1.00  0.00     0.034 A 
ATOM     48  C   UNL     1       6.510  10.240  -2.496  1.00  0.00     0.034 A 
ATOM     49  C   UNL     1       2.391   9.637   3.109  1.00  0.00     0.049 A 
ATOM     50  C   UNL     1       6.048  11.106  -1.367  1.00  0.00     0.074 A 
ATOM     51  C   UNL     1       1.068   9.726   2.723  1.00  0.00     0.029 A 
ATOM     52  N   UNL     1       3.035  10.689   2.488  1.00  0.00    -0.354 N 
ATOM     53  N   UNL     1       4.894  11.725  -1.372  1.00  0.00    -0.248 NA
ATOM     54  C   UNL     1       6.585  10.823  -0.039  1.00  0.00     0.031 C 
ATOM     55  C   UNL     1       1.085  10.503   1.529  1.00  0.00     0.029 A 
ATOM     56  C   UNL     1       2.390  10.944   1.302  1.00  0.00     0.049 A 
ATOM     57  H   UNL     1       3.820  11.172   2.834  1.00  0.00     0.167 HD
ATOM     58  C   UNL     1       4.374  11.546  -0.095  1.00  0.00     0.074 A 
ATOM     59  C   UNL     1       5.489  11.031   0.700  1.00  0.00     0.031 C 
ATOM     60  C   UNL     1       3.025  11.523   0.129  1.00  0.00     0.034 A 
BRANCH  47  61
ATOM     61  C   UNL     1       4.269   8.836   4.726  1.00  0.00     0.023 A 
ATOM     62  C   UNL     1       4.140  10.041   5.438  1.00  0.00     0.031 A 
ATOM     63  C   UNL     1       5.491   8.146   4.941  1.00  0.00     0.131 A 
ATOM     64  C   UNL     1       5.211  10.568   6.179  1.00  0.00     0.055 A 
ATOM     65  C   UNL     1       6.535   8.651   5.719  1.00  0.00     0.041 A 
ATOM     66  F   UNL     1       5.802   6.974   4.385  1.00  0.00    -0.206 F 
ATOM     67  C   UNL     1       6.415   9.887   6.316  1.00  0.00     0.022 A 
BRANCH  64  68
ATOM     68  S   UNL     1       5.052  12.247   6.823  1.00  0.00     0.124 S 
ATOM     69  O   UNL     1       4.696  12.986   5.617  1.00  0.00    -0.237 OA
ATOM     70  O   UNL     1       3.998  12.083   7.818  1.00  0.00    -0.237 OA
ATOM     71  O   UNL     1       6.381  12.527   7.360  1.00  0.00    -0.744 OA
ENDBRANCH  64  68
ENDBRANCH  47  61
BRANCH  48  72
ATOM     72  C   UNL     1       7.898  10.275  -3.065  1.00  0.00     0.023 A 
ATOM     73  C   UNL     1       8.611  11.459  -3.373  1.00  0.00     0.031 A 
ATOM     74  C   UNL     1       8.643   9.072  -3.123  1.00  0.00     0.131 A 
ATOM     75  C   UNL     1       9.984  11.399  -3.739  1.00  0.00     0.055 A 
ATOM     76  C   UNL     1       9.990   9.018  -3.487  1.00  0.00     0.041 A 
ATOM     77  F   UNL     1       8.100   7.902  -2.749  1.00  0.00    -0.206 F 
ATOM     78  C   UNL     1      10.669  10.183  -3.794  1.00  0.00     0.022 A 
BRANCH  75  79
ATOM     79  S   UNL     1      10.939  12.914  -4.110  1.00  0.00     0.124 S 
ATOM     80  O   UNL     1      10.243  13.447  -5.274  1.00  0.00    -0.237 OA
ATOM     81  O   UNL     1      10.812  13.674  -2.872  1.00  0.00    -0.237 OA
ATOM     82  O   UNL     1      12.288  12.414  -4.382  1.00  0.00    -0.744 OA
ENDBRANCH  75  79
ENDBRANCH  48  72
BRANCH  60  83
ATOM     83  C   UNL     1       2.087  11.959  -0.982  1.00  0.00     0.023 A 
ATOM     84  C   UNL     1       1.921  11.299  -2.223  1.00  0.00     0.031 A 
ATOM     85  C   UNL     1       1.185  12.989  -0.663  1.00  0.00     0.131 A 
ATOM     86  C   UNL     1       0.864  11.675  -3.080  1.00  0.00     0.055 A 
ATOM     87  C   UNL     1       0.131  13.340  -1.503  1.00  0.00     0.041 A 
ATOM     88  F   UNL     1       1.278  13.631   0.513  1.00  0.00    -0.206 F 
ATOM     89  C   UNL     1      -0.035  12.684  -2.716  1.00  0.00     0.022 A 
BRANCH  86  90
ATOM     90  S   UNL     1       0.625  10.851  -4.692  1.00  0.00     0.124 S 
ATOM     91  O   UNL     1       1.944  10.930  -5.308  1.00  0.00    -0.237 OA
ATOM     92  O   UNL     1       0.178   9.515  -4.304  1.00  0.00    -0.237 OA
ATOM     93  O   UNL     1      -0.402  11.666  -5.344  1.00  0.00    -0.744 OA
ENDBRANCH  86  90
ENDBRANCH  60  83
ENDBRANCH  34  35
ENDBRANCH  27  29
ENDBRANCH  26  27
ENDBRANCH  25  26
ENDBRANCH   1  25
TORSDOF 19
