REMARK SMILES NC(=O)[C@H]1CN(C(=O)CSc2ccccc2C(=O)OCCOC(=O)c2ccc(-c3c4nc(c(-c5cc(S(=O)(=O)[O-])ccc5F)c5ccc([nH]5)c(-c5cc(S(=O)(=O)[O-])ccc5F)c5nc(c(-c6cc(S(=O)(=O)[O-])ccc6F)c6ccc3[nH]6)C=C5)C=C4)cc2)c2ccccc2O1
REMARK SMILES IDX 20 1 19 2 17 3 18 4 16 5 11 6 12 7 13 8 15 9 14 10 10 11
REMARK SMILES IDX 9 12 7 13 8 14 6 15 4 16 5 17 94 18 93 19 88 20 92 21 89 22
REMARK SMILES IDX 91 23 90 24 2 25 1 26 3 29 21 30 22 31 23 32 24 33 25 34
REMARK SMILES IDX 26 35 87 36 27 37 86 38 28 39 29 40 30 41 80 42 31 43 85 44
REMARK SMILES IDX 79 45 81 46 32 47 84 48 78 49 77 50 33 52 65 53 45 54 64 55
REMARK SMILES IDX 46 56 49 57 63 58 82 59 47 60 48 61 62 63 83 64 50 65 34 66
REMARK SMILES IDX 35 67 43 68 36 69 42 70 44 71 41 72 37 73 38 74 39 75 40 76
REMARK SMILES IDX 66 77 67 78 75 79 68 80 74 81 76 82 73 83 69 84 70 85 71 86
REMARK SMILES IDX 72 87 51 88 52 89 60 90 53 91 59 92 61 93 58 94 54 95 55 96
REMARK SMILES IDX 56 97 57 98
REMARK H PARENT 1 27 1 28 81 51 49 62
REMARK Flexibility Score: inf
ROOT
ATOM      1  C   UNL     1       1.971  -1.479   0.411  1.00  0.00     0.275 C 
ENDROOT
BRANCH   1   2
ATOM      2  O   UNL     1       1.618  -0.128   0.763  1.00  0.00    -0.458 OA
BRANCH   2   3
ATOM      3  C   UNL     1       0.427   0.337   0.303  1.00  0.00     0.339 C 
ATOM      4  O   UNL     1      -0.436  -0.324  -0.241  1.00  0.00    -0.246 OA
BRANCH   3   5
ATOM      5  C   UNL     1       0.274   1.786   0.580  1.00  0.00     0.073 A 
ATOM      6  C   UNL     1       1.238   2.745   0.222  1.00  0.00     0.022 A 
ATOM      7  C   UNL     1       0.995   4.093   0.534  1.00  0.00     0.016 A 
ATOM      8  C   UNL     1      -0.190   4.483   1.167  1.00  0.00     0.001 A 
ATOM      9  C   UNL     1      -0.938   2.197   1.161  1.00  0.00     0.017 A 
ATOM     10  C   UNL     1      -1.160   3.537   1.474  1.00  0.00     0.001 A 
BRANCH   6  11
ATOM     11  S   UNL     1       2.771   2.335  -0.610  1.00  0.00    -0.115 SA
BRANCH  11  12
ATOM     12  C   UNL     1       2.415   2.797  -2.334  1.00  0.00     0.175 C 
BRANCH  12  13
ATOM     13  C   UNL     1       1.064   2.333  -2.864  1.00  0.00     0.237 C 
ATOM     14  O   UNL     1       0.111   3.111  -2.765  1.00  0.00    -0.274 OA
BRANCH  13  15
ATOM     15  N   UNL     1       0.991   1.084  -3.490  1.00  0.00    -0.304 N 
ATOM     16  C   UNL     1       1.263  -1.328  -3.126  1.00  0.00     0.281 C 
ATOM     17  C   UNL     1       1.976   0.009  -3.279  1.00  0.00     0.181 C 
ATOM     18  O   UNL     1       0.560  -1.672  -4.318  1.00  0.00    -0.477 OA
ATOM     19  C   UNL     1      -0.248  -0.646  -4.747  1.00  0.00     0.144 A 
ATOM     20  C   UNL     1      -0.088   0.706  -4.369  1.00  0.00     0.086 A 
ATOM     21  C   UNL     1      -1.262  -1.042  -5.625  1.00  0.00     0.049 A 
ATOM     22  C   UNL     1      -0.969   1.640  -4.931  1.00  0.00     0.030 A 
ATOM     23  C   UNL     1      -2.136  -0.097  -6.152  1.00  0.00     0.004 A 
ATOM     24  C   UNL     1      -1.983   1.242  -5.812  1.00  0.00     0.002 A 
BRANCH  16  25
ATOM     25  C   UNL     1       2.259  -2.448  -2.839  1.00  0.00     0.260 C 
ATOM     26  N   UNL     1       1.703  -3.623  -2.410  1.00  0.00    -0.366 N 
ATOM     27  H   UNL     1       2.279  -4.394  -2.204  1.00  0.00     0.159 HD
ATOM     28  H   UNL     1       0.726  -3.697  -2.308  1.00  0.00     0.159 HD
ATOM     29  O   UNL     1       3.478  -2.332  -2.924  1.00  0.00    -0.271 OA
ENDBRANCH  16  25
ENDBRANCH  13  15
ENDBRANCH  12  13
ENDBRANCH  11  12
ENDBRANCH   6  11
ENDBRANCH   3   5
ENDBRANCH   2   3
ENDBRANCH   1   2
BRANCH   1  30
ATOM     30  C   UNL     1       2.244  -2.354   1.630  1.00  0.00     0.275 C 
BRANCH  30  31
ATOM     31  O   UNL     1       1.004  -2.664   2.286  1.00  0.00    -0.458 OA
BRANCH  31  32
ATOM     32  C   UNL     1       0.684  -1.796   3.269  1.00  0.00     0.338 C 
ATOM     33  O   UNL     1       1.376  -0.899   3.722  1.00  0.00    -0.246 OA
BRANCH  32  34
ATOM     34  C   UNL     1      -0.724  -1.965   3.634  1.00  0.00     0.060 A 
ATOM     35  C   UNL     1      -1.619  -1.024   3.132  1.00  0.00     0.016 A 
ATOM     36  C   UNL     1      -1.121  -2.893   4.591  1.00  0.00     0.016 A 
ATOM     37  C   UNL     1      -2.895  -0.920   3.666  1.00  0.00     0.010 A 
ATOM     38  C   UNL     1      -2.425  -2.824   5.091  1.00  0.00     0.010 A 
ATOM     39  C   UNL     1      -3.300  -1.799   4.676  1.00  0.00    -0.014 A 
BRANCH  39  40
ATOM     40  C   UNL     1      -4.569  -1.552   5.409  1.00  0.00     0.031 A 
ATOM     41  C   UNL     1      -4.506  -1.197   6.872  1.00  0.00     0.074 A 
ATOM     42  C   UNL     1      -5.755  -1.596   4.774  1.00  0.00     0.049 A 
ATOM     43  N   UNL     1      -5.464  -1.148   7.760  1.00  0.00    -0.248 NA
ATOM     44  C   UNL     1      -3.174  -0.872   7.406  1.00  0.00     0.031 C 
ATOM     45  C   UNL     1      -5.941  -1.835   3.342  1.00  0.00     0.029 A 
ATOM     46  N   UNL     1      -7.031  -1.441   5.254  1.00  0.00    -0.354 N 
ATOM     47  C   UNL     1      -4.843  -0.853   8.971  1.00  0.00     0.074 A 
ATOM     48  C   UNL     1      -3.425  -0.742   8.700  1.00  0.00     0.031 C 
ATOM     49  C   UNL     1      -7.252  -1.796   3.058  1.00  0.00     0.029 A 
ATOM     50  C   UNL     1      -8.002  -1.621   4.297  1.00  0.00     0.049 A 
ATOM     51  H   UNL     1      -7.232  -1.222   6.193  1.00  0.00     0.167 HD
ATOM     52  C   UNL     1      -5.410  -0.697  10.193  1.00  0.00     0.034 A 
ATOM     53  C   UNL     1      -9.342  -1.692   4.415  1.00  0.00     0.034 A 
ATOM     54  C   UNL     1      -6.834  -0.765  10.420  1.00  0.00     0.049 A 
ATOM     55  C   UNL     1      -9.951  -1.562   5.787  1.00  0.00     0.074 A 
ATOM     56  C   UNL     1      -7.530  -0.622  11.607  1.00  0.00     0.029 A 
ATOM     57  N   UNL     1      -7.785  -0.985   9.428  1.00  0.00    -0.354 N 
ATOM     58  N   UNL     1      -9.353  -1.377   6.942  1.00  0.00    -0.248 NA
ATOM     59  C   UNL     1     -11.413  -1.665   5.873  1.00  0.00     0.031 C 
ATOM     60  C   UNL     1      -8.893  -0.810  11.343  1.00  0.00     0.029 A 
ATOM     61  C   UNL     1      -9.056  -1.001   9.980  1.00  0.00     0.049 A 
ATOM     62  H   UNL     1      -7.583  -1.110   8.473  1.00  0.00     0.167 HD
ATOM     63  C   UNL     1     -10.369  -1.328   7.892  1.00  0.00     0.074 A 
ATOM     64  C   UNL     1     -11.617  -1.482   7.170  1.00  0.00     0.031 C 
ATOM     65  C   UNL     1     -10.283  -1.174   9.238  1.00  0.00     0.034 A 
BRANCH  52  66
ATOM     66  C   UNL     1      -4.484  -0.517  11.373  1.00  0.00     0.023 A 
ATOM     67  C   UNL     1      -3.641   0.601  11.507  1.00  0.00     0.031 A 
ATOM     68  C   UNL     1      -4.410  -1.515  12.363  1.00  0.00     0.131 A 
ATOM     69  C   UNL     1      -2.711   0.656  12.558  1.00  0.00     0.055 A 
ATOM     70  C   UNL     1      -3.540  -1.415  13.451  1.00  0.00     0.041 A 
ATOM     71  F   UNL     1      -5.171  -2.618  12.280  1.00  0.00    -0.206 F 
ATOM     72  C   UNL     1      -2.671  -0.333  13.544  1.00  0.00     0.022 A 
BRANCH  69  73
ATOM     73  S   UNL     1      -1.451   1.961  12.537  1.00  0.00     0.124 S 
ATOM     74  O   UNL     1      -0.788   1.710  11.260  1.00  0.00    -0.237 OA
ATOM     75  O   UNL     1      -2.254   3.176  12.613  1.00  0.00    -0.237 OA
ATOM     76  O   UNL     1      -0.640   1.675  13.719  1.00  0.00    -0.744 OA
ENDBRANCH  69  73
ENDBRANCH  52  66
BRANCH  53  77
ATOM     77  C   UNL     1     -10.187  -1.974   3.220  1.00  0.00     0.023 A 
ATOM     78  C   UNL     1     -11.117  -1.036   2.747  1.00  0.00     0.031 A 
ATOM     79  C   UNL     1     -10.087  -3.204   2.542  1.00  0.00     0.131 A 
ATOM     80  C   UNL     1     -11.929  -1.352   1.645  1.00  0.00     0.055 A 
ATOM     81  C   UNL     1     -10.859  -3.492   1.416  1.00  0.00     0.041 A 
ATOM     82  F   UNL     1      -9.216  -4.138   2.954  1.00  0.00    -0.206 F 
ATOM     83  C   UNL     1     -11.795  -2.566   0.967  1.00  0.00     0.022 A 
BRANCH  80  84
ATOM     84  S   UNL     1     -13.216  -0.175   1.147  1.00  0.00     0.124 S 
ATOM     85  O   UNL     1     -14.013  -0.072   2.365  1.00  0.00    -0.237 OA
ATOM     86  O   UNL     1     -12.430   1.002   0.793  1.00  0.00    -0.237 OA
ATOM     87  O   UNL     1     -13.873  -0.843   0.026  1.00  0.00    -0.744 OA
ENDBRANCH  80  84
ENDBRANCH  53  77
BRANCH  65  88
ATOM     88  C   UNL     1     -11.585  -1.127   9.996  1.00  0.00     0.023 A 
ATOM     89  C   UNL     1     -12.402  -2.263  10.126  1.00  0.00     0.031 A 
ATOM     90  C   UNL     1     -12.023   0.077  10.574  1.00  0.00     0.131 A 
ATOM     91  C   UNL     1     -13.644  -2.158  10.769  1.00  0.00     0.055 A 
ATOM     92  C   UNL     1     -13.234   0.163  11.261  1.00  0.00     0.041 A 
ATOM     93  F   UNL     1     -11.280   1.191  10.477  1.00  0.00    -0.206 F 
ATOM     94  C   UNL     1     -14.059  -0.956  11.350  1.00  0.00     0.022 A 
BRANCH  91  95
ATOM     95  S   UNL     1     -14.755  -3.591  10.756  1.00  0.00     0.124 S 
ATOM     96  O   UNL     1     -14.939  -3.820   9.326  1.00  0.00    -0.237 OA
ATOM     97  O   UNL     1     -13.975  -4.598  11.467  1.00  0.00    -0.237 OA
ATOM     98  O   UNL     1     -15.941  -3.112  11.464  1.00  0.00    -0.744 OA
ENDBRANCH  91  95
ENDBRANCH  65  88
ENDBRANCH  39  40
ENDBRANCH  32  34
ENDBRANCH  31  32
ENDBRANCH  30  31
ENDBRANCH   1  30
TORSDOF 19
