REMARK SMILES O=C(Cc1ccc(Br)cc1)Nc1ccc(CC(=O)OCCOC(=O)c2ccc(-c3c4nc(c(-c5cc(S(=O)(=O)[O-])ccc5F)c5ccc([nH]5)c(-c5cc(S(=O)(=O)[O-])ccc5F)c5nc(c(-c6cc(S(=O)(=O)[O-])ccc6F)c6ccc3[nH]6)C=C5)C=C4)cc2)cc1
REMARK SMILES IDX 20 1 19 2 17 3 18 4 16 5 15 6 12 7 13 8 89 9 14 10 88 11
REMARK SMILES IDX 11 12 1 13 2 14 3 16 4 17 5 18 10 19 6 20 9 21 7 22 8 23
REMARK SMILES IDX 21 24 22 25 23 26 24 27 25 28 26 29 87 30 27 31 86 32 28 33
REMARK SMILES IDX 29 34 30 35 80 36 31 37 85 38 79 39 81 40 32 41 84 42 78 43
REMARK SMILES IDX 77 44 33 46 65 47 45 48 64 49 46 50 49 51 63 52 82 53 47 54
REMARK SMILES IDX 48 55 62 57 83 58 50 59 34 60 35 61 43 62 36 63 42 64 44 65
REMARK SMILES IDX 41 66 37 67 38 68 39 69 40 70 66 71 67 72 75 73 68 74 74 75
REMARK SMILES IDX 76 76 73 77 69 78 70 79 71 80 72 81 51 82 52 83 60 84 53 85
REMARK SMILES IDX 59 86 61 87 58 88 54 89 55 90 56 91 57 92
REMARK H PARENT 11 15 81 45 49 56
REMARK Flexibility Score: inf
ROOT
ATOM      1  C   UNL     1       2.522  -8.234   1.783  1.00  0.00     0.274 C 
ENDROOT
BRANCH   1   2
ATOM      2  O   UNL     1       1.803  -6.997   1.610  1.00  0.00    -0.462 OA
BRANCH   2   3
ATOM      3  C   UNL     1       0.636  -6.901   2.301  1.00  0.00     0.310 C 
ATOM      4  O   UNL     1       0.167  -7.797   2.996  1.00  0.00    -0.252 OA
BRANCH   3   5
ATOM      5  C   UNL     1      -0.105  -5.607   2.074  1.00  0.00     0.158 C 
BRANCH   5   6
ATOM      6  C   UNL     1       0.685  -4.385   1.665  1.00  0.00    -0.037 A 
ATOM      7  C   UNL     1       1.959  -1.952   0.977  1.00  0.00     0.041 A 
ATOM      8  C   UNL     1       2.339  -2.659   2.122  1.00  0.00     0.026 A 
ATOM      9  C   UNL     1       0.953  -2.481   0.169  1.00  0.00     0.026 A 
ATOM     10  C   UNL     1       1.706  -3.860   2.466  1.00  0.00     0.006 A 
ATOM     11  C   UNL     1       0.322  -3.682   0.511  1.00  0.00     0.006 A 
BRANCH   7  12
ATOM     12  N   UNL     1       2.653  -0.759   0.683  1.00  0.00    -0.326 N 
ATOM     13  O   UNL     1       1.352   0.167  -1.009  1.00  0.00    -0.274 OA
ATOM     14  C   UNL     1       2.376   0.143  -0.328  1.00  0.00     0.228 C 
ATOM     15  H   UNL     1       3.419  -0.546   1.263  1.00  0.00     0.169 HD
BRANCH  14  16
ATOM     16  C   UNL     1       3.536   1.061  -0.679  1.00  0.00     0.135 C 
BRANCH  16  17
ATOM     17  C   UNL     1       4.120   1.888   0.440  1.00  0.00    -0.039 A 
ATOM     18  C   UNL     1       3.647   3.186   0.681  1.00  0.00     0.005 A 
ATOM     19  C   UNL     1       5.178   1.395   1.219  1.00  0.00     0.005 A 
ATOM     20  C   UNL     1       4.240   3.986   1.661  1.00  0.00     0.016 A 
ATOM     21  C   UNL     1       5.758   2.187   2.212  1.00  0.00     0.016 A 
ATOM     22  C   UNL     1       5.295   3.484   2.420  1.00  0.00     0.017 A 
ATOM     23  Br  UNL     1       6.126   4.581   3.715  1.00  0.00    -0.051 Br
ENDBRANCH  16  17
ENDBRANCH  14  16
ENDBRANCH   7  12
ENDBRANCH   5   6
ENDBRANCH   3   5
ENDBRANCH   2   3
ENDBRANCH   1   2
BRANCH   1  24
ATOM     24  C   UNL     1       3.602  -8.094   2.852  1.00  0.00     0.275 C 
BRANCH  24  25
ATOM     25  O   UNL     1       3.003  -7.755   4.114  1.00  0.00    -0.458 OA
BRANCH  25  26
ATOM     26  C   UNL     1       3.495  -6.651   4.718  1.00  0.00     0.338 C 
ATOM     27  O   UNL     1       4.420  -5.950   4.346  1.00  0.00    -0.246 OA
BRANCH  26  28
ATOM     28  C   UNL     1       2.733  -6.386   5.947  1.00  0.00     0.060 A 
ATOM     29  C   UNL     1       1.429  -5.893   5.867  1.00  0.00     0.016 A 
ATOM     30  C   UNL     1       3.367  -6.519   7.183  1.00  0.00     0.016 A 
ATOM     31  C   UNL     1       0.772  -5.480   7.024  1.00  0.00     0.010 A 
ATOM     32  C   UNL     1       2.685  -6.158   8.347  1.00  0.00     0.010 A 
ATOM     33  C   UNL     1       1.394  -5.607   8.275  1.00  0.00    -0.014 A 
BRANCH  33  34
ATOM     34  C   UNL     1       0.715  -5.119   9.504  1.00  0.00     0.031 A 
ATOM     35  C   UNL     1       1.261  -3.925  10.239  1.00  0.00     0.074 A 
ATOM     36  C   UNL     1      -0.386  -5.747   9.959  1.00  0.00     0.049 A 
ATOM     37  N   UNL     1       0.884  -3.409  11.381  1.00  0.00    -0.248 NA
ATOM     38  C   UNL     1       2.391  -3.228   9.607  1.00  0.00     0.031 C 
ATOM     39  C   UNL     1      -1.026  -6.898   9.319  1.00  0.00     0.029 A 
ATOM     40  N   UNL     1      -1.158  -5.508  11.067  1.00  0.00    -0.354 N 
ATOM     41  C   UNL     1       1.744  -2.341  11.619  1.00  0.00     0.074 A 
ATOM     42  C   UNL     1       2.679  -2.305  10.513  1.00  0.00     0.031 C 
ATOM     43  C   UNL     1      -2.097  -7.260  10.043  1.00  0.00     0.029 A 
ATOM     44  C   UNL     1      -2.189  -6.404  11.221  1.00  0.00     0.049 A 
ATOM     45  H   UNL     1      -0.990  -4.767  11.692  1.00  0.00     0.167 HD
ATOM     46  C   UNL     1       1.749  -1.470  12.660  1.00  0.00     0.034 A 
ATOM     47  C   UNL     1      -3.089  -6.540  12.215  1.00  0.00     0.034 A 
ATOM     48  C   UNL     1       0.804  -1.514  13.751  1.00  0.00     0.049 A 
ATOM     49  C   UNL     1      -3.039  -5.588  13.381  1.00  0.00     0.074 A 
ATOM     50  C   UNL     1       0.713  -0.677  14.850  1.00  0.00     0.029 A 
ATOM     51  N   UNL     1      -0.215  -2.449  13.883  1.00  0.00    -0.354 N 
ATOM     52  N   UNL     1      -2.205  -4.598  13.605  1.00  0.00    -0.248 NA
ATOM     53  C   UNL     1      -4.054  -5.771  14.425  1.00  0.00     0.031 C 
ATOM     54  C   UNL     1      -0.324  -1.137  15.671  1.00  0.00     0.029 A 
ATOM     55  C   UNL     1      -0.924  -2.223  15.054  1.00  0.00     0.049 A 
ATOM     56  H   UNL     1      -0.407  -3.168  13.238  1.00  0.00     0.167 HD
ATOM     57  C   UNL     1      -2.607  -4.032  14.811  1.00  0.00     0.074 A 
ATOM     58  C   UNL     1      -3.769  -4.776  15.253  1.00  0.00     0.031 C 
ATOM     59  C   UNL     1      -2.067  -2.989  15.492  1.00  0.00     0.034 A 
BRANCH  46  60
ATOM     60  C   UNL     1       2.846  -0.434  12.686  1.00  0.00     0.023 A 
ATOM     61  C   UNL     1       2.938   0.575  11.712  1.00  0.00     0.031 A 
ATOM     62  C   UNL     1       3.841  -0.482  13.680  1.00  0.00     0.131 A 
ATOM     63  C   UNL     1       4.038   1.448  11.710  1.00  0.00     0.055 A 
ATOM     64  C   UNL     1       4.891   0.437  13.716  1.00  0.00     0.041 A 
ATOM     65  F   UNL     1       3.817  -1.437  14.624  1.00  0.00    -0.206 F 
ATOM     66  C   UNL     1       5.002   1.400  12.719  1.00  0.00     0.022 A 
BRANCH  63  67
ATOM     67  S   UNL     1       4.265   2.554  10.290  1.00  0.00     0.124 S 
ATOM     68  O   UNL     1       4.348   1.602   9.184  1.00  0.00    -0.237 OA
ATOM     69  O   UNL     1       3.062   3.377  10.336  1.00  0.00    -0.237 OA
ATOM     70  O   UNL     1       5.512   3.252  10.596  1.00  0.00    -0.744 OA
ENDBRANCH  63  67
ENDBRANCH  46  60
BRANCH  47  71
ATOM     71  C   UNL     1      -4.085  -7.646  12.180  1.00  0.00     0.023 A 
ATOM     72  C   UNL     1      -5.457  -7.383  12.053  1.00  0.00     0.031 A 
ATOM     73  C   UNL     1      -3.676  -8.985  12.311  1.00  0.00     0.131 A 
ATOM     74  C   UNL     1      -6.377  -8.442  12.097  1.00  0.00     0.055 A 
ATOM     75  C   UNL     1      -4.591 -10.038  12.308  1.00  0.00     0.041 A 
ATOM     76  F   UNL     1      -2.374  -9.289  12.432  1.00  0.00    -0.206 F 
ATOM     77  C   UNL     1      -5.953  -9.768  12.212  1.00  0.00     0.022 A 
BRANCH  74  78
ATOM     78  S   UNL     1      -8.149  -8.054  12.072  1.00  0.00     0.124 S 
ATOM     79  O   UNL     1      -8.285  -7.204  13.249  1.00  0.00    -0.237 OA
ATOM     80  O   UNL     1      -8.295  -7.390  10.781  1.00  0.00    -0.237 OA
ATOM     81  O   UNL     1      -8.785  -9.366  12.171  1.00  0.00    -0.744 OA
ENDBRANCH  74  78
ENDBRANCH  47  71
BRANCH  59  82
ATOM     82  C   UNL     1      -2.760  -2.585  16.769  1.00  0.00     0.023 A 
ATOM     83  C   UNL     1      -2.754  -3.414  17.905  1.00  0.00     0.031 A 
ATOM     84  C   UNL     1      -3.469  -1.374  16.836  1.00  0.00     0.131 A 
ATOM     85  C   UNL     1      -3.495  -3.050  19.039  1.00  0.00     0.055 A 
ATOM     86  C   UNL     1      -4.160  -0.991  17.986  1.00  0.00     0.041 A 
ATOM     87  F   UNL     1      -3.509  -0.546  15.779  1.00  0.00    -0.206 F 
ATOM     88  C   UNL     1      -4.188  -1.838  19.091  1.00  0.00     0.022 A 
BRANCH  85  89
ATOM     89  S   UNL     1      -3.624  -4.229  20.411  1.00  0.00     0.124 S 
ATOM     90  O   UNL     1      -4.171  -5.409  19.749  1.00  0.00    -0.237 OA
ATOM     91  O   UNL     1      -2.240  -4.336  20.862  1.00  0.00    -0.237 OA
ATOM     92  O   UNL     1      -4.531  -3.568  21.348  1.00  0.00    -0.744 OA
ENDBRANCH  85  89
ENDBRANCH  59  82
ENDBRANCH  33  34
ENDBRANCH  26  28
ENDBRANCH  25  26
ENDBRANCH  24  25
ENDBRANCH   1  24
TORSDOF 18
