REMARK SMILES CCC(CC)(NC(=O)N[C@H](C)C1CC1)C(=O)OCCOC(=O)c1ccc(-c2c3nc(c(-c4cc(S(=O)(=O)[O-])ccc4F)c4ccc([nH]4)c(-c4cc(S(=O)(=O)[O-])ccc4F)c4nc(c(-c5cc(S(=O)(=O)[O-])ccc5F)c5ccc2[nH]5)C=C4)C=C3)cc1
REMARK SMILES IDX 18 1 17 2 15 3 16 4 3 5 2 6 1 7 4 8 5 9 6 10 7 11 8 13 9 14
REMARK SMILES IDX 10 16 11 17 12 18 13 19 14 20 19 21 20 22 21 23 22 24 23 25
REMARK SMILES IDX 24 26 85 27 25 28 84 29 26 30 27 31 28 32 78 33 29 34 83 35
REMARK SMILES IDX 77 36 79 37 30 38 82 39 76 40 75 41 31 43 63 44 43 45 62 46
REMARK SMILES IDX 44 47 47 48 61 49 80 50 45 51 46 52 60 54 81 55 48 56 32 57
REMARK SMILES IDX 33 58 41 59 34 60 40 61 42 62 39 63 35 64 36 65 37 66 38 67
REMARK SMILES IDX 64 68 65 69 73 70 66 71 72 72 74 73 71 74 67 75 68 76 69 77
REMARK SMILES IDX 70 78 49 79 50 80 58 81 51 82 57 83 59 84 56 85 52 86 53 87
REMARK SMILES IDX 54 88 55 89
REMARK H PARENT 6 12 9 15 79 42 47 53
REMARK Flexibility Score: inf
ROOT
ATOM      1  C   UNL     1       1.088   0.692   1.460  1.00  0.00     0.274 C 
ENDROOT
BRANCH   1   2
ATOM      2  O   UNL     1       1.869   1.911   1.480  1.00  0.00    -0.460 OA
BRANCH   2   3
ATOM      3  C   UNL     1       1.279   2.965   2.109  1.00  0.00     0.332 C 
ATOM      4  O   UNL     1       0.136   2.900   2.561  1.00  0.00    -0.249 OA
BRANCH   3   5
ATOM      5  C   UNL     1       2.134   4.277   2.146  1.00  0.00     0.139 C 
BRANCH   5   6
ATOM      6  C   UNL     1       2.263   4.793   3.611  1.00  0.00     0.037 C 
ATOM      7  C   UNL     1       0.964   5.247   4.297  1.00  0.00     0.007 C 
ENDBRANCH   5   6
BRANCH   5   8
ATOM      8  C   UNL     1       1.265   5.283   1.294  1.00  0.00     0.037 C 
ATOM      9  C   UNL     1       1.708   6.748   1.329  1.00  0.00     0.007 C 
ENDBRANCH   5   8
BRANCH   5  10
ATOM     10  N   UNL     1       3.476   4.242   1.446  1.00  0.00    -0.322 N 
ATOM     11  C   UNL     1       4.764   4.103   1.754  1.00  0.00     0.315 C 
ATOM     12  H   UNL     1       3.363   4.357   0.475  1.00  0.00     0.166 HD
ATOM     13  O   UNL     1       5.546   4.837   1.137  1.00  0.00    -0.249 OA
ATOM     14  N   UNL     1       5.303   3.267   2.634  1.00  0.00    -0.335 N 
ATOM     15  H   UNL     1       6.081   3.637   3.110  1.00  0.00     0.165 HD
BRANCH  14  16
ATOM     16  C   UNL     1       4.963   1.913   3.028  1.00  0.00     0.083 C 
ATOM     17  C   UNL     1       5.142   1.763   4.540  1.00  0.00     0.031 C 
BRANCH  16  18
ATOM     18  C   UNL     1       5.883   0.927   2.324  1.00  0.00     0.011 C 
ATOM     19  C   UNL     1       5.626  -0.563   2.428  1.00  0.00     0.006 C 
ATOM     20  C   UNL     1       5.417   0.143   1.120  1.00  0.00     0.006 C 
ENDBRANCH  16  18
ENDBRANCH  14  16
ENDBRANCH   5  10
ENDBRANCH   3   5
ENDBRANCH   2   3
ENDBRANCH   1   2
BRANCH   1  21
ATOM     21  C   UNL     1       1.470  -0.319   2.559  1.00  0.00     0.275 C 
BRANCH  21  22
ATOM     22  O   UNL     1       0.917  -0.083   3.875  1.00  0.00    -0.458 OA
BRANCH  22  23
ATOM     23  C   UNL     1       1.550   0.877   4.566  1.00  0.00     0.338 C 
ATOM     24  O   UNL     1       2.401   1.639   4.124  1.00  0.00    -0.246 OA
BRANCH  23  25
ATOM     25  C   UNL     1       1.233   1.004   5.975  1.00  0.00     0.060 A 
ATOM     26  C   UNL     1       0.694   2.226   6.382  1.00  0.00     0.016 A 
ATOM     27  C   UNL     1       1.775   0.109   6.897  1.00  0.00     0.016 A 
ATOM     28  C   UNL     1       0.681   2.562   7.726  1.00  0.00     0.010 A 
ATOM     29  C   UNL     1       1.718   0.424   8.254  1.00  0.00     0.010 A 
ATOM     30  C   UNL     1       1.160   1.645   8.671  1.00  0.00    -0.014 A 
BRANCH  30  31
ATOM     31  C   UNL     1       0.864   1.875  10.097  1.00  0.00     0.031 A 
ATOM     32  C   UNL     1       1.912   2.308  11.069  1.00  0.00     0.074 A 
ATOM     33  C   UNL     1      -0.405   1.649  10.480  1.00  0.00     0.049 A 
ATOM     34  N   UNL     1       1.819   2.431  12.367  1.00  0.00    -0.248 NA
ATOM     35  C   UNL     1       3.232   2.640  10.520  1.00  0.00     0.031 C 
ATOM     36  C   UNL     1      -1.490   1.244   9.577  1.00  0.00     0.029 A 
ATOM     37  N   UNL     1      -0.997   1.710  11.708  1.00  0.00    -0.354 N 
ATOM     38  C   UNL     1       3.072   2.844  12.802  1.00  0.00     0.074 A 
ATOM     39  C   UNL     1       3.909   2.943  11.622  1.00  0.00     0.031 C 
ATOM     40  C   UNL     1      -2.613   1.083  10.287  1.00  0.00     0.029 A 
ATOM     41  C   UNL     1      -2.311   1.315  11.691  1.00  0.00     0.049 A 
ATOM     42  H   UNL     1      -0.529   2.007  12.522  1.00  0.00     0.167 HD
ATOM     43  C   UNL     1       3.472   3.101  14.072  1.00  0.00     0.034 A 
ATOM     44  C   UNL     1      -3.170   1.109  12.703  1.00  0.00     0.034 A 
ATOM     45  C   UNL     1       2.607   2.971  15.224  1.00  0.00     0.049 A 
ATOM     46  C   UNL     1      -2.694   1.358  14.097  1.00  0.00     0.074 A 
ATOM     47  C   UNL     1       2.894   3.206  16.558  1.00  0.00     0.029 A 
ATOM     48  N   UNL     1       1.279   2.556  15.176  1.00  0.00    -0.354 N 
ATOM     49  N   UNL     1      -1.499   1.721  14.501  1.00  0.00    -0.248 NA
ATOM     50  C   UNL     1      -3.675   1.171  15.168  1.00  0.00     0.031 C 
ATOM     51  C   UNL     1       1.758   2.888  17.317  1.00  0.00     0.029 A 
ATOM     52  C   UNL     1       0.744   2.503  16.455  1.00  0.00     0.049 A 
ATOM     53  H   UNL     1       0.789   2.332  14.351  1.00  0.00     0.167 HD
ATOM     54  C   UNL     1      -1.579   1.802  15.883  1.00  0.00     0.074 A 
ATOM     55  C   UNL     1      -2.948   1.467  16.237  1.00  0.00     0.031 C 
ATOM     56  C   UNL     1      -0.612   2.125  16.778  1.00  0.00     0.034 A 
BRANCH  43  57
ATOM     57  C   UNL     1       4.919   3.476  14.280  1.00  0.00     0.023 A 
ATOM     58  C   UNL     1       5.449   4.691  13.814  1.00  0.00     0.031 A 
ATOM     59  C   UNL     1       5.790   2.586  14.936  1.00  0.00     0.131 A 
ATOM     60  C   UNL     1       6.820   4.962  13.963  1.00  0.00     0.055 A 
ATOM     61  C   UNL     1       7.140   2.885  15.132  1.00  0.00     0.041 A 
ATOM     62  F   UNL     1       5.344   1.401  15.383  1.00  0.00    -0.206 F 
ATOM     63  C   UNL     1       7.665   4.073  14.634  1.00  0.00     0.022 A 
BRANCH  60  64
ATOM     64  S   UNL     1       7.514   6.435  13.163  1.00  0.00     0.124 S 
ATOM     65  O   UNL     1       7.109   6.239  11.773  1.00  0.00    -0.237 OA
ATOM     66  O   UNL     1       6.851   7.521  13.876  1.00  0.00    -0.237 OA
ATOM     67  O   UNL     1       8.950   6.314  13.407  1.00  0.00    -0.744 OA
ENDBRANCH  60  64
ENDBRANCH  43  57
BRANCH  44  68
ATOM     68  C   UNL     1      -4.520   0.578  12.400  1.00  0.00     0.023 A 
ATOM     69  C   UNL     1      -5.647   1.409  12.419  1.00  0.00     0.031 A 
ATOM     70  C   UNL     1      -4.675  -0.757  11.982  1.00  0.00     0.131 A 
ATOM     71  C   UNL     1      -6.890   0.894  12.023  1.00  0.00     0.055 A 
ATOM     72  C   UNL     1      -5.908  -1.256  11.566  1.00  0.00     0.041 A 
ATOM     73  F   UNL     1      -3.613  -1.575  11.920  1.00  0.00    -0.206 F 
ATOM     74  C   UNL     1      -7.026  -0.428  11.586  1.00  0.00     0.022 A 
BRANCH  71  75
ATOM     75  S   UNL     1      -8.336   1.986  12.070  1.00  0.00     0.124 S 
ATOM     76  O   UNL     1      -8.434   2.292  13.493  1.00  0.00    -0.237 OA
ATOM     77  O   UNL     1      -7.917   3.084  11.205  1.00  0.00    -0.237 OA
ATOM     78  O   UNL     1      -9.410   1.152  11.535  1.00  0.00    -0.744 OA
ENDBRANCH  71  75
ENDBRANCH  44  68
BRANCH  56  79
ATOM     79  C   UNL     1      -1.034   2.126  18.219  1.00  0.00     0.023 A 
ATOM     80  C   UNL     1      -1.251   0.923  18.911  1.00  0.00     0.031 A 
ATOM     81  C   UNL     1      -1.279   3.338  18.884  1.00  0.00     0.131 A 
ATOM     82  C   UNL     1      -1.752   0.957  20.219  1.00  0.00     0.055 A 
ATOM     83  C   UNL     1      -1.739   3.366  20.200  1.00  0.00     0.041 A 
ATOM     84  F   UNL     1      -1.093   4.510  18.256  1.00  0.00    -0.206 F 
ATOM     85  C   UNL     1      -1.989   2.171  20.871  1.00  0.00     0.022 A 
BRANCH  82  86
ATOM     86  S   UNL     1      -2.163  -0.610  21.034  1.00  0.00     0.124 S 
ATOM     87  O   UNL     1      -3.213  -1.135  20.167  1.00  0.00    -0.237 OA
ATOM     88  O   UNL     1      -0.891  -1.325  21.001  1.00  0.00    -0.237 OA
ATOM     89  O   UNL     1      -2.606  -0.198  22.364  1.00  0.00    -0.744 OA
ENDBRANCH  82  86
ENDBRANCH  56  79
ENDBRANCH  30  31
ENDBRANCH  23  25
ENDBRANCH  22  23
ENDBRANCH  21  22
ENDBRANCH   1  21
TORSDOF 19
