REMARK SMILES CC[C@@H](C)[C@H](NC(=O)N1CCn2c1nc1ccccc12)C(=O)N[C@H](C)C(=O)OCCOC(=O)c1ccc(-c2c3nc(c(-c4cc(S(=O)(=O)[O-])ccc4F)c4ccc([nH]4)c(-c4cc(S(=O)(=O)[O-])ccc4F)c4nc(c(-c5cc(S(=O)(=O)[O-])ccc5F)c5ccc2[nH]5)C=C4)C=C3)cc1
REMARK SMILES IDX 29 1 28 2 26 3 27 4 24 5 25 6 23 7 21 8 22 9 5 11 3 12 4 13
REMARK SMILES IDX 2 14 1 15 6 16 7 17 8 19 9 20 10 21 13 22 11 23 12 24 14 25
REMARK SMILES IDX 20 26 15 27 19 28 16 29 18 30 17 31 30 32 31 33 32 34 33 35
REMARK SMILES IDX 34 36 35 37 96 38 36 39 95 40 37 41 38 42 39 43 89 44 40 45
REMARK SMILES IDX 94 46 88 47 90 48 41 49 93 50 87 51 86 52 42 54 74 55 54 56
REMARK SMILES IDX 73 57 55 58 58 59 72 60 91 61 56 62 57 63 71 65 92 66 59 67
REMARK SMILES IDX 43 68 44 69 52 70 45 71 51 72 53 73 50 74 46 75 47 76 48 77
REMARK SMILES IDX 49 78 75 79 76 80 84 81 77 82 83 83 85 84 82 85 78 86 79 87
REMARK SMILES IDX 80 88 81 89 60 90 61 91 69 92 62 93 68 94 70 95 67 96 63 97
REMARK SMILES IDX 64 98 65 99 66 100
REMARK H PARENT 23 10 6 18 90 53 58 64
REMARK Flexibility Score: inf
ROOT
ATOM      1  C   UNL     1       6.196   4.202   4.774  1.00  0.00     0.274 C 
ENDROOT
BRANCH   1   2
ATOM      2  O   UNL     1       5.300   4.234   3.640  1.00  0.00    -0.461 OA
BRANCH   2   3
ATOM      3  C   UNL     1       5.115   3.072   2.966  1.00  0.00     0.328 C 
ATOM      4  O   UNL     1       5.551   1.995   3.353  1.00  0.00    -0.250 OA
BRANCH   3   5
ATOM      5  C   UNL     1       4.294   3.214   1.656  1.00  0.00     0.189 C 
ATOM      6  C   UNL     1       2.806   3.527   1.772  1.00  0.00     0.043 C 
BRANCH   5   7
ATOM      7  N   UNL     1       4.951   3.802   0.481  1.00  0.00    -0.341 N 
ATOM      8  C   UNL     1       5.134   4.988  -0.129  1.00  0.00     0.243 C 
ATOM      9  O   UNL     1       5.644   4.877  -1.258  1.00  0.00    -0.273 OA
ATOM     10  H   UNL     1       5.410   3.095  -0.028  1.00  0.00     0.164 HD
BRANCH   8  11
ATOM     11  C   UNL     1       4.673   6.409   0.311  1.00  0.00     0.176 C 
BRANCH  11  12
ATOM     12  C   UNL     1       4.918   6.950   1.742  1.00  0.00     0.018 C 
ATOM     13  C   UNL     1       6.348   6.651   2.194  1.00  0.00     0.010 C 
BRANCH  12  14
ATOM     14  C   UNL     1       3.784   6.634   2.733  1.00  0.00     0.002 C 
ATOM     15  C   UNL     1       3.914   7.281   4.099  1.00  0.00     0.004 C 
ENDBRANCH  12  14
ENDBRANCH  11  12
BRANCH  11  16
ATOM     16  N   UNL     1       3.331   6.729  -0.195  1.00  0.00    -0.326 N 
ATOM     17  C   UNL     1       2.704   7.932  -0.222  1.00  0.00     0.324 C 
ATOM     18  H   UNL     1       2.821   5.972  -0.563  1.00  0.00     0.166 HD
ATOM     19  O   UNL     1       1.474   7.940  -0.107  1.00  0.00    -0.248 OA
BRANCH  17  20
ATOM     20  N   UNL     1       3.402   9.100  -0.261  1.00  0.00    -0.262 N 
ATOM     21  C   UNL     1       2.876  10.378   0.248  1.00  0.00     0.152 C 
ATOM     22  C   UNL     1       4.508   9.344  -1.034  1.00  0.00     0.214 A 
ATOM     23  C   UNL     1       3.715  11.469  -0.443  1.00  0.00     0.148 C 
ATOM     24  N   UNL     1       4.733  10.686  -1.113  1.00  0.00    -0.308 N 
ATOM     25  N   UNL     1       5.341   8.679  -1.780  1.00  0.00    -0.212 NA
ATOM     26  C   UNL     1       5.778  10.934  -1.932  1.00  0.00     0.070 A 
ATOM     27  C   UNL     1       6.173   9.644  -2.311  1.00  0.00     0.091 A 
ATOM     28  C   UNL     1       6.412  12.090  -2.389  1.00  0.00     0.028 A 
ATOM     29  C   UNL     1       7.285   9.486  -3.150  1.00  0.00     0.031 A 
ATOM     30  C   UNL     1       7.512  11.907  -3.239  1.00  0.00     0.002 A 
ATOM     31  C   UNL     1       7.949  10.630  -3.606  1.00  0.00     0.002 A 
ENDBRANCH  17  20
ENDBRANCH  11  16
ENDBRANCH   8  11
ENDBRANCH   5   7
ENDBRANCH   3   5
ENDBRANCH   2   3
ENDBRANCH   1   2
BRANCH   1  32
ATOM     32  C   UNL     1       5.466   4.473   6.091  1.00  0.00     0.275 C 
BRANCH  32  33
ATOM     33  O   UNL     1       4.685   3.345   6.482  1.00  0.00    -0.458 OA
BRANCH  33  34
ATOM     34  C   UNL     1       3.395   3.304   6.068  1.00  0.00     0.338 C 
ATOM     35  O   UNL     1       2.730   4.181   5.553  1.00  0.00    -0.246 OA
BRANCH  34  36
ATOM     36  C   UNL     1       3.060   1.879   6.160  1.00  0.00     0.060 A 
ATOM     37  C   UNL     1       3.152   1.237   7.394  1.00  0.00     0.016 A 
ATOM     38  C   UNL     1       3.028   1.164   4.963  1.00  0.00     0.016 A 
ATOM     39  C   UNL     1       3.350  -0.135   7.412  1.00  0.00     0.010 A 
ATOM     40  C   UNL     1       3.268  -0.198   4.982  1.00  0.00     0.010 A 
ATOM     41  C   UNL     1       3.471  -0.843   6.204  1.00  0.00    -0.014 A 
BRANCH  41  42
ATOM     42  C   UNL     1       3.865  -2.257   6.281  1.00  0.00     0.031 A 
ATOM     43  C   UNL     1       3.269  -3.144   5.226  1.00  0.00     0.074 A 
ATOM     44  C   UNL     1       5.135  -2.497   6.666  1.00  0.00     0.049 A 
ATOM     45  N   UNL     1       3.734  -3.376   4.033  1.00  0.00    -0.248 NA
ATOM     46  C   UNL     1       1.905  -3.635   5.441  1.00  0.00     0.031 C 
ATOM     47  C   UNL     1       6.337  -1.878   6.104  1.00  0.00     0.029 A 
ATOM     48  N   UNL     1       5.598  -3.463   7.527  1.00  0.00    -0.354 N 
ATOM     49  C   UNL     1       2.730  -4.036   3.334  1.00  0.00     0.074 A 
ATOM     50  C   UNL     1       1.613  -4.157   4.245  1.00  0.00     0.031 C 
ATOM     51  C   UNL     1       7.408  -2.593   6.502  1.00  0.00     0.029 A 
ATOM     52  C   UNL     1       6.971  -3.667   7.395  1.00  0.00     0.049 A 
ATOM     53  H   UNL     1       5.028  -3.954   8.162  1.00  0.00     0.167 HD
ATOM     54  C   UNL     1       2.834  -4.480   2.052  1.00  0.00     0.034 A 
ATOM     55  C   UNL     1       7.539  -4.900   7.505  1.00  0.00     0.034 A 
ATOM     56  C   UNL     1       4.101  -4.293   1.419  1.00  0.00     0.049 A 
ATOM     57  C   UNL     1       7.331  -5.420   6.096  1.00  0.00     0.074 A 
ATOM     58  C   UNL     1       4.668  -3.435   0.504  1.00  0.00     0.029 A 
ATOM     59  N   UNL     1       5.122  -5.148   1.766  1.00  0.00    -0.354 N 
ATOM     60  N   UNL     1       8.040  -5.115   5.037  1.00  0.00    -0.248 NA
ATOM     61  C   UNL     1       6.029  -6.021   5.796  1.00  0.00     0.031 C 
ATOM     62  C   UNL     1       6.082  -3.545   0.700  1.00  0.00     0.029 A 
ATOM     63  C   UNL     1       6.288  -4.423   1.764  1.00  0.00     0.049 A 
ATOM     64  H   UNL     1       5.032  -6.105   1.978  1.00  0.00     0.167 HD
ATOM     65  C   UNL     1       7.156  -5.213   3.953  1.00  0.00     0.074 A 
ATOM     66  C   UNL     1       5.953  -5.814   4.489  1.00  0.00     0.031 C 
ATOM     67  C   UNL     1       7.354  -4.629   2.732  1.00  0.00     0.034 A 
BRANCH  54  68
ATOM     68  C   UNL     1       1.791  -5.326   1.423  1.00  0.00     0.023 A 
ATOM     69  C   UNL     1       0.661  -4.804   0.777  1.00  0.00     0.031 A 
ATOM     70  C   UNL     1       1.995  -6.717   1.413  1.00  0.00     0.131 A 
ATOM     71  C   UNL     1      -0.223  -5.684   0.131  1.00  0.00     0.055 A 
ATOM     72  C   UNL     1       1.121  -7.584   0.764  1.00  0.00     0.041 A 
ATOM     73  F   UNL     1       3.066  -7.247   2.029  1.00  0.00    -0.206 F 
ATOM     74  C   UNL     1       0.007  -7.067   0.114  1.00  0.00     0.022 A 
BRANCH  71  75
ATOM     75  S   UNL     1      -1.700  -5.083  -0.736  1.00  0.00     0.124 S 
ATOM     76  O   UNL     1      -1.504  -5.611  -2.084  1.00  0.00    -0.237 OA
ATOM     77  O   UNL     1      -2.774  -5.709   0.031  1.00  0.00    -0.237 OA
ATOM     78  O   UNL     1      -1.610  -3.632  -0.613  1.00  0.00    -0.744 OA
ENDBRANCH  71  75
ENDBRANCH  54  68
BRANCH  55  79
ATOM     79  C   UNL     1       7.148  -5.621   8.765  1.00  0.00     0.023 A 
ATOM     80  C   UNL     1       6.402  -6.805   8.825  1.00  0.00     0.031 A 
ATOM     81  C   UNL     1       7.442  -4.993  10.000  1.00  0.00     0.131 A 
ATOM     82  C   UNL     1       5.825  -7.216  10.039  1.00  0.00     0.055 A 
ATOM     83  C   UNL     1       6.919  -5.441  11.217  1.00  0.00     0.041 A 
ATOM     84  F   UNL     1       8.218  -3.897  10.036  1.00  0.00    -0.206 F 
ATOM     85  C   UNL     1       6.074  -6.540  11.235  1.00  0.00     0.022 A 
BRANCH  82  86
ATOM     86  S   UNL     1       4.635  -8.586  10.073  1.00  0.00     0.124 S 
ATOM     87  O   UNL     1       5.126  -9.396  11.184  1.00  0.00    -0.237 OA
ATOM     88  O   UNL     1       3.384  -7.872  10.315  1.00  0.00    -0.237 OA
ATOM     89  O   UNL     1       4.772  -9.184   8.750  1.00  0.00    -0.744 OA
ENDBRANCH  82  86
ENDBRANCH  55  79
BRANCH  67  90
ATOM     90  C   UNL     1       8.686  -3.978   2.496  1.00  0.00     0.023 A 
ATOM     91  C   UNL     1       8.777  -2.607   2.174  1.00  0.00     0.031 A 
ATOM     92  C   UNL     1       9.862  -4.742   2.465  1.00  0.00     0.131 A 
ATOM     93  C   UNL     1       9.996  -2.065   1.751  1.00  0.00     0.055 A 
ATOM     94  C   UNL     1      11.090  -4.180   2.112  1.00  0.00     0.041 A 
ATOM     95  F   UNL     1       9.830  -6.061   2.720  1.00  0.00    -0.206 F 
ATOM     96  C   UNL     1      11.158  -2.842   1.734  1.00  0.00     0.022 A 
BRANCH  93  97
ATOM     97  S   UNL     1      10.102  -0.371   1.107  1.00  0.00     0.124 S 
ATOM     98  O   UNL     1      11.200   0.194   1.889  1.00  0.00    -0.237 OA
ATOM     99  O   UNL     1      10.402  -0.606  -0.304  1.00  0.00    -0.237 OA
ATOM    100  O   UNL     1       8.788   0.200   1.377  1.00  0.00    -0.744 OA
ENDBRANCH  93  97
ENDBRANCH  67  90
ENDBRANCH  41  42
ENDBRANCH  34  36
ENDBRANCH  33  34
ENDBRANCH  32  33
ENDBRANCH   1  32
TORSDOF 20
