REMARK SMILES C[C@H](NC(=O)N1CC[C@H](C(=O)OCCOC(=O)c2ccc(-c3c4nc(c(-c5cc(S(=O)(=O)[O-])ccc5F)c5ccc([nH]5)c(-c5cc(S(=O)(=O)[O-])ccc5F)c5nc(c(-c6cc(S(=O)(=O)[O-])ccc6F)c6ccc3[nH]6)C=C5)C=C4)cc2)[C@H]1C)c1ccsc1
REMARK SMILES IDX 13 1 12 2 10 3 11 4 9 5 6 6 7 7 81 8 8 9 82 10 4 11 3 12
REMARK SMILES IDX 5 14 2 15 1 16 83 17 84 18 87 19 85 20 86 21 14 22 15 23
REMARK SMILES IDX 16 24 17 25 18 26 19 27 80 28 20 29 79 30 21 31 22 32 23 33
REMARK SMILES IDX 73 34 24 35 78 36 72 37 74 38 25 39 77 40 71 41 70 42 26 44
REMARK SMILES IDX 58 45 38 46 57 47 39 48 42 49 56 50 75 51 40 52 41 53 55 55
REMARK SMILES IDX 76 56 43 57 27 58 28 59 36 60 29 61 35 62 37 63 34 64 30 65
REMARK SMILES IDX 31 66 32 67 33 68 59 69 60 70 68 71 61 72 67 73 69 74 66 75
REMARK SMILES IDX 62 76 63 77 64 78 65 79 44 80 45 81 53 82 46 83 52 84 54 85
REMARK SMILES IDX 51 86 47 87 48 88 49 89 50 90
REMARK H PARENT 3 13 74 43 42 54
REMARK Flexibility Score: inf
ROOT
ATOM      1  C   UNL     1       7.083   3.317  -2.235  1.00  0.00     0.274 C 
ENDROOT
BRANCH   1   2
ATOM      2  O   UNL     1       5.922   3.893  -1.606  1.00  0.00    -0.462 OA
BRANCH   2   3
ATOM      3  C   UNL     1       4.714   3.603  -2.174  1.00  0.00     0.311 C 
ATOM      4  O   UNL     1       4.554   2.909  -3.167  1.00  0.00    -0.252 OA
BRANCH   3   5
ATOM      5  C   UNL     1       3.613   4.327  -1.422  1.00  0.00     0.123 C 
ATOM      6  N   UNL     1       1.937   2.826  -0.601  1.00  0.00    -0.321 N 
ATOM      7  C   UNL     1       1.510   3.266  -1.917  1.00  0.00     0.122 C 
ATOM      8  C   UNL     1       3.170   3.516  -0.206  1.00  0.00     0.098 C 
ATOM      9  C   UNL     1       2.332   4.505  -2.233  1.00  0.00     0.039 C 
ATOM     10  C   UNL     1       2.934   4.418   1.003  1.00  0.00     0.032 C 
BRANCH   6  11
ATOM     11  C   UNL     1       1.749   1.482  -0.347  1.00  0.00     0.318 C 
ATOM     12  N   UNL     1       0.455   1.098  -0.146  1.00  0.00    -0.331 N 
ATOM     13  H   UNL     1      -0.037   0.678  -0.888  1.00  0.00     0.165 HD
ATOM     14  O   UNL     1       2.638   0.649  -0.476  1.00  0.00    -0.249 OA
BRANCH  12  15
ATOM     15  C   UNL     1      -0.225   1.288   1.134  1.00  0.00     0.112 C 
ATOM     16  C   UNL     1      -0.140   2.697   1.713  1.00  0.00     0.036 C 
BRANCH  15  17
ATOM     17  C   UNL     1      -1.648   0.806   0.963  1.00  0.00    -0.015 A 
ATOM     18  C   UNL     1      -2.050  -0.569   1.098  1.00  0.00     0.017 A 
ATOM     19  C   UNL     1      -2.748   1.599   0.680  1.00  0.00     0.070 A 
ATOM     20  C   UNL     1      -3.404  -0.753   0.921  1.00  0.00     0.065 A 
ATOM     21  S   UNL     1      -4.210   0.716   0.595  1.00  0.00    -0.152 S 
ENDBRANCH  15  17
ENDBRANCH  12  15
ENDBRANCH   6  11
ENDBRANCH   3   5
ENDBRANCH   2   3
ENDBRANCH   1   2
BRANCH   1  22
ATOM     22  C   UNL     1       8.117   2.970  -1.167  1.00  0.00     0.275 C 
BRANCH  22  23
ATOM     23  O   UNL     1       7.594   1.922  -0.329  1.00  0.00    -0.458 OA
BRANCH  23  24
ATOM     24  C   UNL     1       7.268   2.299   0.929  1.00  0.00     0.338 C 
ATOM     25  O   UNL     1       7.445   3.390   1.442  1.00  0.00    -0.246 OA
BRANCH  24  26
ATOM     26  C   UNL     1       6.591   1.194   1.627  1.00  0.00     0.060 A 
ATOM     27  C   UNL     1       5.336   0.795   1.190  1.00  0.00     0.016 A 
ATOM     28  C   UNL     1       7.097   0.697   2.824  1.00  0.00     0.016 A 
ATOM     29  C   UNL     1       4.512   0.048   2.033  1.00  0.00     0.010 A 
ATOM     30  C   UNL     1       6.321  -0.185   3.591  1.00  0.00     0.010 A 
ATOM     31  C   UNL     1       4.986  -0.469   3.245  1.00  0.00    -0.014 A 
BRANCH  31  32
ATOM     32  C   UNL     1       4.077  -1.220   4.176  1.00  0.00     0.031 A 
ATOM     33  C   UNL     1       4.003  -0.832   5.638  1.00  0.00     0.074 A 
ATOM     34  C   UNL     1       3.284  -2.226   3.745  1.00  0.00     0.049 A 
ATOM     35  N   UNL     1       3.509  -1.496   6.653  1.00  0.00    -0.248 NA
ATOM     36  C   UNL     1       4.594   0.463   6.007  1.00  0.00     0.031 C 
ATOM     37  C   UNL     1       3.172  -2.700   2.364  1.00  0.00     0.029 A 
ATOM     38  N   UNL     1       2.402  -3.027   4.433  1.00  0.00    -0.354 N 
ATOM     39  C   UNL     1       3.822  -0.751   7.788  1.00  0.00     0.074 A 
ATOM     40  C   UNL     1       4.540   0.419   7.330  1.00  0.00     0.031 C 
ATOM     41  C   UNL     1       2.230  -3.652   2.296  1.00  0.00     0.029 A 
ATOM     42  C   UNL     1       1.753  -3.947   3.641  1.00  0.00     0.049 A 
ATOM     43  H   UNL     1       2.249  -2.950   5.403  1.00  0.00     0.167 HD
ATOM     44  C   UNL     1       3.545  -1.023   9.089  1.00  0.00     0.034 A 
ATOM     45  C   UNL     1       0.910  -4.951   3.954  1.00  0.00     0.034 A 
ATOM     46  C   UNL     1       2.739  -2.138   9.529  1.00  0.00     0.049 A 
ATOM     47  C   UNL     1       0.593  -5.227   5.397  1.00  0.00     0.074 A 
ATOM     48  C   UNL     1       2.388  -2.495  10.821  1.00  0.00     0.029 A 
ATOM     49  N   UNL     1       2.125  -3.055   8.688  1.00  0.00    -0.354 N 
ATOM     50  N   UNL     1       1.018  -4.601   6.469  1.00  0.00    -0.248 NA
ATOM     51  C   UNL     1      -0.294  -6.365   5.673  1.00  0.00     0.031 C 
ATOM     52  C   UNL     1       1.594  -3.647  10.763  1.00  0.00     0.029 A 
ATOM     53  C   UNL     1       1.403  -3.978   9.432  1.00  0.00     0.049 A 
ATOM     54  H   UNL     1       2.192  -3.053   7.706  1.00  0.00     0.167 HD
ATOM     55  C   UNL     1       0.455  -5.276   7.547  1.00  0.00     0.074 A 
ATOM     56  C   UNL     1      -0.364  -6.337   6.996  1.00  0.00     0.031 C 
ATOM     57  C   UNL     1       0.609  -5.045   8.874  1.00  0.00     0.034 A 
BRANCH  44  58
ATOM     58  C   UNL     1       4.179  -0.137  10.135  1.00  0.00     0.023 A 
ATOM     59  C   UNL     1       3.847   1.221  10.277  1.00  0.00     0.031 A 
ATOM     60  C   UNL     1       5.169  -0.664  10.986  1.00  0.00     0.131 A 
ATOM     61  C   UNL     1       4.551   2.020  11.193  1.00  0.00     0.055 A 
ATOM     62  C   UNL     1       5.808   0.117  11.950  1.00  0.00     0.041 A 
ATOM     63  F   UNL     1       5.541  -1.950  10.886  1.00  0.00    -0.206 F 
ATOM     64  C   UNL     1       5.512   1.473  12.046  1.00  0.00     0.022 A 
BRANCH  61  65
ATOM     65  S   UNL     1       4.296   3.816  11.151  1.00  0.00     0.124 S 
ATOM     66  O   UNL     1       4.651   4.132   9.769  1.00  0.00    -0.237 OA
ATOM     67  O   UNL     1       2.885   3.942  11.494  1.00  0.00    -0.237 OA
ATOM     68  O   UNL     1       5.231   4.318  12.156  1.00  0.00    -0.744 OA
ENDBRANCH  61  65
ENDBRANCH  44  58
BRANCH  45  69
ATOM     69  C   UNL     1       0.361  -5.827   2.881  1.00  0.00     0.023 A 
ATOM     70  C   UNL     1      -1.008  -5.817   2.574  1.00  0.00     0.031 A 
ATOM     71  C   UNL     1       1.197  -6.699   2.161  1.00  0.00     0.131 A 
ATOM     72  C   UNL     1      -1.506  -6.680   1.586  1.00  0.00     0.055 A 
ATOM     73  C   UNL     1       0.704  -7.522   1.148  1.00  0.00     0.041 A 
ATOM     74  F   UNL     1       2.514  -6.744   2.419  1.00  0.00    -0.206 F 
ATOM     75  C   UNL     1      -0.657  -7.521   0.861  1.00  0.00     0.022 A 
BRANCH  72  76
ATOM     76  S   UNL     1      -3.294  -6.715   1.288  1.00  0.00     0.124 S 
ATOM     77  O   UNL     1      -3.800  -7.180   2.574  1.00  0.00    -0.237 OA
ATOM     78  O   UNL     1      -3.574  -5.322   0.955  1.00  0.00    -0.237 OA
ATOM     79  O   UNL     1      -3.436  -7.659   0.181  1.00  0.00    -0.744 OA
ENDBRANCH  72  76
ENDBRANCH  45  69
BRANCH  57  80
ATOM     80  C   UNL     1      -0.151  -5.945   9.811  1.00  0.00     0.023 A 
ATOM     81  C   UNL     1       0.214  -7.291   9.993  1.00  0.00     0.031 A 
ATOM     82  C   UNL     1      -1.273  -5.460  10.503  1.00  0.00     0.131 A 
ATOM     83  C   UNL     1      -0.568  -8.120  10.811  1.00  0.00     0.055 A 
ATOM     84  C   UNL     1      -2.022  -6.279  11.349  1.00  0.00     0.041 A 
ATOM     85  F   UNL     1      -1.664  -4.183  10.360  1.00  0.00    -0.206 F 
ATOM     86  C   UNL     1      -1.678  -7.620  11.498  1.00  0.00     0.022 A 
BRANCH  83  87
ATOM     87  S   UNL     1      -0.162  -9.886  10.906  1.00  0.00     0.124 S 
ATOM     88  O   UNL     1      -0.276 -10.300   9.511  1.00  0.00    -0.237 OA
ATOM     89  O   UNL     1       1.189  -9.867  11.457  1.00  0.00    -0.237 OA
ATOM     90  O   UNL     1      -1.187 -10.426  11.798  1.00  0.00    -0.744 OA
ENDBRANCH  83  87
ENDBRANCH  57  80
ENDBRANCH  31  32
ENDBRANCH  24  26
ENDBRANCH  23  24
ENDBRANCH  22  23
ENDBRANCH   1  22
TORSDOF 17
