REMARK SMILES O=C(OCCOC(=O)c1ccc2c(=O)[nH]c(N3CC[NH2+]CC3)nc2c1)c1ccc(-c2c3nc(c(-c4cc(S(=O)(=O)[O-])ccc4F)c4ccc([nH]4)c(-c4cc(S(=O)(=O)[O-])ccc4F)c4nc(c(-c5cc(S(=O)(=O)[O-])ccc5F)c5ccc2[nH]5)C=C4)C=C3)cc1
REMARK SMILES IDX 4 1 3 2 2 3 1 4 26 5 27 6 88 7 28 8 87 9 29 10 30 11 31 12
REMARK SMILES IDX 81 13 32 14 86 15 80 16 82 17 33 18 85 19 79 20 78 21 34 23
REMARK SMILES IDX 66 24 46 25 65 26 47 27 50 28 64 29 83 30 48 31 49 32 63 34
REMARK SMILES IDX 84 35 51 36 35 37 36 38 44 39 37 40 43 41 45 42 42 43 38 44
REMARK SMILES IDX 39 45 40 46 41 47 67 48 68 49 76 50 69 51 75 52 77 53 74 54
REMARK SMILES IDX 70 55 71 56 72 57 73 58 52 59 53 60 61 61 54 62 60 63 62 64
REMARK SMILES IDX 59 65 55 66 56 67 57 68 58 69 5 70 6 71 7 72 8 73 9 74 10 75
REMARK SMILES IDX 25 76 11 77 24 78 12 79 23 80 13 81 16 82 14 83 15 84 17 86
REMARK SMILES IDX 18 87 22 88 19 89 21 90 20 91
REMARK H PARENT 82 22 50 33 15 85 20 92 20 93
REMARK Flexibility Score: inf
ROOT
ATOM      1  C   UNL     1       3.909  -0.429  -1.497  1.00  0.00     0.275 C 
ENDROOT
BRANCH   1   2
ATOM      2  O   UNL     1       2.905  -1.007  -0.643  1.00  0.00    -0.458 OA
BRANCH   2   3
ATOM      3  C   UNL     1       2.786  -0.979   0.706  1.00  0.00     0.338 C 
ATOM      4  O   UNL     1       1.925  -1.677   1.240  1.00  0.00    -0.246 OA
BRANCH   3   5
ATOM      5  C   UNL     1       3.555  -0.038   1.574  1.00  0.00     0.060 A 
ATOM      6  C   UNL     1       4.895   0.312   1.404  1.00  0.00     0.016 A 
ATOM      7  C   UNL     1       2.873   0.484   2.687  1.00  0.00     0.016 A 
ATOM      8  C   UNL     1       5.513   1.225   2.265  1.00  0.00     0.010 A 
ATOM      9  C   UNL     1       3.482   1.402   3.549  1.00  0.00     0.010 A 
ATOM     10  C   UNL     1       4.814   1.772   3.345  1.00  0.00    -0.014 A 
BRANCH  10  11
ATOM     11  C   UNL     1       5.550   2.565   4.356  1.00  0.00     0.031 A 
ATOM     12  C   UNL     1       5.975   1.879   5.622  1.00  0.00     0.074 A 
ATOM     13  C   UNL     1       5.889   3.845   4.120  1.00  0.00     0.049 A 
ATOM     14  N   UNL     1       6.727   2.322   6.593  1.00  0.00    -0.248 NA
ATOM     15  C   UNL     1       5.500   0.498   5.806  1.00  0.00     0.031 C 
ATOM     16  C   UNL     1       5.562   4.593   2.908  1.00  0.00     0.029 A 
ATOM     17  N   UNL     1       6.588   4.744   4.885  1.00  0.00    -0.354 N 
ATOM     18  C   UNL     1       6.853   1.261   7.481  1.00  0.00     0.074 A 
ATOM     19  C   UNL     1       6.027   0.186   6.978  1.00  0.00     0.031 C 
ATOM     20  C   UNL     1       6.029   5.848   3.023  1.00  0.00     0.029 A 
ATOM     21  C   UNL     1       6.703   5.989   4.310  1.00  0.00     0.049 A 
ATOM     22  H   UNL     1       6.971   4.519   5.763  1.00  0.00     0.167 HD
ATOM     23  C   UNL     1       7.623   1.175   8.593  1.00  0.00     0.034 A 
ATOM     24  C   UNL     1       7.298   7.108   4.770  1.00  0.00     0.034 A 
ATOM     25  C   UNL     1       8.401   2.275   9.103  1.00  0.00     0.049 A 
ATOM     26  C   UNL     1       8.046   7.032   6.078  1.00  0.00     0.074 A 
ATOM     27  C   UNL     1       9.200   2.325  10.230  1.00  0.00     0.029 A 
ATOM     28  N   UNL     1       8.456   3.537   8.520  1.00  0.00    -0.354 N 
ATOM     29  N   UNL     1       8.208   6.002   6.879  1.00  0.00    -0.248 NA
ATOM     30  C   UNL     1       8.723   8.255   6.524  1.00  0.00     0.031 C 
ATOM     31  C   UNL     1       9.689   3.631  10.360  1.00  0.00     0.029 A 
ATOM     32  C   UNL     1       9.250   4.380   9.279  1.00  0.00     0.049 A 
ATOM     33  H   UNL     1       7.996   3.794   7.688  1.00  0.00     0.167 HD
ATOM     34  C   UNL     1       9.053   6.441   7.895  1.00  0.00     0.074 A 
ATOM     35  C   UNL     1       9.361   7.828   7.604  1.00  0.00     0.031 C 
ATOM     36  C   UNL     1       9.544   5.758   8.961  1.00  0.00     0.034 A 
BRANCH  23  37
ATOM     37  C   UNL     1       7.599  -0.143   9.325  1.00  0.00     0.023 A 
ATOM     38  C   UNL     1       8.061  -1.325   8.713  1.00  0.00     0.031 A 
ATOM     39  C   UNL     1       7.012  -0.247  10.596  1.00  0.00     0.131 A 
ATOM     40  C   UNL     1       7.837  -2.566   9.327  1.00  0.00     0.055 A 
ATOM     41  C   UNL     1       6.868  -1.478  11.240  1.00  0.00     0.041 A 
ATOM     42  F   UNL     1       6.530   0.841  11.217  1.00  0.00    -0.206 F 
ATOM     43  C   UNL     1       7.263  -2.649  10.597  1.00  0.00     0.022 A 
BRANCH  40  44
ATOM     44  S   UNL     1       8.142  -4.075   8.366  1.00  0.00     0.124 S 
ATOM     45  O   UNL     1       7.244  -3.886   7.228  1.00  0.00    -0.237 OA
ATOM     46  O   UNL     1       9.568  -3.983   8.076  1.00  0.00    -0.237 OA
ATOM     47  O   UNL     1       7.758  -5.147   9.281  1.00  0.00    -0.744 OA
ENDBRANCH  40  44
ENDBRANCH  23  37
BRANCH  24  48
ATOM     48  C   UNL     1       7.227   8.383   3.999  1.00  0.00     0.023 A 
ATOM     49  C   UNL     1       8.375   8.975   3.449  1.00  0.00     0.031 A 
ATOM     50  C   UNL     1       6.002   9.058   3.848  1.00  0.00     0.131 A 
ATOM     51  C   UNL     1       8.283  10.224   2.812  1.00  0.00     0.055 A 
ATOM     52  C   UNL     1       5.909  10.280   3.178  1.00  0.00     0.041 A 
ATOM     53  F   UNL     1       4.874   8.537   4.353  1.00  0.00    -0.206 F 
ATOM     54  C   UNL     1       7.057  10.876   2.666  1.00  0.00     0.022 A 
BRANCH  51  55
ATOM     55  S   UNL     1       9.807  11.023   2.236  1.00  0.00     0.124 S 
ATOM     56  O   UNL     1      10.598  11.080   3.460  1.00  0.00    -0.237 OA
ATOM     57  O   UNL     1      10.270  10.088   1.216  1.00  0.00    -0.237 OA
ATOM     58  O   UNL     1       9.346  12.315   1.730  1.00  0.00    -0.744 OA
ENDBRANCH  51  55
ENDBRANCH  24  48
BRANCH  36  59
ATOM     59  C   UNL     1      10.519   6.494   9.846  1.00  0.00     0.023 A 
ATOM     60  C   UNL     1      10.123   7.582  10.640  1.00  0.00     0.031 A 
ATOM     61  C   UNL     1      11.870   6.105   9.876  1.00  0.00     0.131 A 
ATOM     62  C   UNL     1      11.082   8.285  11.386  1.00  0.00     0.055 A 
ATOM     63  C   UNL     1      12.807   6.769  10.666  1.00  0.00     0.041 A 
ATOM     64  F   UNL     1      12.300   5.071   9.134  1.00  0.00    -0.206 F 
ATOM     65  C   UNL     1      12.418   7.875  11.416  1.00  0.00     0.022 A 
BRANCH  62  66
ATOM     66  S   UNL     1      10.576   9.802  12.240  1.00  0.00     0.124 S 
ATOM     67  O   UNL     1      10.068  10.615  11.140  1.00  0.00    -0.237 OA
ATOM     68  O   UNL     1       9.577   9.310  13.184  1.00  0.00    -0.237 OA
ATOM     69  O   UNL     1      11.816  10.283  12.846  1.00  0.00    -0.744 OA
ENDBRANCH  62  66
ENDBRANCH  36  59
ENDBRANCH  10  11
ENDBRANCH   3   5
ENDBRANCH   2   3
ENDBRANCH   1   2
BRANCH   1  70
ATOM     70  C   UNL     1       3.618   0.997  -1.960  1.00  0.00     0.275 C 
BRANCH  70  71
ATOM     71  O   UNL     1       3.262   1.883  -0.892  1.00  0.00    -0.458 OA
BRANCH  71  72
ATOM     72  C   UNL     1       1.931   2.101  -0.735  1.00  0.00     0.338 C 
ATOM     73  O   UNL     1       1.022   1.613  -1.384  1.00  0.00    -0.246 OA
BRANCH  72  74
ATOM     74  C   UNL     1       1.724   2.981   0.430  1.00  0.00     0.062 A 
ATOM     75  C   UNL     1       2.439   4.177   0.556  1.00  0.00     0.016 A 
ATOM     76  C   UNL     1       0.830   2.571   1.430  1.00  0.00     0.045 A 
ATOM     77  C   UNL     1       2.267   4.959   1.696  1.00  0.00     0.017 A 
ATOM     78  C   UNL     1       0.716   3.305   2.613  1.00  0.00     0.081 A 
ATOM     79  C   UNL     1       1.425   4.506   2.717  1.00  0.00     0.066 A 
ATOM     80  N   UNL     1      -0.044   2.780   3.679  1.00  0.00    -0.214 NA
ATOM     81  C   UNL     1       1.278   5.268   3.962  1.00  0.00     0.260 A 
ATOM     82  C   UNL     1      -0.104   3.459   4.782  1.00  0.00     0.206 A 
ATOM     83  O   UNL     1       1.761   6.383   4.105  1.00  0.00    -0.269 OA
ATOM     84  N   UNL     1       0.536   4.657   4.932  1.00  0.00    -0.292 N 
ATOM     85  H   UNL     1       0.456   5.112   5.801  1.00  0.00     0.173 HD
BRANCH  82  86
ATOM     86  N   UNL     1      -0.795   3.054   5.888  1.00  0.00    -0.331 N 
ATOM     87  C   UNL     1      -0.568   1.750   6.514  1.00  0.00     0.181 C 
ATOM     88  C   UNL     1      -2.017   3.739   6.310  1.00  0.00     0.181 C 
ATOM     89  C   UNL     1      -0.656   1.898   8.054  1.00  0.00     0.282 C 
ATOM     90  C   UNL     1      -2.062   3.842   7.846  1.00  0.00     0.282 C 
ATOM     91  N   UNL     1      -1.910   2.538   8.523  1.00  0.00    -0.343 N 
ATOM     92  H   UNL     1      -1.867   2.678   9.532  1.00  0.00     0.346 HD
ATOM     93  H   UNL     1      -2.706   1.939   8.304  1.00  0.00     0.346 HD
ENDBRANCH  82  86
ENDBRANCH  72  74
ENDBRANCH  71  72
ENDBRANCH  70  71
ENDBRANCH   1  70
TORSDOF 15
