REMARK SMILES CC[C@@H](C)C[C@@H](C)NC(=O)NC1(CC(=O)OCCOC(=O)c2ccc(-c3c4nc(c(-c5cc(S(=O)(=O)[O-])ccc5F)c5ccc([nH]5)c(-c5cc(S(=O)(=O)[O-])ccc5F)c5nc(c(-c6cc(S(=O)(=O)[O-])ccc6F)c6ccc3[nH]6)C=C5)C=C4)cc2)CCC1
REMARK SMILES IDX 16 1 14 2 15 3 13 4 12 5 85 6 87 7 86 8 11 9 8 10 9 11 10 13
REMARK SMILES IDX 6 15 7 16 5 17 3 18 4 19 2 20 1 21 17 22 18 23 19 24 20 25
REMARK SMILES IDX 21 26 22 27 23 28 84 29 24 30 83 31 25 32 26 33 27 34 77 35
REMARK SMILES IDX 28 36 82 37 76 38 78 39 29 40 81 41 75 42 74 43 30 45 62 46
REMARK SMILES IDX 42 47 61 48 43 49 46 50 60 51 79 52 44 53 45 54 59 56 80 57
REMARK SMILES IDX 47 58 31 59 32 60 40 61 33 62 39 63 41 64 38 65 34 66 35 67
REMARK SMILES IDX 36 68 37 69 63 70 64 71 72 72 65 73 71 74 73 75 70 76 66 77
REMARK SMILES IDX 67 78 68 79 69 80 48 81 49 82 57 83 50 84 56 85 58 86 55 87
REMARK SMILES IDX 51 88 52 89 53 90 54 91
REMARK H PARENT 8 12 11 14 78 44 46 55
REMARK Flexibility Score: inf
ROOT
ATOM      1  O   UNL     1      -3.096  -0.834   4.117  1.00  0.00    -0.462 OA
ENDROOT
BRANCH   1   2
ATOM      2  C   UNL     1      -2.445   0.059   3.334  1.00  0.00     0.308 C 
ATOM      3  O   UNL     1      -3.001   0.906   2.641  1.00  0.00    -0.252 OA
BRANCH   2   4
ATOM      4  C   UNL     1      -0.961  -0.169   3.262  1.00  0.00     0.151 C 
BRANCH   4   5
ATOM      5  C   UNL     1      -0.172  -0.533   4.518  1.00  0.00     0.052 C 
ATOM      6  C   UNL     1       1.280  -1.109   4.315  1.00  0.00     0.029 C 
ATOM      7  C   UNL     1      -0.489  -1.956   5.119  1.00  0.00     0.029 C 
ATOM      8  C   UNL     1       0.675  -2.517   4.289  1.00  0.00     0.005 C 
BRANCH   5   9
ATOM      9  N   UNL     1      -0.250   0.521   5.548  1.00  0.00    -0.332 N 
ATOM     10  N   UNL     1       0.993   2.441   4.862  1.00  0.00    -0.336 N 
ATOM     11  C   UNL     1       0.264   1.748   5.740  1.00  0.00     0.315 C 
ATOM     12  H   UNL     1       1.128   3.371   5.156  1.00  0.00     0.165 HD
ATOM     13  O   UNL     1      -0.001   2.308   6.807  1.00  0.00    -0.249 OA
ATOM     14  H   UNL     1      -0.835   0.255   6.294  1.00  0.00     0.165 HD
BRANCH  10  15
ATOM     15  C   UNL     1       1.642   2.182   3.582  1.00  0.00     0.081 C 
ATOM     16  C   UNL     1       3.131   2.498   3.718  1.00  0.00     0.031 C 
BRANCH  15  17
ATOM     17  C   UNL     1       0.987   2.988   2.439  1.00  0.00     0.028 C 
BRANCH  17  18
ATOM     18  C   UNL     1       1.391   2.545   1.003  1.00  0.00    -0.013 C 
ATOM     19  C   UNL     1       0.796   3.531  -0.010  1.00  0.00     0.008 C 
BRANCH  18  20
ATOM     20  C   UNL     1       0.937   1.106   0.681  1.00  0.00    -0.000 C 
ATOM     21  C   UNL     1       1.456   0.550  -0.636  1.00  0.00     0.004 C 
ENDBRANCH  18  20
ENDBRANCH  17  18
ENDBRANCH  15  17
ENDBRANCH  10  15
ENDBRANCH   5   9
ENDBRANCH   4   5
ENDBRANCH   2   4
ENDBRANCH   1   2
BRANCH   1  22
ATOM     22  C   UNL     1      -4.534  -0.744   4.112  1.00  0.00     0.274 C 
BRANCH  22  23
ATOM     23  C   UNL     1      -5.062  -0.024   5.350  1.00  0.00     0.275 C 
BRANCH  23  24
ATOM     24  O   UNL     1      -4.643   1.350   5.379  1.00  0.00    -0.458 OA
BRANCH  24  25
ATOM     25  C   UNL     1      -3.552   1.592   6.145  1.00  0.00     0.338 C 
ATOM     26  O   UNL     1      -2.919   0.775   6.793  1.00  0.00    -0.246 OA
BRANCH  25  27
ATOM     27  C   UNL     1      -3.203   3.018   6.056  1.00  0.00     0.060 A 
ATOM     28  C   UNL     1      -2.372   3.450   5.022  1.00  0.00     0.016 A 
ATOM     29  C   UNL     1      -3.576   3.892   7.077  1.00  0.00     0.016 A 
ATOM     30  C   UNL     1      -1.828   4.735   5.062  1.00  0.00     0.010 A 
ATOM     31  C   UNL     1      -3.090   5.204   7.069  1.00  0.00     0.010 A 
ATOM     32  C   UNL     1      -2.176   5.628   6.086  1.00  0.00    -0.014 A 
BRANCH  32  33
ATOM     33  C   UNL     1      -1.555   6.982   6.165  1.00  0.00     0.031 A 
ATOM     34  C   UNL     1      -0.741   7.375   7.374  1.00  0.00     0.074 A 
ATOM     35  C   UNL     1      -1.720   7.869   5.164  1.00  0.00     0.049 A 
ATOM     36  N   UNL     1      -0.290   8.554   7.724  1.00  0.00    -0.248 NA
ATOM     37  C   UNL     1      -0.407   6.300   8.318  1.00  0.00     0.031 C 
ATOM     38  C   UNL     1      -2.437   7.612   3.914  1.00  0.00     0.029 A 
ATOM     39  N   UNL     1      -1.300   9.172   5.042  1.00  0.00    -0.354 N 
ATOM     40  C   UNL     1       0.336   8.375   8.955  1.00  0.00     0.074 A 
ATOM     41  C   UNL     1       0.190   6.973   9.292  1.00  0.00     0.031 C 
ATOM     42  C   UNL     1      -2.391   8.711   3.147  1.00  0.00     0.029 A 
ATOM     43  C   UNL     1      -1.717   9.777   3.880  1.00  0.00     0.049 A 
ATOM     44  H   UNL     1      -0.753   9.628   5.722  1.00  0.00     0.167 HD
ATOM     45  C   UNL     1       0.970   9.293   9.729  1.00  0.00     0.034 A 
ATOM     46  C   UNL     1      -1.615  11.056   3.466  1.00  0.00     0.034 A 
ATOM     47  C   UNL     1       1.145  10.680   9.359  1.00  0.00     0.049 A 
ATOM     48  C   UNL     1      -0.953  12.069   4.359  1.00  0.00     0.074 A 
ATOM     49  C   UNL     1       1.798  11.684  10.057  1.00  0.00     0.029 A 
ATOM     50  N   UNL     1       0.672  11.261   8.189  1.00  0.00    -0.354 N 
ATOM     51  N   UNL     1      -0.422  11.901   5.548  1.00  0.00    -0.248 NA
ATOM     52  C   UNL     1      -0.886  13.448   3.858  1.00  0.00     0.031 C 
ATOM     53  C   UNL     1       1.670  12.879   9.338  1.00  0.00     0.029 A 
ATOM     54  C   UNL     1       0.998  12.611   8.158  1.00  0.00     0.049 A 
ATOM     55  H   UNL     1       0.178  10.784   7.484  1.00  0.00     0.167 HD
ATOM     56  C   UNL     1       0.055  13.152   5.929  1.00  0.00     0.074 A 
ATOM     57  C   UNL     1      -0.237  14.059   4.838  1.00  0.00     0.031 C 
ATOM     58  C   UNL     1       0.682  13.514   7.077  1.00  0.00     0.034 A 
BRANCH  45  59
ATOM     59  C   UNL     1       1.467   8.839  11.082  1.00  0.00     0.023 A 
ATOM     60  C   UNL     1       2.486   7.881  11.226  1.00  0.00     0.031 A 
ATOM     61  C   UNL     1       0.889   9.363  12.254  1.00  0.00     0.131 A 
ATOM     62  C   UNL     1       2.846   7.427  12.505  1.00  0.00     0.055 A 
ATOM     63  C   UNL     1       1.303   8.962  13.525  1.00  0.00     0.041 A 
ATOM     64  F   UNL     1      -0.099  10.269  12.182  1.00  0.00    -0.206 F 
ATOM     65  C   UNL     1       2.277   7.977  13.656  1.00  0.00     0.022 A 
BRANCH  62  66
ATOM     66  S   UNL     1       3.974   6.012  12.643  1.00  0.00     0.124 S 
ATOM     67  O   UNL     1       3.259   4.988  11.887  1.00  0.00    -0.237 OA
ATOM     68  O   UNL     1       5.196   6.523  12.032  1.00  0.00    -0.237 OA
ATOM     69  O   UNL     1       4.050   5.773  14.083  1.00  0.00    -0.744 OA
ENDBRANCH  62  66
ENDBRANCH  45  59
BRANCH  46  70
ATOM     70  C   UNL     1      -2.214  11.467   2.166  1.00  0.00     0.023 A 
ATOM     71  C   UNL     1      -1.407  11.888   1.098  1.00  0.00     0.031 A 
ATOM     72  C   UNL     1      -3.609  11.465   1.983  1.00  0.00     0.131 A 
ATOM     73  C   UNL     1      -2.003  12.316  -0.098  1.00  0.00     0.055 A 
ATOM     74  C   UNL     1      -4.194  11.847   0.776  1.00  0.00     0.041 A 
ATOM     75  F   UNL     1      -4.423  11.069   2.975  1.00  0.00    -0.206 F 
ATOM     76  C   UNL     1      -3.389  12.284  -0.271  1.00  0.00     0.022 A 
BRANCH  73  77
ATOM     77  S   UNL     1      -0.939  12.970  -1.413  1.00  0.00     0.124 S 
ATOM     78  O   UNL     1      -0.324  14.117  -0.756  1.00  0.00    -0.237 OA
ATOM     79  O   UNL     1      -0.059  11.838  -1.684  1.00  0.00    -0.237 OA
ATOM     80  O   UNL     1      -1.880  13.293  -2.483  1.00  0.00    -0.744 OA
ENDBRANCH  73  77
ENDBRANCH  46  70
BRANCH  58  81
ATOM     81  C   UNL     1       1.129  14.952   7.181  1.00  0.00     0.023 A 
ATOM     82  C   UNL     1       0.207  16.008   7.296  1.00  0.00     0.031 A 
ATOM     83  C   UNL     1       2.498  15.270   7.134  1.00  0.00     0.131 A 
ATOM     84  C   UNL     1       0.663  17.335   7.305  1.00  0.00     0.055 A 
ATOM     85  C   UNL     1       2.948  16.590   7.196  1.00  0.00     0.041 A 
ATOM     86  F   UNL     1       3.421  14.301   7.020  1.00  0.00    -0.206 F 
ATOM     87  C   UNL     1       2.028  17.632   7.269  1.00  0.00     0.022 A 
BRANCH  84  88
ATOM     88  S   UNL     1      -0.556  18.679   7.276  1.00  0.00     0.124 S 
ATOM     89  O   UNL     1      -1.290  18.396   6.046  1.00  0.00    -0.237 OA
ATOM     90  O   UNL     1      -1.288  18.464   8.520  1.00  0.00    -0.237 OA
ATOM     91  O   UNL     1       0.265  19.888   7.242  1.00  0.00    -0.744 OA
ENDBRANCH  84  88
ENDBRANCH  58  81
ENDBRANCH  32  33
ENDBRANCH  25  27
ENDBRANCH  24  25
ENDBRANCH  23  24
ENDBRANCH  22  23
ENDBRANCH   1  22
TORSDOF 20
