REMARK SMILES CCOc1cnc(C(=O)c2[nH]c3cc(Cl)ccc3c2CC(=O)OCCOC(=O)c2ccc(-c3c4nc(c(-c5cc(S(=O)(=O)[O-])ccc5F)c5ccc([nH]5)c(-c5cc(S(=O)(=O)[O-])ccc5F)c5nc(c(-c6cc(S(=O)(=O)[O-])ccc6F)c6ccc3[nH]6)C=C5)C=C4)cc2)cc1CC
REMARK SMILES IDX 24 1 23 2 21 3 22 4 20 5 19 6 10 7 11 8 12 9 18 11 13 12
REMARK SMILES IDX 17 13 14 14 16 15 15 16 8 17 9 18 7 19 4 20 5 21 93 22 6 23
REMARK SMILES IDX 92 24 3 25 2 26 1 27 94 28 95 29 25 30 26 31 27 32 28 33
REMARK SMILES IDX 29 34 30 35 91 36 31 37 90 38 32 39 33 40 34 41 84 42 35 43
REMARK SMILES IDX 89 44 83 45 85 46 36 47 88 48 82 49 81 50 37 52 69 53 49 54
REMARK SMILES IDX 68 55 50 56 53 57 67 58 86 59 51 60 52 61 66 63 87 64 54 65
REMARK SMILES IDX 38 66 39 67 47 68 40 69 46 70 48 71 45 72 41 73 42 74 43 75
REMARK SMILES IDX 44 76 70 77 71 78 79 79 72 80 78 81 80 82 77 83 73 84 74 85
REMARK SMILES IDX 75 86 76 87 55 88 56 89 64 90 57 91 63 92 65 93 62 94 58 95
REMARK SMILES IDX 59 96 60 97 61 98
REMARK H PARENT 11 10 85 51 53 62
REMARK Flexibility Score: inf
ROOT
ATOM      1  C   UNL     1      10.645   5.080   1.776  1.00  0.00     0.274 C 
ENDROOT
BRANCH   1   2
ATOM      2  O   UNL     1      10.049   3.953   1.096  1.00  0.00    -0.462 OA
BRANCH   2   3
ATOM      3  C   UNL     1       9.736   2.881   1.867  1.00  0.00     0.310 C 
ATOM      4  O   UNL     1      10.101   2.750   3.034  1.00  0.00    -0.252 OA
BRANCH   3   5
ATOM      5  C   UNL     1       8.780   1.891   1.234  1.00  0.00     0.161 C 
BRANCH   5   6
ATOM      6  C   UNL     1       8.678   1.839  -0.261  1.00  0.00     0.000 A 
ATOM      7  C   UNL     1       7.789   2.523  -1.090  1.00  0.00     0.093 A 
ATOM      8  N   UNL     1       8.076   2.157  -2.383  1.00  0.00    -0.351 N 
ATOM      9  C   UNL     1       8.901   1.064  -2.398  1.00  0.00     0.048 A 
ATOM     10  H   UNL     1       7.736   2.616  -3.186  1.00  0.00     0.167 HD
ATOM     11  C   UNL     1       9.365   0.891  -1.096  1.00  0.00     0.004 A 
ATOM     12  C   UNL     1       9.253   0.220  -3.457  1.00  0.00     0.047 A 
ATOM     13  C   UNL     1      10.282  -0.153  -0.848  1.00  0.00     0.012 A 
ATOM     14  C   UNL     1      10.127  -0.830  -3.171  1.00  0.00     0.043 A 
ATOM     15  C   UNL     1      10.651  -1.010  -1.894  1.00  0.00     0.021 A 
ATOM     16  Cl  UNL     1      10.556  -1.927  -4.428  1.00  0.00    -0.084 Cl
BRANCH   7  17
ATOM     17  C   UNL     1       6.671   3.428  -0.843  1.00  0.00     0.227 C 
ATOM     18  O   UNL     1       6.673   4.568  -1.304  1.00  0.00    -0.285 OA
BRANCH  17  19
ATOM     19  C   UNL     1       5.378   2.826  -0.333  1.00  0.00     0.113 A 
ATOM     20  C   UNL     1       2.791   1.925  -0.148  1.00  0.00     0.140 A 
ATOM     21  C   UNL     1       3.173   3.203   0.245  1.00  0.00     0.158 A 
ATOM     22  C   UNL     1       3.758   1.065  -0.658  1.00  0.00    -0.002 A 
ATOM     23  N   UNL     1       4.441   3.680   0.155  1.00  0.00    -0.249 NA
ATOM     24  C   UNL     1       5.086   1.504  -0.679  1.00  0.00     0.040 A 
BRANCH  20  25
ATOM     25  O   UNL     1       1.476   1.587  -0.223  1.00  0.00    -0.492 OA
BRANCH  25  26
ATOM     26  C   UNL     1       0.939   1.124   1.021  1.00  0.00     0.226 C 
ATOM     27  C   UNL     1       0.441  -0.301   0.854  1.00  0.00     0.049 C 
ENDBRANCH  25  26
ENDBRANCH  20  25
BRANCH  22  28
ATOM     28  C   UNL     1       3.398  -0.233  -1.340  1.00  0.00     0.036 C 
ATOM     29  C   UNL     1       3.651  -0.148  -2.842  1.00  0.00     0.009 C 
ENDBRANCH  22  28
ENDBRANCH  17  19
ENDBRANCH   7  17
ENDBRANCH   5   6
ENDBRANCH   3   5
ENDBRANCH   2   3
ENDBRANCH   1   2
BRANCH   1  30
ATOM     30  C   UNL     1       9.641   6.231   1.964  1.00  0.00     0.275 C 
BRANCH  30  31
ATOM     31  O   UNL     1       8.635   5.957   2.965  1.00  0.00    -0.458 OA
BRANCH  31  32
ATOM     32  C   UNL     1       7.602   5.231   2.490  1.00  0.00     0.338 C 
ATOM     33  O   UNL     1       7.508   4.769   1.364  1.00  0.00    -0.246 OA
BRANCH  32  34
ATOM     34  C   UNL     1       6.586   4.903   3.484  1.00  0.00     0.060 A 
ATOM     35  C   UNL     1       6.450   3.556   3.829  1.00  0.00     0.016 A 
ATOM     36  C   UNL     1       5.621   5.839   3.854  1.00  0.00     0.016 A 
ATOM     37  C   UNL     1       5.314   3.127   4.500  1.00  0.00     0.010 A 
ATOM     38  C   UNL     1       4.507   5.413   4.584  1.00  0.00     0.010 A 
ATOM     39  C   UNL     1       4.338   4.052   4.893  1.00  0.00    -0.014 A 
BRANCH  39  40
ATOM     40  C   UNL     1       3.182   3.576   5.687  1.00  0.00     0.031 A 
ATOM     41  C   UNL     1       1.800   3.529   5.106  1.00  0.00     0.074 A 
ATOM     42  C   UNL     1       3.413   3.155   6.945  1.00  0.00     0.049 A 
ATOM     43  N   UNL     1       0.688   3.125   5.664  1.00  0.00    -0.248 NA
ATOM     44  C   UNL     1       1.644   3.984   3.717  1.00  0.00     0.031 C 
ATOM     45  C   UNL     1       4.726   3.138   7.597  1.00  0.00     0.029 A 
ATOM     46  N   UNL     1       2.561   2.664   7.898  1.00  0.00    -0.354 N 
ATOM     47  C   UNL     1      -0.302   3.276   4.700  1.00  0.00     0.074 A 
ATOM     48  C   UNL     1       0.341   3.823   3.523  1.00  0.00     0.031 C 
ATOM     49  C   UNL     1       4.590   2.660   8.842  1.00  0.00     0.029 A 
ATOM     50  C   UNL     1       3.180   2.396   9.095  1.00  0.00     0.049 A 
ATOM     51  H   UNL     1       1.600   2.518   7.741  1.00  0.00     0.167 HD
ATOM     52  C   UNL     1      -1.623   2.988   4.796  1.00  0.00     0.034 A 
ATOM     53  C   UNL     1       2.663   2.019  10.279  1.00  0.00     0.034 A 
ATOM     54  C   UNL     1      -2.255   2.481   5.986  1.00  0.00     0.049 A 
ATOM     55  C   UNL     1       1.182   1.795  10.379  1.00  0.00     0.074 A 
ATOM     56  C   UNL     1      -3.583   2.144   6.181  1.00  0.00     0.029 A 
ATOM     57  N   UNL     1      -1.608   2.266   7.195  1.00  0.00    -0.354 N 
ATOM     58  N   UNL     1       0.267   1.902   9.443  1.00  0.00    -0.248 NA
ATOM     59  C   UNL     1       0.663   1.399  11.693  1.00  0.00     0.031 C 
ATOM     60  C   UNL     1      -3.749   1.780   7.524  1.00  0.00     0.029 A 
ATOM     61  C   UNL     1      -2.515   1.842   8.153  1.00  0.00     0.049 A 
ATOM     62  H   UNL     1      -0.644   2.395   7.350  1.00  0.00     0.167 HD
ATOM     63  C   UNL     1      -0.937   1.574  10.055  1.00  0.00     0.074 A 
ATOM     64  C   UNL     1      -0.627   1.248  11.433  1.00  0.00     0.031 C 
ATOM     65  C   UNL     1      -2.187   1.542   9.526  1.00  0.00     0.034 A 
BRANCH  52  66
ATOM     66  C   UNL     1      -2.478   3.273   3.593  1.00  0.00     0.023 A 
ATOM     67  C   UNL     1      -2.477   2.420   2.478  1.00  0.00     0.031 A 
ATOM     68  C   UNL     1      -3.291   4.418   3.556  1.00  0.00     0.131 A 
ATOM     69  C   UNL     1      -3.220   2.764   1.339  1.00  0.00     0.055 A 
ATOM     70  C   UNL     1      -4.077   4.723   2.444  1.00  0.00     0.041 A 
ATOM     71  F   UNL     1      -3.321   5.264   4.598  1.00  0.00    -0.206 F 
ATOM     72  C   UNL     1      -4.036   3.900   1.323  1.00  0.00     0.022 A 
BRANCH  69  73
ATOM     73  S   UNL     1      -3.097   1.752  -0.160  1.00  0.00     0.124 S 
ATOM     74  O   UNL     1      -1.974   2.390  -0.841  1.00  0.00    -0.237 OA
ATOM     75  O   UNL     1      -2.842   0.414   0.362  1.00  0.00    -0.237 OA
ATOM     76  O   UNL     1      -4.400   1.935  -0.794  1.00  0.00    -0.744 OA
ENDBRANCH  69  73
ENDBRANCH  52  66
BRANCH  53  77
ATOM     77  C   UNL     1       3.550   1.901  11.467  1.00  0.00     0.023 A 
ATOM     78  C   UNL     1       3.787   0.664  12.081  1.00  0.00     0.031 A 
ATOM     79  C   UNL     1       4.173   3.042  12.007  1.00  0.00     0.131 A 
ATOM     80  C   UNL     1       4.608   0.598  13.217  1.00  0.00     0.055 A 
ATOM     81  C   UNL     1       5.024   2.965  13.109  1.00  0.00     0.041 A 
ATOM     82  F   UNL     1       3.982   4.249  11.450  1.00  0.00    -0.206 F 
ATOM     83  C   UNL     1       5.237   1.737  13.727  1.00  0.00     0.022 A 
BRANCH  80  84
ATOM     84  S   UNL     1       4.798  -0.996  14.059  1.00  0.00     0.124 S 
ATOM     85  O   UNL     1       3.413  -1.337  14.369  1.00  0.00    -0.237 OA
ATOM     86  O   UNL     1       5.443  -1.806  13.031  1.00  0.00    -0.237 OA
ATOM     87  O   UNL     1       5.635  -0.674  15.213  1.00  0.00    -0.744 OA
ENDBRANCH  80  84
ENDBRANCH  53  77
BRANCH  65  88
ATOM     88  C   UNL     1      -3.295   1.118  10.451  1.00  0.00     0.023 A 
ATOM     89  C   UNL     1      -3.721   1.944  11.505  1.00  0.00     0.031 A 
ATOM     90  C   UNL     1      -3.905  -0.138  10.296  1.00  0.00     0.131 A 
ATOM     91  C   UNL     1      -4.694   1.480  12.400  1.00  0.00     0.055 A 
ATOM     92  C   UNL     1      -4.909  -0.573  11.161  1.00  0.00     0.041 A 
ATOM     93  F   UNL     1      -3.530  -0.963   9.306  1.00  0.00    -0.206 F 
ATOM     94  C   UNL     1      -5.300   0.233  12.228  1.00  0.00     0.022 A 
BRANCH  91  95
ATOM     95  S   UNL     1      -5.096   2.497  13.847  1.00  0.00     0.124 S 
ATOM     96  O   UNL     1      -3.801   2.605  14.512  1.00  0.00    -0.237 OA
ATOM     97  O   UNL     1      -5.604   3.721  13.237  1.00  0.00    -0.237 OA
ATOM     98  O   UNL     1      -6.093   1.700  14.559  1.00  0.00    -0.744 OA
ENDBRANCH  91  95
ENDBRANCH  65  88
ENDBRANCH  39  40
ENDBRANCH  32  34
ENDBRANCH  31  32
ENDBRANCH  30  31
ENDBRANCH   1  30
TORSDOF 20
