REMARK SMILES O=C(OCCOC(=O)[C@@H]1C[C@@H]2CC[C@H]1N2C(=O)c1ccncc1Cl)c1ccc(-c2c3nc(c(-c4cc(S(=O)(=O)[O-])ccc4F)c4ccc([nH]4)c(-c4cc(S(=O)(=O)[O-])ccc4F)c4nc(c(-c5cc(S(=O)(=O)[O-])ccc5F)c5ccc2[nH]5)C=C4)C=C3)cc1
REMARK SMILES IDX 4 1 3 2 2 3 1 4 25 5 26 6 87 7 27 8 86 9 28 10 29 11 30 12
REMARK SMILES IDX 80 13 31 14 85 15 79 16 81 17 32 18 84 19 78 20 77 21 33 23
REMARK SMILES IDX 65 24 45 25 64 26 46 27 49 28 63 29 82 30 47 31 48 32 62 34
REMARK SMILES IDX 83 35 50 36 34 37 35 38 43 39 36 40 42 41 44 42 41 43 37 44
REMARK SMILES IDX 38 45 39 46 40 47 66 48 67 49 75 50 68 51 74 52 76 53 73 54
REMARK SMILES IDX 69 55 70 56 71 57 72 58 51 59 52 60 60 61 53 62 59 63 61 64
REMARK SMILES IDX 58 65 54 66 55 67 56 68 57 69 5 70 6 71 7 72 8 73 9 74 10 75
REMARK SMILES IDX 14 76 11 77 13 78 15 79 12 80 16 81 17 82 18 83 19 84 23 85
REMARK SMILES IDX 20 86 22 87 24 88 21 89
REMARK H PARENT 81 22 49 33
REMARK Flexibility Score: inf
ROOT
ATOM      1  C   UNL     1       4.636  -1.366   0.594  1.00  0.00     0.275 C 
ENDROOT
BRANCH   1   2
ATOM      2  O   UNL     1       3.547  -0.647   1.191  1.00  0.00    -0.458 OA
BRANCH   2   3
ATOM      3  C   UNL     1       3.373   0.695   1.280  1.00  0.00     0.338 C 
ATOM      4  O   UNL     1       2.628   1.131   2.156  1.00  0.00    -0.246 OA
BRANCH   3   5
ATOM      5  C   UNL     1       3.866   1.648   0.229  1.00  0.00     0.060 A 
ATOM      6  C   UNL     1       4.939   1.444  -0.644  1.00  0.00     0.016 A 
ATOM      7  C   UNL     1       3.127   2.836   0.080  1.00  0.00     0.016 A 
ATOM      8  C   UNL     1       5.207   2.325  -1.695  1.00  0.00     0.010 A 
ATOM      9  C   UNL     1       3.383   3.722  -0.973  1.00  0.00     0.010 A 
ATOM     10  C   UNL     1       4.430   3.466  -1.869  1.00  0.00    -0.014 A 
BRANCH  10  11
ATOM     11  C   UNL     1       4.926   4.541  -2.756  1.00  0.00     0.031 A 
ATOM     12  C   UNL     1       5.580   5.704  -2.066  1.00  0.00     0.074 A 
ATOM     13  C   UNL     1       4.856   4.466  -4.098  1.00  0.00     0.049 A 
ATOM     14  N   UNL     1       5.993   6.843  -2.548  1.00  0.00    -0.248 NA
ATOM     15  C   UNL     1       5.752   5.566  -0.609  1.00  0.00     0.031 C 
ATOM     16  C   UNL     1       4.304   3.350  -4.870  1.00  0.00     0.029 A 
ATOM     17  N   UNL     1       5.268   5.357  -5.057  1.00  0.00    -0.354 N 
ATOM     18  C   UNL     1       6.424   7.572  -1.444  1.00  0.00     0.074 A 
ATOM     19  C   UNL     1       6.153   6.776  -0.271  1.00  0.00     0.031 C 
ATOM     20  C   UNL     1       4.425   3.622  -6.185  1.00  0.00     0.029 A 
ATOM     21  C   UNL     1       5.023   4.945  -6.347  1.00  0.00     0.049 A 
ATOM     22  H   UNL     1       5.701   6.214  -4.841  1.00  0.00     0.167 HD
ATOM     23  C   UNL     1       7.016   8.789  -1.415  1.00  0.00     0.034 A 
ATOM     24  C   UNL     1       5.243   5.590  -7.512  1.00  0.00     0.034 A 
ATOM     25  C   UNL     1       7.279   9.546  -2.607  1.00  0.00     0.049 A 
ATOM     26  C   UNL     1       5.830   6.981  -7.458  1.00  0.00     0.074 A 
ATOM     27  C   UNL     1       7.849  10.797  -2.732  1.00  0.00     0.029 A 
ATOM     28  N   UNL     1       6.977   9.109  -3.893  1.00  0.00    -0.354 N 
ATOM     29  N   UNL     1       6.189   7.688  -6.410  1.00  0.00    -0.248 NA
ATOM     30  C   UNL     1       6.033   7.661  -8.744  1.00  0.00     0.031 C 
ATOM     31  C   UNL     1       7.831  11.144  -4.087  1.00  0.00     0.029 A 
ATOM     32  C   UNL     1       7.333  10.073  -4.816  1.00  0.00     0.049 A 
ATOM     33  H   UNL     1       6.570   8.240  -4.112  1.00  0.00     0.167 HD
ATOM     34  C   UNL     1       6.692   8.883  -6.913  1.00  0.00     0.074 A 
ATOM     35  C   UNL     1       6.582   8.804  -8.357  1.00  0.00     0.031 C 
ATOM     36  C   UNL     1       7.212   9.947  -6.250  1.00  0.00     0.034 A 
BRANCH  23  37
ATOM     37  C   UNL     1       7.324   9.358  -0.050  1.00  0.00     0.023 A 
ATOM     38  C   UNL     1       8.161   8.683   0.858  1.00  0.00     0.031 A 
ATOM     39  C   UNL     1       6.645  10.499   0.408  1.00  0.00     0.131 A 
ATOM     40  C   UNL     1       8.176   9.063   2.208  1.00  0.00     0.055 A 
ATOM     41  C   UNL     1       6.760  10.943   1.727  1.00  0.00     0.041 A 
ATOM     42  F   UNL     1       5.813  11.172  -0.402  1.00  0.00    -0.206 F 
ATOM     43  C   UNL     1       7.504  10.206   2.644  1.00  0.00     0.022 A 
BRANCH  40  44
ATOM     44  S   UNL     1       8.878   7.904   3.418  1.00  0.00     0.124 S 
ATOM     45  O   UNL     1       8.059   6.714   3.195  1.00  0.00    -0.237 OA
ATOM     46  O   UNL     1      10.269   7.807   2.994  1.00  0.00    -0.237 OA
ATOM     47  O   UNL     1       8.658   8.571   4.700  1.00  0.00    -0.744 OA
ENDBRANCH  40  44
ENDBRANCH  23  37
BRANCH  24  48
ATOM     48  C   UNL     1       4.844   5.001  -8.823  1.00  0.00     0.023 A 
ATOM     49  C   UNL     1       5.791   4.587  -9.774  1.00  0.00     0.031 A 
ATOM     50  C   UNL     1       3.489   4.942  -9.181  1.00  0.00     0.131 A 
ATOM     51  C   UNL     1       5.365   4.148 -11.042  1.00  0.00     0.055 A 
ATOM     52  C   UNL     1       3.069   4.469 -10.427  1.00  0.00     0.041 A 
ATOM     53  F   UNL     1       2.545   5.339  -8.312  1.00  0.00    -0.206 F 
ATOM     54  C   UNL     1       4.010   4.064 -11.365  1.00  0.00     0.022 A 
BRANCH  51  55
ATOM     55  S   UNL     1       6.607   3.756 -12.307  1.00  0.00     0.124 S 
ATOM     56  O   UNL     1       7.181   5.070 -12.569  1.00  0.00    -0.237 OA
ATOM     57  O   UNL     1       7.467   2.805 -11.611  1.00  0.00    -0.237 OA
ATOM     58  O   UNL     1       5.816   3.190 -13.398  1.00  0.00    -0.744 OA
ENDBRANCH  51  55
ENDBRANCH  24  48
BRANCH  36  59
ATOM     59  C   UNL     1       7.780  11.068  -7.079  1.00  0.00     0.023 A 
ATOM     60  C   UNL     1       6.964  11.940  -7.816  1.00  0.00     0.031 A 
ATOM     61  C   UNL     1       9.169  11.292  -7.074  1.00  0.00     0.131 A 
ATOM     62  C   UNL     1       7.550  12.987  -8.541  1.00  0.00     0.055 A 
ATOM     63  C   UNL     1       9.739  12.368  -7.749  1.00  0.00     0.041 A 
ATOM     64  F   UNL     1       9.988  10.480  -6.387  1.00  0.00    -0.206 F 
ATOM     65  C   UNL     1       8.928  13.220  -8.493  1.00  0.00     0.022 A 
BRANCH  62  66
ATOM     66  S   UNL     1       6.494  14.014  -9.598  1.00  0.00     0.124 S 
ATOM     67  O   UNL     1       5.954  13.030 -10.531  1.00  0.00    -0.237 OA
ATOM     68  O   UNL     1       5.545  14.575  -8.642  1.00  0.00    -0.237 OA
ATOM     69  O   UNL     1       7.427  14.975 -10.183  1.00  0.00    -0.744 OA
ENDBRANCH  62  66
ENDBRANCH  36  59
ENDBRANCH  10  11
ENDBRANCH   3   5
ENDBRANCH   2   3
ENDBRANCH   1   2
BRANCH   1  70
ATOM     70  C   UNL     1       4.335  -1.890  -0.818  1.00  0.00     0.274 C 
BRANCH  70  71
ATOM     71  O   UNL     1       3.720  -0.929  -1.700  1.00  0.00    -0.462 OA
BRANCH  71  72
ATOM     72  C   UNL     1       2.354  -0.891  -1.667  1.00  0.00     0.311 C 
ATOM     73  O   UNL     1       1.680  -1.617  -0.954  1.00  0.00    -0.252 OA
BRANCH  72  74
ATOM     74  C   UNL     1       1.801   0.206  -2.566  1.00  0.00     0.124 C 
ATOM     75  C   UNL     1       1.076   1.304  -1.747  1.00  0.00     0.042 C 
ATOM     76  C   UNL     1       0.693  -0.216  -3.564  1.00  0.00     0.100 C 
ATOM     77  C   UNL     1      -0.342   1.304  -2.314  1.00  0.00     0.086 C 
ATOM     78  C   UNL     1      -0.408  -1.032  -2.856  1.00  0.00     0.028 C 
ATOM     79  N   UNL     1      -0.045   1.039  -3.700  1.00  0.00    -0.332 N 
ATOM     80  C   UNL     1      -1.038   0.005  -1.897  1.00  0.00     0.027 C 
BRANCH  79  81
ATOM     81  C   UNL     1      -0.421   1.867  -4.721  1.00  0.00     0.256 C 
ATOM     82  O   UNL     1      -1.053   2.905  -4.528  1.00  0.00    -0.269 OA
BRANCH  81  83
ATOM     83  C   UNL     1      -0.011   1.576  -6.102  1.00  0.00     0.061 A 
ATOM     84  C   UNL     1       0.663   2.605  -6.767  1.00  0.00     0.035 A 
ATOM     85  C   UNL     1      -0.367   0.427  -6.802  1.00  0.00     0.072 A 
ATOM     86  C   UNL     1       0.997   2.412  -8.092  1.00  0.00     0.112 A 
ATOM     87  C   UNL     1       0.064   0.317  -8.116  1.00  0.00     0.132 A 
ATOM     88  Cl  UNL     1      -1.406  -0.802  -6.203  1.00  0.00    -0.082 Cl
ATOM     89  N   UNL     1       0.741   1.279  -8.776  1.00  0.00    -0.263 NA
ENDBRANCH  81  83
ENDBRANCH  79  81
ENDBRANCH  72  74
ENDBRANCH  71  72
ENDBRANCH  70  71
ENDBRANCH   1  70
TORSDOF 16
