REMARK SMILES COc1cc([C@@H]2CC(=O)Nc3c(C(=O)OCCOC(=O)c4ccc(-c5c6nc(c(-c7cc(S(=O)(=O)[O-])ccc7F)c7ccc([nH]7)c(-c7cc(S(=O)(=O)[O-])ccc7F)c7nc(c(-c8cc(S(=O)(=O)[O-])ccc8F)c8ccc5[nH]8)C=C7)C=C6)cc4)cn(-c4ccccc4)c32)cc(OC)c1OC
REMARK SMILES IDX 17 1 16 2 15 3 13 4 14 5 12 6 6 7 7 8 92 9 8 10 11 11 85 12
REMARK SMILES IDX 9 13 10 14 84 15 5 17 3 18 4 19 97 20 94 21 93 22 2 23 1 24
REMARK SMILES IDX 98 25 99 26 95 27 96 28 86 29 87 30 91 31 88 32 90 33 89 34
REMARK SMILES IDX 18 35 19 36 20 37 21 38 22 39 83 40 23 41 82 42 24 43 25 44
REMARK SMILES IDX 26 45 76 46 27 47 81 48 75 49 77 50 28 51 80 52 74 53 73 54
REMARK SMILES IDX 29 56 61 57 41 58 60 59 42 60 45 61 59 62 78 63 43 64 44 65
REMARK SMILES IDX 58 67 79 68 46 69 30 70 31 71 39 72 32 73 38 74 40 75 37 76
REMARK SMILES IDX 33 77 34 78 35 79 36 80 62 81 63 82 71 83 64 84 70 85 72 86
REMARK SMILES IDX 69 87 65 88 66 89 67 90 68 91 47 92 48 93 56 94 49 95 55 96
REMARK SMILES IDX 57 97 54 98 50 99 51 100 52 101 53 102
REMARK H PARENT 10 16 77 55 45 66
REMARK Flexibility Score: inf
ROOT
ATOM      1  C   UNL     1       0.496  -9.290   8.829  1.00  0.00     0.275 C 
ENDROOT
BRANCH   1   2
ATOM      2  C   UNL     1       1.637  -8.795   7.947  1.00  0.00     0.275 C 
BRANCH   2   3
ATOM      3  O   UNL     1       1.266  -7.615   7.219  1.00  0.00    -0.458 OA
BRANCH   3   4
ATOM      4  C   UNL     1       0.613  -7.834   6.040  1.00  0.00     0.341 C 
ATOM      5  O   UNL     1       0.521  -8.932   5.492  1.00  0.00    -0.246 OA
BRANCH   4   6
ATOM      6  C   UNL     1       0.017  -6.626   5.499  1.00  0.00     0.102 A 
ATOM      7  C   UNL     1      -0.326  -2.984   4.870  1.00  0.00     0.078 C 
ATOM      8  C   UNL     1       0.172  -2.487   6.245  1.00  0.00     0.115 C 
ATOM      9  C   UNL     1      -0.433  -4.479   4.929  1.00  0.00     0.055 A 
ATOM     10  C   UNL     1       1.268  -3.352   6.867  1.00  0.00     0.225 C 
ATOM     11  C   UNL     1       0.297  -5.272   5.785  1.00  0.00     0.078 A 
ATOM     12  N   UNL     1      -1.277  -5.298   4.211  1.00  0.00    -0.317 N 
ATOM     13  O   UNL     1       2.138  -2.874   7.596  1.00  0.00    -0.275 OA
ATOM     14  N   UNL     1       1.182  -4.710   6.675  1.00  0.00    -0.324 N 
ATOM     15  C   UNL     1      -1.025  -6.601   4.580  1.00  0.00     0.109 A 
ATOM     16  H   UNL     1       1.775  -5.301   7.192  1.00  0.00     0.170 HD
BRANCH   7  17
ATOM     17  C   UNL     1       0.603  -2.489   3.762  1.00  0.00    -0.031 A 
ATOM     18  C   UNL     1       1.147  -0.920   1.963  1.00  0.00     0.164 A 
ATOM     19  C   UNL     1       0.258  -1.401   2.946  1.00  0.00     0.055 A 
ATOM     20  C   UNL     1       2.418  -1.502   1.786  1.00  0.00     0.203 A 
ATOM     21  C   UNL     1       2.758  -2.597   2.605  1.00  0.00     0.164 A 
ATOM     22  C   UNL     1       1.854  -3.078   3.559  1.00  0.00     0.055 A 
BRANCH  18  23
ATOM     23  O   UNL     1       0.774   0.237   1.322  1.00  0.00    -0.493 OA
ATOM     24  C   UNL     1       0.010  -0.004   0.141  1.00  0.00     0.278 C 
ENDBRANCH  18  23
BRANCH  20  25
ATOM     25  O   UNL     1       3.390  -1.109   0.914  1.00  0.00    -0.490 OA
ATOM     26  C   UNL     1       3.157  -0.133  -0.077  1.00  0.00     0.278 C 
ENDBRANCH  20  25
BRANCH  21  27
ATOM     27  O   UNL     1       3.919  -3.332   2.606  1.00  0.00    -0.493 OA
ATOM     28  C   UNL     1       5.096  -2.734   2.088  1.00  0.00     0.278 C 
ENDBRANCH  21  27
ENDBRANCH   7  17
BRANCH  12  29
ATOM     29  C   UNL     1      -2.204  -4.907   3.227  1.00  0.00     0.045 A 
ATOM     30  C   UNL     1      -1.752  -4.212   2.103  1.00  0.00     0.026 A 
ATOM     31  C   UNL     1      -3.557  -5.212   3.386  1.00  0.00     0.026 A 
ATOM     32  C   UNL     1      -2.667  -3.772   1.151  1.00  0.00     0.002 A 
ATOM     33  C   UNL     1      -4.470  -4.750   2.437  1.00  0.00     0.002 A 
ATOM     34  C   UNL     1      -4.026  -4.027   1.326  1.00  0.00     0.000 A 
ENDBRANCH  12  29
ENDBRANCH   4   6
ENDBRANCH   3   4
ENDBRANCH   2   3
ENDBRANCH   1   2
BRANCH   1  35
ATOM     35  O   UNL     1      -0.553  -9.913   8.084  1.00  0.00    -0.458 OA
BRANCH  35  36
ATOM     36  C   UNL     1      -1.628  -9.123   7.846  1.00  0.00     0.338 C 
ATOM     37  O   UNL     1      -1.631  -7.906   7.768  1.00  0.00    -0.246 OA
BRANCH  36  38
ATOM     38  C   UNL     1      -2.858  -9.927   7.925  1.00  0.00     0.060 A 
ATOM     39  C   UNL     1      -4.060  -9.335   7.534  1.00  0.00     0.016 A 
ATOM     40  C   UNL     1      -2.842 -11.166   8.583  1.00  0.00     0.016 A 
ATOM     41  C   UNL     1      -5.251  -9.941   7.902  1.00  0.00     0.010 A 
ATOM     42  C   UNL     1      -4.032 -11.762   8.959  1.00  0.00     0.010 A 
ATOM     43  C   UNL     1      -5.235 -11.128   8.658  1.00  0.00    -0.014 A 
BRANCH  43  44
ATOM     44  C   UNL     1      -6.492 -11.855   8.839  1.00  0.00     0.031 A 
ATOM     45  C   UNL     1      -6.995 -12.306   7.518  1.00  0.00     0.074 A 
ATOM     46  C   UNL     1      -7.061 -12.203  10.017  1.00  0.00     0.049 A 
ATOM     47  N   UNL     1      -7.922 -11.743   6.816  1.00  0.00    -0.248 NA
ATOM     48  C   UNL     1      -6.210 -13.300   6.760  1.00  0.00     0.031 C 
ATOM     49  C   UNL     1      -6.490 -12.013  11.352  1.00  0.00     0.029 A 
ATOM     50  N   UNL     1      -8.235 -12.865  10.289  1.00  0.00    -0.354 N 
ATOM     51  C   UNL     1      -8.085 -12.582   5.721  1.00  0.00     0.074 A 
ATOM     52  C   UNL     1      -6.846 -13.290   5.585  1.00  0.00     0.031 C 
ATOM     53  C   UNL     1      -7.194 -12.734  12.258  1.00  0.00     0.029 A 
ATOM     54  C   UNL     1      -8.351 -13.332  11.607  1.00  0.00     0.049 A 
ATOM     55  H   UNL     1      -8.938 -13.000   9.613  1.00  0.00     0.167 HD
ATOM     56  C   UNL     1      -9.349 -12.942   5.365  1.00  0.00     0.034 A 
ATOM     57  C   UNL     1      -9.320 -14.139  12.137  1.00  0.00     0.034 A 
ATOM     58  C   UNL     1     -10.305 -12.024   5.950  1.00  0.00     0.049 A 
ATOM     59  C   UNL     1     -10.526 -13.970  11.300  1.00  0.00     0.074 A 
ATOM     60  C   UNL     1     -10.700 -10.715   5.776  1.00  0.00     0.029 A 
ATOM     61  N   UNL     1     -10.714 -12.401   7.202  1.00  0.00    -0.354 N 
ATOM     62  N   UNL     1     -11.189 -12.848  11.247  1.00  0.00    -0.248 NA
ATOM     63  C   UNL     1     -10.788 -14.902  10.208  1.00  0.00     0.031 C 
ATOM     64  C   UNL     1     -11.288 -10.302   7.011  1.00  0.00     0.029 A 
ATOM     65  C   UNL     1     -11.305 -11.380   7.891  1.00  0.00     0.049 A 
ATOM     66  H   UNL     1     -10.596 -13.309   7.565  1.00  0.00     0.167 HD
ATOM     67  C   UNL     1     -11.582 -12.748   9.929  1.00  0.00     0.074 A 
ATOM     68  C   UNL     1     -11.472 -14.099   9.389  1.00  0.00     0.031 C 
ATOM     69  C   UNL     1     -11.602 -11.535   9.303  1.00  0.00     0.034 A 
BRANCH  56  70
ATOM     70  C   UNL     1      -9.774 -14.377   5.052  1.00  0.00     0.023 A 
ATOM     71  C   UNL     1     -11.152 -14.590   4.835  1.00  0.00     0.031 A 
ATOM     72  C   UNL     1      -9.009 -15.547   5.269  1.00  0.00     0.131 A 
ATOM     73  C   UNL     1     -11.716 -15.875   4.942  1.00  0.00     0.055 A 
ATOM     74  C   UNL     1      -9.569 -16.827   5.335  1.00  0.00     0.041 A 
ATOM     75  F   UNL     1      -7.695 -15.534   5.511  1.00  0.00    -0.206 F 
ATOM     76  C   UNL     1     -10.933 -16.995   5.199  1.00  0.00     0.022 A 
BRANCH  73  77
ATOM     77  S   UNL     1     -13.517 -16.039   4.883  1.00  0.00     0.124 S 
ATOM     78  O   UNL     1     -13.924 -15.200   6.004  1.00  0.00    -0.237 OA
ATOM     79  O   UNL     1     -13.820 -15.531   3.549  1.00  0.00    -0.237 OA
ATOM     80  O   UNL     1     -13.730 -17.473   5.063  1.00  0.00    -0.744 OA
ENDBRANCH  73  77
ENDBRANCH  56  70
BRANCH  57  81
ATOM     81  C   UNL     1      -9.217 -15.218  13.174  1.00  0.00     0.023 A 
ATOM     82  C   UNL     1     -10.332 -15.777  13.858  1.00  0.00     0.031 A 
ATOM     83  C   UNL     1      -8.000 -15.923  13.293  1.00  0.00     0.131 A 
ATOM     84  C   UNL     1     -10.198 -16.987  14.592  1.00  0.00     0.055 A 
ATOM     85  C   UNL     1      -7.879 -17.120  14.005  1.00  0.00     0.041 A 
ATOM     86  F   UNL     1      -6.901 -15.517  12.639  1.00  0.00    -0.206 F 
ATOM     87  C   UNL     1      -8.979 -17.665  14.645  1.00  0.00     0.022 A 
BRANCH  84  88
ATOM     88  S   UNL     1     -11.625 -17.767  15.437  1.00  0.00     0.124 S 
ATOM     89  O   UNL     1     -11.912 -16.820  16.508  1.00  0.00    -0.237 OA
ATOM     90  O   UNL     1     -12.614 -17.864  14.370  1.00  0.00    -0.237 OA
ATOM     91  O   UNL     1     -11.094 -19.054  15.890  1.00  0.00    -0.744 OA
ENDBRANCH  84  88
ENDBRANCH  57  81
BRANCH  69  92
ATOM     92  C   UNL     1     -11.888 -10.318  10.142  1.00  0.00     0.023 A 
ATOM     93  C   UNL     1     -11.118  -9.864  11.234  1.00  0.00     0.031 A 
ATOM     94  C   UNL     1     -13.035  -9.582   9.797  1.00  0.00     0.131 A 
ATOM     95  C   UNL     1     -11.521  -8.713  11.942  1.00  0.00     0.055 A 
ATOM     96  C   UNL     1     -13.419  -8.435  10.485  1.00  0.00     0.041 A 
ATOM     97  F   UNL     1     -13.809  -9.966   8.768  1.00  0.00    -0.206 F 
ATOM     98  C   UNL     1     -12.666  -8.001  11.568  1.00  0.00     0.022 A 
BRANCH  95  99
ATOM     99  S   UNL     1     -10.591  -8.141  13.401  1.00  0.00     0.124 S 
ATOM    100  O   UNL     1     -10.362  -9.363  14.163  1.00  0.00    -0.237 OA
ATOM    101  O   UNL     1      -9.408  -7.534  12.797  1.00  0.00    -0.237 OA
ATOM    102  O   UNL     1     -11.506  -7.189  14.034  1.00  0.00    -0.744 OA
ENDBRANCH  95  99
ENDBRANCH  69  92
ENDBRANCH  43  44
ENDBRANCH  36  38
ENDBRANCH  35  36
ENDBRANCH   1  35
TORSDOF 19
