REMARK SMILES C[C@H](NC(=O)c1ccncc1/C=C/C(=O)OCCOC(=O)c1ccc(-c2c3nc(c(-c4cc(S(=O)(=O)[O-])ccc4F)c4ccc([nH]4)c(-c4cc(S(=O)(=O)[O-])ccc4F)c4nc(c(-c5cc(S(=O)(=O)[O-])ccc5F)c5ccc2[nH]5)C=C4)C=C3)cc1)c1ccco1
REMARK SMILES IDX 17 1 16 2 14 3 15 4 13 5 12 6 11 7 6 8 7 9 8 10 10 11 9 12
REMARK SMILES IDX 4 13 3 14 5 16 2 17 1 18 85 19 86 20 89 21 87 22 88 23 18 24
REMARK SMILES IDX 19 25 20 26 21 27 22 28 23 29 84 30 24 31 83 32 25 33 26 34
REMARK SMILES IDX 27 35 77 36 28 37 82 38 76 39 78 40 29 41 81 42 75 43 74 44
REMARK SMILES IDX 30 46 62 47 42 48 61 49 43 50 46 51 60 52 79 53 44 54 45 55
REMARK SMILES IDX 59 57 80 58 47 59 31 60 32 61 40 62 33 63 39 64 41 65 38 66
REMARK SMILES IDX 34 67 35 68 36 69 37 70 63 71 64 72 72 73 65 74 71 75 73 76
REMARK SMILES IDX 70 77 66 78 67 79 68 80 69 81 48 82 49 83 57 84 50 85 56 86
REMARK SMILES IDX 58 87 55 88 51 89 52 90 53 91 54 92
REMARK H PARENT 3 15 78 45 46 56
REMARK Flexibility Score: inf
ROOT
ATOM      1  C   UNL     1       6.269  -0.937  -4.921  1.00  0.00     0.275 C 
ENDROOT
BRANCH   1   2
ATOM      2  O   UNL     1       5.740  -0.352  -3.715  1.00  0.00    -0.459 OA
BRANCH   2   3
ATOM      3  C   UNL     1       6.650   0.260  -2.924  1.00  0.00     0.330 C 
ATOM      4  O   UNL     1       7.859   0.294  -3.111  1.00  0.00    -0.247 OA
BRANCH   3   5
ATOM      5  C   UNL     1       6.046   0.965  -1.776  1.00  0.00     0.094 C 
ATOM      6  C   UNL     1       4.738   1.077  -1.487  1.00  0.00     0.018 C 
BRANCH   6   7
ATOM      7  C   UNL     1       4.281   1.854  -0.318  1.00  0.00     0.006 A 
ATOM      8  C   UNL     1       3.267   1.444   0.559  1.00  0.00     0.050 A 
ATOM      9  C   UNL     1       2.968   2.186   1.709  1.00  0.00     0.034 A 
ATOM     10  C   UNL     1       3.613   3.390   1.892  1.00  0.00     0.112 A 
ATOM     11  C   UNL     1       4.832   3.106  -0.043  1.00  0.00     0.119 A 
ATOM     12  N   UNL     1       4.519   3.877   1.028  1.00  0.00    -0.264 NA
BRANCH   8  13
ATOM     13  C   UNL     1       2.468   0.231   0.299  1.00  0.00     0.252 C 
ATOM     14  N   UNL     1       1.116   0.351   0.078  1.00  0.00    -0.342 N 
ATOM     15  H   UNL     1       0.631  -0.496  -0.045  1.00  0.00     0.164 HD
ATOM     16  O   UNL     1       3.004  -0.872   0.271  1.00  0.00    -0.269 OA
BRANCH  14  17
ATOM     17  C   UNL     1       0.295   1.562  -0.001  1.00  0.00     0.145 C 
ATOM     18  C   UNL     1       0.555   2.337  -1.291  1.00  0.00     0.039 C 
BRANCH  17  19
ATOM     19  C   UNL     1      -1.159   1.214   0.124  1.00  0.00     0.125 A 
ATOM     20  C   UNL     1      -1.900   0.047   0.146  1.00  0.00     0.048 A 
ATOM     21  O   UNL     1      -2.002   2.285   0.254  1.00  0.00    -0.467 OA
ATOM     22  C   UNL     1      -3.259   0.430   0.273  1.00  0.00     0.042 A 
ATOM     23  C   UNL     1      -3.266   1.802   0.329  1.00  0.00     0.195 A 
ENDBRANCH  17  19
ENDBRANCH  14  17
ENDBRANCH   8  13
ENDBRANCH   6   7
ENDBRANCH   3   5
ENDBRANCH   2   3
ENDBRANCH   1   2
BRANCH   1  24
ATOM     24  C   UNL     1       5.994  -0.057  -6.145  1.00  0.00     0.275 C 
BRANCH  24  25
ATOM     25  O   UNL     1       6.702   1.195  -6.090  1.00  0.00    -0.458 OA
BRANCH  25  26
ATOM     26  C   UNL     1       6.032   2.203  -5.478  1.00  0.00     0.338 C 
ATOM     27  O   UNL     1       4.911   2.150  -5.001  1.00  0.00    -0.246 OA
BRANCH  26  28
ATOM     28  C   UNL     1       6.904   3.386  -5.347  1.00  0.00     0.060 A 
ATOM     29  C   UNL     1       7.015   3.976  -4.084  1.00  0.00     0.016 A 
ATOM     30  C   UNL     1       7.544   3.954  -6.451  1.00  0.00     0.016 A 
ATOM     31  C   UNL     1       7.759   5.143  -3.921  1.00  0.00     0.010 A 
ATOM     32  C   UNL     1       8.291   5.127  -6.285  1.00  0.00     0.010 A 
ATOM     33  C   UNL     1       8.393   5.735  -5.022  1.00  0.00    -0.014 A 
BRANCH  33  34
ATOM     34  C   UNL     1       9.121   7.019  -4.849  1.00  0.00     0.031 A 
ATOM     35  C   UNL     1       8.502   8.302  -5.328  1.00  0.00     0.074 A 
ATOM     36  C   UNL     1      10.321   7.033  -4.240  1.00  0.00     0.049 A 
ATOM     37  N   UNL     1       8.982   9.519  -5.293  1.00  0.00    -0.248 NA
ATOM     38  C   UNL     1       7.165   8.197  -5.930  1.00  0.00     0.031 C 
ATOM     39  C   UNL     1      11.004   5.857  -3.700  1.00  0.00     0.029 A 
ATOM     40  N   UNL     1      11.177   8.070  -3.969  1.00  0.00    -0.354 N 
ATOM     41  C   UNL     1       8.011  10.328  -5.874  1.00  0.00     0.074 A 
ATOM     42  C   UNL     1       6.931   9.453  -6.284  1.00  0.00     0.031 C 
ATOM     43  C   UNL     1      12.169   6.241  -3.154  1.00  0.00     0.029 A 
ATOM     44  C   UNL     1      12.339   7.679  -3.345  1.00  0.00     0.049 A 
ATOM     45  H   UNL     1      10.979   9.007  -4.199  1.00  0.00     0.167 HD
ATOM     46  C   UNL     1       8.018  11.675  -6.043  1.00  0.00     0.034 A 
ATOM     47  C   UNL     1      13.425   8.394  -2.989  1.00  0.00     0.034 A 
ATOM     48  C   UNL     1       9.107  12.531  -5.635  1.00  0.00     0.049 A 
ATOM     49  C   UNL     1      13.446   9.877  -3.266  1.00  0.00     0.074 A 
ATOM     50  C   UNL     1       9.207  13.909  -5.734  1.00  0.00     0.029 A 
ATOM     51  N   UNL     1      10.295  12.092  -5.062  1.00  0.00    -0.354 N 
ATOM     52  N   UNL     1      12.517  10.632  -3.807  1.00  0.00    -0.248 NA
ATOM     53  C   UNL     1      14.663  10.604  -2.882  1.00  0.00     0.031 C 
ATOM     54  C   UNL     1      10.478  14.293  -5.291  1.00  0.00     0.029 A 
ATOM     55  C   UNL     1      11.146  13.166  -4.841  1.00  0.00     0.049 A 
ATOM     56  H   UNL     1      10.503  11.155  -4.844  1.00  0.00     0.167 HD
ATOM     57  C   UNL     1      13.028  11.927  -3.800  1.00  0.00     0.074 A 
ATOM     58  C   UNL     1      14.340  11.851  -3.190  1.00  0.00     0.031 C 
ATOM     59  C   UNL     1      12.461  13.076  -4.249  1.00  0.00     0.034 A 
BRANCH  46  60
ATOM     60  C   UNL     1       6.834  12.290  -6.753  1.00  0.00     0.023 A 
ATOM     61  C   UNL     1       5.537  12.245  -6.212  1.00  0.00     0.031 A 
ATOM     62  C   UNL     1       7.002  12.899  -8.009  1.00  0.00     0.131 A 
ATOM     63  C   UNL     1       4.450  12.729  -6.957  1.00  0.00     0.055 A 
ATOM     64  C   UNL     1       5.928  13.451  -8.710  1.00  0.00     0.041 A 
ATOM     65  F   UNL     1       8.212  12.954  -8.586  1.00  0.00    -0.206 F 
ATOM     66  C   UNL     1       4.640  13.354  -8.192  1.00  0.00     0.022 A 
BRANCH  63  67
ATOM     67  S   UNL     1       2.770  12.396  -6.359  1.00  0.00     0.124 S 
ATOM     68  O   UNL     1       2.773  10.939  -6.262  1.00  0.00    -0.237 OA
ATOM     69  O   UNL     1       2.735  13.122  -5.095  1.00  0.00    -0.237 OA
ATOM     70  O   UNL     1       1.916  12.940  -7.415  1.00  0.00    -0.744 OA
ENDBRANCH  63  67
ENDBRANCH  46  60
BRANCH  47  71
ATOM     71  C   UNL     1      14.601   7.722  -2.367  1.00  0.00     0.023 A 
ATOM     72  C   UNL     1      15.006   8.032  -1.059  1.00  0.00     0.031 A 
ATOM     73  C   UNL     1      15.369   6.794  -3.093  1.00  0.00     0.131 A 
ATOM     74  C   UNL     1      16.170   7.451  -0.532  1.00  0.00     0.055 A 
ATOM     75  C   UNL     1      16.495   6.179  -2.545  1.00  0.00     0.041 A 
ATOM     76  F   UNL     1      15.027   6.465  -4.349  1.00  0.00    -0.206 F 
ATOM     77  C   UNL     1      16.909   6.517  -1.261  1.00  0.00     0.022 A 
BRANCH  74  78
ATOM     78  S   UNL     1      16.753   7.998   1.097  1.00  0.00     0.124 S 
ATOM     79  O   UNL     1      16.942   9.428   0.881  1.00  0.00    -0.237 OA
ATOM     80  O   UNL     1      15.640   7.620   1.961  1.00  0.00    -0.237 OA
ATOM     81  O   UNL     1      17.981   7.229   1.294  1.00  0.00    -0.744 OA
ENDBRANCH  74  78
ENDBRANCH  47  71
BRANCH  59  82
ATOM     82  C   UNL     1      13.250  14.349  -4.053  1.00  0.00     0.023 A 
ATOM     83  C   UNL     1      14.451  14.592  -4.742  1.00  0.00     0.031 A 
ATOM     84  C   UNL     1      12.800  15.325  -3.145  1.00  0.00     0.131 A 
ATOM     85  C   UNL     1      15.189  15.755  -4.473  1.00  0.00     0.055 A 
ATOM     86  C   UNL     1      13.509  16.506  -2.924  1.00  0.00     0.041 A 
ATOM     87  F   UNL     1      11.661  15.145  -2.456  1.00  0.00    -0.206 F 
ATOM     88  C   UNL     1      14.718  16.721  -3.580  1.00  0.00     0.022 A 
BRANCH  85  89
ATOM     89  S   UNL     1      16.822  15.950  -5.240  1.00  0.00     0.124 S 
ATOM     90  O   UNL     1      17.530  14.771  -4.751  1.00  0.00    -0.237 OA
ATOM     91  O   UNL     1      16.501  15.956  -6.663  1.00  0.00    -0.237 OA
ATOM     92  O   UNL     1      17.301  17.225  -4.708  1.00  0.00    -0.744 OA
ENDBRANCH  85  89
ENDBRANCH  59  82
ENDBRANCH  33  34
ENDBRANCH  26  28
ENDBRANCH  25  26
ENDBRANCH  24  25
ENDBRANCH   1  24
TORSDOF 18
