REMARK SMILES COc1ccc(C2=NN(C(=O)CCC(=O)OCCOC(=O)c3ccc(-c4c5nc(c(-c6cc(S(=O)(=O)[O-])ccc6F)c6ccc([nH]6)c(-c6cc(S(=O)(=O)[O-])ccc6F)c6nc(c(-c7cc(S(=O)(=O)[O-])ccc7F)c7ccc4[nH]7)C=C6)C=C5)cc3)[C@H](c3ccc(Cl)cc3Cl)C2)cc1
REMARK SMILES IDX 17 1 16 2 14 3 15 4 13 5 12 6 10 7 11 8 9 9 7 10 8 11 94 12
REMARK SMILES IDX 85 13 6 14 3 15 4 16 96 17 5 18 95 19 2 20 1 21 86 22 87 23
REMARK SMILES IDX 92 24 88 25 91 26 93 27 89 28 90 29 18 30 19 31 20 32 21 33
REMARK SMILES IDX 22 34 23 35 84 36 24 37 83 38 25 39 26 40 27 41 77 42 28 43
REMARK SMILES IDX 82 44 76 45 78 46 29 47 81 48 75 49 74 50 30 52 62 53 42 54
REMARK SMILES IDX 61 55 43 56 46 57 60 58 79 59 44 60 45 61 59 63 80 64 47 65
REMARK SMILES IDX 31 66 32 67 40 68 33 69 39 70 41 71 38 72 34 73 35 74 36 75
REMARK SMILES IDX 37 76 63 77 64 78 72 79 65 80 71 81 73 82 70 83 66 84 67 85
REMARK SMILES IDX 68 86 69 87 48 88 49 89 57 90 50 91 56 92 58 93 55 94 51 95
REMARK SMILES IDX 52 96 53 97 54 98
REMARK H PARENT 78 51 46 62
REMARK Flexibility Score: inf
ROOT
ATOM      1  C   UNL     1       5.122  -7.158  -4.534  1.00  0.00     0.274 C 
ENDROOT
BRANCH   1   2
ATOM      2  O   UNL     1       3.927  -7.060  -5.338  1.00  0.00    -0.462 OA
BRANCH   2   3
ATOM      3  C   UNL     1       3.996  -7.608  -6.581  1.00  0.00     0.306 C 
ATOM      4  O   UNL     1       4.981  -8.179  -7.031  1.00  0.00    -0.252 OA
BRANCH   3   5
ATOM      5  C   UNL     1       2.739  -7.372  -7.384  1.00  0.00     0.132 C 
BRANCH   5   6
ATOM      6  C   UNL     1       1.473  -7.960  -6.766  1.00  0.00     0.114 C 
BRANCH   6   7
ATOM      7  C   UNL     1       0.598  -6.875  -6.161  1.00  0.00     0.243 C 
ATOM      8  O   UNL     1       0.141  -6.010  -6.920  1.00  0.00    -0.273 OA
BRANCH   7   9
ATOM      9  N   UNL     1       0.406  -6.846  -4.776  1.00  0.00    -0.225 N 
ATOM     10  C   UNL     1       0.524  -5.531  -3.073  1.00  0.00     0.071 C 
ATOM     11  N   UNL     1       0.039  -5.601  -4.267  1.00  0.00    -0.174 NA
ATOM     12  C   UNL     1       1.151  -6.764  -2.535  1.00  0.00     0.091 C 
ATOM     13  C   UNL     1       1.047  -7.685  -3.746  1.00  0.00     0.149 C 
BRANCH  10  14
ATOM     14  C   UNL     1       0.531  -4.335  -2.240  1.00  0.00    -0.002 A 
ATOM     15  C   UNL     1       0.628  -2.224  -0.455  1.00  0.00     0.118 A 
ATOM     16  C   UNL     1      -0.587  -2.864  -0.715  1.00  0.00     0.047 A 
ATOM     17  C   UNL     1       1.804  -2.650  -1.077  1.00  0.00     0.047 A 
ATOM     18  C   UNL     1      -0.645  -3.917  -1.626  1.00  0.00     0.014 A 
ATOM     19  C   UNL     1       1.756  -3.711  -1.978  1.00  0.00     0.014 A 
BRANCH  15  20
ATOM     20  O   UNL     1       0.607  -1.223   0.477  1.00  0.00    -0.497 OA
ATOM     21  C   UNL     1       1.201  -0.021  -0.009  1.00  0.00     0.278 C 
ENDBRANCH  15  20
ENDBRANCH  10  14
BRANCH  13  22
ATOM     22  C   UNL     1       0.559  -9.088  -3.357  1.00  0.00    -0.004 A 
ATOM     23  C   UNL     1       1.176  -9.652  -2.200  1.00  0.00     0.009 A 
ATOM     24  C   UNL     1      -0.216  -9.965  -4.134  1.00  0.00     0.047 A 
ATOM     25  C   UNL     1       1.100 -11.010  -1.889  1.00  0.00     0.021 A 
ATOM     26  C   UNL     1      -0.259 -11.343  -3.841  1.00  0.00     0.041 A 
ATOM     27  Cl  UNL     1      -1.180  -9.464  -5.470  1.00  0.00    -0.084 Cl
ATOM     28  C   UNL     1       0.414 -11.858  -2.739  1.00  0.00     0.042 A 
ATOM     29  Cl  UNL     1       0.417 -13.549  -2.429  1.00  0.00    -0.084 Cl
ENDBRANCH  13  22
ENDBRANCH   7   9
ENDBRANCH   6   7
ENDBRANCH   5   6
ENDBRANCH   3   5
ENDBRANCH   2   3
ENDBRANCH   1   2
BRANCH   1  30
ATOM     30  C   UNL     1       5.093  -8.333  -3.548  1.00  0.00     0.275 C 
BRANCH  30  31
ATOM     31  O   UNL     1       5.285  -9.608  -4.188  1.00  0.00    -0.458 OA
BRANCH  31  32
ATOM     32  C   UNL     1       4.144 -10.195  -4.599  1.00  0.00     0.338 C 
ATOM     33  O   UNL     1       3.019  -9.757  -4.481  1.00  0.00    -0.246 OA
BRANCH  32  34
ATOM     34  C   UNL     1       4.360 -11.447  -5.298  1.00  0.00     0.060 A 
ATOM     35  C   UNL     1       4.095 -11.480  -6.670  1.00  0.00     0.016 A 
ATOM     36  C   UNL     1       4.690 -12.594  -4.578  1.00  0.00     0.016 A 
ATOM     37  C   UNL     1       4.260 -12.669  -7.360  1.00  0.00     0.010 A 
ATOM     38  C   UNL     1       4.869 -13.781  -5.273  1.00  0.00     0.010 A 
ATOM     39  C   UNL     1       4.703 -13.804  -6.669  1.00  0.00    -0.014 A 
BRANCH  39  40
ATOM     40  C   UNL     1       5.226 -14.954  -7.425  1.00  0.00     0.031 A 
ATOM     41  C   UNL     1       4.455 -16.225  -7.528  1.00  0.00     0.074 A 
ATOM     42  C   UNL     1       6.461 -14.815  -7.942  1.00  0.00     0.049 A 
ATOM     43  N   UNL     1       4.828 -17.366  -8.041  1.00  0.00    -0.248 NA
ATOM     44  C   UNL     1       3.094 -16.218  -6.974  1.00  0.00     0.031 C 
ATOM     45  C   UNL     1       7.264 -13.588  -7.874  1.00  0.00     0.029 A 
ATOM     46  N   UNL     1       7.267 -15.702  -8.597  1.00  0.00    -0.354 N 
ATOM     47  C   UNL     1       3.749 -18.223  -7.877  1.00  0.00     0.074 A 
ATOM     48  C   UNL     1       2.716 -17.472  -7.190  1.00  0.00     0.031 C 
ATOM     49  C   UNL     1       8.452 -13.806  -8.454  1.00  0.00     0.029 A 
ATOM     50  C   UNL     1       8.514 -15.196  -8.879  1.00  0.00     0.049 A 
ATOM     51  H   UNL     1       6.984 -16.613  -8.843  1.00  0.00     0.167 HD
ATOM     52  C   UNL     1       3.648 -19.516  -8.270  1.00  0.00     0.034 A 
ATOM     53  C   UNL     1       9.601 -15.804  -9.384  1.00  0.00     0.034 A 
ATOM     54  C   UNL     1       4.724 -20.229  -8.920  1.00  0.00     0.049 A 
ATOM     55  C   UNL     1       9.486 -17.258  -9.738  1.00  0.00     0.074 A 
ATOM     56  C   UNL     1       4.743 -21.530  -9.390  1.00  0.00     0.029 A 
ATOM     57  N   UNL     1       5.988 -19.700  -9.172  1.00  0.00    -0.354 N 
ATOM     58  N   UNL     1       8.451 -18.057  -9.605  1.00  0.00    -0.248 NA
ATOM     59  C   UNL     1      10.678 -17.893 -10.306  1.00  0.00     0.031 C 
ATOM     60  C   UNL     1       6.033 -21.807  -9.861  1.00  0.00     0.029 A 
ATOM     61  C   UNL     1       6.804 -20.660  -9.750  1.00  0.00     0.049 A 
ATOM     62  H   UNL     1       6.262 -18.777  -8.969  1.00  0.00     0.167 HD
ATOM     63  C   UNL     1       8.865 -19.293 -10.082  1.00  0.00     0.074 A 
ATOM     64  C   UNL     1      10.236 -19.122 -10.528  1.00  0.00     0.031 C 
ATOM     65  C   UNL     1       8.181 -20.464 -10.146  1.00  0.00     0.034 A 
BRANCH  52  66
ATOM     66  C   UNL     1       2.363 -20.240  -7.951  1.00  0.00     0.023 A 
ATOM     67  C   UNL     1       1.135 -19.853  -8.517  1.00  0.00     0.031 A 
ATOM     68  C   UNL     1       2.359 -21.312  -7.042  1.00  0.00     0.131 A 
ATOM     69  C   UNL     1      -0.052 -20.490  -8.120  1.00  0.00     0.055 A 
ATOM     70  C   UNL     1       1.184 -21.988  -6.704  1.00  0.00     0.041 A 
ATOM     71  F   UNL     1       3.496 -21.712  -6.452  1.00  0.00    -0.206 F 
ATOM     72  C   UNL     1      -0.033 -21.569  -7.233  1.00  0.00     0.022 A 
BRANCH  69  73
ATOM     73  S   UNL     1      -1.637 -19.805  -8.680  1.00  0.00     0.124 S 
ATOM     74  O   UNL     1      -1.574 -18.445  -8.152  1.00  0.00    -0.237 OA
ATOM     75  O   UNL     1      -1.541 -19.934 -10.129  1.00  0.00    -0.237 OA
ATOM     76  O   UNL     1      -2.628 -20.669  -8.042  1.00  0.00    -0.744 OA
ENDBRANCH  69  73
ENDBRANCH  52  66
BRANCH  53  77
ATOM     77  C   UNL     1      10.877 -15.053  -9.533  1.00  0.00     0.023 A 
ATOM     78  C   UNL     1      11.417 -14.790 -10.799  1.00  0.00     0.031 A 
ATOM     79  C   UNL     1      11.572 -14.578  -8.405  1.00  0.00     0.131 A 
ATOM     80  C   UNL     1      12.633 -14.098 -10.908  1.00  0.00     0.055 A 
ATOM     81  C   UNL     1      12.756 -13.849  -8.520  1.00  0.00     0.041 A 
ATOM     82  F   UNL     1      11.091 -14.793  -7.169  1.00  0.00    -0.206 F 
ATOM     83  C   UNL     1      13.299 -13.614  -9.779  1.00  0.00     0.022 A 
BRANCH  80  84
ATOM     84  S   UNL     1      13.368 -13.894 -12.553  1.00  0.00     0.124 S 
ATOM     85  O   UNL     1      13.477 -15.276 -13.005  1.00  0.00    -0.237 OA
ATOM     86  O   UNL     1      12.370 -13.073 -13.230  1.00  0.00    -0.237 OA
ATOM     87  O   UNL     1      14.639 -13.226 -12.276  1.00  0.00    -0.744 OA
ENDBRANCH  80  84
ENDBRANCH  53  77
BRANCH  65  88
ATOM     88  C   UNL     1       8.930 -21.633 -10.728  1.00  0.00     0.023 A 
ATOM     89  C   UNL     1      10.011 -22.217 -10.046  1.00  0.00     0.031 A 
ATOM     90  C   UNL     1       8.587 -22.139 -11.993  1.00  0.00     0.131 A 
ATOM     91  C   UNL     1      10.751 -23.237 -10.659  1.00  0.00     0.055 A 
ATOM     92  C   UNL     1       9.290 -23.194 -12.573  1.00  0.00     0.041 A 
ATOM     93  F   UNL     1       7.566 -21.610 -12.687  1.00  0.00    -0.206 F 
ATOM     94  C   UNL     1      10.387 -23.741 -11.911  1.00  0.00     0.022 A 
BRANCH  91  95
ATOM     95  S   UNL     1      12.252 -23.835  -9.836  1.00  0.00     0.124 S 
ATOM     96  O   UNL     1      13.070 -22.627  -9.786  1.00  0.00    -0.237 OA
ATOM     97  O   UNL     1      11.740 -24.312  -8.556  1.00  0.00    -0.237 OA
ATOM     98  O   UNL     1      12.742 -24.879 -10.735  1.00  0.00    -0.744 OA
ENDBRANCH  91  95
ENDBRANCH  65  88
ENDBRANCH  39  40
ENDBRANCH  32  34
ENDBRANCH  31  32
ENDBRANCH  30  31
ENDBRANCH   1  30
TORSDOF 20
