REMARK SMILES Cc1c(C(=O)OCCOC(=O)c2ccc(-c3c4nc(c(-c5cc(S(=O)(=O)[O-])ccc5F)c5ccc([nH]5)c(-c5cc(S(=O)(=O)[O-])ccc5F)c5nc(c(-c6cc(S(=O)(=O)[O-])ccc6F)c6ccc3[nH]6)C=C5)C=C4)cc2)cccc1-n1c(C)cc(/C=C2/C(=O)NC(=S)N=C2O)c1C
REMARK SMILES IDX 7 1 6 2 4 3 5 4 3 5 1 6 2 7 78 8 75 9 77 10 76 11 79 12
REMARK SMILES IDX 80 13 94 14 81 15 82 16 83 17 95 18 84 19 85 20 86 21 92 22
REMARK SMILES IDX 87 23 88 24 91 25 89 26 90 28 93 29 8 31 9 32 10 33 11 34
REMARK SMILES IDX 12 35 13 36 74 37 14 38 73 39 15 40 16 41 17 42 67 43 18 44
REMARK SMILES IDX 72 45 66 46 68 47 19 48 71 49 65 50 64 51 20 53 52 54 32 55
REMARK SMILES IDX 51 56 33 57 36 58 50 59 69 60 34 61 35 62 49 64 70 65 37 66
REMARK SMILES IDX 21 67 22 68 30 69 23 70 29 71 31 72 28 73 24 74 25 75 26 76
REMARK SMILES IDX 27 77 53 78 54 79 62 80 55 81 61 82 63 83 60 84 56 85 57 86
REMARK SMILES IDX 58 87 59 88 38 89 39 90 47 91 40 92 46 93 48 94 45 95 41 96
REMARK SMILES IDX 42 97 43 98 44 99
REMARK H PARENT 88 27 93 30 68 52 36 63
REMARK Flexibility Score: inf
ROOT
ATOM      1  C   UNL     1       3.175  -3.033   2.108  1.00  0.00     0.275 C 
ENDROOT
BRANCH   1   2
ATOM      2  O   UNL     1       2.100  -2.091   2.009  1.00  0.00    -0.458 OA
BRANCH   2   3
ATOM      3  C   UNL     1       2.076  -1.492   0.802  1.00  0.00     0.338 C 
ATOM      4  O   UNL     1       2.915  -1.632  -0.081  1.00  0.00    -0.246 OA
BRANCH   3   5
ATOM      5  C   UNL     1       1.032  -0.471   0.663  1.00  0.00     0.065 A 
ATOM      6  C   UNL     1       2.955   1.113   0.342  1.00  0.00     0.047 C 
ATOM      7  C   UNL     1       1.481   0.783   0.249  1.00  0.00    -0.012 A 
ATOM      8  C   UNL     1       0.505   1.706  -0.150  1.00  0.00     0.049 A 
ATOM      9  C   UNL     1      -0.337  -0.732   0.819  1.00  0.00     0.016 A 
ATOM     10  C   UNL     1      -0.867   1.416  -0.123  1.00  0.00     0.027 A 
ATOM     11  C   UNL     1      -1.288   0.194   0.383  1.00  0.00     0.003 A 
BRANCH   8  12
ATOM     12  N   UNL     1       0.871   3.060  -0.149  1.00  0.00    -0.318 N 
ATOM     13  C   UNL     1       1.626   3.702  -1.109  1.00  0.00     0.020 A 
ATOM     14  C   UNL     1       0.905   3.784   1.040  1.00  0.00     0.027 A 
ATOM     15  C   UNL     1       1.999   3.066  -2.409  1.00  0.00     0.065 C 
ATOM     16  C   UNL     1       1.958   4.938  -0.589  1.00  0.00     0.031 A 
ATOM     17  C   UNL     1       1.456   5.016   0.743  1.00  0.00    -0.003 A 
ATOM     18  C   UNL     1       0.478   3.145   2.332  1.00  0.00     0.065 C 
BRANCH  17  19
ATOM     19  C   UNL     1       1.704   6.098   1.637  1.00  0.00     0.029 C 
ATOM     20  C   UNL     1       1.002   6.547   2.695  1.00  0.00     0.102 C 
ATOM     21  C   UNL     1       1.669   7.572   3.528  1.00  0.00     0.262 C 
ATOM     22  C   UNL     1      -0.284   6.103   3.241  1.00  0.00     0.226 C 
ATOM     23  O   UNL     1       2.616   8.266   3.158  1.00  0.00    -0.269 OA
ATOM     24  N   UNL     1       1.168   7.667   4.797  1.00  0.00    -0.297 N 
ATOM     25  N   UNL     1      -0.713   6.284   4.437  1.00  0.00    -0.184 NA
ATOM     26  C   UNL     1       0.074   7.002   5.296  1.00  0.00     0.203 C 
ATOM     27  H   UNL     1       1.638   8.272   5.415  1.00  0.00     0.172 HD
ATOM     28  S   UNL     1      -0.266   7.184   6.927  1.00  0.00    -0.038 S 
BRANCH  22  29
ATOM     29  O   UNL     1      -1.123   5.509   2.390  1.00  0.00    -0.493 OA
ATOM     30  H   UNL     1      -0.859   5.354   1.504  1.00  0.00     0.295 HD
ENDBRANCH  22  29
ENDBRANCH  17  19
ENDBRANCH   8  12
ENDBRANCH   3   5
ENDBRANCH   2   3
ENDBRANCH   1   2
BRANCH   1  31
ATOM     31  C   UNL     1       2.752  -4.334   2.789  1.00  0.00     0.275 C 
BRANCH  31  32
ATOM     32  O   UNL     1       1.335  -4.656   2.838  1.00  0.00    -0.458 OA
BRANCH  32  33
ATOM     33  C   UNL     1       0.376  -4.394   1.905  1.00  0.00     0.338 C 
ATOM     34  O   UNL     1      -0.734  -3.996   2.248  1.00  0.00    -0.246 OA
BRANCH  33  35
ATOM     35  C   UNL     1       0.761  -4.399   0.472  1.00  0.00     0.060 A 
ATOM     36  C   UNL     1       0.028  -3.622  -0.446  1.00  0.00     0.016 A 
ATOM     37  C   UNL     1       1.932  -5.017   0.069  1.00  0.00     0.016 A 
ATOM     38  C   UNL     1       0.554  -3.314  -1.695  1.00  0.00     0.010 A 
ATOM     39  C   UNL     1       2.532  -4.606  -1.093  1.00  0.00     0.010 A 
ATOM     40  C   UNL     1       1.831  -3.784  -1.986  1.00  0.00    -0.014 A 
BRANCH  40  41
ATOM     41  C   UNL     1       2.397  -3.779  -3.322  1.00  0.00     0.031 A 
ATOM     42  C   UNL     1       2.940  -2.545  -3.912  1.00  0.00     0.074 A 
ATOM     43  C   UNL     1       2.346  -5.010  -3.878  1.00  0.00     0.049 A 
ATOM     44  N   UNL     1       2.679  -2.116  -5.101  1.00  0.00    -0.248 NA
ATOM     45  C   UNL     1       3.785  -1.615  -3.154  1.00  0.00     0.031 C 
ATOM     46  C   UNL     1       2.929  -5.576  -5.074  1.00  0.00     0.029 A 
ATOM     47  N   UNL     1       1.546  -6.051  -3.425  1.00  0.00    -0.354 N 
ATOM     48  C   UNL     1       3.650  -1.167  -5.365  1.00  0.00     0.074 A 
ATOM     49  C   UNL     1       4.118  -0.708  -4.082  1.00  0.00     0.031 C 
ATOM     50  C   UNL     1       2.226  -6.687  -5.402  1.00  0.00     0.029 A 
ATOM     51  C   UNL     1       1.083  -6.782  -4.494  1.00  0.00     0.049 A 
ATOM     52  H   UNL     1       1.343  -6.238  -2.480  1.00  0.00     0.167 HD
ATOM     53  C   UNL     1       4.271  -1.145  -6.578  1.00  0.00     0.034 A 
ATOM     54  C   UNL     1      -0.241  -6.648  -4.824  1.00  0.00     0.034 A 
ATOM     55  C   UNL     1       3.854  -2.297  -7.365  1.00  0.00     0.049 A 
ATOM     56  C   UNL     1      -0.394  -5.915  -6.142  1.00  0.00     0.074 A 
ATOM     57  C   UNL     1       4.440  -3.534  -7.577  1.00  0.00     0.029 A 
ATOM     58  N   UNL     1       2.535  -2.421  -7.745  1.00  0.00    -0.354 N 
ATOM     59  N   UNL     1       0.503  -5.105  -6.636  1.00  0.00    -0.248 NA
ATOM     60  C   UNL     1      -1.571  -6.027  -6.993  1.00  0.00     0.031 C 
ATOM     61  C   UNL     1       3.453  -4.400  -8.120  1.00  0.00     0.029 A 
ATOM     62  C   UNL     1       2.273  -3.689  -8.215  1.00  0.00     0.049 A 
ATOM     63  H   UNL     1       1.869  -1.699  -7.688  1.00  0.00     0.167 HD
ATOM     64  C   UNL     1       0.115  -4.692  -7.881  1.00  0.00     0.074 A 
ATOM     65  C   UNL     1      -1.233  -5.223  -8.017  1.00  0.00     0.031 C 
ATOM     66  C   UNL     1       0.942  -3.977  -8.706  1.00  0.00     0.034 A 
BRANCH  53  67
ATOM     67  C   UNL     1       5.525  -0.366  -6.893  1.00  0.00     0.023 A 
ATOM     68  C   UNL     1       6.467  -0.921  -7.782  1.00  0.00     0.031 A 
ATOM     69  C   UNL     1       5.835   0.911  -6.392  1.00  0.00     0.131 A 
ATOM     70  C   UNL     1       7.677  -0.278  -8.080  1.00  0.00     0.055 A 
ATOM     71  C   UNL     1       7.052   1.555  -6.679  1.00  0.00     0.041 A 
ATOM     72  F   UNL     1       4.964   1.589  -5.627  1.00  0.00    -0.206 F 
ATOM     73  C   UNL     1       7.986   0.955  -7.519  1.00  0.00     0.022 A 
BRANCH  70  74
ATOM     74  S   UNL     1       8.828  -1.098  -9.216  1.00  0.00     0.124 S 
ATOM     75  O   UNL     1       9.137  -2.333  -8.501  1.00  0.00    -0.237 OA
ATOM     76  O   UNL     1       8.027  -1.239 -10.426  1.00  0.00    -0.237 OA
ATOM     77  O   UNL     1       9.937  -0.150  -9.317  1.00  0.00    -0.744 OA
ENDBRANCH  70  74
ENDBRANCH  53  67
BRANCH  54  78
ATOM     78  C   UNL     1      -1.178  -6.497  -3.645  1.00  0.00     0.023 A 
ATOM     79  C   UNL     1      -1.007  -7.372  -2.545  1.00  0.00     0.031 A 
ATOM     80  C   UNL     1      -2.005  -5.383  -3.439  1.00  0.00     0.131 A 
ATOM     81  C   UNL     1      -1.491  -7.040  -1.268  1.00  0.00     0.055 A 
ATOM     82  C   UNL     1      -2.567  -5.102  -2.181  1.00  0.00     0.041 A 
ATOM     83  F   UNL     1      -2.216  -4.492  -4.418  1.00  0.00    -0.206 F 
ATOM     84  C   UNL     1      -2.282  -5.910  -1.078  1.00  0.00     0.022 A 
BRANCH  81  85
ATOM     85  S   UNL     1      -0.809  -7.942   0.159  1.00  0.00     0.124 S 
ATOM     86  O   UNL     1      -1.535  -9.205   0.103  1.00  0.00    -0.237 OA
ATOM     87  O   UNL     1       0.615  -8.007  -0.169  1.00  0.00    -0.237 OA
ATOM     88  O   UNL     1      -1.124  -7.085   1.297  1.00  0.00    -0.744 OA
ENDBRANCH  81  85
ENDBRANCH  54  78
BRANCH  66  89
ATOM     89  C   UNL     1       0.581  -3.472 -10.076  1.00  0.00     0.023 A 
ATOM     90  C   UNL     1      -0.367  -4.115 -10.871  1.00  0.00     0.031 A 
ATOM     91  C   UNL     1       1.206  -2.337 -10.654  1.00  0.00     0.131 A 
ATOM     92  C   UNL     1      -0.789  -3.549 -12.081  1.00  0.00     0.055 A 
ATOM     93  C   UNL     1       0.852  -1.827 -11.902  1.00  0.00     0.041 A 
ATOM     94  F   UNL     1       2.171  -1.647 -10.032  1.00  0.00    -0.206 F 
ATOM     95  C   UNL     1      -0.181  -2.413 -12.610  1.00  0.00     0.022 A 
BRANCH  92  96
ATOM     96  S   UNL     1      -2.224  -4.285 -12.889  1.00  0.00     0.124 S 
ATOM     97  O   UNL     1      -1.822  -5.679 -13.039  1.00  0.00    -0.237 OA
ATOM     98  O   UNL     1      -3.276  -4.033 -11.906  1.00  0.00    -0.237 OA
ATOM     99  O   UNL     1      -2.342  -3.530 -14.134  1.00  0.00    -0.744 OA
ENDBRANCH  92  96
ENDBRANCH  66  89
ENDBRANCH  40  41
ENDBRANCH  33  35
ENDBRANCH  32  33
ENDBRANCH  31  32
ENDBRANCH   1  31
TORSDOF 17
