REMARK SMILES Cc1cc(C(=O)OCCOC(=O)c2ccc(-c3c4nc(c(-c5cc(S(=O)(=O)[O-])ccc5F)c5ccc([nH]5)c(-c5cc(S(=O)(=O)[O-])ccc5F)c5nc(c(-c6cc(S(=O)(=O)[O-])ccc6F)c6ccc3[nH]6)C=C5)C=C4)cc2)nn1[C@H]1CCS(=O)(=O)C1
REMARK SMILES IDX 9 1 8 2 7 3 5 4 6 5 4 6 1 7 2 8 3 9 77 10 76 11 78 12 79 13
REMARK SMILES IDX 84 14 80 15 81 16 82 17 83 18 10 19 11 20 12 21 13 22 14 23
REMARK SMILES IDX 75 24 15 25 74 26 16 27 17 28 18 29 68 30 19 31 73 32 67 33
REMARK SMILES IDX 69 34 20 35 72 36 66 37 65 38 21 40 53 41 33 42 52 43 34 44
REMARK SMILES IDX 37 45 51 46 70 47 35 48 36 49 50 51 71 52 38 53 22 54 23 55
REMARK SMILES IDX 31 56 24 57 30 58 32 59 29 60 25 61 26 62 27 63 28 64 54 65
REMARK SMILES IDX 55 66 63 67 56 68 62 69 64 70 61 71 57 72 58 73 59 74 60 75
REMARK SMILES IDX 39 76 40 77 48 78 41 79 47 80 49 81 46 82 42 83 43 84 44 85
REMARK SMILES IDX 45 86
REMARK H PARENT 69 39 37 50
REMARK Flexibility Score: inf
ROOT
ATOM      1  C   UNL     1       1.697   7.257  -7.170  1.00  0.00     0.275 C 
ENDROOT
BRANCH   1   2
ATOM      2  C   UNL     1       0.289   6.703  -7.340  1.00  0.00     0.275 C 
BRANCH   2   3
ATOM      3  O   UNL     1      -0.236   6.216  -6.096  1.00  0.00    -0.457 OA
BRANCH   3   4
ATOM      4  C   UNL     1       0.060   4.911  -5.788  1.00  0.00     0.358 C 
ATOM      5  O   UNL     1       0.520   4.108  -6.600  1.00  0.00    -0.244 OA
BRANCH   4   6
ATOM      6  C   UNL     1      -0.203   4.606  -4.374  1.00  0.00     0.170 A 
ATOM      7  C   UNL     1      -1.642   5.072  -1.015  1.00  0.00     0.066 C 
ATOM      8  C   UNL     1      -0.921   4.713  -2.257  1.00  0.00     0.037 A 
ATOM      9  C   UNL     1      -0.923   5.402  -3.453  1.00  0.00     0.061 A 
ATOM     10  N   UNL     1      -0.106   3.626  -2.468  1.00  0.00    -0.265 N 
ATOM     11  N   UNL     1       0.244   3.492  -3.766  1.00  0.00    -0.165 NA
BRANCH  10  12
ATOM     12  C   UNL     1       0.409   2.605  -1.572  1.00  0.00     0.123 C 
ATOM     13  C   UNL     1       1.889   2.817  -1.196  1.00  0.00     0.044 C 
ATOM     14  C   UNL     1      -0.306   2.399  -0.247  1.00  0.00     0.164 C 
ATOM     15  C   UNL     1       2.261   1.701  -0.219  1.00  0.00     0.139 C 
ATOM     16  S   UNL     1       0.744   1.263   0.622  1.00  0.00     0.152 S 
ATOM     17  O   UNL     1       0.357  -0.079   0.236  1.00  0.00    -0.229 OA
ATOM     18  O   UNL     1       0.809   1.675   2.008  1.00  0.00    -0.229 OA
ENDBRANCH  10  12
ENDBRANCH   4   6
ENDBRANCH   3   4
ENDBRANCH   2   3
ENDBRANCH   1   2
BRANCH   1  19
ATOM     19  O   UNL     1       2.646   6.223  -6.909  1.00  0.00    -0.458 OA
BRANCH  19  20
ATOM     20  C   UNL     1       2.944   6.050  -5.599  1.00  0.00     0.338 C 
ATOM     21  O   UNL     1       2.251   6.362  -4.645  1.00  0.00    -0.246 OA
BRANCH  20  22
ATOM     22  C   UNL     1       4.351   5.654  -5.476  1.00  0.00     0.060 A 
ATOM     23  C   UNL     1       4.820   5.278  -4.213  1.00  0.00     0.016 A 
ATOM     24  C   UNL     1       5.228   5.923  -6.536  1.00  0.00     0.016 A 
ATOM     25  C   UNL     1       6.183   5.297  -3.980  1.00  0.00     0.010 A 
ATOM     26  C   UNL     1       6.580   5.972  -6.294  1.00  0.00     0.010 A 
ATOM     27  C   UNL     1       7.042   5.709  -5.006  1.00  0.00    -0.014 A 
BRANCH  27  28
ATOM     28  C   UNL     1       8.475   5.672  -4.783  1.00  0.00     0.031 A 
ATOM     29  C   UNL     1       9.003   4.288  -4.759  1.00  0.00     0.074 A 
ATOM     30  C   UNL     1       9.254   6.772  -4.763  1.00  0.00     0.049 A 
ATOM     31  N   UNL     1       9.486   3.665  -3.739  1.00  0.00    -0.248 NA
ATOM     32  C   UNL     1       8.784   3.426  -5.933  1.00  0.00     0.031 C 
ATOM     33  C   UNL     1       8.861   8.159  -5.011  1.00  0.00     0.029 A 
ATOM     34  N   UNL     1      10.605   6.862  -4.620  1.00  0.00    -0.354 N 
ATOM     35  C   UNL     1       9.870   2.416  -4.208  1.00  0.00     0.074 A 
ATOM     36  C   UNL     1       9.213   2.249  -5.475  1.00  0.00     0.031 C 
ATOM     37  C   UNL     1       9.970   8.903  -5.230  1.00  0.00     0.029 A 
ATOM     38  C   UNL     1      11.151   8.074  -5.041  1.00  0.00     0.049 A 
ATOM     39  H   UNL     1      11.151   6.131  -4.250  1.00  0.00     0.167 HD
ATOM     40  C   UNL     1      10.902   1.745  -3.630  1.00  0.00     0.034 A 
ATOM     41  C   UNL     1      12.467   8.344  -5.280  1.00  0.00     0.034 A 
ATOM     42  C   UNL     1      11.220   2.310  -2.337  1.00  0.00     0.049 A 
ATOM     43  C   UNL     1      13.251   7.345  -4.505  1.00  0.00     0.074 A 
ATOM     44  C   UNL     1      10.501   2.514  -1.175  1.00  0.00     0.029 A 
ATOM     45  N   UNL     1      12.320   3.136  -2.246  1.00  0.00    -0.354 N 
ATOM     46  N   UNL     1      13.265   7.312  -3.200  1.00  0.00    -0.248 NA
ATOM     47  C   UNL     1      13.589   6.083  -5.153  1.00  0.00     0.031 C 
ATOM     48  C   UNL     1      10.922   3.790  -0.703  1.00  0.00     0.029 A 
ATOM     49  C   UNL     1      11.944   4.250  -1.537  1.00  0.00     0.049 A 
ATOM     50  H   UNL     1      13.213   2.959  -2.621  1.00  0.00     0.167 HD
ATOM     51  C   UNL     1      13.146   5.969  -2.875  1.00  0.00     0.074 A 
ATOM     52  C   UNL     1      13.454   5.253  -4.113  1.00  0.00     0.031 C 
ATOM     53  C   UNL     1      12.519   5.570  -1.728  1.00  0.00     0.034 A 
BRANCH  40  54
ATOM     54  C   UNL     1      11.867   0.849  -4.370  1.00  0.00     0.023 A 
ATOM     55  C   UNL     1      12.877   0.241  -3.603  1.00  0.00     0.031 A 
ATOM     56  C   UNL     1      12.042   0.798  -5.771  1.00  0.00     0.131 A 
ATOM     57  C   UNL     1      14.039  -0.261  -4.210  1.00  0.00     0.055 A 
ATOM     58  C   UNL     1      13.166   0.228  -6.375  1.00  0.00     0.041 A 
ATOM     59  F   UNL     1      11.198   1.375  -6.633  1.00  0.00    -0.206 F 
ATOM     60  C   UNL     1      14.191  -0.273  -5.593  1.00  0.00     0.022 A 
BRANCH  57  61
ATOM     61  S   UNL     1      15.425  -0.718  -3.141  1.00  0.00     0.124 S 
ATOM     62  O   UNL     1      15.649   0.524  -2.409  1.00  0.00    -0.237 OA
ATOM     63  O   UNL     1      14.863  -1.825  -2.377  1.00  0.00    -0.237 OA
ATOM     64  O   UNL     1      16.475  -1.083  -4.089  1.00  0.00    -0.744 OA
ENDBRANCH  57  61
ENDBRANCH  40  54
BRANCH  41  65
ATOM     65  C   UNL     1      13.057   9.210  -6.351  1.00  0.00     0.023 A 
ATOM     66  C   UNL     1      14.421   9.593  -6.374  1.00  0.00     0.031 A 
ATOM     67  C   UNL     1      12.319   9.479  -7.526  1.00  0.00     0.131 A 
ATOM     68  C   UNL     1      14.979  10.204  -7.527  1.00  0.00     0.055 A 
ATOM     69  C   UNL     1      12.873  10.084  -8.658  1.00  0.00     0.041 A 
ATOM     70  F   UNL     1      11.044   9.082  -7.659  1.00  0.00    -0.206 F 
ATOM     71  C   UNL     1      14.210  10.438  -8.668  1.00  0.00     0.022 A 
BRANCH  68  72
ATOM     72  S   UNL     1      16.756  10.616  -7.613  1.00  0.00     0.124 S 
ATOM     73  O   UNL     1      16.843  11.794  -6.759  1.00  0.00    -0.237 OA
ATOM     74  O   UNL     1      17.390   9.401  -7.112  1.00  0.00    -0.237 OA
ATOM     75  O   UNL     1      16.978  10.873  -9.038  1.00  0.00    -0.744 OA
ENDBRANCH  68  72
ENDBRANCH  41  65
BRANCH  53  76
ATOM     76  C   UNL     1      12.208   6.607  -0.665  1.00  0.00     0.023 A 
ATOM     77  C   UNL     1      11.449   7.783  -0.871  1.00  0.00     0.031 A 
ATOM     78  C   UNL     1      12.594   6.307   0.654  1.00  0.00     0.131 A 
ATOM     79  C   UNL     1      11.116   8.609   0.223  1.00  0.00     0.055 A 
ATOM     80  C   UNL     1      12.240   7.111   1.736  1.00  0.00     0.041 A 
ATOM     81  F   UNL     1      13.295   5.193   0.922  1.00  0.00    -0.206 F 
ATOM     82  C   UNL     1      11.504   8.270   1.523  1.00  0.00     0.022 A 
BRANCH  79  83
ATOM     83  S   UNL     1      10.186  10.156  -0.025  1.00  0.00     0.124 S 
ATOM     84  O   UNL     1      10.876  10.796  -1.139  1.00  0.00    -0.237 OA
ATOM     85  O   UNL     1       8.835   9.673  -0.301  1.00  0.00    -0.237 OA
ATOM     86  O   UNL     1      10.330  10.849   1.257  1.00  0.00    -0.744 OA
ENDBRANCH  79  83
ENDBRANCH  53  76
ENDBRANCH  27  28
ENDBRANCH  20  22
ENDBRANCH  19  20
ENDBRANCH   1  19
TORSDOF 15
