REMARK SMILES Cn1c(=O)c(=O)n(C)c2cc(S(=O)(=O)N3CCC[C@H]3C(=O)OCCOC(=O)c3ccc(-c4c5nc(c(-c6cc(S(=O)(=O)[O-])ccc6F)c6ccc([nH]6)c(-c6cc(S(=O)(=O)[O-])ccc6F)c6nc(c(-c7cc(S(=O)(=O)[O-])ccc7F)c7ccc4[nH]7)C=C6)C=C5)cc3)ccc21
REMARK SMILES IDX 24 1 23 2 22 3 20 4 21 5 19 6 15 7 16 8 17 9 18 10 12 11
REMARK SMILES IDX 13 12 14 13 11 14 1 15 2 16 3 17 93 18 4 19 5 20 9 21 92 22
REMARK SMILES IDX 6 23 7 24 10 25 91 26 8 27 25 28 26 29 27 30 28 31 29 32
REMARK SMILES IDX 90 33 30 34 89 35 31 36 32 37 33 38 83 39 34 40 88 41 82 42
REMARK SMILES IDX 84 43 35 44 87 45 81 46 80 47 36 49 68 50 48 51 67 52 49 53
REMARK SMILES IDX 52 54 66 55 85 56 50 57 51 58 65 60 86 61 53 62 37 63 38 64
REMARK SMILES IDX 46 65 39 66 45 67 47 68 44 69 40 70 41 71 42 72 43 73 69 74
REMARK SMILES IDX 70 75 78 76 71 77 77 78 79 79 76 80 72 81 73 82 74 83 75 84
REMARK SMILES IDX 54 85 55 86 63 87 56 88 62 89 64 90 61 91 57 92 58 93 59 94
REMARK SMILES IDX 60 95
REMARK H PARENT 84 48 52 59
REMARK Flexibility Score: inf
ROOT
ATOM      1  C   UNL     1       1.736  10.533   1.913  1.00  0.00     0.275 C 
ENDROOT
BRANCH   1   2
ATOM      2  C   UNL     1       0.561   9.611   2.252  1.00  0.00     0.274 C 
BRANCH   2   3
ATOM      3  O   UNL     1       0.858   8.259   1.861  1.00  0.00    -0.461 OA
BRANCH   3   4
ATOM      4  C   UNL     1       0.443   7.878   0.617  1.00  0.00     0.324 C 
ATOM      5  O   UNL     1      -0.356   8.520  -0.051  1.00  0.00    -0.250 OA
BRANCH   4   6
ATOM      6  C   UNL     1       1.044   6.530   0.219  1.00  0.00     0.183 C 
ATOM      7  N   UNL     1       1.460   6.405  -1.207  1.00  0.00    -0.184 NA
ATOM      8  C   UNL     1       2.918   6.215  -1.319  1.00  0.00     0.103 C 
ATOM      9  C   UNL     1       3.318   5.603   0.006  1.00  0.00     0.019 C 
ATOM     10  C   UNL     1       2.318   6.159   1.009  1.00  0.00     0.034 C 
BRANCH   7  11
ATOM     11  S   UNL     1       0.440   5.745  -2.374  1.00  0.00     0.243 S 
ATOM     12  O   UNL     1       1.062   5.963  -3.663  1.00  0.00    -0.207 OA
ATOM     13  O   UNL     1      -0.908   6.173  -2.091  1.00  0.00    -0.207 OA
BRANCH  11  14
ATOM     14  C   UNL     1       0.454   3.982  -2.108  1.00  0.00     0.084 A 
ATOM     15  C   UNL     1       0.764  -0.673  -0.084  1.00  0.00     0.154 C 
ATOM     16  N   UNL     1       0.365  -0.176  -1.394  1.00  0.00    -0.305 N 
ATOM     17  C   UNL     1      -0.025  -1.095  -2.359  1.00  0.00     0.316 A 
ATOM     18  C   UNL     1       0.395   1.212  -1.664  1.00  0.00     0.068 A 
ATOM     19  O   UNL     1      -0.061  -2.307  -2.157  1.00  0.00    -0.263 OA
ATOM     20  C   UNL     1      -0.436  -0.555  -3.737  1.00  0.00     0.316 A 
ATOM     21  C   UNL     1       0.060   1.720  -2.935  1.00  0.00     0.069 A 
ATOM     22  C   UNL     1       0.754   2.096  -0.646  1.00  0.00     0.030 A 
ATOM     23  O   UNL     1      -0.826  -1.362  -4.577  1.00  0.00    -0.263 OA
ATOM     24  N   UNL     1      -0.346   0.821  -3.959  1.00  0.00    -0.305 N 
ATOM     25  C   UNL     1       0.114   3.115  -3.154  1.00  0.00     0.050 A 
ATOM     26  C   UNL     1       0.766   3.459  -0.865  1.00  0.00     0.024 A 
ATOM     27  C   UNL     1      -0.714   1.322  -5.276  1.00  0.00     0.154 C 
ENDBRANCH  11  14
ENDBRANCH   7  11
ENDBRANCH   4   6
ENDBRANCH   3   4
ENDBRANCH   2   3
ENDBRANCH   1   2
BRANCH   1  28
ATOM     28  O   UNL     1       1.803  10.784   0.497  1.00  0.00    -0.458 OA
BRANCH  28  29
ATOM     29  C   UNL     1       2.685  10.023  -0.192  1.00  0.00     0.338 C 
ATOM     30  O   UNL     1       3.452   9.191   0.265  1.00  0.00    -0.246 OA
BRANCH  29  31
ATOM     31  C   UNL     1       2.521  10.262  -1.632  1.00  0.00     0.060 A 
ATOM     32  C   UNL     1       3.269  11.231  -2.287  1.00  0.00     0.016 A 
ATOM     33  C   UNL     1       1.692   9.411  -2.359  1.00  0.00     0.016 A 
ATOM     34  C   UNL     1       3.147  11.353  -3.676  1.00  0.00     0.010 A 
ATOM     35  C   UNL     1       1.659   9.457  -3.745  1.00  0.00     0.010 A 
ATOM     36  C   UNL     1       2.354  10.455  -4.423  1.00  0.00    -0.014 A 
BRANCH  36  37
ATOM     37  C   UNL     1       2.275  10.542  -5.905  1.00  0.00     0.031 A 
ATOM     38  C   UNL     1       0.959  10.761  -6.608  1.00  0.00     0.074 A 
ATOM     39  C   UNL     1       3.409  10.403  -6.621  1.00  0.00     0.049 A 
ATOM     40  N   UNL     1       0.744  11.017  -7.873  1.00  0.00    -0.248 NA
ATOM     41  C   UNL     1      -0.275  10.661  -5.809  1.00  0.00     0.031 C 
ATOM     42  C   UNL     1       4.714  10.055  -6.057  1.00  0.00     0.029 A 
ATOM     43  N   UNL     1       3.658  10.559  -7.961  1.00  0.00    -0.354 N 
ATOM     44  C   UNL     1      -0.637  11.116  -8.015  1.00  0.00     0.074 A 
ATOM     45  C   UNL     1      -1.216  10.812  -6.729  1.00  0.00     0.031 C 
ATOM     46  C   UNL     1       5.639  10.111  -7.025  1.00  0.00     0.029 A 
ATOM     47  C   UNL     1       4.991  10.456  -8.288  1.00  0.00     0.049 A 
ATOM     48  H   UNL     1       2.951  10.729  -8.625  1.00  0.00     0.167 HD
ATOM     49  C   UNL     1      -1.350  11.473  -9.108  1.00  0.00     0.034 A 
ATOM     50  C   UNL     1       5.625  10.646  -9.463  1.00  0.00     0.034 A 
ATOM     51  C   UNL     1      -0.749  11.797 -10.376  1.00  0.00     0.049 A 
ATOM     52  C   UNL     1       4.812  11.086 -10.655  1.00  0.00     0.074 A 
ATOM     53  C   UNL     1      -1.371  12.258 -11.521  1.00  0.00     0.029 A 
ATOM     54  N   UNL     1       0.604  11.696 -10.667  1.00  0.00    -0.354 N 
ATOM     55  N   UNL     1       3.526  11.340 -10.730  1.00  0.00    -0.248 NA
ATOM     56  C   UNL     1       5.534  11.285 -11.919  1.00  0.00     0.031 C 
ATOM     57  C   UNL     1      -0.410  12.364 -12.525  1.00  0.00     0.029 A 
ATOM     58  C   UNL     1       0.829  12.052 -11.986  1.00  0.00     0.049 A 
ATOM     59  H   UNL     1       1.300  11.414 -10.031  1.00  0.00     0.167 HD
ATOM     60  C   UNL     1       3.289  11.743 -12.041  1.00  0.00     0.074 A 
ATOM     61  C   UNL     1       4.573  11.747 -12.710  1.00  0.00     0.031 C 
ATOM     62  C   UNL     1       2.115  12.065 -12.641  1.00  0.00     0.034 A 
BRANCH  49  63
ATOM     63  C   UNL     1      -2.852  11.605  -8.999  1.00  0.00     0.023 A 
ATOM     64  C   UNL     1      -3.692  10.842  -9.832  1.00  0.00     0.031 A 
ATOM     65  C   UNL     1      -3.437  12.613  -8.211  1.00  0.00     0.131 A 
ATOM     66  C   UNL     1      -5.059  11.140  -9.902  1.00  0.00     0.055 A 
ATOM     67  C   UNL     1      -4.808  12.870  -8.245  1.00  0.00     0.041 A 
ATOM     68  F   UNL     1      -2.680  13.377  -7.406  1.00  0.00    -0.206 F 
ATOM     69  C   UNL     1      -5.623  12.144  -9.107  1.00  0.00     0.022 A 
BRANCH  66  70
ATOM     70  S   UNL     1      -6.143  10.304 -11.093  1.00  0.00     0.124 S 
ATOM     71  O   UNL     1      -7.193   9.774 -10.226  1.00  0.00    -0.237 OA
ATOM     72  O   UNL     1      -6.548  11.406 -11.959  1.00  0.00    -0.237 OA
ATOM     73  O   UNL     1      -5.281   9.299 -11.707  1.00  0.00    -0.744 OA
ENDBRANCH  66  70
ENDBRANCH  49  63
BRANCH  50  74
ATOM     74  C   UNL     1       7.112  10.514  -9.526  1.00  0.00     0.023 A 
ATOM     75  C   UNL     1       7.750   9.303  -9.196  1.00  0.00     0.031 A 
ATOM     76  C   UNL     1       7.924  11.623  -9.821  1.00  0.00     0.131 A 
ATOM     77  C   UNL     1       9.147   9.250  -9.106  1.00  0.00     0.055 A 
ATOM     78  C   UNL     1       9.318  11.544  -9.811  1.00  0.00     0.041 A 
ATOM     79  F   UNL     1       7.368  12.808 -10.119  1.00  0.00    -0.206 F 
ATOM     80  C   UNL     1       9.936  10.357  -9.434  1.00  0.00     0.022 A 
BRANCH  77  81
ATOM     81  S   UNL     1       9.980   7.792  -8.419  1.00  0.00     0.124 S 
ATOM     82  O   UNL     1      10.792   7.345  -9.546  1.00  0.00    -0.237 OA
ATOM     83  O   UNL     1      10.719   8.369  -7.298  1.00  0.00    -0.237 OA
ATOM     84  O   UNL     1       8.879   6.911  -8.043  1.00  0.00    -0.744 OA
ENDBRANCH  77  81
ENDBRANCH  50  74
BRANCH  62  85
ATOM     85  C   UNL     1       2.131  12.441 -14.105  1.00  0.00     0.023 A 
ATOM     86  C   UNL     1       1.664  13.704 -14.517  1.00  0.00     0.031 A 
ATOM     87  C   UNL     1       2.458  11.499 -15.096  1.00  0.00     0.131 A 
ATOM     88  C   UNL     1       1.493  13.974 -15.880  1.00  0.00     0.055 A 
ATOM     89  C   UNL     1       2.345  11.794 -16.454  1.00  0.00     0.041 A 
ATOM     90  F   UNL     1       2.892  10.274 -14.757  1.00  0.00    -0.206 F 
ATOM     91  C   UNL     1       1.844  13.031 -16.851  1.00  0.00     0.022 A 
BRANCH  88  92
ATOM     92  S   UNL     1       0.714  15.513 -16.441  1.00  0.00     0.124 S 
ATOM     93  O   UNL     1       1.778  16.115 -17.241  1.00  0.00    -0.237 OA
ATOM     94  O   UNL     1      -0.432  15.019 -17.199  1.00  0.00    -0.237 OA
ATOM     95  O   UNL     1       0.392  16.218 -15.204  1.00  0.00    -0.744 OA
ENDBRANCH  88  92
ENDBRANCH  62  85
ENDBRANCH  36  37
ENDBRANCH  29  31
ENDBRANCH  28  29
ENDBRANCH   1  28
TORSDOF 16
