REMARK SMILES CN(C(=O)C[C@H]1SC(=O)N(c2cccc(O)c2)C1=O)c1ccccc1C(=O)OCCOC(=O)c1ccc(-c2c3nc(c(-c4cc(S(=O)(=O)[O-])ccc4F)c4ccc([nH]4)c(-c4cc(S(=O)(=O)[O-])ccc4F)c4nc(c(-c5cc(S(=O)(=O)[O-])ccc5F)c5ccc2[nH]5)C=C4)C=C3)cc1
REMARK SMILES IDX 28 1 26 2 27 3 25 4 20 5 21 6 22 7 24 8 23 9 2 10 1 11 3 12
REMARK SMILES IDX 4 13 5 14 6 15 7 16 18 17 8 18 10 19 19 20 9 21 11 22 12 23
REMARK SMILES IDX 17 24 13 25 15 26 14 27 16 28 29 30 30 31 31 32 32 33 33 34
REMARK SMILES IDX 34 35 35 36 96 37 36 38 95 39 37 40 38 41 39 42 89 43 40 44
REMARK SMILES IDX 94 45 88 46 90 47 41 48 93 49 87 50 86 51 42 53 74 54 54 55
REMARK SMILES IDX 73 56 55 57 58 58 72 59 91 60 56 61 57 62 71 64 92 65 59 66
REMARK SMILES IDX 43 67 44 68 52 69 45 70 51 71 53 72 50 73 46 74 47 75 48 76
REMARK SMILES IDX 49 77 75 78 76 79 84 80 77 81 83 82 85 83 82 84 78 85 79 86
REMARK SMILES IDX 80 87 81 88 60 89 61 90 69 91 62 92 68 93 70 94 67 95 63 96
REMARK SMILES IDX 64 97 65 98 66 99
REMARK H PARENT 16 29 90 52 58 63
REMARK Flexibility Score: inf
ROOT
ATOM      1  O   UNL     1      -0.754  -6.040  -0.665  1.00  0.00    -0.458 OA
ENDROOT
BRANCH   1   2
ATOM      2  C   UNL     1       0.041  -6.760  -1.496  1.00  0.00     0.340 C 
ATOM      3  O   UNL     1       0.230  -7.965  -1.446  1.00  0.00    -0.246 OA
BRANCH   2   4
ATOM      4  C   UNL     1       0.604  -5.913  -2.575  1.00  0.00     0.083 A 
ATOM      5  C   UNL     1       1.289  -4.701  -2.362  1.00  0.00     0.058 A 
ATOM      6  C   UNL     1       1.700  -3.968  -3.492  1.00  0.00     0.027 A 
ATOM      7  C   UNL     1       1.451  -4.426  -4.790  1.00  0.00     0.002 A 
ATOM      8  C   UNL     1       0.388  -6.381  -3.885  1.00  0.00     0.018 A 
ATOM      9  C   UNL     1       0.796  -5.634  -4.987  1.00  0.00     0.001 A 
BRANCH   5  10
ATOM     10  N   UNL     1       1.695  -4.235  -1.063  1.00  0.00    -0.315 N 
ATOM     11  C   UNL     1       2.417  -5.218  -0.249  1.00  0.00     0.153 C 
BRANCH  10  12
ATOM     12  C   UNL     1       1.480  -2.900  -0.713  1.00  0.00     0.228 C 
ATOM     13  O   UNL     1       1.012  -2.053  -1.480  1.00  0.00    -0.274 OA
BRANCH  12  14
ATOM     14  C   UNL     1       1.729  -2.461   0.720  1.00  0.00     0.125 C 
BRANCH  14  15
ATOM     15  C   UNL     1       0.438  -2.564   1.532  1.00  0.00     0.156 C 
ATOM     16  S   UNL     1       0.250  -4.224   2.221  1.00  0.00    -0.050 SA
ATOM     17  C   UNL     1       0.473  -1.650   2.744  1.00  0.00     0.248 C 
ATOM     18  C   UNL     1       0.759  -3.729   3.808  1.00  0.00     0.293 C 
ATOM     19  N   UNL     1       0.688  -2.363   3.917  1.00  0.00    -0.240 N 
ATOM     20  O   UNL     1       0.413  -0.428   2.642  1.00  0.00    -0.273 OA
ATOM     21  O   UNL     1       1.069  -4.560   4.647  1.00  0.00    -0.261 OA
BRANCH  19  22
ATOM     22  C   UNL     1       0.773  -1.739   5.189  1.00  0.00     0.056 A 
ATOM     23  C   UNL     1       1.720  -2.164   6.133  1.00  0.00     0.027 A 
ATOM     24  C   UNL     1      -0.163  -0.766   5.561  1.00  0.00     0.073 A 
ATOM     25  C   UNL     1       1.727  -1.636   7.426  1.00  0.00     0.006 A 
ATOM     26  C   UNL     1      -0.182  -0.289   6.869  1.00  0.00     0.117 A 
ATOM     27  C   UNL     1       0.760  -0.708   7.802  1.00  0.00     0.046 A 
BRANCH  26  28
ATOM     28  O   UNL     1      -1.182   0.572   7.215  1.00  0.00    -0.508 OA
ATOM     29  H   UNL     1      -1.226   0.913   8.086  1.00  0.00     0.293 HD
ENDBRANCH  26  28
ENDBRANCH  19  22
ENDBRANCH  14  15
ENDBRANCH  12  14
ENDBRANCH  10  12
ENDBRANCH   5  10
ENDBRANCH   2   4
ENDBRANCH   1   2
BRANCH   1  30
ATOM     30  C   UNL     1      -1.435  -6.793   0.365  1.00  0.00     0.275 C 
BRANCH  30  31
ATOM     31  C   UNL     1      -2.828  -6.208   0.618  1.00  0.00     0.275 C 
BRANCH  31  32
ATOM     32  O   UNL     1      -3.715  -6.685  -0.409  1.00  0.00    -0.458 OA
BRANCH  32  33
ATOM     33  C   UNL     1      -3.788  -5.894  -1.503  1.00  0.00     0.338 C 
ATOM     34  O   UNL     1      -3.403  -4.745  -1.619  1.00  0.00    -0.246 OA
BRANCH  33  35
ATOM     35  C   UNL     1      -4.207  -6.737  -2.627  1.00  0.00     0.060 A 
ATOM     36  C   UNL     1      -3.201  -7.262  -3.437  1.00  0.00     0.016 A 
ATOM     37  C   UNL     1      -5.548  -6.966  -2.918  1.00  0.00     0.016 A 
ATOM     38  C   UNL     1      -3.523  -7.971  -4.588  1.00  0.00     0.010 A 
ATOM     39  C   UNL     1      -5.871  -7.725  -4.048  1.00  0.00     0.010 A 
ATOM     40  C   UNL     1      -4.864  -8.211  -4.908  1.00  0.00    -0.014 A 
BRANCH  40  41
ATOM     41  C   UNL     1      -5.228  -8.898  -6.177  1.00  0.00     0.031 A 
ATOM     42  C   UNL     1      -6.043  -8.156  -7.202  1.00  0.00     0.074 A 
ATOM     43  C   UNL     1      -4.837 -10.165  -6.416  1.00  0.00     0.049 A 
ATOM     44  N   UNL     1      -6.682  -8.612  -8.247  1.00  0.00    -0.248 NA
ATOM     45  C   UNL     1      -6.170  -6.704  -7.004  1.00  0.00     0.031 C 
ATOM     46  C   UNL     1      -3.976 -10.966  -5.545  1.00  0.00     0.029 A 
ATOM     47  N   UNL     1      -5.122 -11.007  -7.463  1.00  0.00    -0.354 N 
ATOM     48  C   UNL     1      -7.338  -7.515  -8.798  1.00  0.00     0.074 A 
ATOM     49  C   UNL     1      -7.024  -6.375  -7.962  1.00  0.00     0.031 C 
ATOM     50  C   UNL     1      -3.795 -12.176  -6.096  1.00  0.00     0.029 A 
ATOM     51  C   UNL     1      -4.603 -12.273  -7.307  1.00  0.00     0.049 A 
ATOM     52  H   UNL     1      -5.647 -10.733  -8.249  1.00  0.00     0.167 HD
ATOM     53  C   UNL     1      -8.134  -7.473  -9.896  1.00  0.00     0.034 A 
ATOM     54  C   UNL     1      -4.804 -13.399  -8.021  1.00  0.00     0.034 A 
ATOM     55  C   UNL     1      -8.396  -8.621 -10.732  1.00  0.00     0.049 A 
ATOM     56  C   UNL     1      -5.742 -13.347  -9.200  1.00  0.00     0.074 A 
ATOM     57  C   UNL     1      -9.176  -8.700 -11.872  1.00  0.00     0.029 A 
ATOM     58  N   UNL     1      -7.875  -9.893 -10.520  1.00  0.00    -0.354 N 
ATOM     59  N   UNL     1      -6.421 -12.326  -9.670  1.00  0.00    -0.248 NA
ATOM     60  C   UNL     1      -5.953 -14.601  -9.934  1.00  0.00     0.031 C 
ATOM     61  C   UNL     1      -9.178 -10.028 -12.312  1.00  0.00     0.029 A 
ATOM     62  C   UNL     1      -8.337 -10.765 -11.493  1.00  0.00     0.049 A 
ATOM     63  H   UNL     1      -7.267 -10.138  -9.786  1.00  0.00     0.167 HD
ATOM     64  C   UNL     1      -7.122 -12.811 -10.771  1.00  0.00     0.074 A 
ATOM     65  C   UNL     1      -6.771 -14.211 -10.901  1.00  0.00     0.031 C 
ATOM     66  C   UNL     1      -7.978 -12.160 -11.600  1.00  0.00     0.034 A 
BRANCH  53  67
ATOM     67  C   UNL     1      -8.827  -6.167 -10.206  1.00  0.00     0.023 A 
ATOM     68  C   UNL     1      -8.118  -5.001 -10.541  1.00  0.00     0.031 A 
ATOM     69  C   UNL     1     -10.230  -6.081 -10.126  1.00  0.00     0.131 A 
ATOM     70  C   UNL     1      -8.805  -3.787 -10.707  1.00  0.00     0.055 A 
ATOM     71  C   UNL     1     -10.913  -4.890 -10.374  1.00  0.00     0.041 A 
ATOM     72  F   UNL     1     -10.962  -7.155  -9.788  1.00  0.00    -0.206 F 
ATOM     73  C   UNL     1     -10.199  -3.729 -10.651  1.00  0.00     0.022 A 
BRANCH  70  74
ATOM     74  S   UNL     1      -7.841  -2.257 -10.852  1.00  0.00     0.124 S 
ATOM     75  O   UNL     1      -7.085  -2.266  -9.602  1.00  0.00    -0.237 OA
ATOM     76  O   UNL     1      -7.067  -2.486 -12.067  1.00  0.00    -0.237 OA
ATOM     77  O   UNL     1      -8.862  -1.216 -10.948  1.00  0.00    -0.744 OA
ENDBRANCH  70  74
ENDBRANCH  53  67
BRANCH  54  78
ATOM     78  C   UNL     1      -4.174 -14.684  -7.598  1.00  0.00     0.023 A 
ATOM     79  C   UNL     1      -3.257 -15.351  -8.424  1.00  0.00     0.031 A 
ATOM     80  C   UNL     1      -4.509 -15.284  -6.369  1.00  0.00     0.131 A 
ATOM     81  C   UNL     1      -2.731 -16.592  -8.027  1.00  0.00     0.055 A 
ATOM     82  C   UNL     1      -3.940 -16.488  -5.953  1.00  0.00     0.041 A 
ATOM     83  F   UNL     1      -5.386 -14.694  -5.541  1.00  0.00    -0.206 F 
ATOM     84  C   UNL     1      -3.053 -17.156  -6.790  1.00  0.00     0.022 A 
BRANCH  81  85
ATOM     85  S   UNL     1      -1.679 -17.503  -9.191  1.00  0.00     0.124 S 
ATOM     86  O   UNL     1      -2.562 -17.644 -10.342  1.00  0.00    -0.237 OA
ATOM     87  O   UNL     1      -0.550 -16.592  -9.355  1.00  0.00    -0.237 OA
ATOM     88  O   UNL     1      -1.378 -18.743  -8.479  1.00  0.00    -0.744 OA
ENDBRANCH  81  85
ENDBRANCH  54  78
BRANCH  66  89
ATOM     89  C   UNL     1      -8.544 -12.951 -12.752  1.00  0.00     0.023 A 
ATOM     90  C   UNL     1      -9.463 -13.996 -12.553  1.00  0.00     0.031 A 
ATOM     91  C   UNL     1      -8.151 -12.653 -14.069  1.00  0.00     0.131 A 
ATOM     92  C   UNL     1      -9.919 -14.740 -13.652  1.00  0.00     0.055 A 
ATOM     93  C   UNL     1      -8.653 -13.359 -15.162  1.00  0.00     0.041 A 
ATOM     94  F   UNL     1      -7.274 -11.666 -14.313  1.00  0.00    -0.206 F 
ATOM     95  C   UNL     1      -9.534 -14.417 -14.956  1.00  0.00     0.022 A 
BRANCH  92  96
ATOM     96  S   UNL     1     -10.965 -16.191 -13.348  1.00  0.00     0.124 S 
ATOM     97  O   UNL     1     -10.096 -17.022 -12.521  1.00  0.00    -0.237 OA
ATOM     98  O   UNL     1     -12.121 -15.608 -12.675  1.00  0.00    -0.237 OA
ATOM     99  O   UNL     1     -11.227 -16.711 -14.689  1.00  0.00    -0.744 OA
ENDBRANCH  92  96
ENDBRANCH  66  89
ENDBRANCH  40  41
ENDBRANCH  33  35
ENDBRANCH  32  33
ENDBRANCH  31  32
ENDBRANCH  30  31
ENDBRANCH   1  30
TORSDOF 20
