REMARK SMILES C[C@@H]1CN(S(=O)(=O)c2cccc(C(=O)N3CCC[C@@H]3C(=O)OCCOC(=O)c3ccc(-c4c5nc(c(-c6cc(S(=O)(=O)[O-])ccc6F)c6ccc([nH]6)c(-c6cc(S(=O)(=O)[O-])ccc6F)c6nc(c(-c7cc(S(=O)(=O)[O-])ccc7F)c7ccc4[nH]7)C=C6)C=C5)cc3)c2)C[C@H](C)O1
REMARK SMILES IDX 23 1 22 2 20 3 21 4 19 5 15 6 16 7 17 8 18 9 13 10 14 11
REMARK SMILES IDX 12 12 8 13 9 14 91 15 10 16 11 17 5 18 6 19 7 20 4 21 1 22
REMARK SMILES IDX 2 23 3 24 95 25 93 26 92 27 94 28 24 29 25 30 26 31 27 32
REMARK SMILES IDX 28 33 29 34 90 35 30 36 89 37 31 38 32 39 33 40 83 41 34 42
REMARK SMILES IDX 88 43 82 44 84 45 35 46 87 47 81 48 80 49 36 51 68 52 48 53
REMARK SMILES IDX 67 54 49 55 52 56 66 57 85 58 50 59 51 60 65 62 86 63 53 64
REMARK SMILES IDX 37 65 38 66 46 67 39 68 45 69 47 70 44 71 40 72 41 73 42 74
REMARK SMILES IDX 43 75 69 76 70 77 78 78 71 79 77 80 79 81 76 82 72 83 73 84
REMARK SMILES IDX 74 85 75 86 54 87 55 88 63 89 56 90 62 91 64 92 61 93 57 94
REMARK SMILES IDX 58 95 59 96 60 97
REMARK H PARENT 84 50 52 61
REMARK Flexibility Score: inf
ROOT
ATOM      1  C   UNL     1       0.403   3.364   0.792  1.00  0.00     0.274 C 
ENDROOT
BRANCH   1   2
ATOM      2  O   UNL     1      -0.802   2.583   0.644  1.00  0.00    -0.461 OA
BRANCH   2   3
ATOM      3  C   UNL     1      -1.818   2.897   1.492  1.00  0.00     0.328 C 
ATOM      4  O   UNL     1      -1.690   3.657   2.447  1.00  0.00    -0.250 OA
BRANCH   3   5
ATOM      5  C   UNL     1      -3.125   2.141   1.200  1.00  0.00     0.195 C 
ATOM      6  N   UNL     1      -3.337   1.008   2.093  1.00  0.00    -0.325 N 
ATOM      7  C   UNL     1      -4.234   0.082   1.435  1.00  0.00     0.121 C 
ATOM      8  C   UNL     1      -3.720   0.095   0.011  1.00  0.00     0.024 C 
ATOM      9  C   UNL     1      -3.308   1.553  -0.211  1.00  0.00     0.039 C 
BRANCH   6  10
ATOM     10  C   UNL     1      -3.439   1.227   3.456  1.00  0.00     0.254 C 
ATOM     11  O   UNL     1      -4.157   2.073   3.966  1.00  0.00    -0.269 OA
BRANCH  10  12
ATOM     12  C   UNL     1      -2.424   0.471   4.246  1.00  0.00     0.041 A 
ATOM     13  C   UNL     1      -0.779  -1.303   4.341  1.00  0.00     0.083 A 
ATOM     14  C   UNL     1      -0.272  -0.783   5.532  1.00  0.00     0.022 A 
ATOM     15  C   UNL     1      -1.882  -0.710   3.736  1.00  0.00     0.035 A 
ATOM     16  C   UNL     1      -0.857   0.363   6.086  1.00  0.00     0.002 A 
ATOM     17  C   UNL     1      -1.923   0.999   5.437  1.00  0.00     0.014 A 
BRANCH  13  18
ATOM     18  S   UNL     1      -0.151  -2.801   3.634  1.00  0.00     0.243 S 
ATOM     19  O   UNL     1      -1.292  -3.611   3.258  1.00  0.00    -0.207 OA
ATOM     20  O   UNL     1       0.857  -3.325   4.534  1.00  0.00    -0.207 OA
BRANCH  18  21
ATOM     21  N   UNL     1       0.663  -2.352   2.171  1.00  0.00    -0.193 NA
ATOM     22  C   UNL     1       1.398  -0.182  -0.207  1.00  0.00     0.040 C 
ATOM     23  C   UNL     1       0.561  -1.457  -0.208  1.00  0.00     0.130 C 
ATOM     24  C   UNL     1      -0.195  -1.704   1.117  1.00  0.00     0.134 C 
ATOM     25  O   UNL     1       1.317  -2.582  -0.668  1.00  0.00    -0.373 OA
ATOM     26  C   UNL     1       2.116  -3.236   0.322  1.00  0.00     0.130 C 
ATOM     27  C   UNL     1       1.306  -3.579   1.574  1.00  0.00     0.134 C 
ATOM     28  C   UNL     1       3.406  -2.486   0.631  1.00  0.00     0.040 C 
ENDBRANCH  18  21
ENDBRANCH  13  18
ENDBRANCH  10  12
ENDBRANCH   6  10
ENDBRANCH   3   5
ENDBRANCH   2   3
ENDBRANCH   1   2
BRANCH   1  29
ATOM     29  C   UNL     1       0.562   4.349  -0.370  1.00  0.00     0.275 C 
BRANCH  29  30
ATOM     30  O   UNL     1      -0.466   5.357  -0.360  1.00  0.00    -0.458 OA
BRANCH  30  31
ATOM     31  C   UNL     1      -1.584   5.036  -1.053  1.00  0.00     0.338 C 
ATOM     32  O   UNL     1      -1.783   4.013  -1.688  1.00  0.00    -0.246 OA
BRANCH  31  33
ATOM     33  C   UNL     1      -2.633   6.036  -0.810  1.00  0.00     0.060 A 
ATOM     34  C   UNL     1      -3.812   5.603  -0.200  1.00  0.00     0.016 A 
ATOM     35  C   UNL     1      -2.507   7.353  -1.253  1.00  0.00     0.016 A 
ATOM     36  C   UNL     1      -4.879   6.477  -0.031  1.00  0.00     0.010 A 
ATOM     37  C   UNL     1      -3.582   8.233  -1.085  1.00  0.00     0.010 A 
ATOM     38  C   UNL     1      -4.777   7.797  -0.484  1.00  0.00    -0.014 A 
BRANCH  38  39
ATOM     39  C   UNL     1      -5.955   8.690  -0.385  1.00  0.00     0.031 A 
ATOM     40  C   UNL     1      -6.739   9.018  -1.623  1.00  0.00     0.074 A 
ATOM     41  C   UNL     1      -6.339   9.163   0.815  1.00  0.00     0.049 A 
ATOM     42  N   UNL     1      -7.739   9.846  -1.776  1.00  0.00    -0.248 NA
ATOM     43  C   UNL     1      -6.340   8.319  -2.854  1.00  0.00     0.031 C 
ATOM     44  C   UNL     1      -5.693   8.848   2.090  1.00  0.00     0.029 A 
ATOM     45  N   UNL     1      -7.364  10.007   1.158  1.00  0.00    -0.354 N 
ATOM     46  C   UNL     1      -8.078   9.787  -3.123  1.00  0.00     0.074 A 
ATOM     47  C   UNL     1      -7.161   8.855  -3.745  1.00  0.00     0.031 C 
ATOM     48  C   UNL     1      -6.337   9.493   3.077  1.00  0.00     0.029 A 
ATOM     49  C   UNL     1      -7.400  10.310   2.499  1.00  0.00     0.049 A 
ATOM     50  H   UNL     1      -8.011  10.362   0.507  1.00  0.00     0.167 HD
ATOM     51  C   UNL     1      -9.065  10.452  -3.775  1.00  0.00     0.034 A 
ATOM     52  C   UNL     1      -8.177  11.178   3.177  1.00  0.00     0.034 A 
ATOM     53  C   UNL     1      -9.968  11.374  -3.130  1.00  0.00     0.049 A 
ATOM     54  C   UNL     1      -9.214  11.965   2.416  1.00  0.00     0.074 A 
ATOM     55  C   UNL     1     -11.000  12.108  -3.690  1.00  0.00     0.029 A 
ATOM     56  N   UNL     1      -9.947  11.693  -1.777  1.00  0.00    -0.354 N 
ATOM     57  N   UNL     1      -9.501  11.931   1.134  1.00  0.00    -0.248 NA
ATOM     58  C   UNL     1     -10.030  12.907   3.192  1.00  0.00     0.031 C 
ATOM     59  C   UNL     1     -11.560  12.913  -2.692  1.00  0.00     0.029 A 
ATOM     60  C   UNL     1     -10.927  12.632  -1.492  1.00  0.00     0.049 A 
ATOM     61  H   UNL     1      -9.325  11.309  -1.117  1.00  0.00     0.167 HD
ATOM     62  C   UNL     1     -10.547  12.831   0.957  1.00  0.00     0.074 A 
ATOM     63  C   UNL     1     -10.850  13.379   2.264  1.00  0.00     0.031 C 
ATOM     64  C   UNL     1     -11.203  13.174  -0.182  1.00  0.00     0.034 A 
BRANCH  51  65
ATOM     65  C   UNL     1      -9.165  10.251  -5.267  1.00  0.00     0.023 A 
ATOM     66  C   UNL     1      -9.509   9.011  -5.831  1.00  0.00     0.031 A 
ATOM     67  C   UNL     1      -8.875  11.315  -6.141  1.00  0.00     0.131 A 
ATOM     68  C   UNL     1      -9.491   8.847  -7.225  1.00  0.00     0.055 A 
ATOM     69  C   UNL     1      -8.932  11.165  -7.528  1.00  0.00     0.041 A 
ATOM     70  F   UNL     1      -8.517  12.516  -5.660  1.00  0.00    -0.206 F 
ATOM     71  C   UNL     1      -9.228   9.922  -8.078  1.00  0.00     0.022 A 
BRANCH  68  72
ATOM     72  S   UNL     1      -9.685   7.177  -7.907  1.00  0.00     0.124 S 
ATOM     73  O   UNL     1      -8.560   6.475  -7.295  1.00  0.00    -0.237 OA
ATOM     74  O   UNL     1     -11.011   6.795  -7.436  1.00  0.00    -0.237 OA
ATOM     75  O   UNL     1      -9.571   7.380  -9.350  1.00  0.00    -0.744 OA
ENDBRANCH  68  72
ENDBRANCH  51  65
BRANCH  52  76
ATOM     76  C   UNL     1      -7.968  11.398   4.636  1.00  0.00     0.023 A 
ATOM     77  C   UNL     1      -8.968  11.090   5.571  1.00  0.00     0.031 A 
ATOM     78  C   UNL     1      -6.773  11.968   5.112  1.00  0.00     0.131 A 
ATOM     79  C   UNL     1      -8.773  11.392   6.928  1.00  0.00     0.055 A 
ATOM     80  C   UNL     1      -6.562  12.216   6.469  1.00  0.00     0.041 A 
ATOM     81  F   UNL     1      -5.785  12.286   4.261  1.00  0.00    -0.206 F 
ATOM     82  C   UNL     1      -7.572  11.940   7.385  1.00  0.00     0.022 A 
BRANCH  79  83
ATOM     83  S   UNL     1     -10.150  11.141   8.082  1.00  0.00     0.124 S 
ATOM     84  O   UNL     1     -11.193  11.968   7.486  1.00  0.00    -0.237 OA
ATOM     85  O   UNL     1     -10.352   9.698   8.003  1.00  0.00    -0.237 OA
ATOM     86  O   UNL     1      -9.620  11.625   9.355  1.00  0.00    -0.744 OA
ENDBRANCH  79  83
ENDBRANCH  52  76
BRANCH  64  87
ATOM     87  C   UNL     1     -12.339  14.155  -0.042  1.00  0.00     0.023 A 
ATOM     88  C   UNL     1     -12.116  15.501   0.294  1.00  0.00     0.031 A 
ATOM     89  C   UNL     1     -13.666  13.728  -0.230  1.00  0.00     0.131 A 
ATOM     90  C   UNL     1     -13.207  16.363   0.484  1.00  0.00     0.055 A 
ATOM     91  C   UNL     1     -14.744  14.603  -0.093  1.00  0.00     0.041 A 
ATOM     92  F   UNL     1     -13.934  12.453  -0.551  1.00  0.00    -0.206 F 
ATOM     93  C   UNL     1     -14.518  15.925   0.279  1.00  0.00     0.022 A 
BRANCH  90  94
ATOM     94  S   UNL     1     -12.895  18.045   1.086  1.00  0.00     0.124 S 
ATOM     95  O   UNL     1     -12.224  17.794   2.357  1.00  0.00    -0.237 OA
ATOM     96  O   UNL     1     -12.063  18.607   0.027  1.00  0.00    -0.237 OA
ATOM     97  O   UNL     1     -14.233  18.624   1.195  1.00  0.00    -0.744 OA
ENDBRANCH  90  94
ENDBRANCH  64  87
ENDBRANCH  38  39
ENDBRANCH  31  33
ENDBRANCH  30  31
ENDBRANCH  29  30
ENDBRANCH   1  29
TORSDOF 18
