REMARK SMILES O=C(OCCOC(=O)[C@@H]1C[C@@H](O)CN1C(=O)CSc1ccc(F)cc1F)c1ccc(-c2c3nc(c(-c4cc(S(=O)(=O)[O-])ccc4F)c4ccc([nH]4)c(-c4cc(S(=O)(=O)[O-])ccc4F)c4nc(c(-c5cc(S(=O)(=O)[O-])ccc5F)c5ccc2[nH]5)C=C4)C=C3)cc1
REMARK SMILES IDX 5 1 4 2 3 3 2 4 1 5 27 6 28 7 89 8 29 9 88 10 30 11 31 12
REMARK SMILES IDX 32 13 82 14 33 15 87 16 81 17 83 18 34 19 86 20 80 21 79 22
REMARK SMILES IDX 35 24 67 25 47 26 66 27 48 28 51 29 65 30 84 31 49 32 50 33
REMARK SMILES IDX 64 35 85 36 52 37 36 38 37 39 45 40 38 41 44 42 46 43 43 44
REMARK SMILES IDX 39 45 40 46 41 47 42 48 68 49 69 50 77 51 70 52 76 53 78 54
REMARK SMILES IDX 75 55 71 56 72 57 73 58 74 59 53 60 54 61 62 62 55 63 61 64
REMARK SMILES IDX 63 65 60 66 56 67 57 68 58 69 59 70 6 71 7 72 8 73 9 74
REMARK SMILES IDX 10 75 14 76 11 77 13 78 15 79 16 80 17 81 18 82 19 83 20 84
REMARK SMILES IDX 25 85 21 86 24 87 26 88 22 89 23 90 12 91
REMARK H PARENT 83 23 51 34 12 92
REMARK Flexibility Score: inf
ROOT
ATOM      1  C   UNL     1      -0.376  -3.665  -0.286  1.00  0.00     0.274 C 
ENDROOT
BRANCH   1   2
ATOM      2  C   UNL     1      -1.124  -4.619  -1.217  1.00  0.00     0.275 C 
BRANCH   2   3
ATOM      3  O   UNL     1      -0.328  -5.657  -1.790  1.00  0.00    -0.458 OA
BRANCH   3   4
ATOM      4  C   UNL     1       0.579  -5.511  -2.777  1.00  0.00     0.338 C 
ATOM      5  O   UNL     1       1.353  -6.432  -3.013  1.00  0.00    -0.246 OA
BRANCH   4   6
ATOM      6  C   UNL     1       0.724  -4.236  -3.542  1.00  0.00     0.060 A 
ATOM      7  C   UNL     1      -0.291  -3.443  -4.082  1.00  0.00     0.016 A 
ATOM      8  C   UNL     1       2.036  -3.860  -3.795  1.00  0.00     0.016 A 
ATOM      9  C   UNL     1       0.020  -2.269  -4.812  1.00  0.00     0.010 A 
ATOM     10  C   UNL     1       2.352  -2.727  -4.534  1.00  0.00     0.010 A 
ATOM     11  C   UNL     1       1.351  -1.907  -5.050  1.00  0.00    -0.014 A 
BRANCH  11  12
ATOM     12  C   UNL     1       1.810  -0.762  -5.880  1.00  0.00     0.031 A 
ATOM     13  C   UNL     1       2.470  -1.050  -7.208  1.00  0.00     0.074 A 
ATOM     14  C   UNL     1       1.912   0.471  -5.343  1.00  0.00     0.049 A 
ATOM     15  N   UNL     1       3.071  -0.231  -8.031  1.00  0.00    -0.248 NA
ATOM     16  C   UNL     1       2.496  -2.458  -7.638  1.00  0.00     0.031 C 
ATOM     17  C   UNL     1       1.443   0.863  -4.014  1.00  0.00     0.029 A 
ATOM     18  N   UNL     1       2.541   1.598  -5.815  1.00  0.00    -0.354 N 
ATOM     19  C   UNL     1       3.497  -1.016  -9.098  1.00  0.00     0.074 A 
ATOM     20  C   UNL     1       3.217  -2.391  -8.746  1.00  0.00     0.031 C 
ATOM     21  C   UNL     1       1.901   2.096  -3.732  1.00  0.00     0.029 A 
ATOM     22  C   UNL     1       2.663   2.595  -4.873  1.00  0.00     0.049 A 
ATOM     23  H   UNL     1       2.873   1.685  -6.738  1.00  0.00     0.167 HD
ATOM     24  C   UNL     1       3.999  -0.620 -10.294  1.00  0.00     0.034 A 
ATOM     25  C   UNL     1       3.324   3.770  -4.924  1.00  0.00     0.034 A 
ATOM     26  C   UNL     1       4.274   0.756 -10.613  1.00  0.00     0.049 A 
ATOM     27  C   UNL     1       3.941   4.204  -6.230  1.00  0.00     0.074 A 
ATOM     28  C   UNL     1       4.582   1.322 -11.837  1.00  0.00     0.029 A 
ATOM     29  N   UNL     1       4.311   1.780  -9.678  1.00  0.00    -0.354 N 
ATOM     30  N   UNL     1       4.080   3.519  -7.342  1.00  0.00    -0.248 NA
ATOM     31  C   UNL     1       4.421   5.590  -6.313  1.00  0.00     0.031 C 
ATOM     32  C   UNL     1       4.864   2.679 -11.630  1.00  0.00     0.029 A 
ATOM     33  C   UNL     1       4.677   2.968 -10.287  1.00  0.00     0.049 A 
ATOM     34  H   UNL     1       4.105   1.677  -8.721  1.00  0.00     0.167 HD
ATOM     35  C   UNL     1       4.579   4.420  -8.280  1.00  0.00     0.074 A 
ATOM     36  C   UNL     1       4.753   5.683  -7.593  1.00  0.00     0.031 C 
ATOM     37  C   UNL     1       4.832   4.226  -9.600  1.00  0.00     0.034 A 
BRANCH  24  38
ATOM     38  C   UNL     1       4.202  -1.677 -11.350  1.00  0.00     0.023 A 
ATOM     39  C   UNL     1       3.117  -2.450 -11.806  1.00  0.00     0.031 A 
ATOM     40  C   UNL     1       5.464  -1.926 -11.913  1.00  0.00     0.131 A 
ATOM     41  C   UNL     1       3.324  -3.488 -12.722  1.00  0.00     0.055 A 
ATOM     42  C   UNL     1       5.651  -2.911 -12.888  1.00  0.00     0.041 A 
ATOM     43  F   UNL     1       6.539  -1.226 -11.519  1.00  0.00    -0.206 F 
ATOM     44  C   UNL     1       4.580  -3.711 -13.286  1.00  0.00     0.022 A 
BRANCH  41  45
ATOM     45  S   UNL     1       1.946  -4.614 -13.066  1.00  0.00     0.124 S 
ATOM     46  O   UNL     1       1.692  -5.180 -11.743  1.00  0.00    -0.237 OA
ATOM     47  O   UNL     1       0.920  -3.710 -13.577  1.00  0.00    -0.237 OA
ATOM     48  O   UNL     1       2.500  -5.547 -14.043  1.00  0.00    -0.744 OA
ENDBRANCH  41  45
ENDBRANCH  24  38
BRANCH  25  49
ATOM     49  C   UNL     1       3.413   4.645  -3.723  1.00  0.00     0.023 A 
ATOM     50  C   UNL     1       2.701   5.852  -3.655  1.00  0.00     0.031 A 
ATOM     51  C   UNL     1       4.265   4.316  -2.653  1.00  0.00     0.131 A 
ATOM     52  C   UNL     1       2.900   6.721  -2.572  1.00  0.00     0.055 A 
ATOM     53  C   UNL     1       4.436   5.172  -1.562  1.00  0.00     0.041 A 
ATOM     54  F   UNL     1       4.946   3.158  -2.657  1.00  0.00    -0.206 F 
ATOM     55  C   UNL     1       3.763   6.390  -1.525  1.00  0.00     0.022 A 
BRANCH  52  56
ATOM     56  S   UNL     1       2.070   8.333  -2.596  1.00  0.00     0.124 S 
ATOM     57  O   UNL     1       2.507   8.874  -3.878  1.00  0.00    -0.237 OA
ATOM     58  O   UNL     1       0.666   7.945  -2.509  1.00  0.00    -0.237 OA
ATOM     59  O   UNL     1       2.604   9.009  -1.417  1.00  0.00    -0.744 OA
ENDBRANCH  52  56
ENDBRANCH  25  49
BRANCH  37  60
ATOM     60  C   UNL     1       5.232   5.430 -10.410  1.00  0.00     0.023 A 
ATOM     61  C   UNL     1       6.475   6.060 -10.241  1.00  0.00     0.031 A 
ATOM     62  C   UNL     1       4.349   5.948 -11.375  1.00  0.00     0.131 A 
ATOM     63  C   UNL     1       6.783   7.202 -10.994  1.00  0.00     0.055 A 
ATOM     64  C   UNL     1       4.685   7.049 -12.162  1.00  0.00     0.041 A 
ATOM     65  F   UNL     1       3.146   5.385 -11.572  1.00  0.00    -0.206 F 
ATOM     66  C   UNL     1       5.905   7.689 -11.967  1.00  0.00     0.022 A 
BRANCH  63  67
ATOM     67  S   UNL     1       8.325   8.086 -10.638  1.00  0.00     0.124 S 
ATOM     68  O   UNL     1       8.108   8.525  -9.263  1.00  0.00    -0.237 OA
ATOM     69  O   UNL     1       9.333   7.048 -10.824  1.00  0.00    -0.237 OA
ATOM     70  O   UNL     1       8.345   9.155 -11.636  1.00  0.00    -0.744 OA
ENDBRANCH  63  67
ENDBRANCH  37  60
ENDBRANCH  11  12
ENDBRANCH   4   6
ENDBRANCH   3   4
ENDBRANCH   2   3
ENDBRANCH   1   2
BRANCH   1  71
ATOM     71  O   UNL     1       0.819  -3.083  -0.841  1.00  0.00    -0.461 OA
BRANCH  71  72
ATOM     72  C   UNL     1       2.009  -3.529  -0.324  1.00  0.00     0.329 C 
ATOM     73  O   UNL     1       2.084  -4.482   0.442  1.00  0.00    -0.250 OA
BRANCH  72  74
ATOM     74  C   UNL     1       3.226  -2.641  -0.725  1.00  0.00     0.197 C 
ATOM     75  C   UNL     1       2.772  -1.268  -1.253  1.00  0.00     0.070 C 
ATOM     76  N   UNL     1       4.262  -3.041  -1.708  1.00  0.00    -0.325 N 
ATOM     77  C   UNL     1       4.041  -0.652  -1.818  1.00  0.00     0.136 C 
ATOM     78  C   UNL     1       4.880  -1.846  -2.289  1.00  0.00     0.152 C 
BRANCH  76  79
ATOM     79  C   UNL     1       4.771  -4.326  -1.813  1.00  0.00     0.233 C 
ATOM     80  O   UNL     1       4.303  -5.247  -1.143  1.00  0.00    -0.274 OA
BRANCH  79  81
ATOM     81  C   UNL     1       5.929  -4.614  -2.778  1.00  0.00     0.175 C 
BRANCH  81  82
ATOM     82  S   UNL     1       5.476  -4.769  -4.551  1.00  0.00    -0.113 SA
BRANCH  82  83
ATOM     83  C   UNL     1       4.523  -6.285  -4.686  1.00  0.00     0.044 A 
ATOM     84  C   UNL     1       3.386  -6.266  -5.518  1.00  0.00     0.021 A 
ATOM     85  C   UNL     1       4.854  -7.496  -4.071  1.00  0.00     0.139 A 
ATOM     86  C   UNL     1       2.548  -7.381  -5.628  1.00  0.00     0.040 A 
ATOM     87  C   UNL     1       4.039  -8.624  -4.197  1.00  0.00     0.079 A 
ATOM     88  F   UNL     1       5.994  -7.619  -3.375  1.00  0.00    -0.206 F 
ATOM     89  C   UNL     1       2.875  -8.546  -4.950  1.00  0.00     0.126 A 
ATOM     90  F   UNL     1       2.065  -9.611  -5.032  1.00  0.00    -0.207 F 
ENDBRANCH  82  83
ENDBRANCH  81  82
ENDBRANCH  79  81
ENDBRANCH  76  79
BRANCH  77  91
ATOM     91  O   UNL     1       4.702   0.052  -0.768  1.00  0.00    -0.391 OA
ATOM     92  H   UNL     1       4.871  -0.553  -0.030  1.00  0.00     0.211 HD
ENDBRANCH  77  91
ENDBRANCH  72  74
ENDBRANCH  71  72
ENDBRANCH   1  71
TORSDOF 19
