REMARK SMILES C[C@H]1[C@H](C(=O)OCCOC(=O)c2ccc(-c3c4nc(c(-c5cc(S(=O)(=O)[O-])ccc5F)c5ccc([nH]5)c(-c5cc(S(=O)(=O)[O-])ccc5F)c5nc(c(-c6cc(S(=O)(=O)[O-])ccc6F)c6ccc3[nH]6)C=C5)C=C4)cc2)CC[N@@H+]1Cc1cnn(-c2ccccc2)c1
REMARK SMILES IDX 7 1 6 2 4 3 5 4 3 5 1 6 2 7 77 8 75 9 76 10 78 12 79 13
REMARK SMILES IDX 80 14 89 15 81 16 82 17 83 18 84 19 88 20 85 21 87 22 86 23
REMARK SMILES IDX 8 24 9 25 10 26 11 27 12 28 13 29 74 30 14 31 73 32 15 33
REMARK SMILES IDX 16 34 17 35 67 36 18 37 72 38 66 39 68 40 19 41 71 42 65 43
REMARK SMILES IDX 64 44 20 46 52 47 32 48 51 49 33 50 36 51 50 52 69 53 34 54
REMARK SMILES IDX 35 55 49 57 70 58 37 59 21 60 22 61 30 62 23 63 29 64 31 65
REMARK SMILES IDX 28 66 24 67 25 68 26 69 27 70 53 71 54 72 62 73 55 74 61 75
REMARK SMILES IDX 63 76 60 77 56 78 57 79 58 80 59 81 38 82 39 83 47 84 40 85
REMARK SMILES IDX 46 86 48 87 45 88 41 89 42 90 43 91 44 92
REMARK H PARENT 77 11 68 45 36 56
REMARK Flexibility Score: inf
ROOT
ATOM      1  C   UNL     1      -0.498   3.237   3.121  1.00  0.00     0.274 C 
ENDROOT
BRANCH   1   2
ATOM      2  O   UNL     1      -0.393   2.103   2.236  1.00  0.00    -0.462 OA
BRANCH   2   3
ATOM      3  C   UNL     1      -0.778   2.291   0.952  1.00  0.00     0.315 C 
ATOM      4  O   UNL     1      -1.307   3.317   0.535  1.00  0.00    -0.252 OA
BRANCH   3   5
ATOM      5  C   UNL     1      -0.519   1.108   0.039  1.00  0.00     0.162 C 
ATOM      6  C   UNL     1       1.686  -0.074  -0.388  1.00  0.00     0.076 C 
ATOM      7  C   UNL     1       0.454   0.023   0.525  1.00  0.00     0.195 C 
ATOM      8  N   UNL     1      -0.273  -1.252   0.410  1.00  0.00    -0.328 N 
ATOM      9  C   UNL     1      -1.831   0.404  -0.267  1.00  0.00     0.083 C 
ATOM     10  C   UNL     1      -1.446  -1.049  -0.429  1.00  0.00     0.263 C 
ATOM     11  H   UNL     1       0.332  -1.922  -0.065  1.00  0.00     0.348 HD
BRANCH   8  12
ATOM     12  C   UNL     1      -0.478  -1.987   1.653  1.00  0.00     0.302 C 
BRANCH  12  13
ATOM     13  C   UNL     1      -1.175  -1.230   2.732  1.00  0.00     0.045 A 
ATOM     14  C   UNL     1      -2.555  -1.009   2.903  1.00  0.00     0.145 A 
ATOM     15  C   UNL     1      -0.615  -0.642   3.850  1.00  0.00     0.124 A 
ATOM     16  N   UNL     1      -2.846  -0.376   4.039  1.00  0.00    -0.176 NA
ATOM     17  N   UNL     1      -1.639  -0.110   4.601  1.00  0.00    -0.240 N 
BRANCH  17  18
ATOM     18  C   UNL     1      -1.543   0.630   5.812  1.00  0.00     0.065 A 
ATOM     19  C   UNL     1      -2.699   0.852   6.575  1.00  0.00     0.028 A 
ATOM     20  C   UNL     1      -0.320   1.166   6.241  1.00  0.00     0.028 A 
ATOM     21  C   UNL     1      -2.631   1.593   7.756  1.00  0.00     0.002 A 
ATOM     22  C   UNL     1      -0.266   1.935   7.407  1.00  0.00     0.002 A 
ATOM     23  C   UNL     1      -1.418   2.143   8.166  1.00  0.00     0.000 A 
ENDBRANCH  17  18
ENDBRANCH  12  13
ENDBRANCH   8  12
ENDBRANCH   3   5
ENDBRANCH   2   3
ENDBRANCH   1   2
BRANCH   1  24
ATOM     24  C   UNL     1       0.897   3.734   3.503  1.00  0.00     0.275 C 
BRANCH  24  25
ATOM     25  O   UNL     1       1.522   4.377   2.380  1.00  0.00    -0.458 OA
BRANCH  25  26
ATOM     26  C   UNL     1       2.231   3.554   1.572  1.00  0.00     0.338 C 
ATOM     27  O   UNL     1       2.487   2.379   1.754  1.00  0.00    -0.246 OA
BRANCH  26  28
ATOM     28  C   UNL     1       2.532   4.274   0.329  1.00  0.00     0.060 A 
ATOM     29  C   UNL     1       1.816   3.947  -0.824  1.00  0.00     0.016 A 
ATOM     30  C   UNL     1       3.541   5.231   0.292  1.00  0.00     0.016 A 
ATOM     31  C   UNL     1       2.111   4.556  -2.035  1.00  0.00     0.010 A 
ATOM     32  C   UNL     1       3.818   5.867  -0.917  1.00  0.00     0.010 A 
ATOM     33  C   UNL     1       3.111   5.527  -2.087  1.00  0.00    -0.014 A 
BRANCH  33  34
ATOM     34  C   UNL     1       3.471   6.167  -3.370  1.00  0.00     0.031 A 
ATOM     35  C   UNL     1       4.818   5.886  -3.961  1.00  0.00     0.074 A 
ATOM     36  C   UNL     1       2.613   7.016  -3.964  1.00  0.00     0.049 A 
ATOM     37  N   UNL     1       5.454   6.517  -4.909  1.00  0.00    -0.248 NA
ATOM     38  C   UNL     1       5.554   4.749  -3.386  1.00  0.00     0.031 C 
ATOM     39  C   UNL     1       1.246   7.289  -3.517  1.00  0.00     0.029 A 
ATOM     40  N   UNL     1       2.776   7.830  -5.056  1.00  0.00    -0.354 N 
ATOM     41  C   UNL     1       6.686   5.883  -5.019  1.00  0.00     0.074 A 
ATOM     42  C   UNL     1       6.710   4.828  -4.028  1.00  0.00     0.031 C 
ATOM     43  C   UNL     1       0.703   8.222  -4.315  1.00  0.00     0.029 A 
ATOM     44  C   UNL     1       1.708   8.670  -5.272  1.00  0.00     0.049 A 
ATOM     45  H   UNL     1       3.577   7.814  -5.628  1.00  0.00     0.167 HD
ATOM     46  C   UNL     1       7.700   6.171  -5.870  1.00  0.00     0.034 A 
ATOM     47  C   UNL     1       1.585   9.725  -6.102  1.00  0.00     0.034 A 
ATOM     48  C   UNL     1       7.632   7.232  -6.845  1.00  0.00     0.049 A 
ATOM     49  C   UNL     1       2.762  10.094  -6.971  1.00  0.00     0.074 A 
ATOM     50  C   UNL     1       8.589   7.624  -7.763  1.00  0.00     0.029 A 
ATOM     51  N   UNL     1       6.542   8.077  -7.021  1.00  0.00    -0.354 N 
ATOM     52  N   UNL     1       3.945   9.525  -7.041  1.00  0.00    -0.248 NA
ATOM     53  C   UNL     1       2.594  11.244  -7.867  1.00  0.00     0.031 C 
ATOM     54  C   UNL     1       8.110   8.750  -8.438  1.00  0.00     0.029 A 
ATOM     55  C   UNL     1       6.815   9.006  -8.011  1.00  0.00     0.049 A 
ATOM     56  H   UNL     1       5.698   8.023  -6.516  1.00  0.00     0.167 HD
ATOM     57  C   UNL     1       4.644  10.223  -8.021  1.00  0.00     0.074 A 
ATOM     58  C   UNL     1       3.754  11.257  -8.509  1.00  0.00     0.031 C 
ATOM     59  C   UNL     1       5.903  10.020  -8.487  1.00  0.00     0.034 A 
BRANCH  46  60
ATOM     60  C   UNL     1       8.977   5.380  -5.728  1.00  0.00     0.023 A 
ATOM     61  C   UNL     1       9.023   3.992  -5.940  1.00  0.00     0.031 A 
ATOM     62  C   UNL     1      10.165   6.024  -5.334  1.00  0.00     0.131 A 
ATOM     63  C   UNL     1      10.207   3.283  -5.686  1.00  0.00     0.055 A 
ATOM     64  C   UNL     1      11.362   5.326  -5.167  1.00  0.00     0.041 A 
ATOM     65  F   UNL     1      10.178   7.343  -5.088  1.00  0.00    -0.206 F 
ATOM     66  C   UNL     1      11.384   3.944  -5.327  1.00  0.00     0.022 A 
BRANCH  63  67
ATOM     67  S   UNL     1      10.147   1.470  -5.680  1.00  0.00     0.124 S 
ATOM     68  O   UNL     1       9.142   1.212  -4.652  1.00  0.00    -0.237 OA
ATOM     69  O   UNL     1       9.754   1.163  -7.050  1.00  0.00    -0.237 OA
ATOM     70  O   UNL     1      11.510   1.083  -5.319  1.00  0.00    -0.744 OA
ENDBRANCH  63  67
ENDBRANCH  46  60
BRANCH  47  71
ATOM     71  C   UNL     1       0.336  10.539  -6.108  1.00  0.00     0.023 A 
ATOM     72  C   UNL     1      -0.458  10.633  -7.260  1.00  0.00     0.031 A 
ATOM     73  C   UNL     1      -0.065  11.266  -4.971  1.00  0.00     0.131 A 
ATOM     74  C   UNL     1      -1.586  11.470  -7.267  1.00  0.00     0.055 A 
ATOM     75  C   UNL     1      -1.222  12.048  -4.963  1.00  0.00     0.041 A 
ATOM     76  F   UNL     1       0.658  11.217  -3.841  1.00  0.00    -0.206 F 
ATOM     77  C   UNL     1      -1.983  12.164  -6.122  1.00  0.00     0.022 A 
BRANCH  74  78
ATOM     78  S   UNL     1      -2.473  11.713  -8.829  1.00  0.00     0.124 S 
ATOM     79  O   UNL     1      -1.413  12.220  -9.694  1.00  0.00    -0.237 OA
ATOM     80  O   UNL     1      -2.950  10.366  -9.120  1.00  0.00    -0.237 OA
ATOM     81  O   UNL     1      -3.511  12.681  -8.483  1.00  0.00    -0.744 OA
ENDBRANCH  74  78
ENDBRANCH  47  71
BRANCH  59  82
ATOM     82  C   UNL     1       6.362  10.877  -9.639  1.00  0.00     0.023 A 
ATOM     83  C   UNL     1       6.632  12.247  -9.494  1.00  0.00     0.031 A 
ATOM     84  C   UNL     1       6.575  10.286 -10.898  1.00  0.00     0.131 A 
ATOM     85  C   UNL     1       7.074  12.989 -10.600  1.00  0.00     0.055 A 
ATOM     86  C   UNL     1       7.069  11.016 -11.978  1.00  0.00     0.041 A 
ATOM     87  F   UNL     1       6.329   8.979 -11.090  1.00  0.00    -0.206 F 
ATOM     88  C   UNL     1       7.315  12.377 -11.834  1.00  0.00     0.022 A 
BRANCH  85  89
ATOM     89  S   UNL     1       7.284  14.781 -10.423  1.00  0.00     0.124 S 
ATOM     90  O   UNL     1       5.931  15.213 -10.088  1.00  0.00    -0.237 OA
ATOM     91  O   UNL     1       8.268  14.879  -9.350  1.00  0.00    -0.237 OA
ATOM     92  O   UNL     1       7.761  15.202 -11.739  1.00  0.00    -0.744 OA
ENDBRANCH  85  89
ENDBRANCH  59  82
ENDBRANCH  33  34
ENDBRANCH  26  28
ENDBRANCH  25  26
ENDBRANCH  24  25
ENDBRANCH   1  24
TORSDOF 17
