REMARK SMILES CC(C)(C)[C@](O)(c1ccc(C(=O)OCCOC(=O)c2ccc(-c3c4nc(c(-c5cc(S(=O)(=O)[O-])ccc5F)c5ccc([nH]5)c(-c5cc(S(=O)(=O)[O-])ccc5F)c5nc(c(-c6cc(S(=O)(=O)[O-])ccc6F)c6ccc3[nH]6)C=C5)C=C4)cc2)cc1)c1ccc(C(F)(F)F)cc1
REMARK SMILES IDX 14 1 13 2 11 3 12 4 10 5 7 6 8 7 83 8 9 9 82 10 5 11 2 12
REMARK SMILES IDX 1 13 3 14 4 15 84 16 85 17 93 18 86 19 92 20 87 21 88 22
REMARK SMILES IDX 89 23 90 24 91 25 6 26 15 28 16 29 17 30 18 31 19 32 20 33
REMARK SMILES IDX 81 34 21 35 80 36 22 37 23 38 24 39 74 40 25 41 79 42 73 43
REMARK SMILES IDX 75 44 26 45 78 46 72 47 71 48 27 50 59 51 39 52 58 53 40 54
REMARK SMILES IDX 43 55 57 56 76 57 41 58 42 59 56 61 77 62 44 63 28 64 29 65
REMARK SMILES IDX 37 66 30 67 36 68 38 69 35 70 31 71 32 72 33 73 34 74 60 75
REMARK SMILES IDX 61 76 69 77 62 78 68 79 70 80 67 81 63 82 64 83 65 84 66 85
REMARK SMILES IDX 45 86 46 87 54 88 47 89 53 90 55 91 52 92 48 93 49 94 50 95
REMARK SMILES IDX 51 96
REMARK H PARENT 6 27 75 49 43 60
REMARK Flexibility Score: inf
ROOT
ATOM      1  C   UNL     1       8.879   1.865  -2.137  1.00  0.00     0.275 C 
ENDROOT
BRANCH   1   2
ATOM      2  O   UNL     1       7.441   1.949  -2.047  1.00  0.00    -0.458 OA
BRANCH   2   3
ATOM      3  C   UNL     1       6.769   1.048  -2.799  1.00  0.00     0.338 C 
ATOM      4  O   UNL     1       7.258   0.220  -3.555  1.00  0.00    -0.246 OA
BRANCH   3   5
ATOM      5  C   UNL     1       5.315   1.142  -2.576  1.00  0.00     0.060 A 
ATOM      6  C   UNL     1       2.479   1.069  -2.474  1.00  0.00    -0.011 A 
ATOM      7  C   UNL     1       3.262   0.018  -1.968  1.00  0.00     0.008 A 
ATOM      8  C   UNL     1       3.172   2.152  -3.056  1.00  0.00     0.008 A 
ATOM      9  C   UNL     1       4.650   0.059  -2.013  1.00  0.00     0.016 A 
ATOM     10  C   UNL     1       4.577   2.207  -3.082  1.00  0.00     0.016 A 
BRANCH   6  11
ATOM     11  C   UNL     1       0.936   0.929  -2.476  1.00  0.00     0.119 C 
BRANCH  11  12
ATOM     12  C   UNL     1       0.081   2.170  -1.815  1.00  0.00    -0.001 C 
ATOM     13  C   UNL     1      -0.655   1.725  -0.508  1.00  0.00     0.014 C 
ATOM     14  C   UNL     1      -1.034   2.735  -2.722  1.00  0.00     0.014 C 
ATOM     15  C   UNL     1       0.941   3.379  -1.371  1.00  0.00     0.014 C 
ENDBRANCH  11  12
BRANCH  11  16
ATOM     16  C   UNL     1       0.522   0.370  -3.870  1.00  0.00    -0.011 A 
ATOM     17  C   UNL     1       0.300   1.186  -4.988  1.00  0.00     0.008 A 
ATOM     18  C   UNL     1       0.461  -1.027  -4.095  1.00  0.00     0.008 A 
ATOM     19  C   UNL     1      -0.128   0.649  -6.211  1.00  0.00     0.013 A 
ATOM     20  C   UNL     1       0.059  -1.571  -5.319  1.00  0.00     0.013 A 
ATOM     21  C   UNL     1      -0.273  -0.734  -6.384  1.00  0.00     0.056 A 
BRANCH  21  22
ATOM     22  C   UNL     1      -0.795  -1.295  -7.683  1.00  0.00     0.416 C 
ATOM     23  F   UNL     1      -2.142  -1.124  -7.806  1.00  0.00    -0.166 F 
ATOM     24  F   UNL     1      -0.249  -0.688  -8.775  1.00  0.00    -0.166 F 
ATOM     25  F   UNL     1      -0.571  -2.627  -7.842  1.00  0.00    -0.166 F 
ENDBRANCH  21  22
ENDBRANCH  11  16
BRANCH  11  26
ATOM     26  O   UNL     1       0.664  -0.167  -1.557  1.00  0.00    -0.380 OA
ATOM     27  H   UNL     1       1.129  -0.964  -1.858  1.00  0.00     0.212 HD
ENDBRANCH  11  26
ENDBRANCH   6  11
ENDBRANCH   3   5
ENDBRANCH   2   3
ENDBRANCH   1   2
BRANCH   1  28
ATOM     28  C   UNL     1       9.482   1.092  -0.962  1.00  0.00     0.275 C 
BRANCH  28  29
ATOM     29  O   UNL     1       9.170  -0.311  -1.038  1.00  0.00    -0.458 OA
BRANCH  29  30
ATOM     30  C   UNL     1       8.170  -0.708  -0.219  1.00  0.00     0.338 C 
ATOM     31  O   UNL     1       7.543  -0.014   0.562  1.00  0.00    -0.246 OA
BRANCH  30  32
ATOM     32  C   UNL     1       7.847  -2.127  -0.426  1.00  0.00     0.060 A 
ATOM     33  C   UNL     1       7.005  -2.457  -1.479  1.00  0.00     0.016 A 
ATOM     34  C   UNL     1       8.138  -3.073   0.554  1.00  0.00     0.016 A 
ATOM     35  C   UNL     1       6.290  -3.647  -1.445  1.00  0.00     0.010 A 
ATOM     36  C   UNL     1       7.561  -4.348   0.472  1.00  0.00     0.010 A 
ATOM     37  C   UNL     1       6.585  -4.638  -0.499  1.00  0.00    -0.014 A 
BRANCH  37  38
ATOM     38  C   UNL     1       5.874  -5.954  -0.542  1.00  0.00     0.031 A 
ATOM     39  C   UNL     1       5.215  -6.518   0.695  1.00  0.00     0.074 A 
ATOM     40  C   UNL     1       5.810  -6.649  -1.699  1.00  0.00     0.049 A 
ATOM     41  N   UNL     1       4.739  -7.720   0.906  1.00  0.00    -0.248 NA
ATOM     42  C   UNL     1       5.095  -5.619   1.852  1.00  0.00     0.031 C 
ATOM     43  C   UNL     1       6.354  -6.208  -2.988  1.00  0.00     0.029 A 
ATOM     44  N   UNL     1       5.253  -7.872  -1.989  1.00  0.00    -0.354 N 
ATOM     45  C   UNL     1       4.320  -7.740   2.234  1.00  0.00     0.074 A 
ATOM     46  C   UNL     1       4.618  -6.434   2.782  1.00  0.00     0.031 C 
ATOM     47  C   UNL     1       6.053  -7.107  -3.932  1.00  0.00     0.029 A 
ATOM     48  C   UNL     1       5.426  -8.258  -3.300  1.00  0.00     0.049 A 
ATOM     49  H   UNL     1       4.777  -8.420  -1.324  1.00  0.00     0.167 HD
ATOM     50  C   UNL     1       3.743  -8.757   2.927  1.00  0.00     0.034 A 
ATOM     51  C   UNL     1       5.182  -9.427  -3.922  1.00  0.00     0.034 A 
ATOM     52  C   UNL     1       3.420 -10.040   2.345  1.00  0.00     0.049 A 
ATOM     53  C   UNL     1       4.619 -10.564  -3.117  1.00  0.00     0.074 A 
ATOM     54  C   UNL     1       2.818 -11.133   2.946  1.00  0.00     0.029 A 
ATOM     55  N   UNL     1       3.668 -10.405   1.026  1.00  0.00    -0.354 N 
ATOM     56  N   UNL     1       4.285 -10.589  -1.847  1.00  0.00    -0.248 NA
ATOM     57  C   UNL     1       4.412 -11.833  -3.823  1.00  0.00     0.031 C 
ATOM     58  C   UNL     1       2.777 -12.180   2.019  1.00  0.00     0.029 A 
ATOM     59  C   UNL     1       3.265 -11.716   0.809  1.00  0.00     0.049 A 
ATOM     60  H   UNL     1       4.070  -9.819   0.345  1.00  0.00     0.167 HD
ATOM     61  C   UNL     1       3.806 -11.873  -1.609  1.00  0.00     0.074 A 
ATOM     62  C   UNL     1       3.875 -12.582  -2.872  1.00  0.00     0.031 C 
ATOM     63  C   UNL     1       3.351 -12.417  -0.452  1.00  0.00     0.034 A 
BRANCH  50  64
ATOM     64  C   UNL     1       3.487  -8.547   4.404  1.00  0.00     0.023 A 
ATOM     65  C   UNL     1       2.608  -7.560   4.884  1.00  0.00     0.031 A 
ATOM     66  C   UNL     1       4.159  -9.340   5.354  1.00  0.00     0.131 A 
ATOM     67  C   UNL     1       2.485  -7.342   6.266  1.00  0.00     0.055 A 
ATOM     68  C   UNL     1       3.964  -9.176   6.727  1.00  0.00     0.041 A 
ATOM     69  F   UNL     1       5.028 -10.286   4.963  1.00  0.00    -0.206 F 
ATOM     70  C   UNL     1       3.136  -8.160   7.191  1.00  0.00     0.022 A 
BRANCH  67  71
ATOM     71  S   UNL     1       1.586  -5.872   6.835  1.00  0.00     0.124 S 
ATOM     72  O   UNL     1       2.325  -4.800   6.173  1.00  0.00    -0.237 OA
ATOM     73  O   UNL     1       0.235  -6.117   6.343  1.00  0.00    -0.237 OA
ATOM     74  O   UNL     1       1.738  -5.917   8.288  1.00  0.00    -0.744 OA
ENDBRANCH  67  71
ENDBRANCH  50  64
BRANCH  51  75
ATOM     75  C   UNL     1       5.547  -9.607  -5.359  1.00  0.00     0.023 A 
ATOM     76  C   UNL     1       4.570  -9.900  -6.322  1.00  0.00     0.031 A 
ATOM     77  C   UNL     1       6.886  -9.517  -5.786  1.00  0.00     0.131 A 
ATOM     78  C   UNL     1       4.949 -10.132  -7.653  1.00  0.00     0.055 A 
ATOM     79  C   UNL     1       7.248  -9.678  -7.124  1.00  0.00     0.041 A 
ATOM     80  F   UNL     1       7.864  -9.245  -4.908  1.00  0.00    -0.206 F 
ATOM     81  C   UNL     1       6.278 -10.001  -8.065  1.00  0.00     0.022 A 
BRANCH  78  82
ATOM     82  S   UNL     1       3.690 -10.704  -8.825  1.00  0.00     0.124 S 
ATOM     83  O   UNL     1       3.217 -11.923  -8.179  1.00  0.00    -0.237 OA
ATOM     84  O   UNL     1       2.757  -9.582  -8.839  1.00  0.00    -0.237 OA
ATOM     85  O   UNL     1       4.442 -10.903 -10.062  1.00  0.00    -0.744 OA
ENDBRANCH  78  82
ENDBRANCH  51  75
BRANCH  63  86
ATOM     86  C   UNL     1       2.844 -13.836  -0.521  1.00  0.00     0.023 A 
ATOM     87  C   UNL     1       3.698 -14.915  -0.811  1.00  0.00     0.031 A 
ATOM     88  C   UNL     1       1.480 -14.109  -0.319  1.00  0.00     0.131 A 
ATOM     89  C   UNL     1       3.168 -16.206  -0.955  1.00  0.00     0.055 A 
ATOM     90  C   UNL     1       0.970 -15.405  -0.392  1.00  0.00     0.041 A 
ATOM     91  F   UNL     1       0.617 -13.117  -0.047  1.00  0.00    -0.206 F 
ATOM     92  C   UNL     1       1.813 -16.461  -0.727  1.00  0.00     0.022 A 
BRANCH  89  93
ATOM     93  S   UNL     1       4.253 -17.530  -1.554  1.00  0.00     0.124 S 
ATOM     94  O   UNL     1       4.695 -17.000  -2.840  1.00  0.00    -0.237 OA
ATOM     95  O   UNL     1       5.269 -17.599  -0.509  1.00  0.00    -0.237 OA
ATOM     96  O   UNL     1       3.366 -18.690  -1.633  1.00  0.00    -0.744 OA
ENDBRANCH  89  93
ENDBRANCH  63  86
ENDBRANCH  37  38
ENDBRANCH  30  32
ENDBRANCH  29  30
ENDBRANCH  28  29
ENDBRANCH   1  28
TORSDOF 19
