REMARK SMILES COc1cc(NC(=O)C2CCN(S(=O)(=O)c3cccs3)CC2)c(Cl)cc1C(=O)OCCOC(=O)c1ccc(-c2c3nc(c(-c4cc(S(=O)(=O)[O-])ccc4F)c4ccc([nH]4)c(-c4cc(S(=O)(=O)[O-])ccc4F)c4nc(c(-c5cc(S(=O)(=O)[O-])ccc5F)c5ccc2[nH]5)C=C4)C=C3)cc1
REMARK SMILES IDX 30 1 29 2 27 3 28 4 26 5 3 6 4 7 5 8 25 9 23 10 24 11 2 12
REMARK SMILES IDX 1 13 6 14 7 15 8 17 9 18 10 19 22 20 11 21 21 22 12 23 13 24
REMARK SMILES IDX 14 25 15 26 16 27 17 28 20 29 18 30 19 31 31 32 32 33 33 34
REMARK SMILES IDX 34 35 35 36 36 37 97 38 37 39 96 40 38 41 39 42 40 43 90 44
REMARK SMILES IDX 41 45 95 46 89 47 91 48 42 49 94 50 88 51 87 52 43 54 75 55
REMARK SMILES IDX 55 56 74 57 56 58 59 59 73 60 92 61 57 62 58 63 72 65 93 66
REMARK SMILES IDX 60 67 44 68 45 69 53 70 46 71 52 72 54 73 51 74 47 75 48 76
REMARK SMILES IDX 49 77 50 78 76 79 77 80 85 81 78 82 84 83 86 84 83 85 79 86
REMARK SMILES IDX 80 87 81 88 82 89 61 90 62 91 70 92 63 93 69 94 71 95 68 96
REMARK SMILES IDX 64 97 65 98 66 99 67 100
REMARK H PARENT 6 16 91 53 59 64
REMARK Flexibility Score: inf
ROOT
ATOM      1  C   UNL     1      -3.312   2.153   0.370  1.00  0.00     0.275 C 
ENDROOT
BRANCH   1   2
ATOM      2  O   UNL     1      -1.976   1.968   0.861  1.00  0.00    -0.458 OA
BRANCH   2   3
ATOM      3  C   UNL     1      -1.416   2.995   1.543  1.00  0.00     0.342 C 
ATOM      4  O   UNL     1      -1.942   4.061   1.819  1.00  0.00    -0.246 OA
BRANCH   3   5
ATOM      5  C   UNL     1      -0.072   2.616   2.032  1.00  0.00     0.103 A 
ATOM      6  C   UNL     1       0.795   1.853   1.264  1.00  0.00     0.135 A 
ATOM      7  C   UNL     1       2.079   1.595   1.745  1.00  0.00     0.075 A 
ATOM      8  C   UNL     1       2.516   1.998   3.009  1.00  0.00     0.063 A 
ATOM      9  C   UNL     1       0.348   3.053   3.299  1.00  0.00     0.042 A 
ATOM     10  C   UNL     1       1.598   2.692   3.806  1.00  0.00     0.065 A 
ATOM     11  Cl  UNL     1       1.991   3.170   5.421  1.00  0.00    -0.082 Cl
BRANCH   6  12
ATOM     12  O   UNL     1       0.460   1.469  -0.009  1.00  0.00    -0.496 OA
ATOM     13  C   UNL     1       0.660   0.071  -0.237  1.00  0.00     0.278 C 
ENDBRANCH   6  12
BRANCH   8  14
ATOM     14  N   UNL     1       3.826   1.809   3.512  1.00  0.00    -0.324 N 
ATOM     15  C   UNL     1       5.003   1.385   2.961  1.00  0.00     0.227 C 
ATOM     16  H   UNL     1       3.907   2.030   4.468  1.00  0.00     0.169 HD
ATOM     17  O   UNL     1       6.025   1.438   3.648  1.00  0.00    -0.274 OA
BRANCH  15  18
ATOM     18  C   UNL     1       5.052   0.861   1.538  1.00  0.00     0.081 C 
ATOM     19  C   UNL     1       4.466  -0.560   1.486  1.00  0.00     0.030 C 
ATOM     20  C   UNL     1       6.439   0.902   0.911  1.00  0.00     0.030 C 
ATOM     21  C   UNL     1       5.438  -1.602   2.016  1.00  0.00     0.103 C 
ATOM     22  C   UNL     1       7.352  -0.207   1.400  1.00  0.00     0.103 C 
ATOM     23  N   UNL     1       6.695  -1.530   1.228  1.00  0.00    -0.197 NA
BRANCH  23  24
ATOM     24  S   UNL     1       7.715  -2.875   1.560  1.00  0.00     0.252 S 
ATOM     25  O   UNL     1       8.258  -2.695   2.892  1.00  0.00    -0.206 OA
ATOM     26  O   UNL     1       7.002  -4.075   1.188  1.00  0.00    -0.206 OA
BRANCH  24  27
ATOM     27  C   UNL     1       9.130  -2.731   0.484  1.00  0.00     0.135 A 
ATOM     28  C   UNL     1      10.185  -1.836   0.489  1.00  0.00     0.033 A 
ATOM     29  S   UNL     1       9.262  -3.840  -0.809  1.00  0.00    -0.131 S 
ATOM     30  C   UNL     1      11.060  -2.015  -0.616  1.00  0.00     0.013 A 
ATOM     31  C   UNL     1      10.689  -3.094  -1.387  1.00  0.00     0.066 A 
ENDBRANCH  24  27
ENDBRANCH  23  24
ENDBRANCH  15  18
ENDBRANCH   8  14
ENDBRANCH   3   5
ENDBRANCH   2   3
ENDBRANCH   1   2
BRANCH   1  32
ATOM     32  C   UNL     1      -4.281   1.236   1.115  1.00  0.00     0.275 C 
BRANCH  32  33
ATOM     33  O   UNL     1      -4.411   1.645   2.489  1.00  0.00    -0.458 OA
BRANCH  33  34
ATOM     34  C   UNL     1      -3.644   0.948   3.360  1.00  0.00     0.338 C 
ATOM     35  O   UNL     1      -2.922  -0.004   3.112  1.00  0.00    -0.246 OA
BRANCH  34  36
ATOM     36  C   UNL     1      -3.659   1.599   4.677  1.00  0.00     0.060 A 
ATOM     37  C   UNL     1      -2.706   2.582   4.897  1.00  0.00     0.016 A 
ATOM     38  C   UNL     1      -4.431   1.133   5.734  1.00  0.00     0.016 A 
ATOM     39  C   UNL     1      -2.404   3.004   6.184  1.00  0.00     0.010 A 
ATOM     40  C   UNL     1      -4.226   1.670   7.015  1.00  0.00     0.010 A 
ATOM     41  C   UNL     1      -3.177   2.580   7.268  1.00  0.00    -0.014 A 
BRANCH  41  42
ATOM     42  C   UNL     1      -2.859   3.061   8.649  1.00  0.00     0.031 A 
ATOM     43  C   UNL     1      -2.636   2.070   9.766  1.00  0.00     0.074 A 
ATOM     44  C   UNL     1      -2.740   4.382   8.907  1.00  0.00     0.049 A 
ATOM     45  N   UNL     1      -2.546   2.278  11.056  1.00  0.00    -0.248 NA
ATOM     46  C   UNL     1      -2.522   0.655   9.381  1.00  0.00     0.031 C 
ATOM     47  C   UNL     1      -2.864   5.457   7.918  1.00  0.00     0.029 A 
ATOM     48  N   UNL     1      -2.477   5.053  10.079  1.00  0.00    -0.354 N 
ATOM     49  C   UNL     1      -2.431   1.019  11.640  1.00  0.00     0.074 A 
ATOM     50  C   UNL     1      -2.484   0.055  10.562  1.00  0.00     0.031 C 
ATOM     51  C   UNL     1      -2.623   6.636   8.508  1.00  0.00     0.029 A 
ATOM     52  C   UNL     1      -2.458   6.423   9.939  1.00  0.00     0.049 A 
ATOM     53  H   UNL     1      -2.317   4.597  10.936  1.00  0.00     0.167 HD
ATOM     54  C   UNL     1      -2.296   0.702  12.953  1.00  0.00     0.034 A 
ATOM     55  C   UNL     1      -2.384   7.408  10.857  1.00  0.00     0.034 A 
ATOM     56  C   UNL     1      -2.199   1.683  14.009  1.00  0.00     0.049 A 
ATOM     57  C   UNL     1      -2.307   7.031  12.312  1.00  0.00     0.074 A 
ATOM     58  C   UNL     1      -2.040   1.473  15.369  1.00  0.00     0.029 A 
ATOM     59  N   UNL     1      -2.242   3.061  13.827  1.00  0.00    -0.354 N 
ATOM     60  N   UNL     1      -2.266   5.837  12.856  1.00  0.00    -0.248 NA
ATOM     61  C   UNL     1      -2.277   8.136  13.277  1.00  0.00     0.031 C 
ATOM     62  C   UNL     1      -2.071   2.715  16.013  1.00  0.00     0.029 A 
ATOM     63  C   UNL     1      -2.151   3.708  15.051  1.00  0.00     0.049 A 
ATOM     64  H   UNL     1      -2.326   3.511  12.956  1.00  0.00     0.167 HD
ATOM     65  C   UNL     1      -2.182   6.050  14.228  1.00  0.00     0.074 A 
ATOM     66  C   UNL     1      -2.150   7.485  14.423  1.00  0.00     0.031 C 
ATOM     67  C   UNL     1      -2.135   5.141  15.236  1.00  0.00     0.034 A 
BRANCH  54  68
ATOM     68  C   UNL     1      -2.319  -0.765  13.327  1.00  0.00     0.023 A 
ATOM     69  C   UNL     1      -1.341  -1.672  12.885  1.00  0.00     0.031 A 
ATOM     70  C   UNL     1      -3.365  -1.268  14.125  1.00  0.00     0.131 A 
ATOM     71  C   UNL     1      -1.471  -3.040  13.176  1.00  0.00     0.055 A 
ATOM     72  C   UNL     1      -3.438  -2.615  14.486  1.00  0.00     0.041 A 
ATOM     73  F   UNL     1      -4.344  -0.459  14.560  1.00  0.00    -0.206 F 
ATOM     74  C   UNL     1      -2.497  -3.513  13.997  1.00  0.00     0.022 A 
BRANCH  71  75
ATOM     75  S   UNL     1      -0.373  -4.214  12.334  1.00  0.00     0.124 S 
ATOM     76  O   UNL     1      -0.651  -3.922  10.930  1.00  0.00    -0.237 OA
ATOM     77  O   UNL     1       0.943  -3.819  12.821  1.00  0.00    -0.237 OA
ATOM     78  O   UNL     1      -0.845  -5.517  12.797  1.00  0.00    -0.744 OA
ENDBRANCH  71  75
ENDBRANCH  54  68
BRANCH  55  79
ATOM     79  C   UNL     1      -2.459   8.841  10.441  1.00  0.00     0.023 A 
ATOM     80  C   UNL     1      -1.409   9.732  10.713  1.00  0.00     0.031 A 
ATOM     81  C   UNL     1      -3.607   9.355   9.808  1.00  0.00     0.131 A 
ATOM     82  C   UNL     1      -1.544  11.093  10.394  1.00  0.00     0.055 A 
ATOM     83  C   UNL     1      -3.708  10.694   9.429  1.00  0.00     0.041 A 
ATOM     84  F   UNL     1      -4.648   8.553   9.532  1.00  0.00    -0.206 F 
ATOM     85  C   UNL     1      -2.677  11.576   9.735  1.00  0.00     0.022 A 
BRANCH  82  86
ATOM     86  S   UNL     1      -0.258  12.247  10.945  1.00  0.00     0.124 S 
ATOM     87  O   UNL     1      -0.264  12.028  12.387  1.00  0.00    -0.237 OA
ATOM     88  O   UNL     1       0.914  11.760  10.227  1.00  0.00    -0.237 OA
ATOM     89  O   UNL     1      -0.759  13.548  10.508  1.00  0.00    -0.744 OA
ENDBRANCH  82  86
ENDBRANCH  55  79
BRANCH  67  90
ATOM     90  C   UNL     1      -1.992   5.687  16.638  1.00  0.00     0.023 A 
ATOM     91  C   UNL     1      -2.991   6.480  17.230  1.00  0.00     0.031 A 
ATOM     92  C   UNL     1      -0.819   5.445  17.375  1.00  0.00     0.131 A 
ATOM     93  C   UNL     1      -2.766   7.066  18.485  1.00  0.00     0.055 A 
ATOM     94  C   UNL     1      -0.634   5.966  18.655  1.00  0.00     0.041 A 
ATOM     95  F   UNL     1       0.172   4.700  16.858  1.00  0.00    -0.206 F 
ATOM     96  C   UNL     1      -1.602   6.798  19.210  1.00  0.00     0.022 A 
BRANCH  93  97
ATOM     97  S   UNL     1      -3.956   8.289  19.098  1.00  0.00     0.124 S 
ATOM     98  O   UNL     1      -3.959   9.275  18.022  1.00  0.00    -0.237 OA
ATOM     99  O   UNL     1      -5.173   7.497  19.241  1.00  0.00    -0.237 OA
ATOM    100  O   UNL     1      -3.363   8.745  20.354  1.00  0.00    -0.744 OA
ENDBRANCH  93  97
ENDBRANCH  67  90
ENDBRANCH  41  42
ENDBRANCH  34  36
ENDBRANCH  33  34
ENDBRANCH  32  33
ENDBRANCH   1  32
TORSDOF 19
