REMARK SMILES COc1cc(Cl)ccc1NC(=O)COc1ccccc1C(=O)OCCOC(=O)c1ccc(-c2c3nc(c(-c4cc(S(=O)(=O)[O-])ccc4F)c4ccc([nH]4)c(-c4cc(S(=O)(=O)[O-])ccc4F)c4nc(c(-c5cc(S(=O)(=O)[O-])ccc5F)c5ccc2[nH]5)C=C4)C=C3)cc1
REMARK SMILES IDX 24 1 23 2 21 3 22 4 20 5 15 6 16 7 17 8 19 9 18 10 14 11
REMARK SMILES IDX 13 12 11 13 10 14 12 16 9 17 3 18 4 19 5 20 8 21 6 22 7 23
REMARK SMILES IDX 2 24 1 25 25 26 26 27 27 28 28 29 29 30 30 31 91 32 31 33
REMARK SMILES IDX 90 34 32 35 33 36 34 37 84 38 35 39 89 40 83 41 85 42 36 43
REMARK SMILES IDX 88 44 82 45 81 46 37 48 69 49 49 50 68 51 50 52 53 53 67 54
REMARK SMILES IDX 86 55 51 56 52 57 66 59 87 60 54 61 38 62 39 63 47 64 40 65
REMARK SMILES IDX 46 66 48 67 45 68 41 69 42 70 43 71 44 72 70 73 71 74 79 75
REMARK SMILES IDX 72 76 78 77 80 78 77 79 73 80 74 81 75 82 76 83 55 84 56 85
REMARK SMILES IDX 64 86 57 87 63 88 65 89 62 90 58 91 59 92 60 93 61 94
REMARK H PARENT 10 15 85 47 53 58
REMARK Flexibility Score: inf
ROOT
ATOM      1  C   UNL     1      -3.808   1.649   2.499  1.00  0.00     0.275 C 
ENDROOT
BRANCH   1   2
ATOM      2  O   UNL     1      -3.311   0.497   3.216  1.00  0.00    -0.458 OA
BRANCH   2   3
ATOM      3  C   UNL     1      -4.207  -0.111   4.024  1.00  0.00     0.342 C 
ATOM      4  O   UNL     1      -5.361   0.238   4.210  1.00  0.00    -0.246 OA
BRANCH   3   5
ATOM      5  C   UNL     1      -3.662  -1.376   4.563  1.00  0.00     0.102 A 
ATOM      6  C   UNL     1      -2.515  -1.520   5.353  1.00  0.00     0.134 A 
ATOM      7  C   UNL     1      -2.151  -2.814   5.773  1.00  0.00     0.047 A 
ATOM      8  C   UNL     1      -2.895  -3.941   5.420  1.00  0.00     0.004 A 
ATOM      9  C   UNL     1      -4.418  -2.520   4.226  1.00  0.00     0.019 A 
ATOM     10  C   UNL     1      -4.027  -3.796   4.632  1.00  0.00     0.001 A 
BRANCH   6  11
ATOM     11  O   UNL     1      -1.615  -0.591   5.782  1.00  0.00    -0.483 OA
BRANCH  11  12
ATOM     12  C   UNL     1      -2.000   0.737   6.059  1.00  0.00     0.329 C 
BRANCH  12  13
ATOM     13  C   UNL     1      -1.555   1.806   5.055  1.00  0.00     0.262 C 
ATOM     14  N   UNL     1      -0.515   1.608   4.195  1.00  0.00    -0.320 N 
ATOM     15  H   UNL     1      -0.598   2.121   3.359  1.00  0.00     0.170 HD
ATOM     16  O   UNL     1      -2.180   2.871   4.978  1.00  0.00    -0.271 OA
BRANCH  14  17
ATOM     17  C   UNL     1       0.650   0.825   4.255  1.00  0.00     0.084 A 
ATOM     18  C   UNL     1       1.377   0.646   3.056  1.00  0.00     0.143 A 
ATOM     19  C   UNL     1       2.625   0.018   3.075  1.00  0.00     0.069 A 
ATOM     20  C   UNL     1       3.147  -0.433   4.283  1.00  0.00     0.044 A 
ATOM     21  C   UNL     1       1.179   0.345   5.454  1.00  0.00     0.031 A 
ATOM     22  Cl  UNL     1       4.719  -1.132   4.322  1.00  0.00    -0.084 Cl
ATOM     23  C   UNL     1       2.429  -0.281   5.467  1.00  0.00     0.023 A 
BRANCH  18  24
ATOM     24  O   UNL     1       0.839   1.180   1.906  1.00  0.00    -0.495 OA
ATOM     25  C   UNL     1       1.075   0.398   0.730  1.00  0.00     0.278 C 
ENDBRANCH  18  24
ENDBRANCH  14  17
ENDBRANCH  12  13
ENDBRANCH  11  12
ENDBRANCH   6  11
ENDBRANCH   3   5
ENDBRANCH   2   3
ENDBRANCH   1   2
BRANCH   1  26
ATOM     26  C   UNL     1      -2.887   1.970   1.316  1.00  0.00     0.275 C 
BRANCH  26  27
ATOM     27  O   UNL     1      -3.134   1.039   0.251  1.00  0.00    -0.458 OA
BRANCH  27  28
ATOM     28  C   UNL     1      -2.560  -0.171   0.422  1.00  0.00     0.338 C 
ATOM     29  O   UNL     1      -1.662  -0.486   1.187  1.00  0.00    -0.246 OA
BRANCH  28  30
ATOM     30  C   UNL     1      -3.394  -1.142  -0.269  1.00  0.00     0.060 A 
ATOM     31  C   UNL     1      -4.220  -1.935   0.530  1.00  0.00     0.016 A 
ATOM     32  C   UNL     1      -3.374  -1.268  -1.652  1.00  0.00     0.016 A 
ATOM     33  C   UNL     1      -5.035  -2.891  -0.052  1.00  0.00     0.010 A 
ATOM     34  C   UNL     1      -4.215  -2.208  -2.239  1.00  0.00     0.010 A 
ATOM     35  C   UNL     1      -5.043  -3.026  -1.442  1.00  0.00    -0.014 A 
BRANCH  35  36
ATOM     36  C   UNL     1      -5.864  -4.068  -2.094  1.00  0.00     0.031 A 
ATOM     37  C   UNL     1      -5.160  -5.165  -2.830  1.00  0.00     0.074 A 
ATOM     38  C   UNL     1      -7.206  -3.990  -2.064  1.00  0.00     0.049 A 
ATOM     39  N   UNL     1      -5.618  -5.980  -3.739  1.00  0.00    -0.248 NA
ATOM     40  C   UNL     1      -3.732  -5.337  -2.519  1.00  0.00     0.031 C 
ATOM     41  C   UNL     1      -7.984  -3.011  -1.302  1.00  0.00     0.029 A 
ATOM     42  N   UNL     1      -8.154  -4.735  -2.715  1.00  0.00    -0.354 N 
ATOM     43  C   UNL     1      -4.520  -6.723  -4.158  1.00  0.00     0.074 A 
ATOM     44  C   UNL     1      -3.376  -6.252  -3.407  1.00  0.00     0.031 C 
ATOM     45  C   UNL     1      -9.290  -3.211  -1.536  1.00  0.00     0.029 A 
ATOM     46  C   UNL     1      -9.434  -4.264  -2.534  1.00  0.00     0.049 A 
ATOM     47  H   UNL     1      -7.941  -5.529  -3.257  1.00  0.00     0.167 HD
ATOM     48  C   UNL     1      -4.487  -7.699  -5.098  1.00  0.00     0.034 A 
ATOM     49  C   UNL     1     -10.579  -4.600  -3.159  1.00  0.00     0.034 A 
ATOM     50  C   UNL     1      -5.665  -8.146  -5.801  1.00  0.00     0.049 A 
ATOM     51  C   UNL     1     -10.512  -5.647  -4.244  1.00  0.00     0.074 A 
ATOM     52  C   UNL     1      -5.775  -9.116  -6.780  1.00  0.00     0.029 A 
ATOM     53  N   UNL     1      -6.946  -7.648  -5.587  1.00  0.00    -0.354 N 
ATOM     54  N   UNL     1      -9.464  -6.295  -4.700  1.00  0.00    -0.248 NA
ATOM     55  C   UNL     1     -11.774  -5.999  -4.904  1.00  0.00     0.031 C 
ATOM     56  C   UNL     1      -7.110  -9.165  -7.195  1.00  0.00     0.029 A 
ATOM     57  C   UNL     1      -7.849  -8.282  -6.423  1.00  0.00     0.049 A 
ATOM     58  H   UNL     1      -7.178  -6.947  -4.935  1.00  0.00     0.167 HD
ATOM     59  C   UNL     1      -9.947  -7.160  -5.676  1.00  0.00     0.074 A 
ATOM     60  C   UNL     1     -11.380  -6.948  -5.742  1.00  0.00     0.031 C 
ATOM     61  C   UNL     1      -9.275  -8.052  -6.447  1.00  0.00     0.034 A 
BRANCH  48  62
ATOM     62  C   UNL     1      -3.139  -8.277  -5.454  1.00  0.00     0.023 A 
ATOM     63  C   UNL     1      -2.349  -8.963  -4.514  1.00  0.00     0.031 A 
ATOM     64  C   UNL     1      -2.608  -8.089  -6.743  1.00  0.00     0.131 A 
ATOM     65  C   UNL     1      -1.045  -9.357  -4.850  1.00  0.00     0.055 A 
ATOM     66  C   UNL     1      -1.343  -8.563  -7.098  1.00  0.00     0.041 A 
ATOM     67  F   UNL     1      -3.301  -7.418  -7.676  1.00  0.00    -0.206 F 
ATOM     68  C   UNL     1      -0.546  -9.187  -6.143  1.00  0.00     0.022 A 
BRANCH  65  69
ATOM     69  S   UNL     1       0.047  -9.953  -3.529  1.00  0.00     0.124 S 
ATOM     70  O   UNL     1       0.081  -8.798  -2.634  1.00  0.00    -0.237 OA
ATOM     71  O   UNL     1      -0.667 -11.123  -3.032  1.00  0.00    -0.237 OA
ATOM     72  O   UNL     1       1.302 -10.234  -4.221  1.00  0.00    -0.744 OA
ENDBRANCH  65  69
ENDBRANCH  48  62
BRANCH  49  73
ATOM     73  C   UNL     1     -11.855  -3.905  -2.829  1.00  0.00     0.023 A 
ATOM     74  C   UNL     1     -12.939  -4.611  -2.286  1.00  0.00     0.031 A 
ATOM     75  C   UNL     1     -12.022  -2.529  -3.071  1.00  0.00     0.131 A 
ATOM     76  C   UNL     1     -14.153  -3.950  -2.039  1.00  0.00     0.055 A 
ATOM     77  C   UNL     1     -13.212  -1.863  -2.771  1.00  0.00     0.041 A 
ATOM     78  F   UNL     1     -11.019  -1.803  -3.591  1.00  0.00    -0.206 F 
ATOM     79  C   UNL     1     -14.292  -2.578  -2.262  1.00  0.00     0.022 A 
BRANCH  76  80
ATOM     80  S   UNL     1     -15.580  -4.931  -1.502  1.00  0.00     0.124 S 
ATOM     81  O   UNL     1     -15.692  -5.906  -2.581  1.00  0.00    -0.237 OA
ATOM     82  O   UNL     1     -15.124  -5.448  -0.216  1.00  0.00    -0.237 OA
ATOM     83  O   UNL     1     -16.660  -3.950  -1.431  1.00  0.00    -0.744 OA
ENDBRANCH  76  80
ENDBRANCH  49  73
BRANCH  61  84
ATOM     84  C   UNL     1     -10.098  -8.921  -7.360  1.00  0.00     0.023 A 
ATOM     85  C   UNL     1     -10.727  -8.409  -8.506  1.00  0.00     0.031 A 
ATOM     86  C   UNL     1     -10.228 -10.293  -7.082  1.00  0.00     0.131 A 
ATOM     87  C   UNL     1     -11.492  -9.261  -9.316  1.00  0.00     0.055 A 
ATOM     88  C   UNL     1     -10.945 -11.145  -7.920  1.00  0.00     0.041 A 
ATOM     89  F   UNL     1      -9.645 -10.828  -5.997  1.00  0.00    -0.206 F 
ATOM     90  C   UNL     1     -11.589 -10.629  -9.040  1.00  0.00     0.022 A 
BRANCH  87  91
ATOM     91  S   UNL     1     -12.406  -8.550 -10.710  1.00  0.00     0.124 S 
ATOM     92  O   UNL     1     -13.316  -7.628 -10.037  1.00  0.00    -0.237 OA
ATOM     93  O   UNL     1     -11.345  -7.934 -11.501  1.00  0.00    -0.237 OA
ATOM     94  O   UNL     1     -13.045  -9.710 -11.329  1.00  0.00    -0.744 OA
ENDBRANCH  87  91
ENDBRANCH  61  84
ENDBRANCH  35  36
ENDBRANCH  28  30
ENDBRANCH  27  28
ENDBRANCH  26  27
ENDBRANCH   1  26
TORSDOF 19
