REMARK SMILES CCC[NH2+]CC(=O)N1C(C(=O)OCCOC(=O)c2ccc(-c3c4nc(c(-c5cc(S(=O)(=O)[O-])ccc5F)c5ccc([nH]5)c(-c5cc(S(=O)(=O)[O-])ccc5F)c5nc(c(-c6cc(S(=O)(=O)[O-])ccc6F)c6ccc3[nH]6)C=C5)C=C4)cc2)CC[C@@H]2CCCC[C@@H]21
REMARK SMILES IDX 13 1 12 2 10 3 11 4 9 5 8 6 88 7 81 8 83 9 87 10 82 11 84 12
REMARK SMILES IDX 86 13 85 14 6 15 7 16 5 17 4 18 3 21 2 22 1 23 14 24 15 25
REMARK SMILES IDX 16 26 17 27 18 28 19 29 80 30 20 31 79 32 21 33 22 34 23 35
REMARK SMILES IDX 73 36 24 37 78 38 72 39 74 40 25 41 77 42 71 43 70 44 26 46
REMARK SMILES IDX 58 47 38 48 57 49 39 50 42 51 56 52 75 53 40 54 41 55 55 57
REMARK SMILES IDX 76 58 43 59 27 60 28 61 36 62 29 63 35 64 37 65 34 66 30 67
REMARK SMILES IDX 31 68 32 69 33 70 59 71 60 72 68 73 61 74 67 75 69 76 66 77
REMARK SMILES IDX 62 78 63 79 64 80 65 81 44 82 45 83 53 84 46 85 52 86 54 87
REMARK SMILES IDX 51 88 47 89 48 90 49 91 50 92
REMARK H PARENT 4 19 4 20 74 45 42 56
REMARK Flexibility Score: inf
ROOT
ATOM      1  C   UNL     1       0.708   0.601  -1.153  1.00  0.00     0.274 C 
ENDROOT
BRANCH   1   2
ATOM      2  O   UNL     1       2.187   1.252  -0.884  1.00  0.00    -0.461 OA
BRANCH   2   3
ATOM      3  C   UNL     1       2.705   1.969   0.163  1.00  0.00     0.328 C 
ATOM      4  O   UNL     1       2.135   2.222   1.221  1.00  0.00    -0.250 OA
BRANCH   3   5
ATOM      5  C   UNL     1       4.020   2.642   0.310  1.00  0.00     0.195 C 
ATOM      6  N   UNL     1       3.970   4.102   0.549  1.00  0.00    -0.321 N 
ATOM      7  C   UNL     1       4.885   4.634   1.605  1.00  0.00     0.089 C 
ATOM      8  C   UNL     1       5.348   1.924   0.250  1.00  0.00     0.037 C 
ATOM      9  C   UNL     1       6.261   3.894   1.588  1.00  0.00     0.012 C 
ATOM     10  C   UNL     1       4.203   4.636   3.002  1.00  0.00     0.025 C 
ATOM     11  C   UNL     1       6.163   2.350   1.500  1.00  0.00     0.008 C 
ATOM     12  C   UNL     1       7.129   4.320   2.777  1.00  0.00     0.006 C 
ATOM     13  C   UNL     1       5.107   4.740   4.235  1.00  0.00     0.002 C 
ATOM     14  C   UNL     1       6.465   4.066   4.123  1.00  0.00     0.000 C 
BRANCH   6  15
ATOM     15  C   UNL     1       2.918   4.874   0.034  1.00  0.00     0.278 C 
ATOM     16  O   UNL     1       3.167   5.690  -0.861  1.00  0.00    -0.268 OA
BRANCH  15  17
ATOM     17  C   UNL     1       1.485   4.863   0.723  1.00  0.00     0.362 C 
BRANCH  17  18
ATOM     18  N   UNL     1       0.504   3.788   0.351  1.00  0.00    -0.338 N 
ATOM     19  H   UNL     1      -0.313   4.226  -0.074  1.00  0.00     0.346 HD
ATOM     20  H   UNL     1       0.976   3.155  -0.294  1.00  0.00     0.346 HD
BRANCH  18  21
ATOM     21  C   UNL     1       0.051   2.971   1.533  1.00  0.00     0.260 C 
BRANCH  21  22
ATOM     22  C   UNL     1       0.048   1.358   1.523  1.00  0.00     0.058 C 
ATOM     23  C   UNL     1       1.407   0.193   1.545  1.00  0.00     0.010 C 
ENDBRANCH  21  22
ENDBRANCH  18  21
ENDBRANCH  17  18
ENDBRANCH  15  17
ENDBRANCH   6  15
ENDBRANCH   3   5
ENDBRANCH   2   3
ENDBRANCH   1   2
BRANCH   1  24
ATOM     24  C   UNL     1      -0.066  -0.854  -0.477  1.00  0.00     0.275 C 
BRANCH  24  25
ATOM     25  O   UNL     1      -0.776  -0.869   0.924  1.00  0.00    -0.458 OA
BRANCH  25  26
ATOM     26  C   UNL     1      -0.657  -1.833   1.933  1.00  0.00     0.338 C 
ATOM     27  O   UNL     1      -0.405  -3.005   1.679  1.00  0.00    -0.246 OA
BRANCH  26  28
ATOM     28  C   UNL     1      -0.669  -1.317   3.452  1.00  0.00     0.060 A 
ATOM     29  C   UNL     1       0.224  -0.365   4.012  1.00  0.00     0.016 A 
ATOM     30  C   UNL     1      -1.446  -1.929   4.429  1.00  0.00     0.016 A 
ATOM     31  C   UNL     1       0.278   0.107   5.320  1.00  0.00     0.010 A 
ATOM     32  C   UNL     1      -1.397  -1.494   5.796  1.00  0.00     0.010 A 
ATOM     33  C   UNL     1      -0.566  -0.444   6.238  1.00  0.00    -0.014 A 
BRANCH  33  34
ATOM     34  C   UNL     1      -0.457   0.013   7.640  1.00  0.00     0.031 A 
ATOM     35  C   UNL     1       0.277  -0.847   8.617  1.00  0.00     0.074 A 
ATOM     36  C   UNL     1      -0.946   1.206   8.034  1.00  0.00     0.049 A 
ATOM     37  N   UNL     1       0.213  -0.858   9.919  1.00  0.00    -0.248 NA
ATOM     38  C   UNL     1       1.203  -1.833   8.040  1.00  0.00     0.031 C 
ATOM     39  C   UNL     1      -1.470   2.252   7.153  1.00  0.00     0.029 A 
ATOM     40  N   UNL     1      -1.120   1.719   9.297  1.00  0.00    -0.354 N 
ATOM     41  C   UNL     1       1.028  -1.907  10.322  1.00  0.00     0.074 A 
ATOM     42  C   UNL     1       1.594  -2.489   9.122  1.00  0.00     0.031 C 
ATOM     43  C   UNL     1      -1.979   3.243   7.907  1.00  0.00     0.029 A 
ATOM     44  C   UNL     1      -1.881   2.867   9.315  1.00  0.00     0.049 A 
ATOM     45  H   UNL     1      -0.739   1.308  10.107  1.00  0.00     0.167 HD
ATOM     46  C   UNL     1       1.247  -2.352  11.583  1.00  0.00     0.034 A 
ATOM     47  C   UNL     1      -2.497   3.489  10.342  1.00  0.00     0.034 A 
ATOM     48  C   UNL     1       0.658  -1.740  12.750  1.00  0.00     0.049 A 
ATOM     49  C   UNL     1      -2.372   2.892  11.727  1.00  0.00     0.074 A 
ATOM     50  C   UNL     1       0.769  -2.122  14.075  1.00  0.00     0.029 A 
ATOM     51  N   UNL     1      -0.157  -0.613  12.730  1.00  0.00    -0.354 N 
ATOM     52  N   UNL     1      -1.704   1.828  12.113  1.00  0.00    -0.248 NA
ATOM     53  C   UNL     1      -3.091   3.574  12.811  1.00  0.00     0.031 C 
ATOM     54  C   UNL     1      -0.037  -1.275  14.843  1.00  0.00     0.029 A 
ATOM     55  C   UNL     1      -0.579  -0.305  14.013  1.00  0.00     0.049 A 
ATOM     56  H   UNL     1      -0.399  -0.107  11.921  1.00  0.00     0.167 HD
ATOM     57  C   UNL     1      -1.892   1.740  13.491  1.00  0.00     0.074 A 
ATOM     58  C   UNL     1      -2.727   2.862  13.867  1.00  0.00     0.031 C 
ATOM     59  C   UNL     1      -1.413   0.820  14.370  1.00  0.00     0.034 A 
BRANCH  46  60
ATOM     60  C   UNL     1       2.064  -3.609  11.737  1.00  0.00     0.023 A 
ATOM     61  C   UNL     1       3.413  -3.675  11.352  1.00  0.00     0.031 A 
ATOM     62  C   UNL     1       1.459  -4.783  12.222  1.00  0.00     0.131 A 
ATOM     63  C   UNL     1       4.089  -4.905  11.384  1.00  0.00     0.055 A 
ATOM     64  C   UNL     1       2.163  -5.983  12.335  1.00  0.00     0.041 A 
ATOM     65  F   UNL     1       0.164  -4.790  12.575  1.00  0.00    -0.206 F 
ATOM     66  C   UNL     1       3.482  -6.053  11.899  1.00  0.00     0.022 A 
BRANCH  63  67
ATOM     67  S   UNL     1       5.718  -5.014  10.594  1.00  0.00     0.124 S 
ATOM     68  O   UNL     1       5.409  -4.615   9.223  1.00  0.00    -0.237 OA
ATOM     69  O   UNL     1       6.511  -4.074  11.371  1.00  0.00    -0.237 OA
ATOM     70  O   UNL     1       6.082  -6.424  10.756  1.00  0.00    -0.744 OA
ENDBRANCH  63  67
ENDBRANCH  46  60
BRANCH  47  71
ATOM     71  C   UNL     1      -3.365   4.684  10.110  1.00  0.00     0.023 A 
ATOM     72  C   UNL     1      -3.072   5.916  10.717  1.00  0.00     0.031 A 
ATOM     73  C   UNL     1      -4.540   4.597   9.341  1.00  0.00     0.131 A 
ATOM     74  C   UNL     1      -3.964   6.995  10.584  1.00  0.00     0.055 A 
ATOM     75  C   UNL     1      -5.392   5.689   9.162  1.00  0.00     0.041 A 
ATOM     76  F   UNL     1      -4.882   3.441   8.748  1.00  0.00    -0.206 F 
ATOM     77  C   UNL     1      -5.112   6.894   9.797  1.00  0.00     0.022 A 
BRANCH  74  78
ATOM     78  S   UNL     1      -3.642   8.502  11.540  1.00  0.00     0.124 S 
ATOM     79  O   UNL     1      -3.646   7.998  12.903  1.00  0.00    -0.237 OA
ATOM     80  O   UNL     1      -2.354   8.929  11.011  1.00  0.00    -0.237 OA
ATOM     81  O   UNL     1      -4.775   9.371  11.191  1.00  0.00    -0.744 OA
ENDBRANCH  74  78
ENDBRANCH  47  71
BRANCH  59  82
ATOM     82  C   UNL     1      -1.724   1.035  15.832  1.00  0.00     0.023 A 
ATOM     83  C   UNL     1      -3.033   0.954  16.339  1.00  0.00     0.031 A 
ATOM     84  C   UNL     1      -0.686   1.334  16.734  1.00  0.00     0.131 A 
ATOM     85  C   UNL     1      -3.276   1.226  17.694  1.00  0.00     0.055 A 
ATOM     86  C   UNL     1      -0.925   1.536  18.093  1.00  0.00     0.041 A 
ATOM     87  F   UNL     1       0.584   1.429  16.306  1.00  0.00    -0.206 F 
ATOM     88  C   UNL     1      -2.228   1.496  18.578  1.00  0.00     0.022 A 
BRANCH  85  89
ATOM     89  S   UNL     1      -4.994   1.324  18.270  1.00  0.00     0.124 S 
ATOM     90  O   UNL     1      -5.543   2.367  17.411  1.00  0.00    -0.237 OA
ATOM     91  O   UNL     1      -5.483  -0.029  18.023  1.00  0.00    -0.237 OA
ATOM     92  O   UNL     1      -4.863   1.686  19.680  1.00  0.00    -0.744 OA
ENDBRANCH  85  89
ENDBRANCH  59  82
ENDBRANCH  33  34
ENDBRANCH  26  28
ENDBRANCH  25  26
ENDBRANCH  24  25
ENDBRANCH   1  24
TORSDOF 19
