REMARK SMILES CC[N@@H+]1CCO[C@@H](c2ncc(C(=O)OCCOC(=O)c3ccc(-c4c5nc(c(-c6cc(S(=O)(=O)[O-])ccc6F)c6ccc([nH]6)c(-c6cc(S(=O)(=O)[O-])ccc6F)c6nc(c(-c7cc(S(=O)(=O)[O-])ccc7F)c7ccc4[nH]7)C=C6)C=C5)cc3)s2)C1
REMARK SMILES IDX 16 1 15 2 14 3 12 4 13 5 11 6 8 7 9 8 83 9 10 10 7 11 3 12
REMARK SMILES IDX 4 13 84 14 5 16 6 17 2 18 1 19 17 20 18 21 19 22 20 23 21 24
REMARK SMILES IDX 82 25 22 26 81 27 23 28 24 29 25 30 75 31 26 32 80 33 74 34
REMARK SMILES IDX 76 35 27 36 79 37 73 38 72 39 28 41 60 42 40 43 59 44 41 45
REMARK SMILES IDX 44 46 58 47 77 48 42 49 43 50 57 52 78 53 45 54 29 55 30 56
REMARK SMILES IDX 38 57 31 58 37 59 39 60 36 61 32 62 33 63 34 64 35 65 61 66
REMARK SMILES IDX 62 67 70 68 63 69 69 70 71 71 68 72 64 73 65 74 66 75 67 76
REMARK SMILES IDX 46 77 47 78 55 79 48 80 54 81 56 82 53 83 49 84 50 85 51 86
REMARK SMILES IDX 52 87
REMARK H PARENT 3 15 76 40 44 51
REMARK Flexibility Score: inf
ROOT
ATOM      1  C   UNL     1      10.460   1.688  -1.273  1.00  0.00     0.275 C 
ENDROOT
BRANCH   1   2
ATOM      2  C   UNL     1      10.393   1.147   0.160  1.00  0.00     0.275 C 
BRANCH   2   3
ATOM      3  O   UNL     1       9.089   0.611   0.452  1.00  0.00    -0.458 OA
BRANCH   3   4
ATOM      4  C   UNL     1       8.284   1.368   1.255  1.00  0.00     0.350 C 
ATOM      5  O   UNL     1       8.651   2.385   1.831  1.00  0.00    -0.245 OA
BRANCH   4   6
ATOM      6  C   UNL     1       6.945   0.830   1.248  1.00  0.00     0.132 A 
ATOM      7  C   UNL     1       4.530   0.628   1.194  1.00  0.00     0.128 A 
ATOM      8  N   UNL     1       5.080  -0.455   0.674  1.00  0.00    -0.246 NA
ATOM      9  S   UNL     1       5.643   1.687   1.973  1.00  0.00    -0.109 S 
ATOM     10  C   UNL     1       6.454  -0.325   0.676  1.00  0.00     0.139 A 
BRANCH   7  11
ATOM     11  C   UNL     1       3.052   0.921   1.104  1.00  0.00     0.232 C 
ATOM     12  N   UNL     1       0.822   0.533   2.250  1.00  0.00    -0.331 N 
ATOM     13  C   UNL     1       0.554   1.956   1.971  1.00  0.00     0.291 C 
ATOM     14  C   UNL     1       2.272   0.262   2.257  1.00  0.00     0.302 C 
ATOM     15  H   UNL     1       0.489   0.357   3.199  1.00  0.00     0.348 HD
ATOM     16  C   UNL     1       1.431   2.610   0.886  1.00  0.00     0.222 C 
ATOM     17  O   UNL     1       2.828   2.342   1.089  1.00  0.00    -0.359 OA
BRANCH  12  18
ATOM     18  C   UNL     1       0.008  -0.420   1.496  1.00  0.00     0.258 C 
ATOM     19  C   UNL     1       0.298  -0.623   0.015  1.00  0.00     0.071 C 
ENDBRANCH  12  18
ENDBRANCH   7  11
ENDBRANCH   4   6
ENDBRANCH   3   4
ENDBRANCH   2   3
ENDBRANCH   1   2
BRANCH   1  20
ATOM     20  O   UNL     1       9.627   2.850  -1.451  1.00  0.00    -0.458 OA
BRANCH  20  21
ATOM     21  C   UNL     1       8.394   2.596  -1.954  1.00  0.00     0.338 C 
ATOM     22  O   UNL     1       7.943   1.503  -2.255  1.00  0.00    -0.246 OA
BRANCH  21  23
ATOM     23  C   UNL     1       7.585   3.826  -1.966  1.00  0.00     0.060 A 
ATOM     24  C   UNL     1       6.512   3.895  -1.080  1.00  0.00     0.016 A 
ATOM     25  C   UNL     1       7.793   4.846  -2.895  1.00  0.00     0.016 A 
ATOM     26  C   UNL     1       5.629   4.971  -1.118  1.00  0.00     0.010 A 
ATOM     27  C   UNL     1       6.914   5.941  -2.921  1.00  0.00     0.010 A 
ATOM     28  C   UNL     1       5.817   6.008  -2.039  1.00  0.00    -0.014 A 
BRANCH  28  29
ATOM     29  C   UNL     1       4.837   7.129  -2.096  1.00  0.00     0.031 A 
ATOM     30  C   UNL     1       3.946   7.295  -3.299  1.00  0.00     0.074 A 
ATOM     31  C   UNL     1       4.717   7.973  -1.051  1.00  0.00     0.049 A 
ATOM     32  N   UNL     1       3.099   8.253  -3.577  1.00  0.00    -0.248 NA
ATOM     33  C   UNL     1       4.021   6.245  -4.326  1.00  0.00     0.031 C 
ATOM     34  C   UNL     1       5.479   7.883   0.196  1.00  0.00     0.029 A 
ATOM     35  N   UNL     1       3.909   9.070  -0.865  1.00  0.00    -0.354 N 
ATOM     36  C   UNL     1       2.562   7.941  -4.822  1.00  0.00     0.074 A 
ATOM     37  C   UNL     1       3.194   6.710  -5.252  1.00  0.00     0.031 C 
ATOM     38  C   UNL     1       5.095   8.872   1.019  1.00  0.00     0.029 A 
ATOM     39  C   UNL     1       4.114   9.710   0.337  1.00  0.00     0.049 A 
ATOM     40  H   UNL     1       3.247   9.369  -1.529  1.00  0.00     0.167 HD
ATOM     41  C   UNL     1       1.629   8.619  -5.537  1.00  0.00     0.034 A 
ATOM     42  C   UNL     1       3.605  10.863   0.818  1.00  0.00     0.034 A 
ATOM     43  C   UNL     1       0.991   9.833  -5.083  1.00  0.00     0.049 A 
ATOM     44  C   UNL     1       2.622  11.634  -0.029  1.00  0.00     0.074 A 
ATOM     45  C   UNL     1       0.020  10.585  -5.722  1.00  0.00     0.029 A 
ATOM     46  N   UNL     1       1.259  10.475  -3.881  1.00  0.00    -0.354 N 
ATOM     47  N   UNL     1       2.140  11.335  -1.215  1.00  0.00    -0.248 NA
ATOM     48  C   UNL     1       2.114  12.896   0.524  1.00  0.00     0.031 C 
ATOM     49  C   UNL     1      -0.245  11.716  -4.944  1.00  0.00     0.029 A 
ATOM     50  C   UNL     1       0.497  11.630  -3.778  1.00  0.00     0.049 A 
ATOM     51  H   UNL     1       1.897  10.158  -3.202  1.00  0.00     0.167 HD
ATOM     52  C   UNL     1       1.251  12.359  -1.531  1.00  0.00     0.074 A 
ATOM     53  C   UNL     1       1.247  13.269  -0.405  1.00  0.00     0.031 C 
ATOM     54  C   UNL     1       0.504  12.532  -2.651  1.00  0.00     0.034 A 
BRANCH  41  55
ATOM     55  C   UNL     1       1.282   8.101  -6.912  1.00  0.00     0.023 A 
ATOM     56  C   UNL     1       0.629   6.872  -7.108  1.00  0.00     0.031 A 
ATOM     57  C   UNL     1       1.603   8.864  -8.050  1.00  0.00     0.131 A 
ATOM     58  C   UNL     1       0.364   6.421  -8.412  1.00  0.00     0.055 A 
ATOM     59  C   UNL     1       1.272   8.444  -9.339  1.00  0.00     0.041 A 
ATOM     60  F   UNL     1       2.246  10.037  -7.926  1.00  0.00    -0.206 F 
ATOM     61  C   UNL     1       0.657   7.210  -9.527  1.00  0.00     0.022 A 
BRANCH  58  62
ATOM     62  S   UNL     1      -0.272   4.737  -8.639  1.00  0.00     0.124 S 
ATOM     63  O   UNL     1       0.794   3.936  -8.042  1.00  0.00    -0.237 OA
ATOM     64  O   UNL     1      -1.531   4.773  -7.904  1.00  0.00    -0.237 OA
ATOM     65  O   UNL     1      -0.400   4.611 -10.089  1.00  0.00    -0.744 OA
ENDBRANCH  58  62
ENDBRANCH  41  55
BRANCH  42  66
ATOM     66  C   UNL     1       4.058  11.406   2.135  1.00  0.00     0.023 A 
ATOM     67  C   UNL     1       3.150  11.630   3.182  1.00  0.00     0.031 A 
ATOM     68  C   UNL     1       5.398  11.785   2.336  1.00  0.00     0.131 A 
ATOM     69  C   UNL     1       3.580  12.269   4.357  1.00  0.00     0.055 A 
ATOM     70  C   UNL     1       5.835  12.355   3.533  1.00  0.00     0.041 A 
ATOM     71  F   UNL     1       6.309  11.605   1.366  1.00  0.00    -0.206 F 
ATOM     72  C   UNL     1       4.919  12.617   4.546  1.00  0.00     0.022 A 
BRANCH  69  73
ATOM     73  S   UNL     1       2.337  12.755   5.586  1.00  0.00     0.124 S 
ATOM     74  O   UNL     1       1.429  13.567   4.784  1.00  0.00    -0.237 OA
ATOM     75  O   UNL     1       1.823  11.462   6.024  1.00  0.00    -0.237 OA
ATOM     76  O   UNL     1       3.114  13.487   6.584  1.00  0.00    -0.744 OA
ENDBRANCH  69  73
ENDBRANCH  42  66
BRANCH  54  77
ATOM     77  C   UNL     1      -0.423  13.724  -2.681  1.00  0.00     0.023 A 
ATOM     78  C   UNL     1       0.064  15.043  -2.702  1.00  0.00     0.031 A 
ATOM     79  C   UNL     1      -1.816  13.534  -2.671  1.00  0.00     0.131 A 
ATOM     80  C   UNL     1      -0.834  16.120  -2.654  1.00  0.00     0.055 A 
ATOM     81  C   UNL     1      -2.706  14.610  -2.688  1.00  0.00     0.041 A 
ATOM     82  F   UNL     1      -2.338  12.297  -2.647  1.00  0.00    -0.206 F 
ATOM     83  C   UNL     1      -2.216  15.912  -2.664  1.00  0.00     0.022 A 
BRANCH  80  84
ATOM     84  S   UNL     1      -0.172  17.800  -2.478  1.00  0.00     0.124 S 
ATOM     85  O   UNL     1       0.586  17.700  -1.235  1.00  0.00    -0.237 OA
ATOM     86  O   UNL     1       0.618  17.954  -3.696  1.00  0.00    -0.237 OA
ATOM     87  O   UNL     1      -1.370  18.636  -2.409  1.00  0.00    -0.744 OA
ENDBRANCH  80  84
ENDBRANCH  54  77
ENDBRANCH  28  29
ENDBRANCH  21  23
ENDBRANCH  20  21
ENDBRANCH   1  20
TORSDOF 16
