REMARK SMILES CCC1(CC)C[NH+](C2(C(=O)OCCOC(=O)c3ccc(-c4c5nc(c(-c6cc(S(=O)(=O)[O-])ccc6F)c6ccc([nH]6)c(-c6cc(S(=O)(=O)[O-])ccc6F)c6nc(c(-c7cc(S(=O)(=O)[O-])ccc7F)c7ccc4[nH]7)C=C6)C=C5)cc3)CC2)C1
REMARK SMILES IDX 13 1 12 2 11 3 9 4 10 5 8 6 80 7 81 8 7 9 3 10 6 11 82 12
REMARK SMILES IDX 2 14 1 15 4 16 5 17 14 18 15 19 16 20 17 21 18 22 79 23
REMARK SMILES IDX 19 24 78 25 20 26 21 27 22 28 72 29 23 30 77 31 71 32 73 33
REMARK SMILES IDX 24 34 76 35 70 36 69 37 25 39 57 40 37 41 56 42 38 43 41 44
REMARK SMILES IDX 55 45 74 46 39 47 40 48 54 50 75 51 42 52 26 53 27 54 35 55
REMARK SMILES IDX 28 56 34 57 36 58 33 59 29 60 30 61 31 62 32 63 58 64 59 65
REMARK SMILES IDX 67 66 60 67 66 68 68 69 65 70 61 71 62 72 63 73 64 74 43 75
REMARK SMILES IDX 44 76 52 77 45 78 51 79 53 80 50 81 46 82 47 83 48 84 49 85
REMARK H PARENT 7 13 73 38 41 49
REMARK Flexibility Score: inf
ROOT
ATOM      1  C   UNL     1       1.708   7.345   2.625  1.00  0.00     0.275 C 
ENDROOT
BRANCH   1   2
ATOM      2  C   UNL     1       1.762   6.821   4.057  1.00  0.00     0.274 C 
BRANCH   2   3
ATOM      3  O   UNL     1       2.224   5.460   4.049  1.00  0.00    -0.457 OA
BRANCH   3   4
ATOM      4  C   UNL     1       1.311   4.499   4.378  1.00  0.00     0.368 C 
ATOM      5  O   UNL     1       0.182   4.703   4.792  1.00  0.00    -0.245 OA
BRANCH   4   6
ATOM      6  C   UNL     1       1.865   3.096   4.175  1.00  0.00     0.196 C 
ATOM      7  C   UNL     1       2.404   2.393   5.411  1.00  0.00     0.088 C 
ATOM      8  C   UNL     1       3.358   2.881   4.371  1.00  0.00     0.088 C 
BRANCH   6   9
ATOM      9  N   UNL     1       1.085   2.374   3.143  1.00  0.00    -0.319 N 
ATOM     10  C   UNL     1       1.289   0.412   2.312  1.00  0.00     0.068 C 
ATOM     11  C   UNL     1       1.746   1.861   1.949  1.00  0.00     0.276 C 
ATOM     12  C   UNL     1       0.454   1.095   3.445  1.00  0.00     0.276 C 
ATOM     13  H   UNL     1       0.481   3.191   3.049  1.00  0.00     0.349 HD
BRANCH  10  14
ATOM     14  C   UNL     1       0.410  -0.286   1.253  1.00  0.00     0.015 C 
ATOM     15  C   UNL     1       1.053  -0.313  -0.126  1.00  0.00     0.005 C 
ENDBRANCH  10  14
BRANCH  10  16
ATOM     16  C   UNL     1       2.471  -0.448   2.799  1.00  0.00     0.015 C 
ATOM     17  C   UNL     1       2.043  -1.679   3.580  1.00  0.00     0.005 C 
ENDBRANCH  10  16
ENDBRANCH   6   9
ENDBRANCH   4   6
ENDBRANCH   3   4
ENDBRANCH   2   3
ENDBRANCH   1   2
BRANCH   1  18
ATOM     18  O   UNL     1       0.674   6.663   1.895  1.00  0.00    -0.458 OA
BRANCH  18  19
ATOM     19  C   UNL     1       1.112   5.663   1.095  1.00  0.00     0.338 C 
ATOM     20  O   UNL     1       2.268   5.337   0.881  1.00  0.00    -0.246 OA
BRANCH  19  21
ATOM     21  C   UNL     1      -0.032   4.973   0.486  1.00  0.00     0.060 A 
ATOM     22  C   UNL     1      -0.776   4.083   1.253  1.00  0.00     0.016 A 
ATOM     23  C   UNL     1      -0.234   5.057  -0.889  1.00  0.00     0.016 A 
ATOM     24  C   UNL     1      -1.610   3.162   0.622  1.00  0.00     0.010 A 
ATOM     25  C   UNL     1      -1.183   4.229  -1.496  1.00  0.00     0.010 A 
ATOM     26  C   UNL     1      -1.848   3.231  -0.759  1.00  0.00    -0.014 A 
BRANCH  26  27
ATOM     27  C   UNL     1      -2.767   2.267  -1.440  1.00  0.00     0.031 A 
ATOM     28  C   UNL     1      -2.305   1.501  -2.659  1.00  0.00     0.074 A 
ATOM     29  C   UNL     1      -4.026   2.085  -0.988  1.00  0.00     0.049 A 
ATOM     30  N   UNL     1      -3.008   0.821  -3.530  1.00  0.00    -0.248 NA
ATOM     31  C   UNL     1      -0.862   1.519  -2.945  1.00  0.00     0.031 C 
ATOM     32  C   UNL     1      -4.596   2.702   0.213  1.00  0.00     0.029 A 
ATOM     33  N   UNL     1      -5.064   1.335  -1.490  1.00  0.00    -0.354 N 
ATOM     34  C   UNL     1      -2.104   0.375  -4.492  1.00  0.00     0.074 A 
ATOM     35  C   UNL     1      -0.802   0.873  -4.101  1.00  0.00     0.031 C 
ATOM     36  C   UNL     1      -5.858   2.282   0.372  1.00  0.00     0.029 A 
ATOM     37  C   UNL     1      -6.236   1.476  -0.780  1.00  0.00     0.049 A 
ATOM     38  H   UNL     1      -4.977   0.754  -2.280  1.00  0.00     0.167 HD
ATOM     39  C   UNL     1      -2.342  -0.373  -5.600  1.00  0.00     0.034 A 
ATOM     40  C   UNL     1      -7.493   1.074  -1.052  1.00  0.00     0.034 A 
ATOM     41  C   UNL     1      -3.646  -0.879  -5.960  1.00  0.00     0.049 A 
ATOM     42  C   UNL     1      -7.754   0.330  -2.334  1.00  0.00     0.074 A 
ATOM     43  C   UNL     1      -4.002  -1.648  -7.055  1.00  0.00     0.029 A 
ATOM     44  N   UNL     1      -4.812  -0.668  -5.232  1.00  0.00    -0.354 N 
ATOM     45  N   UNL     1      -6.904  -0.024  -3.270  1.00  0.00    -0.248 NA
ATOM     46  C   UNL     1      -9.144  -0.058  -2.604  1.00  0.00     0.031 C 
ATOM     47  C   UNL     1      -5.387  -1.836  -7.032  1.00  0.00     0.029 A 
ATOM     48  C   UNL     1      -5.888  -1.265  -5.873  1.00  0.00     0.049 A 
ATOM     49  H   UNL     1      -4.866  -0.168  -4.386  1.00  0.00     0.167 HD
ATOM     50  C   UNL     1      -7.654  -0.705  -4.223  1.00  0.00     0.074 A 
ATOM     51  C   UNL     1      -9.021  -0.719  -3.745  1.00  0.00     0.031 C 
ATOM     52  C   UNL     1      -7.247  -1.273  -5.386  1.00  0.00     0.034 A 
BRANCH  39  53
ATOM     53  C   UNL     1      -1.186  -0.632  -6.541  1.00  0.00     0.023 A 
ATOM     54  C   UNL     1      -0.060  -1.383  -6.161  1.00  0.00     0.031 A 
ATOM     55  C   UNL     1      -1.212  -0.109  -7.848  1.00  0.00     0.131 A 
ATOM     56  C   UNL     1       1.015  -1.535  -7.052  1.00  0.00     0.055 A 
ATOM     57  C   UNL     1      -0.176  -0.333  -8.757  1.00  0.00     0.041 A 
ATOM     58  F   UNL     1      -2.249   0.636  -8.265  1.00  0.00    -0.206 F 
ATOM     59  C   UNL     1       0.953  -1.038  -8.356  1.00  0.00     0.022 A 
BRANCH  56  60
ATOM     60  S   UNL     1       2.555  -2.274  -6.440  1.00  0.00     0.124 S 
ATOM     61  O   UNL     1       2.893  -1.381  -5.335  1.00  0.00    -0.237 OA
ATOM     62  O   UNL     1       2.133  -3.619  -6.068  1.00  0.00    -0.237 OA
ATOM     63  O   UNL     1       3.454  -2.197  -7.590  1.00  0.00    -0.744 OA
ENDBRANCH  56  60
ENDBRANCH  39  53
BRANCH  40  64
ATOM     64  C   UNL     1      -8.614   1.440  -0.137  1.00  0.00     0.023 A 
ATOM     65  C   UNL     1      -9.376   0.454   0.506  1.00  0.00     0.031 A 
ATOM     66  C   UNL     1      -8.963   2.787   0.082  1.00  0.00     0.131 A 
ATOM     67  C   UNL     1     -10.470   0.824   1.304  1.00  0.00     0.055 A 
ATOM     68  C   UNL     1     -10.008   3.153   0.931  1.00  0.00     0.041 A 
ATOM     69  F   UNL     1      -8.276   3.774  -0.515  1.00  0.00    -0.206 F 
ATOM     70  C   UNL     1     -10.778   2.167   1.538  1.00  0.00     0.022 A 
BRANCH  67  71
ATOM     71  S   UNL     1     -11.552  -0.479   1.950  1.00  0.00     0.124 S 
ATOM     72  O   UNL     1     -11.964  -1.155   0.725  1.00  0.00    -0.237 OA
ATOM     73  O   UNL     1     -10.646  -1.222   2.819  1.00  0.00    -0.237 OA
ATOM     74  O   UNL     1     -12.605   0.264   2.638  1.00  0.00    -0.744 OA
ENDBRANCH  67  71
ENDBRANCH  40  64
BRANCH  52  75
ATOM     75  C   UNL     1      -8.284  -2.023  -6.185  1.00  0.00     0.023 A 
ATOM     76  C   UNL     1      -9.355  -1.369  -6.817  1.00  0.00     0.031 A 
ATOM     77  C   UNL     1      -8.192  -3.421  -6.311  1.00  0.00     0.131 A 
ATOM     78  C   UNL     1     -10.320  -2.120  -7.506  1.00  0.00     0.055 A 
ATOM     79  C   UNL     1      -9.120  -4.155  -7.050  1.00  0.00     0.041 A 
ATOM     80  F   UNL     1      -7.192  -4.096  -5.722  1.00  0.00    -0.206 F 
ATOM     81  C   UNL     1     -10.198  -3.505  -7.643  1.00  0.00     0.022 A 
BRANCH  78  82
ATOM     82  S   UNL     1     -11.786  -1.271  -8.155  1.00  0.00     0.124 S 
ATOM     83  O   UNL     1     -12.372  -0.709  -6.943  1.00  0.00    -0.237 OA
ATOM     84  O   UNL     1     -11.205  -0.311  -9.088  1.00  0.00    -0.237 OA
ATOM     85  O   UNL     1     -12.558  -2.347  -8.776  1.00  0.00    -0.744 OA
ENDBRANCH  78  82
ENDBRANCH  52  75
ENDBRANCH  26  27
ENDBRANCH  19  21
ENDBRANCH  18  19
ENDBRANCH   1  18
TORSDOF 17
