REMARK SMILES CC(C)Cc1cc2c(cc1Cl)C=C(C(=O)OCCOC(=O)c1ccc(-c3c4nc(c(-c5cc(S(=O)(=O)[O-])ccc5F)c5ccc([nH]5)c(-c5cc(S(=O)(=O)[O-])ccc5F)c5nc(c(-c6cc(S(=O)(=O)[O-])ccc6F)c6ccc3[nH]6)C=C5)C=C4)cc1)[C@H](C(F)(F)F)O2
REMARK SMILES IDX 18 1 17 2 16 3 14 4 15 5 13 6 5 7 6 8 10 9 7 10 9 11 11 12
REMARK SMILES IDX 8 13 90 14 12 15 85 16 4 17 2 18 1 19 3 20 86 21 87 22 88 23
REMARK SMILES IDX 89 24 19 25 20 26 21 27 22 28 23 29 84 30 24 31 83 32 25 33
REMARK SMILES IDX 26 34 27 35 77 36 28 37 82 38 76 39 78 40 29 41 81 42 75 43
REMARK SMILES IDX 74 44 30 46 62 47 42 48 61 49 43 50 46 51 60 52 79 53 44 54
REMARK SMILES IDX 45 55 59 57 80 58 47 59 31 60 32 61 40 62 33 63 39 64 41 65
REMARK SMILES IDX 38 66 34 67 35 68 36 69 37 70 63 71 64 72 72 73 65 74 71 75
REMARK SMILES IDX 73 76 70 77 66 78 67 79 68 80 69 81 48 82 49 83 57 84 50 85
REMARK SMILES IDX 56 86 58 87 55 88 51 89 52 90 53 91 54 92
REMARK H PARENT 78 45 46 56
REMARK Flexibility Score: inf
ROOT
ATOM      1  C   UNL     1      -3.142   7.370   5.908  1.00  0.00     0.275 C 
ENDROOT
BRANCH   1   2
ATOM      2  C   UNL     1      -4.407   6.669   5.406  1.00  0.00     0.275 C 
BRANCH   2   3
ATOM      3  O   UNL     1      -4.077   5.446   4.713  1.00  0.00    -0.459 OA
BRANCH   3   4
ATOM      4  C   UNL     1      -4.253   5.448   3.376  1.00  0.00     0.338 C 
ATOM      5  O   UNL     1      -4.763   6.349   2.731  1.00  0.00    -0.246 OA
BRANCH   4   6
ATOM      6  C   UNL     1      -3.653   4.246   2.755  1.00  0.00     0.087 C 
ATOM      7  C   UNL     1      -1.435   1.141  -0.535  1.00  0.00    -0.025 A 
ATOM      8  C   UNL     1      -2.165   0.950   0.660  1.00  0.00     0.052 A 
ATOM      9  C   UNL     1      -1.281   2.450  -1.024  1.00  0.00     0.045 A 
ATOM     10  C   UNL     1      -2.717   2.034   1.345  1.00  0.00     0.128 A 
ATOM     11  C   UNL     1      -1.829   3.530  -0.335  1.00  0.00     0.032 A 
ATOM     12  Cl  UNL     1      -0.479   2.796  -2.514  1.00  0.00    -0.084 Cl
ATOM     13  C   UNL     1      -2.559   3.318   0.837  1.00  0.00     0.019 A 
ATOM     14  O   UNL     1      -3.464   1.778   2.466  1.00  0.00    -0.475 OA
ATOM     15  C   UNL     1      -3.204   4.426   1.505  1.00  0.00     0.027 C 
ATOM     16  C   UNL     1      -3.658   2.888   3.413  1.00  0.00     0.316 C 
BRANCH   7  17
ATOM     17  C   UNL     1      -0.875  -0.064  -1.260  1.00  0.00     0.040 C 
BRANCH  17  18
ATOM     18  C   UNL     1       0.662  -0.193  -1.234  1.00  0.00    -0.013 C 
ATOM     19  C   UNL     1       1.205  -0.364   0.185  1.00  0.00     0.008 C 
ATOM     20  C   UNL     1       1.094  -1.374  -2.107  1.00  0.00     0.008 C 
ENDBRANCH  17  18
ENDBRANCH   7  17
BRANCH  16  21
ATOM     21  C   UNL     1      -2.714   2.662   4.609  1.00  0.00     0.430 C 
ATOM     22  F   UNL     1      -2.986   3.463   5.662  1.00  0.00    -0.167 F 
ATOM     23  F   UNL     1      -2.863   1.391   5.077  1.00  0.00    -0.167 F 
ATOM     24  F   UNL     1      -1.415   2.816   4.286  1.00  0.00    -0.167 F 
ENDBRANCH  16  21
ENDBRANCH   4   6
ENDBRANCH   3   4
ENDBRANCH   2   3
ENDBRANCH   1   2
BRANCH   1  25
ATOM     25  O   UNL     1      -2.404   7.949   4.814  1.00  0.00    -0.458 OA
BRANCH  25  26
ATOM     26  C   UNL     1      -1.310   7.261   4.415  1.00  0.00     0.338 C 
ATOM     27  O   UNL     1      -0.880   6.219   4.888  1.00  0.00    -0.246 OA
BRANCH  26  28
ATOM     28  C   UNL     1      -0.774   7.876   3.193  1.00  0.00     0.060 A 
ATOM     29  C   UNL     1       0.234   8.835   3.212  1.00  0.00     0.016 A 
ATOM     30  C   UNL     1      -1.256   7.398   1.979  1.00  0.00     0.016 A 
ATOM     31  C   UNL     1       0.726   9.334   1.995  1.00  0.00     0.010 A 
ATOM     32  C   UNL     1      -0.716   7.833   0.775  1.00  0.00     0.010 A 
ATOM     33  C   UNL     1       0.262   8.833   0.761  1.00  0.00    -0.014 A 
BRANCH  33  34
ATOM     34  C   UNL     1       0.771   9.331  -0.550  1.00  0.00     0.031 A 
ATOM     35  C   UNL     1      -0.179   9.929  -1.562  1.00  0.00     0.074 A 
ATOM     36  C   UNL     1       2.071   9.174  -0.873  1.00  0.00     0.049 A 
ATOM     37  N   UNL     1       0.061  10.339  -2.781  1.00  0.00    -0.248 NA
ATOM     38  C   UNL     1      -1.593  10.043  -1.167  1.00  0.00     0.031 C 
ATOM     39  C   UNL     1       3.075   8.537  -0.020  1.00  0.00     0.029 A 
ATOM     40  N   UNL     1       2.772   9.525  -2.002  1.00  0.00    -0.354 N 
ATOM     41  C   UNL     1      -1.169  10.730  -3.304  1.00  0.00     0.074 A 
ATOM     42  C   UNL     1      -2.162  10.446  -2.295  1.00  0.00     0.031 C 
ATOM     43  C   UNL     1       4.267   8.586  -0.632  1.00  0.00     0.029 A 
ATOM     44  C   UNL     1       4.111   9.211  -1.944  1.00  0.00     0.049 A 
ATOM     45  H   UNL     1       2.355   9.962  -2.780  1.00  0.00     0.167 HD
ATOM     46  C   UNL     1      -1.441  11.309  -4.499  1.00  0.00     0.034 A 
ATOM     47  C   UNL     1       5.104   9.404  -2.839  1.00  0.00     0.034 A 
ATOM     48  C   UNL     1      -0.431  11.648  -5.468  1.00  0.00     0.049 A 
ATOM     49  C   UNL     1       4.790  10.098  -4.143  1.00  0.00     0.074 A 
ATOM     50  C   UNL     1      -0.592  12.321  -6.666  1.00  0.00     0.029 A 
ATOM     51  N   UNL     1       0.921  11.362  -5.347  1.00  0.00    -0.354 N 
ATOM     52  N   UNL     1       3.637  10.551  -4.576  1.00  0.00    -0.248 NA
ATOM     53  C   UNL     1       5.905  10.318  -5.076  1.00  0.00     0.031 C 
ATOM     54  C   UNL     1       0.651  12.396  -7.293  1.00  0.00     0.029 A 
ATOM     55  C   UNL     1       1.602  11.832  -6.457  1.00  0.00     0.049 A 
ATOM     56  H   UNL     1       1.334  10.893  -4.586  1.00  0.00     0.167 HD
ATOM     57  C   UNL     1       3.893  11.133  -5.815  1.00  0.00     0.074 A 
ATOM     58  C   UNL     1       5.313  10.992  -6.056  1.00  0.00     0.031 C 
ATOM     59  C   UNL     1       3.025  11.724  -6.674  1.00  0.00     0.034 A 
BRANCH  46  60
ATOM     60  C   UNL     1      -2.870  11.680  -4.824  1.00  0.00     0.023 A 
ATOM     61  C   UNL     1      -3.506  11.134  -5.957  1.00  0.00     0.031 A 
ATOM     62  C   UNL     1      -3.551  12.675  -4.099  1.00  0.00     0.131 A 
ATOM     63  C   UNL     1      -4.767  11.608  -6.345  1.00  0.00     0.055 A 
ATOM     64  C   UNL     1      -4.827  13.108  -4.462  1.00  0.00     0.041 A 
ATOM     65  F   UNL     1      -2.986  13.239  -3.019  1.00  0.00    -0.206 F 
ATOM     66  C   UNL     1      -5.434  12.583  -5.597  1.00  0.00     0.022 A 
BRANCH  63  67
ATOM     67  S   UNL     1      -5.562  11.034  -7.872  1.00  0.00     0.124 S 
ATOM     68  O   UNL     1      -6.814  10.477  -7.366  1.00  0.00    -0.237 OA
ATOM     69  O   UNL     1      -5.694  12.274  -8.631  1.00  0.00    -0.237 OA
ATOM     70  O   UNL     1      -4.622  10.059  -8.413  1.00  0.00    -0.744 OA
ENDBRANCH  63  67
ENDBRANCH  46  60
BRANCH  47  71
ATOM     71  C   UNL     1       6.498   9.012  -2.472  1.00  0.00     0.023 A 
ATOM     72  C   UNL     1       6.837   7.672  -2.210  1.00  0.00     0.031 A 
ATOM     73  C   UNL     1       7.480   9.995  -2.257  1.00  0.00     0.131 A 
ATOM     74  C   UNL     1       8.099   7.363  -1.682  1.00  0.00     0.055 A 
ATOM     75  C   UNL     1       8.759   9.675  -1.799  1.00  0.00     0.041 A 
ATOM     76  F   UNL     1       7.200  11.289  -2.479  1.00  0.00    -0.206 F 
ATOM     77  C   UNL     1       9.067   8.354  -1.491  1.00  0.00     0.022 A 
BRANCH  74  78
ATOM     78  S   UNL     1       8.480   5.689  -1.093  1.00  0.00     0.124 S 
ATOM     79  O   UNL     1       9.618   5.323  -1.929  1.00  0.00    -0.237 OA
ATOM     80  O   UNL     1       8.784   5.931   0.315  1.00  0.00    -0.237 OA
ATOM     81  O   UNL     1       7.248   4.948  -1.343  1.00  0.00    -0.744 OA
ENDBRANCH  74  78
ENDBRANCH  47  71
BRANCH  59  82
ATOM     82  C   UNL     1       3.547  12.300  -7.968  1.00  0.00     0.023 A 
ATOM     83  C   UNL     1       3.422  13.682  -8.216  1.00  0.00     0.031 A 
ATOM     84  C   UNL     1       3.964  11.469  -9.020  1.00  0.00     0.131 A 
ATOM     85  C   UNL     1       3.648  14.181  -9.505  1.00  0.00     0.055 A 
ATOM     86  C   UNL     1       4.237  11.979 -10.290  1.00  0.00     0.041 A 
ATOM     87  F   UNL     1       4.086  10.145  -8.835  1.00  0.00    -0.206 F 
ATOM     88  C   UNL     1       4.060  13.338 -10.542  1.00  0.00     0.022 A 
BRANCH  85  89
ATOM     89  S   UNL     1       3.313  15.918  -9.908  1.00  0.00     0.124 S 
ATOM     90  O   UNL     1       4.608  16.367 -10.415  1.00  0.00    -0.237 OA
ATOM     91  O   UNL     1       2.257  15.802 -10.909  1.00  0.00    -0.237 OA
ATOM     92  O   UNL     1       2.910  16.504  -8.633  1.00  0.00    -0.744 OA
ENDBRANCH  85  89
ENDBRANCH  59  82
ENDBRANCH  33  34
ENDBRANCH  26  28
ENDBRANCH  25  26
ENDBRANCH   1  25
TORSDOF 17
