REMARK SMILES C[C@@H]1CN(C(=O)C[NH+]2CCC(CC(=O)OCCOC(=O)c3ccc(-c4c5nc(c(-c6cc(S(=O)(=O)[O-])ccc6F)c6ccc([nH]6)c(-c6cc(S(=O)(=O)[O-])ccc6F)c6nc(c(-c7cc(S(=O)(=O)[O-])ccc7F)c7ccc4[nH]7)C=C6)C=C5)cc3)CC2)C[C@@H](C)O1
REMARK SMILES IDX 16 1 15 2 13 3 14 4 12 5 11 6 8 7 9 8 85 9 10 11 84 12 7 13
REMARK SMILES IDX 5 14 1 15 2 16 3 17 89 18 4 19 87 20 86 21 88 22 6 23 17 24
REMARK SMILES IDX 18 25 19 26 20 27 21 28 22 29 83 30 23 31 82 32 24 33 25 34
REMARK SMILES IDX 26 35 76 36 27 37 81 38 75 39 77 40 28 41 80 42 74 43 73 44
REMARK SMILES IDX 29 46 61 47 41 48 60 49 42 50 45 51 59 52 78 53 43 54 44 55
REMARK SMILES IDX 58 57 79 58 46 59 30 60 31 61 39 62 32 63 38 64 40 65 37 66
REMARK SMILES IDX 33 67 34 68 35 69 36 70 62 71 63 72 71 73 64 74 70 75 72 76
REMARK SMILES IDX 69 77 65 78 66 79 67 80 68 81 47 82 48 83 56 84 49 85 55 86
REMARK SMILES IDX 57 87 54 88 50 89 51 90 52 91 53 92
REMARK H PARENT 8 10 77 45 45 56
REMARK Flexibility Score: inf
ROOT
ATOM      1  C   UNL     1       2.542   1.758   2.949  1.00  0.00     0.274 C 
ENDROOT
BRANCH   1   2
ATOM      2  O   UNL     1       2.548   1.199   1.615  1.00  0.00    -0.462 OA
BRANCH   2   3
ATOM      3  C   UNL     1       1.715   1.759   0.712  1.00  0.00     0.306 C 
ATOM      4  O   UNL     1       0.965   2.699   0.965  1.00  0.00    -0.252 OA
BRANCH   3   5
ATOM      5  C   UNL     1       1.771   1.168  -0.685  1.00  0.00     0.126 C 
BRANCH   5   6
ATOM      6  C   UNL     1       2.423  -0.191  -1.031  1.00  0.00     0.011 C 
ATOM      7  N   UNL     1       2.001  -3.111  -1.346  1.00  0.00    -0.327 N 
ATOM      8  C   UNL     1       1.958  -2.258  -2.527  1.00  0.00     0.262 C 
ATOM      9  C   UNL     1       2.908  -2.594  -0.337  1.00  0.00     0.262 C 
ATOM     10  H   UNL     1       2.419  -3.974  -1.693  1.00  0.00     0.348 HD
ATOM     11  C   UNL     1       1.630  -0.797  -2.216  1.00  0.00     0.066 C 
ATOM     12  C   UNL     1       2.544  -1.191   0.120  1.00  0.00     0.066 C 
BRANCH   7  13
ATOM     13  C   UNL     1       0.753  -3.728  -0.866  1.00  0.00     0.363 C 
BRANCH  13  14
ATOM     14  C   UNL     1      -0.556  -2.924  -0.981  1.00  0.00     0.277 C 
ATOM     15  C   UNL     1      -0.322  -0.197   2.078  1.00  0.00     0.040 C 
ATOM     16  C   UNL     1      -1.215  -1.388   2.361  1.00  0.00     0.135 C 
ATOM     17  C   UNL     1      -0.804  -2.649   1.554  1.00  0.00     0.151 C 
ATOM     18  O   UNL     1      -2.585  -1.012   2.154  1.00  0.00    -0.372 OA
ATOM     19  N   UNL     1      -1.269  -2.591   0.164  1.00  0.00    -0.333 N 
ATOM     20  C   UNL     1      -2.905  -0.844   0.759  1.00  0.00     0.135 C 
ATOM     21  C   UNL     1      -2.674  -2.171   0.032  1.00  0.00     0.151 C 
ATOM     22  C   UNL     1      -4.349  -0.372   0.678  1.00  0.00     0.040 C 
ATOM     23  O   UNL     1      -1.026  -2.676  -2.098  1.00  0.00    -0.268 OA
ENDBRANCH  13  14
ENDBRANCH   7  13
ENDBRANCH   5   6
ENDBRANCH   3   5
ENDBRANCH   2   3
ENDBRANCH   1   2
BRANCH   1  24
ATOM     24  C   UNL     1       3.949   2.193   3.341  1.00  0.00     0.275 C 
BRANCH  24  25
ATOM     25  O   UNL     1       4.374   3.241   2.461  1.00  0.00    -0.458 OA
BRANCH  25  26
ATOM     26  C   UNL     1       5.017   2.808   1.353  1.00  0.00     0.338 C 
ATOM     27  O   UNL     1       5.417   1.685   1.106  1.00  0.00    -0.246 OA
BRANCH  26  28
ATOM     28  C   UNL     1       5.064   3.916   0.401  1.00  0.00     0.060 A 
ATOM     29  C   UNL     1       3.943   4.178  -0.390  1.00  0.00     0.016 A 
ATOM     30  C   UNL     1       6.242   4.633   0.238  1.00  0.00     0.016 A 
ATOM     31  C   UNL     1       4.011   5.110  -1.412  1.00  0.00     0.010 A 
ATOM     32  C   UNL     1       6.285   5.625  -0.737  1.00  0.00     0.010 A 
ATOM     33  C   UNL     1       5.180   5.849  -1.583  1.00  0.00    -0.014 A 
BRANCH  33  34
ATOM     34  C   UNL     1       5.310   6.825  -2.683  1.00  0.00     0.031 A 
ATOM     35  C   UNL     1       6.357   6.576  -3.722  1.00  0.00     0.074 A 
ATOM     36  C   UNL     1       4.550   7.934  -2.704  1.00  0.00     0.049 A 
ATOM     37  N   UNL     1       6.948   7.417  -4.522  1.00  0.00    -0.248 NA
ATOM     38  C   UNL     1       6.823   5.185  -3.845  1.00  0.00     0.031 C 
ATOM     39  C   UNL     1       3.424   8.214  -1.810  1.00  0.00     0.029 A 
ATOM     40  N   UNL     1       4.637   9.052  -3.491  1.00  0.00    -0.354 N 
ATOM     41  C   UNL     1       7.904   6.673  -5.204  1.00  0.00     0.074 A 
ATOM     42  C   UNL     1       7.809   5.312  -4.720  1.00  0.00     0.031 C 
ATOM     43  C   UNL     1       2.938   9.434  -2.086  1.00  0.00     0.029 A 
ATOM     44  C   UNL     1       3.784  10.057  -3.097  1.00  0.00     0.049 A 
ATOM     45  H   UNL     1       5.247   9.129  -4.260  1.00  0.00     0.167 HD
ATOM     46  C   UNL     1       8.788   7.111  -6.132  1.00  0.00     0.034 A 
ATOM     47  C   UNL     1       3.751  11.355  -3.453  1.00  0.00     0.034 A 
ATOM     48  C   UNL     1       8.827   8.481  -6.581  1.00  0.00     0.049 A 
ATOM     49  C   UNL     1       4.793  11.847  -4.424  1.00  0.00     0.074 A 
ATOM     50  C   UNL     1       9.693   9.079  -7.478  1.00  0.00     0.029 A 
ATOM     51  N   UNL     1       7.941   9.469  -6.163  1.00  0.00    -0.354 N 
ATOM     52  N   UNL     1       5.776  11.178  -4.987  1.00  0.00    -0.248 NA
ATOM     53  C   UNL     1       4.736  13.264  -4.797  1.00  0.00     0.031 C 
ATOM     54  C   UNL     1       9.358  10.436  -7.567  1.00  0.00     0.029 A 
ATOM     55  C   UNL     1       8.241  10.671  -6.779  1.00  0.00     0.049 A 
ATOM     56  H   UNL     1       7.206   9.333  -5.522  1.00  0.00     0.167 HD
ATOM     57  C   UNL     1       6.430  12.088  -5.811  1.00  0.00     0.074 A 
ATOM     58  C   UNL     1       5.732  13.351  -5.667  1.00  0.00     0.031 C 
ATOM     59  C   UNL     1       7.504  11.902  -6.619  1.00  0.00     0.034 A 
BRANCH  46  60
ATOM     60  C   UNL     1       9.809   6.124  -6.639  1.00  0.00     0.023 A 
ATOM     61  C   UNL     1       9.441   4.975  -7.360  1.00  0.00     0.031 A 
ATOM     62  C   UNL     1      11.172   6.303  -6.340  1.00  0.00     0.131 A 
ATOM     63  C   UNL     1      10.411   4.016  -7.691  1.00  0.00     0.055 A 
ATOM     64  C   UNL     1      12.143   5.385  -6.744  1.00  0.00     0.041 A 
ATOM     65  F   UNL     1      11.582   7.365  -5.628  1.00  0.00    -0.206 F 
ATOM     66  C   UNL     1      11.763   4.224  -7.410  1.00  0.00     0.022 A 
BRANCH  63  67
ATOM     67  S   UNL     1       9.861   2.423  -8.363  1.00  0.00     0.124 S 
ATOM     68  O   UNL     1       9.025   1.918  -7.277  1.00  0.00    -0.237 OA
ATOM     69  O   UNL     1       9.160   2.818  -9.579  1.00  0.00    -0.237 OA
ATOM     70  O   UNL     1      11.109   1.690  -8.572  1.00  0.00    -0.744 OA
ENDBRANCH  63  67
ENDBRANCH  46  60
BRANCH  47  71
ATOM     71  C   UNL     1       2.763  12.285  -2.837  1.00  0.00     0.023 A 
ATOM     72  C   UNL     1       1.790  12.922  -3.622  1.00  0.00     0.031 A 
ATOM     73  C   UNL     1       2.788  12.573  -1.459  1.00  0.00     0.131 A 
ATOM     74  C   UNL     1       0.908  13.841  -3.034  1.00  0.00     0.055 A 
ATOM     75  C   UNL     1       1.872  13.445  -0.869  1.00  0.00     0.041 A 
ATOM     76  F   UNL     1       3.697  11.993  -0.659  1.00  0.00    -0.206 F 
ATOM     77  C   UNL     1       0.932  14.096  -1.661  1.00  0.00     0.022 A 
BRANCH  74  78
ATOM     78  S   UNL     1      -0.219  14.769  -4.110  1.00  0.00     0.124 S 
ATOM     79  O   UNL     1       0.711  15.400  -5.040  1.00  0.00    -0.237 OA
ATOM     80  O   UNL     1      -1.055  13.707  -4.659  1.00  0.00    -0.237 OA
ATOM     81  O   UNL     1      -0.895  15.680  -3.189  1.00  0.00    -0.744 OA
ENDBRANCH  74  78
ENDBRANCH  47  71
BRANCH  59  82
ATOM     82  C   UNL     1       7.919  13.069  -7.472  1.00  0.00     0.023 A 
ATOM     83  C   UNL     1       8.555  14.196  -6.930  1.00  0.00     0.031 A 
ATOM     84  C   UNL     1       7.685  13.031  -8.858  1.00  0.00     0.131 A 
ATOM     85  C   UNL     1       8.905  15.263  -7.769  1.00  0.00     0.055 A 
ATOM     86  C   UNL     1       8.078  14.074  -9.694  1.00  0.00     0.041 A 
ATOM     87  F   UNL     1       7.080  11.972  -9.419  1.00  0.00    -0.206 F 
ATOM     88  C   UNL     1       8.685  15.202  -9.149  1.00  0.00     0.022 A 
BRANCH  85  89
ATOM     89  S   UNL     1       9.611  16.760  -7.029  1.00  0.00     0.124 S 
ATOM     90  O   UNL     1       8.520  17.219  -6.175  1.00  0.00    -0.237 OA
ATOM     91  O   UNL     1      10.787  16.243  -6.336  1.00  0.00    -0.237 OA
ATOM     92  O   UNL     1       9.898  17.611  -8.182  1.00  0.00    -0.744 OA
ENDBRANCH  85  89
ENDBRANCH  59  82
ENDBRANCH  33  34
ENDBRANCH  26  28
ENDBRANCH  25  26
ENDBRANCH  24  25
ENDBRANCH   1  24
TORSDOF 17
