REMARK SMILES O=C(C[N@@H+]1C[C@@]2([N+](=O)[O-])CC=C(Cl)[C@@]([N+](=O)[O-])(C1)C2)OCCOC(=O)c1ccc(-c2c3nc(c(-c4cc(S(=O)(=O)[O-])ccc4F)c4ccc([nH]4)c(-c4cc(S(=O)(=O)[O-])ccc4F)c4nc(c(-c5cc(S(=O)(=O)[O-])ccc5F)c5ccc2[nH]5)C=C4)C=C3)cc1
REMARK SMILES IDX 22 1 21 2 20 3 2 4 1 5 3 6 4 7 5 8 18 9 6 11 14 12 10 13
REMARK SMILES IDX 19 14 12 15 11 16 13 17 7 18 8 19 9 20 15 21 16 22 17 23
REMARK SMILES IDX 23 24 24 25 25 26 26 27 27 28 88 29 28 30 87 31 29 32 30 33
REMARK SMILES IDX 31 34 81 35 32 36 86 37 80 38 82 39 33 40 85 41 79 42 78 43
REMARK SMILES IDX 34 45 66 46 46 47 65 48 47 49 50 50 64 51 83 52 48 53 49 54
REMARK SMILES IDX 63 56 84 57 51 58 35 59 36 60 44 61 37 62 43 63 45 64 42 65
REMARK SMILES IDX 38 66 39 67 40 68 41 69 67 70 68 71 76 72 69 73 75 74 77 75
REMARK SMILES IDX 74 76 70 77 71 78 72 79 73 80 52 81 53 82 61 83 54 84 60 85
REMARK SMILES IDX 62 86 59 87 55 88 56 89 57 90 58 91
REMARK H PARENT 4 10 82 44 50 55
REMARK Flexibility Score: inf
ROOT
ATOM      1  C   UNL     1       4.276   1.284  -2.324  1.00  0.00     0.275 C 
ENDROOT
BRANCH   1   2
ATOM      2  C   UNL     1       4.138  -0.112  -1.710  1.00  0.00     0.274 C 
BRANCH   2   3
ATOM      3  O   UNL     1       2.807  -0.400  -1.238  1.00  0.00    -0.458 OA
BRANCH   3   4
ATOM      4  C   UNL     1       2.530  -0.561   0.084  1.00  0.00     0.361 C 
ATOM      5  O   UNL     1       1.698  -1.387   0.451  1.00  0.00    -0.245 OA
BRANCH   4   6
ATOM      6  C   UNL     1       3.238   0.381   1.061  1.00  0.00     0.386 C 
BRANCH   6   7
ATOM      7  N   UNL     1       3.980  -0.313   2.136  1.00  0.00    -0.313 N 
ATOM      8  C   UNL     1       4.576   0.684   3.057  1.00  0.00     0.350 C 
ATOM      9  C   UNL     1       5.000  -1.257   1.622  1.00  0.00     0.356 C 
ATOM     10  H   UNL     1       3.311  -0.885   2.651  1.00  0.00     0.349 HD
ATOM     11  C   UNL     1       5.396   0.036   4.197  1.00  0.00     0.280 C 
ATOM     12  C   UNL     1       5.754  -1.966   2.772  1.00  0.00     0.311 C 
ATOM     13  C   UNL     1       4.528  -0.782   5.188  1.00  0.00     0.121 C 
ATOM     14  C   UNL     1       6.477  -0.885   3.602  1.00  0.00     0.191 C 
ATOM     15  C   UNL     1       4.779  -2.744   3.638  1.00  0.00     0.097 C 
ATOM     16  C   UNL     1       4.224  -2.195   4.734  1.00  0.00     0.004 C 
ATOM     17  Cl  UNL     1       4.264  -4.312   3.121  1.00  0.00    -0.081 Cl
BRANCH  11  18
ATOM     18  N   UNL     1       6.066   1.188   4.932  1.00  0.00     0.032 N 
ATOM     19  O   UNL     1       5.532   1.608   5.963  1.00  0.00    -0.264 OA
ATOM     20  O   UNL     1       7.090   1.662   4.420  1.00  0.00    -0.264 OA
ENDBRANCH  11  18
BRANCH  12  21
ATOM     21  N   UNL     1       6.826  -2.888   2.200  1.00  0.00     0.038 N 
ATOM     22  O   UNL     1       6.944  -2.951   0.967  1.00  0.00    -0.263 OA
ATOM     23  O   UNL     1       7.563  -3.476   3.005  1.00  0.00    -0.263 OA
ENDBRANCH  12  21
ENDBRANCH   6   7
ENDBRANCH   4   6
ENDBRANCH   3   4
ENDBRANCH   2   3
ENDBRANCH   1   2
BRANCH   1  24
ATOM     24  O   UNL     1       3.878   2.307  -1.395  1.00  0.00    -0.458 OA
BRANCH  24  25
ATOM     25  C   UNL     1       2.568   2.660  -1.480  1.00  0.00     0.338 C 
ATOM     26  O   UNL     1       1.781   2.285  -2.333  1.00  0.00    -0.246 OA
BRANCH  25  27
ATOM     27  C   UNL     1       2.161   3.411  -0.269  1.00  0.00     0.060 A 
ATOM     28  C   UNL     1       0.865   3.193   0.212  1.00  0.00     0.016 A 
ATOM     29  C   UNL     1       3.011   4.304   0.394  1.00  0.00     0.016 A 
ATOM     30  C   UNL     1       0.396   3.905   1.316  1.00  0.00     0.010 A 
ATOM     31  C   UNL     1       2.539   5.019   1.504  1.00  0.00     0.010 A 
ATOM     32  C   UNL     1       1.215   4.852   1.946  1.00  0.00    -0.014 A 
BRANCH  32  33
ATOM     33  C   UNL     1       0.606   5.770   2.944  1.00  0.00     0.031 A 
ATOM     34  C   UNL     1       0.148   7.132   2.492  1.00  0.00     0.074 A 
ATOM     35  C   UNL     1       0.387   5.374   4.212  1.00  0.00     0.049 A 
ATOM     36  N   UNL     1      -0.511   8.050   3.153  1.00  0.00    -0.248 NA
ATOM     37  C   UNL     1       0.477   7.506   1.108  1.00  0.00     0.031 C 
ATOM     38  C   UNL     1       0.775   4.081   4.773  1.00  0.00     0.029 A 
ATOM     39  N   UNL     1      -0.226   6.024   5.255  1.00  0.00    -0.354 N 
ATOM     40  C   UNL     1      -0.706   9.095   2.256  1.00  0.00     0.074 A 
ATOM     41  C   UNL     1      -0.032   8.725   1.029  1.00  0.00     0.031 C 
ATOM     42  C   UNL     1       0.394   4.035   6.063  1.00  0.00     0.029 A 
ATOM     43  C   UNL     1      -0.258   5.293   6.420  1.00  0.00     0.049 A 
ATOM     44  H   UNL     1      -0.607   6.928   5.177  1.00  0.00     0.167 HD
ATOM     45  C   UNL     1      -1.404  10.245   2.426  1.00  0.00     0.034 A 
ATOM     46  C   UNL     1      -0.757   5.606   7.634  1.00  0.00     0.034 A 
ATOM     47  C   UNL     1      -2.043  10.627   3.661  1.00  0.00     0.049 A 
ATOM     48  C   UNL     1      -1.468   6.926   7.823  1.00  0.00     0.074 A 
ATOM     49  C   UNL     1      -2.767  11.773   3.941  1.00  0.00     0.029 A 
ATOM     50  N   UNL     1      -2.022   9.879   4.831  1.00  0.00    -0.354 N 
ATOM     51  N   UNL     1      -1.684   7.884   6.950  1.00  0.00    -0.248 NA
ATOM     52  C   UNL     1      -2.025   7.193   9.156  1.00  0.00     0.031 C 
ATOM     53  C   UNL     1      -3.127  11.748   5.293  1.00  0.00     0.029 A 
ATOM     54  C   UNL     1      -2.694  10.552   5.841  1.00  0.00     0.049 A 
ATOM     55  H   UNL     1      -1.592   8.999   4.930  1.00  0.00     0.167 HD
ATOM     56  C   UNL     1      -2.426   8.852   7.626  1.00  0.00     0.074 A 
ATOM     57  C   UNL     1      -2.643   8.348   8.966  1.00  0.00     0.031 C 
ATOM     58  C   UNL     1      -2.888  10.050   7.181  1.00  0.00     0.034 A 
BRANCH  45  59
ATOM     59  C   UNL     1      -1.483  11.179   1.243  1.00  0.00     0.023 A 
ATOM     60  C   UNL     1      -2.145  10.806   0.059  1.00  0.00     0.031 A 
ATOM     61  C   UNL     1      -0.867  12.441   1.285  1.00  0.00     0.131 A 
ATOM     62  C   UNL     1      -2.117  11.657  -1.056  1.00  0.00     0.055 A 
ATOM     63  C   UNL     1      -0.909  13.315   0.197  1.00  0.00     0.041 A 
ATOM     64  F   UNL     1      -0.200  12.841   2.379  1.00  0.00    -0.206 F 
ATOM     65  C   UNL     1      -1.525  12.919  -0.987  1.00  0.00     0.022 A 
BRANCH  62  66
ATOM     66  S   UNL     1      -2.750  11.033  -2.637  1.00  0.00     0.124 S 
ATOM     67  O   UNL     1      -1.886   9.877  -2.865  1.00  0.00    -0.237 OA
ATOM     68  O   UNL     1      -4.144  10.738  -2.326  1.00  0.00    -0.237 OA
ATOM     69  O   UNL     1      -2.538  12.150  -3.555  1.00  0.00    -0.744 OA
ENDBRANCH  62  66
ENDBRANCH  45  59
BRANCH  46  70
ATOM     70  C   UNL     1      -0.588   4.673   8.787  1.00  0.00     0.023 A 
ATOM     71  C   UNL     1      -1.693   4.092   9.430  1.00  0.00     0.031 A 
ATOM     72  C   UNL     1       0.691   4.419   9.316  1.00  0.00     0.131 A 
ATOM     73  C   UNL     1      -1.504   3.338  10.599  1.00  0.00     0.055 A 
ATOM     74  C   UNL     1       0.877   3.623  10.446  1.00  0.00     0.041 A 
ATOM     75  F   UNL     1       1.781   4.950   8.739  1.00  0.00    -0.206 F 
ATOM     76  C   UNL     1      -0.226   3.090  11.105  1.00  0.00     0.022 A 
BRANCH  73  77
ATOM     77  S   UNL     1      -2.966   2.768  11.512  1.00  0.00     0.124 S 
ATOM     78  O   UNL     1      -3.662   4.022  11.771  1.00  0.00    -0.237 OA
ATOM     79  O   UNL     1      -3.593   1.873  10.546  1.00  0.00    -0.237 OA
ATOM     80  O   UNL     1      -2.398   2.112  12.688  1.00  0.00    -0.744 OA
ENDBRANCH  73  77
ENDBRANCH  46  70
BRANCH  58  81
ATOM     81  C   UNL     1      -3.700  10.876   8.152  1.00  0.00     0.023 A 
ATOM     82  C   UNL     1      -3.135  11.398   9.330  1.00  0.00     0.031 A 
ATOM     83  C   UNL     1      -5.065  11.116   7.915  1.00  0.00     0.131 A 
ATOM     84  C   UNL     1      -3.946  12.069  10.259  1.00  0.00     0.055 A 
ATOM     85  C   UNL     1      -5.853  11.841   8.811  1.00  0.00     0.041 A 
ATOM     86  F   UNL     1      -5.660  10.644   6.808  1.00  0.00    -0.206 F 
ATOM     87  C   UNL     1      -5.298  12.307  10.000  1.00  0.00     0.022 A 
BRANCH  84  88
ATOM     88  S   UNL     1      -3.236  12.523  11.866  1.00  0.00     0.124 S 
ATOM     89  O   UNL     1      -2.745  11.239  12.355  1.00  0.00    -0.237 OA
ATOM     90  O   UNL     1      -2.215  13.495  11.491  1.00  0.00    -0.237 OA
ATOM     91  O   UNL     1      -4.375  13.071  12.601  1.00  0.00    -0.744 OA
ENDBRANCH  84  88
ENDBRANCH  58  81
ENDBRANCH  32  33
ENDBRANCH  25  27
ENDBRANCH  24  25
ENDBRANCH   1  24
TORSDOF 17
