REMARK SMILES Nn1c(Cc2ccc(F)c(F)c2)nnc1SCC(=O)OCCOC(=O)c1ccc(-c2c3nc(c(-c4cc(S(=O)(=O)[O-])ccc4F)c4ccc([nH]4)c(-c4cc(S(=O)(=O)[O-])ccc4F)c4nc(c(-c5cc(S(=O)(=O)[O-])ccc5F)c5ccc2[nH]5)C=C4)C=C3)cc1
REMARK SMILES IDX 21 1 20 2 18 3 19 4 17 5 16 6 15 7 2 8 3 9 13 10 14 11 1 12
REMARK SMILES IDX 4 15 5 16 6 17 12 18 7 19 10 20 8 21 11 22 9 23 22 24 23 25
REMARK SMILES IDX 24 26 25 27 26 28 27 29 88 30 28 31 87 32 29 33 30 34 31 35
REMARK SMILES IDX 81 36 32 37 86 38 80 39 82 40 33 41 85 42 79 43 78 44 34 46
REMARK SMILES IDX 66 47 46 48 65 49 47 50 50 51 64 52 83 53 48 54 49 55 63 57
REMARK SMILES IDX 84 58 51 59 35 60 36 61 44 62 37 63 43 64 45 65 42 66 38 67
REMARK SMILES IDX 39 68 40 69 41 70 67 71 68 72 76 73 69 74 75 75 77 76 74 77
REMARK SMILES IDX 70 78 71 79 72 80 73 81 52 82 53 83 61 84 54 85 60 86 62 87
REMARK SMILES IDX 59 88 55 89 56 90 57 91 58 92
REMARK H PARENT 1 13 1 14 82 45 50 56
REMARK Flexibility Score: inf
ROOT
ATOM      1  C   UNL     1       2.751  -2.259  -3.523  1.00  0.00     0.274 C 
ENDROOT
BRANCH   1   2
ATOM      2  O   UNL     1       1.867  -2.478  -2.407  1.00  0.00    -0.461 OA
BRANCH   2   3
ATOM      3  C   UNL     1       2.446  -2.957  -1.278  1.00  0.00     0.316 C 
ATOM      4  O   UNL     1       3.652  -3.167  -1.165  1.00  0.00    -0.251 OA
BRANCH   3   5
ATOM      5  C   UNL     1       1.510  -3.190  -0.117  1.00  0.00     0.200 C 
BRANCH   5   6
ATOM      6  S   UNL     1      -0.258  -3.162  -0.456  1.00  0.00    -0.073 SA
BRANCH   6   7
ATOM      7  C   UNL     1      -0.630  -1.494  -0.735  1.00  0.00     0.210 A 
ATOM      8  N   UNL     1      -0.278  -0.428   0.061  1.00  0.00    -0.221 N 
ATOM      9  C   UNL     1      -0.855   0.679  -0.524  1.00  0.00     0.157 A 
ATOM     10  N   UNL     1      -1.567   0.282  -1.565  1.00  0.00    -0.132 NA
ATOM     11  N   UNL     1      -1.426  -1.079  -1.695  1.00  0.00    -0.121 NA
BRANCH   8  12
ATOM     12  N   UNL     1       0.472  -0.452   1.285  1.00  0.00    -0.336 N 
ATOM     13  H   UNL     1       0.659   0.388   1.764  1.00  0.00     0.178 HD
ATOM     14  H   UNL     1       0.799  -1.308   1.645  1.00  0.00     0.178 HD
ENDBRANCH   8  12
BRANCH   9  15
ATOM     15  C   UNL     1      -0.690   2.075  -0.017  1.00  0.00     0.115 C 
BRANCH  15  16
ATOM     16  C   UNL     1      -0.971   3.132  -1.065  1.00  0.00    -0.037 A 
ATOM     17  C   UNL     1      -2.288   3.557  -1.309  1.00  0.00     0.007 A 
ATOM     18  C   UNL     1       0.067   3.655  -1.851  1.00  0.00     0.046 A 
ATOM     19  C   UNL     1      -2.560   4.473  -2.328  1.00  0.00     0.043 A 
ATOM     20  C   UNL     1      -0.213   4.560  -2.868  1.00  0.00     0.159 A 
ATOM     21  C   UNL     1      -1.519   4.965  -3.107  1.00  0.00     0.158 A 
ATOM     22  F   UNL     1       0.791   5.032  -3.623  1.00  0.00    -0.204 F 
ATOM     23  F   UNL     1      -1.786   5.828  -4.098  1.00  0.00    -0.204 F 
ENDBRANCH  15  16
ENDBRANCH   9  15
ENDBRANCH   6   7
ENDBRANCH   5   6
ENDBRANCH   3   5
ENDBRANCH   2   3
ENDBRANCH   1   2
BRANCH   1  24
ATOM     24  C   UNL     1       3.131  -0.788  -3.655  1.00  0.00     0.275 C 
BRANCH  24  25
ATOM     25  O   UNL     1       3.740  -0.306  -2.442  1.00  0.00    -0.458 OA
BRANCH  25  26
ATOM     26  C   UNL     1       3.019   0.627  -1.791  1.00  0.00     0.338 C 
ATOM     27  O   UNL     1       1.944   1.104  -2.134  1.00  0.00    -0.246 OA
BRANCH  26  28
ATOM     28  C   UNL     1       3.655   1.058  -0.542  1.00  0.00     0.060 A 
ATOM     29  C   UNL     1       3.804   0.159   0.513  1.00  0.00     0.016 A 
ATOM     30  C   UNL     1       3.879   2.424  -0.350  1.00  0.00     0.016 A 
ATOM     31  C   UNL     1       4.090   0.644   1.791  1.00  0.00     0.010 A 
ATOM     32  C   UNL     1       4.227   2.898   0.914  1.00  0.00     0.010 A 
ATOM     33  C   UNL     1       4.286   2.019   2.007  1.00  0.00    -0.014 A 
BRANCH  33  34
ATOM     34  C   UNL     1       4.503   2.546   3.380  1.00  0.00     0.031 A 
ATOM     35  C   UNL     1       3.470   3.427   4.033  1.00  0.00     0.074 A 
ATOM     36  C   UNL     1       5.631   2.233   4.043  1.00  0.00     0.049 A 
ATOM     37  N   UNL     1       3.511   4.036   5.191  1.00  0.00    -0.248 NA
ATOM     38  C   UNL     1       2.229   3.660   3.278  1.00  0.00     0.031 C 
ATOM     39  C   UNL     1       6.710   1.391   3.524  1.00  0.00     0.029 A 
ATOM     40  N   UNL     1       6.058   2.590   5.296  1.00  0.00    -0.354 N 
ATOM     41  C   UNL     1       2.318   4.743   5.296  1.00  0.00     0.074 A 
ATOM     42  C   UNL     1       1.581   4.500   4.073  1.00  0.00     0.031 C 
ATOM     43  C   UNL     1       7.669   1.284   4.457  1.00  0.00     0.029 A 
ATOM     44  C   UNL     1       7.295   2.086   5.618  1.00  0.00     0.049 A 
ATOM     45  H   UNL     1       5.529   3.153   5.907  1.00  0.00     0.167 HD
ATOM     46  C   UNL     1       1.876   5.522   6.316  1.00  0.00     0.034 A 
ATOM     47  C   UNL     1       8.056   2.267   6.713  1.00  0.00     0.034 A 
ATOM     48  C   UNL     1       2.611   5.758   7.535  1.00  0.00     0.049 A 
ATOM     49  C   UNL     1       7.550   3.139   7.827  1.00  0.00     0.074 A 
ATOM     50  C   UNL     1       2.244   6.519   8.633  1.00  0.00     0.029 A 
ATOM     51  N   UNL     1       3.866   5.239   7.817  1.00  0.00    -0.354 N 
ATOM     52  N   UNL     1       6.428   3.818   7.898  1.00  0.00    -0.248 NA
ATOM     53  C   UNL     1       8.414   3.268   9.006  1.00  0.00     0.031 C 
ATOM     54  C   UNL     1       3.295   6.493   9.559  1.00  0.00     0.029 A 
ATOM     55  C   UNL     1       4.295   5.674   9.062  1.00  0.00     0.049 A 
ATOM     56  H   UNL     1       4.378   4.646   7.221  1.00  0.00     0.167 HD
ATOM     57  C   UNL     1       6.457   4.460   9.131  1.00  0.00     0.074 A 
ATOM     58  C   UNL     1       7.691   4.065   9.780  1.00  0.00     0.031 C 
ATOM     59  C   UNL     1       5.545   5.304   9.678  1.00  0.00     0.034 A 
BRANCH  46  60
ATOM     60  C   UNL     1       0.547   6.209   6.129  1.00  0.00     0.023 A 
ATOM     61  C   UNL     1      -0.655   5.484   6.083  1.00  0.00     0.031 A 
ATOM     62  C   UNL     1       0.485   7.604   5.965  1.00  0.00     0.131 A 
ATOM     63  C   UNL     1      -1.861   6.147   5.814  1.00  0.00     0.055 A 
ATOM     64  C   UNL     1      -0.727   8.267   5.765  1.00  0.00     0.041 A 
ATOM     65  F   UNL     1       1.606   8.343   5.979  1.00  0.00    -0.206 F 
ATOM     66  C   UNL     1      -1.909   7.537   5.675  1.00  0.00     0.022 A 
BRANCH  63  67
ATOM     67  S   UNL     1      -3.344   5.148   5.511  1.00  0.00     0.124 S 
ATOM     68  O   UNL     1      -2.904   4.292   4.410  1.00  0.00    -0.237 OA
ATOM     69  O   UNL     1      -3.543   4.485   6.794  1.00  0.00    -0.237 OA
ATOM     70  O   UNL     1      -4.357   6.138   5.153  1.00  0.00    -0.744 OA
ENDBRANCH  63  67
ENDBRANCH  46  60
BRANCH  47  71
ATOM     71  C   UNL     1       9.402   1.643   6.787  1.00  0.00     0.023 A 
ATOM     72  C   UNL     1       9.653   0.568   7.650  1.00  0.00     0.031 A 
ATOM     73  C   UNL     1      10.455   2.122   5.990  1.00  0.00     0.131 A 
ATOM     74  C   UNL     1      10.941   0.017   7.714  1.00  0.00     0.055 A 
ATOM     75  C   UNL     1      11.726   1.550   6.033  1.00  0.00     0.041 A 
ATOM     76  F   UNL     1      10.252   3.142   5.141  1.00  0.00    -0.206 F 
ATOM     77  C   UNL     1      11.976   0.494   6.904  1.00  0.00     0.022 A 
BRANCH  74  78
ATOM     78  S   UNL     1      11.254  -1.321   8.897  1.00  0.00     0.124 S 
ATOM     79  O   UNL     1      10.961  -0.670  10.168  1.00  0.00    -0.237 OA
ATOM     80  O   UNL     1      10.302  -2.338   8.463  1.00  0.00    -0.237 OA
ATOM     81  O   UNL     1      12.660  -1.652   8.672  1.00  0.00    -0.744 OA
ENDBRANCH  74  78
ENDBRANCH  47  71
BRANCH  59  82
ATOM     82  C   UNL     1       5.866   5.841  11.047  1.00  0.00     0.023 A 
ATOM     83  C   UNL     1       6.895   6.779  11.238  1.00  0.00     0.031 A 
ATOM     84  C   UNL     1       5.170   5.374  12.175  1.00  0.00     0.131 A 
ATOM     85  C   UNL     1       7.237   7.183  12.537  1.00  0.00     0.055 A 
ATOM     86  C   UNL     1       5.486   5.812  13.461  1.00  0.00     0.041 A 
ATOM     87  F   UNL     1       4.182   4.476  12.043  1.00  0.00    -0.206 F 
ATOM     88  C   UNL     1       6.534   6.711  13.649  1.00  0.00     0.022 A 
BRANCH  85  89
ATOM     89  S   UNL     1       8.680   8.258  12.763  1.00  0.00     0.124 S 
ATOM     90  O   UNL     1       9.729   7.513  12.073  1.00  0.00    -0.237 OA
ATOM     91  O   UNL     1       8.248   9.495  12.120  1.00  0.00    -0.237 OA
ATOM     92  O   UNL     1       8.828   8.332  14.215  1.00  0.00    -0.744 OA
ENDBRANCH  85  89
ENDBRANCH  59  82
ENDBRANCH  33  34
ENDBRANCH  26  28
ENDBRANCH  25  26
ENDBRANCH  24  25
ENDBRANCH   1  24
TORSDOF 19
