REMARK SMILES CC1=C(CC(=O)OCCOC(=O)c2ccc(-c3c4nc(c(-c5cc(S(=O)(=O)[O-])ccc5F)c5ccc([nH]5)c(-c5cc(S(=O)(=O)[O-])ccc5F)c5nc(c(-c6cc(S(=O)(=O)[O-])ccc6F)c6ccc3[nH]6)C=C5)C=C4)cc2)c2cc(F)ccc2/C1=C\c1ccc([S@@+](C)[O-])cc1
REMARK SMILES IDX 8 1 7 2 5 3 6 4 4 5 3 6 1 7 2 8 83 9 76 10 82 11 84 12 77 13
REMARK SMILES IDX 81 14 78 15 80 16 79 17 85 18 86 19 93 20 87 21 92 22 88 23
REMARK SMILES IDX 89 24 90 25 91 26 9 27 10 28 11 29 12 30 13 31 14 32 75 33
REMARK SMILES IDX 15 34 74 35 16 36 17 37 18 38 68 39 19 40 73 41 67 42 69 43
REMARK SMILES IDX 20 44 72 45 66 46 65 47 21 49 53 50 33 51 52 52 34 53 37 54
REMARK SMILES IDX 51 55 70 56 35 57 36 58 50 60 71 61 38 62 22 63 23 64 31 65
REMARK SMILES IDX 24 66 30 67 32 68 29 69 25 70 26 71 27 72 28 73 54 74 55 75
REMARK SMILES IDX 63 76 56 77 62 78 64 79 61 80 57 81 58 82 59 83 60 84 39 85
REMARK SMILES IDX 40 86 48 87 41 88 47 89 49 90 46 91 42 92 43 93 44 94 45 95
REMARK H PARENT 69 48 37 59
REMARK Flexibility Score: inf
ROOT
ATOM      1  C   UNL     1      -3.872   0.969   1.248  1.00  0.00     0.274 C 
ENDROOT
BRANCH   1   2
ATOM      2  O   UNL     1      -2.626   1.131   0.539  1.00  0.00    -0.462 OA
BRANCH   2   3
ATOM      3  C   UNL     1      -2.496   0.397  -0.598  1.00  0.00     0.310 C 
ATOM      4  O   UNL     1      -3.339  -0.395  -1.010  1.00  0.00    -0.252 OA
BRANCH   3   5
ATOM      5  C   UNL     1      -1.195   0.630  -1.355  1.00  0.00     0.159 C 
BRANCH   5   6
ATOM      6  C   UNL     1      -0.236   1.617  -0.778  1.00  0.00    -0.025 C 
ATOM      7  C   UNL     1       1.384   0.076   0.446  1.00  0.00     0.045 C 
ATOM      8  C   UNL     1       0.858   1.394  -0.015  1.00  0.00    -0.039 C 
ATOM      9  C   UNL     1       1.521   2.674   0.284  1.00  0.00    -0.014 C 
ATOM     10  C   UNL     1      -0.296   3.061  -1.064  1.00  0.00    -0.011 A 
ATOM     11  C   UNL     1       0.768   3.724  -0.432  1.00  0.00    -0.010 A 
ATOM     12  C   UNL     1       2.605   2.802   1.074  1.00  0.00     0.017 C 
ATOM     13  C   UNL     1      -1.185   3.766  -1.863  1.00  0.00     0.048 A 
ATOM     14  C   UNL     1       0.942   5.095  -0.602  1.00  0.00     0.012 A 
ATOM     15  C   UNL     1      -1.024   5.141  -1.998  1.00  0.00     0.123 A 
ATOM     16  C   UNL     1       0.026   5.809  -1.377  1.00  0.00     0.040 A 
ATOM     17  F   UNL     1      -1.884   5.832  -2.756  1.00  0.00    -0.207 F 
BRANCH  12  18
ATOM     18  C   UNL     1       3.263   4.071   1.382  1.00  0.00    -0.025 A 
ATOM     19  C   UNL     1       2.676   4.968   2.281  1.00  0.00     0.013 A 
ATOM     20  C   UNL     1       4.405   4.449   0.673  1.00  0.00     0.013 A 
ATOM     21  C   UNL     1       3.171   6.270   2.395  1.00  0.00     0.061 A 
ATOM     22  C   UNL     1       4.912   5.744   0.807  1.00  0.00     0.061 A 
ATOM     23  C   UNL     1       4.284   6.673   1.647  1.00  0.00     0.152 A 
BRANCH  23  24
ATOM     24  S   UNL     1       4.829   8.401   1.609  1.00  0.00    -0.018 S 
ATOM     25  C   UNL     1       4.753   8.792   3.368  1.00  0.00     0.346 C 
ATOM     26  O   UNL     1       6.344   8.390   1.192  1.00  0.00    -0.612 OA
ENDBRANCH  23  24
ENDBRANCH  12  18
ENDBRANCH   5   6
ENDBRANCH   3   5
ENDBRANCH   2   3
ENDBRANCH   1   2
BRANCH   1  27
ATOM     27  C   UNL     1      -4.822   2.124   0.949  1.00  0.00     0.275 C 
BRANCH  27  28
ATOM     28  O   UNL     1      -5.052   2.204  -0.466  1.00  0.00    -0.458 OA
BRANCH  28  29
ATOM     29  C   UNL     1      -4.739   3.388  -1.041  1.00  0.00     0.338 C 
ATOM     30  O   UNL     1      -4.359   4.402  -0.485  1.00  0.00    -0.246 OA
BRANCH  29  31
ATOM     31  C   UNL     1      -4.962   3.289  -2.494  1.00  0.00     0.060 A 
ATOM     32  C   UNL     1      -5.782   4.230  -3.110  1.00  0.00     0.016 A 
ATOM     33  C   UNL     1      -4.299   2.322  -3.255  1.00  0.00     0.016 A 
ATOM     34  C   UNL     1      -5.976   4.167  -4.490  1.00  0.00     0.010 A 
ATOM     35  C   UNL     1      -4.412   2.328  -4.644  1.00  0.00     0.010 A 
ATOM     36  C   UNL     1      -5.287   3.221  -5.272  1.00  0.00    -0.014 A 
BRANCH  36  37
ATOM     37  C   UNL     1      -5.516   3.162  -6.738  1.00  0.00     0.031 A 
ATOM     38  C   UNL     1      -6.171   1.957  -7.359  1.00  0.00     0.074 A 
ATOM     39  C   UNL     1      -5.161   4.208  -7.508  1.00  0.00     0.049 A 
ATOM     40  N   UNL     1      -6.601   1.798  -8.584  1.00  0.00    -0.248 NA
ATOM     41  C   UNL     1      -6.354   0.772  -6.505  1.00  0.00     0.031 C 
ATOM     42  C   UNL     1      -4.448   5.394  -7.031  1.00  0.00     0.029 A 
ATOM     43  N   UNL     1      -5.366   4.457  -8.843  1.00  0.00    -0.354 N 
ATOM     44  C   UNL     1      -7.118   0.509  -8.640  1.00  0.00     0.074 A 
ATOM     45  C   UNL     1      -6.875  -0.101  -7.354  1.00  0.00     0.031 C 
ATOM     46  C   UNL     1      -4.325   6.267  -8.042  1.00  0.00     0.029 A 
ATOM     47  C   UNL     1      -4.930   5.698  -9.246  1.00  0.00     0.049 A 
ATOM     48  H   UNL     1      -5.785   3.808  -9.454  1.00  0.00     0.167 HD
ATOM     49  C   UNL     1      -7.776  -0.095  -9.657  1.00  0.00     0.034 A 
ATOM     50  C   UNL     1      -5.032   6.322 -10.438  1.00  0.00     0.034 A 
ATOM     51  C   UNL     1      -8.022   0.530 -10.929  1.00  0.00     0.049 A 
ATOM     52  C   UNL     1      -5.781   5.637 -11.555  1.00  0.00     0.074 A 
ATOM     53  C   UNL     1      -8.730   0.028 -12.005  1.00  0.00     0.029 A 
ATOM     54  N   UNL     1      -7.569   1.789 -11.299  1.00  0.00    -0.354 N 
ATOM     55  N   UNL     1      -6.384   4.471 -11.550  1.00  0.00    -0.248 NA
ATOM     56  C   UNL     1      -5.886   6.356 -12.833  1.00  0.00     0.031 C 
ATOM     57  C   UNL     1      -8.659   0.956 -13.044  1.00  0.00     0.029 A 
ATOM     58  C   UNL     1      -7.962   2.068 -12.596  1.00  0.00     0.049 A 
ATOM     59  H   UNL     1      -7.047   2.393 -10.723  1.00  0.00     0.167 HD
ATOM     60  C   UNL     1      -6.959   4.328 -12.810  1.00  0.00     0.074 A 
ATOM     61  C   UNL     1      -6.653   5.539 -13.543  1.00  0.00     0.031 C 
ATOM     62  C   UNL     1      -7.670   3.287 -13.313  1.00  0.00     0.034 A 
BRANCH  49  63
ATOM     63  C   UNL     1      -8.323  -1.483  -9.435  1.00  0.00     0.023 A 
ATOM     64  C   UNL     1      -7.872  -2.561 -10.217  1.00  0.00     0.031 A 
ATOM     65  C   UNL     1      -9.377  -1.712  -8.530  1.00  0.00     0.131 A 
ATOM     66  C   UNL     1      -8.490  -3.812 -10.098  1.00  0.00     0.055 A 
ATOM     67  C   UNL     1      -9.962  -2.970  -8.387  1.00  0.00     0.041 A 
ATOM     68  F   UNL     1      -9.845  -0.715  -7.762  1.00  0.00    -0.206 F 
ATOM     69  C   UNL     1      -9.526  -4.024  -9.182  1.00  0.00     0.022 A 
BRANCH  66  70
ATOM     70  S   UNL     1      -8.016  -5.200 -11.165  1.00  0.00     0.124 S 
ATOM     71  O   UNL     1      -7.612  -6.207 -10.186  1.00  0.00    -0.237 OA
ATOM     72  O   UNL     1      -9.264  -5.482 -11.870  1.00  0.00    -0.237 OA
ATOM     73  O   UNL     1      -6.936  -4.662 -11.984  1.00  0.00    -0.744 OA
ENDBRANCH  66  70
ENDBRANCH  49  63
BRANCH  50  74
ATOM     74  C   UNL     1      -4.496   7.707 -10.581  1.00  0.00     0.023 A 
ATOM     75  C   UNL     1      -3.123   7.975 -10.427  1.00  0.00     0.031 A 
ATOM     76  C   UNL     1      -5.364   8.797 -10.764  1.00  0.00     0.131 A 
ATOM     77  C   UNL     1      -2.670   9.301 -10.399  1.00  0.00     0.055 A 
ATOM     78  C   UNL     1      -4.900  10.113 -10.800  1.00  0.00     0.041 A 
ATOM     79  F   UNL     1      -6.684   8.594 -10.899  1.00  0.00    -0.206 F 
ATOM     80  C   UNL     1      -3.548  10.371 -10.600  1.00  0.00     0.022 A 
BRANCH  77  81
ATOM     81  S   UNL     1      -0.949   9.690  -9.974  1.00  0.00     0.124 S 
ATOM     82  O   UNL     1      -0.487  10.377 -11.176  1.00  0.00    -0.237 OA
ATOM     83  O   UNL     1      -1.116  10.531  -8.791  1.00  0.00    -0.237 OA
ATOM     84  O   UNL     1      -0.352   8.382  -9.726  1.00  0.00    -0.744 OA
ENDBRANCH  77  81
ENDBRANCH  50  74
BRANCH  62  85
ATOM     85  C   UNL     1      -8.185   3.375 -14.730  1.00  0.00     0.023 A 
ATOM     86  C   UNL     1      -9.571   3.339 -14.977  1.00  0.00     0.031 A 
ATOM     87  C   UNL     1      -7.310   3.314 -15.828  1.00  0.00     0.131 A 
ATOM     88  C   UNL     1     -10.041   3.197 -16.289  1.00  0.00     0.055 A 
ATOM     89  C   UNL     1      -7.785   3.221 -17.137  1.00  0.00     0.041 A 
ATOM     90  F   UNL     1      -5.981   3.331 -15.642  1.00  0.00    -0.206 F 
ATOM     91  C   UNL     1      -9.155   3.145 -17.370  1.00  0.00     0.022 A 
BRANCH  88  92
ATOM     92  S   UNL     1     -11.809   2.974 -16.632  1.00  0.00     0.124 S 
ATOM     93  O   UNL     1     -12.101   4.132 -17.472  1.00  0.00    -0.237 OA
ATOM     94  O   UNL     1     -11.828   1.685 -17.319  1.00  0.00    -0.237 OA
ATOM     95  O   UNL     1     -12.430   2.990 -15.312  1.00  0.00    -0.744 OA
ENDBRANCH  88  92
ENDBRANCH  62  85
ENDBRANCH  36  37
ENDBRANCH  29  31
ENDBRANCH  28  29
ENDBRANCH  27  28
ENDBRANCH   1  27
TORSDOF 17
