REMARK SMILES CCCN(CCC)c1ccc(C(=O)OCCOC(=O)c2ccc(-c3c4nc(c(-c5cc(S(=O)(=O)[O-])ccc5F)c5ccc([nH]5)c(-c5cc(S(=O)(=O)[O-])ccc5F)c5nc(c(-c6cc(S(=O)(=O)[O-])ccc6F)c6ccc3[nH]6)C=C5)C=C4)cc2)cc1[N+](=O)[O-]
REMARK SMILES IDX 15 1 14 2 12 3 13 4 11 5 8 6 9 7 84 8 10 9 83 10 4 11 3 12
REMARK SMILES IDX 2 13 1 14 5 15 6 16 7 17 85 18 86 19 87 20 16 21 17 22 18 23
REMARK SMILES IDX 19 24 20 25 21 26 82 27 22 28 81 29 23 30 24 31 25 32 75 33
REMARK SMILES IDX 26 34 80 35 74 36 76 37 27 38 79 39 73 40 72 41 28 43 60 44
REMARK SMILES IDX 40 45 59 46 41 47 44 48 58 49 77 50 42 51 43 52 57 54 78 55
REMARK SMILES IDX 45 56 29 57 30 58 38 59 31 60 37 61 39 62 36 63 32 64 33 65
REMARK SMILES IDX 34 66 35 67 61 68 62 69 70 70 63 71 69 72 71 73 68 74 64 75
REMARK SMILES IDX 65 76 66 77 67 78 46 79 47 80 55 81 48 82 54 83 56 84 53 85
REMARK SMILES IDX 49 86 50 87 51 88 52 89
REMARK H PARENT 76 42 44 53
REMARK Flexibility Score: inf
ROOT
ATOM      1  C   UNL     1       1.498   5.810   3.903  1.00  0.00     0.275 C 
ENDROOT
BRANCH   1   2
ATOM      2  O   UNL     1       1.275   4.543   3.258  1.00  0.00    -0.458 OA
BRANCH   2   3
ATOM      3  C   UNL     1       2.070   3.525   3.663  1.00  0.00     0.338 C 
ATOM      4  O   UNL     1       3.031   3.618   4.413  1.00  0.00    -0.246 OA
BRANCH   3   5
ATOM      5  C   UNL     1       1.593   2.221   3.129  1.00  0.00     0.067 A 
ATOM      6  C   UNL     1       0.711  -0.357   2.300  1.00  0.00     0.116 A 
ATOM      7  C   UNL     1       1.851  -0.197   3.101  1.00  0.00     0.034 A 
ATOM      8  C   UNL     1       0.036   0.819   1.923  1.00  0.00     0.293 A 
ATOM      9  C   UNL     1       2.287   1.067   3.512  1.00  0.00     0.018 A 
ATOM     10  C   UNL     1       0.462   2.099   2.319  1.00  0.00     0.103 A 
BRANCH   6  11
ATOM     11  N   UNL     1       0.333  -1.628   1.896  1.00  0.00    -0.366 N 
BRANCH  11  12
ATOM     12  C   UNL     1       1.180  -2.364   0.951  1.00  0.00     0.116 C 
BRANCH  12  13
ATOM     13  C   UNL     1       0.984  -1.858  -0.484  1.00  0.00     0.018 C 
ATOM     14  C   UNL     1       1.930  -0.727  -0.865  1.00  0.00     0.006 C 
ENDBRANCH  12  13
ENDBRANCH  11  12
BRANCH  11  15
ATOM     15  C   UNL     1      -0.606  -2.384   2.747  1.00  0.00     0.116 C 
BRANCH  15  16
ATOM     16  C   UNL     1       0.072  -3.010   3.974  1.00  0.00     0.018 C 
ATOM     17  C   UNL     1      -0.169  -2.211   5.250  1.00  0.00     0.006 C 
ENDBRANCH  15  16
ENDBRANCH  11  15
ENDBRANCH   6  11
BRANCH   8  18
ATOM     18  N   UNL     1      -1.077   0.761   0.990  1.00  0.00     0.065 N 
ATOM     19  O   UNL     1      -0.928   1.367  -0.085  1.00  0.00    -0.258 OA
ATOM     20  O   UNL     1      -2.107   0.171   1.337  1.00  0.00    -0.258 OA
ENDBRANCH   8  18
ENDBRANCH   3   5
ENDBRANCH   2   3
ENDBRANCH   1   2
BRANCH   1  21
ATOM     21  C   UNL     1       0.396   6.106   4.926  1.00  0.00     0.275 C 
BRANCH  21  22
ATOM     22  O   UNL     1       0.444   5.210   6.054  1.00  0.00    -0.458 OA
BRANCH  22  23
ATOM     23  C   UNL     1      -0.295   4.082   5.918  1.00  0.00     0.338 C 
ATOM     24  O   UNL     1      -0.980   3.768   4.958  1.00  0.00    -0.246 OA
BRANCH  23  25
ATOM     25  C   UNL     1      -0.064   3.182   7.060  1.00  0.00     0.060 A 
ATOM     26  C   UNL     1       0.481   1.923   6.795  1.00  0.00     0.016 A 
ATOM     27  C   UNL     1      -0.469   3.515   8.354  1.00  0.00     0.016 A 
ATOM     28  C   UNL     1       0.608   0.984   7.815  1.00  0.00     0.010 A 
ATOM     29  C   UNL     1      -0.330   2.572   9.382  1.00  0.00     0.010 A 
ATOM     30  C   UNL     1       0.196   1.293   9.117  1.00  0.00    -0.014 A 
BRANCH  30  31
ATOM     31  C   UNL     1       0.257   0.247  10.175  1.00  0.00     0.031 A 
ATOM     32  C   UNL     1      -1.014  -0.344  10.721  1.00  0.00     0.074 A 
ATOM     33  C   UNL     1       1.449  -0.203  10.613  1.00  0.00     0.049 A 
ATOM     34  N   UNL     1      -1.181  -1.196  11.701  1.00  0.00    -0.248 NA
ATOM     35  C   UNL     1      -2.265   0.088  10.081  1.00  0.00     0.031 C 
ATOM     36  C   UNL     1       2.752   0.250  10.125  1.00  0.00     0.029 A 
ATOM     37  N   UNL     1       1.758  -1.146  11.563  1.00  0.00    -0.354 N 
ATOM     38  C   UNL     1      -2.555  -1.380  11.817  1.00  0.00     0.074 A 
ATOM     39  C   UNL     1      -3.174  -0.532  10.819  1.00  0.00     0.031 C 
ATOM     40  C   UNL     1       3.719  -0.426  10.766  1.00  0.00     0.029 A 
ATOM     41  C   UNL     1       3.111  -1.311  11.756  1.00  0.00     0.049 A 
ATOM     42  H   UNL     1       1.077  -1.655  12.059  1.00  0.00     0.167 HD
ATOM     43  C   UNL     1      -3.234  -2.183  12.675  1.00  0.00     0.034 A 
ATOM     44  C   UNL     1       3.785  -2.062  12.650  1.00  0.00     0.034 A 
ATOM     45  C   UNL     1      -2.600  -3.038  13.652  1.00  0.00     0.049 A 
ATOM     46  C   UNL     1       3.008  -2.900  13.634  1.00  0.00     0.074 A 
ATOM     47  C   UNL     1      -3.194  -3.897  14.562  1.00  0.00     0.029 A 
ATOM     48  N   UNL     1      -1.229  -3.143  13.848  1.00  0.00    -0.354 N 
ATOM     49  N   UNL     1       1.708  -3.035  13.758  1.00  0.00    -0.248 NA
ATOM     50  C   UNL     1       3.790  -3.684  14.599  1.00  0.00     0.031 C 
ATOM     51  C   UNL     1      -2.188  -4.472  15.347  1.00  0.00     0.029 A 
ATOM     52  C   UNL     1      -0.960  -4.031  14.880  1.00  0.00     0.049 A 
ATOM     53  H   UNL     1      -0.546  -2.658  13.331  1.00  0.00     0.167 HD
ATOM     54  C   UNL     1       1.518  -3.935  14.804  1.00  0.00     0.074 A 
ATOM     55  C   UNL     1       2.837  -4.324  15.261  1.00  0.00     0.031 C 
ATOM     56  C   UNL     1       0.359  -4.399  15.337  1.00  0.00     0.034 A 
BRANCH  43  57
ATOM     57  C   UNL     1      -4.743  -2.125  12.633  1.00  0.00     0.023 A 
ATOM     58  C   UNL     1      -5.475  -2.539  11.507  1.00  0.00     0.031 A 
ATOM     59  C   UNL     1      -5.460  -1.616  13.732  1.00  0.00     0.131 A 
ATOM     60  C   UNL     1      -6.868  -2.371  11.477  1.00  0.00     0.055 A 
ATOM     61  C   UNL     1      -6.853  -1.524  13.726  1.00  0.00     0.041 A 
ATOM     62  F   UNL     1      -4.815  -1.185  14.827  1.00  0.00    -0.206 F 
ATOM     63  C   UNL     1      -7.565  -1.889  12.588  1.00  0.00     0.022 A 
BRANCH  60  64
ATOM     64  S   UNL     1      -7.743  -2.656   9.914  1.00  0.00     0.124 S 
ATOM     65  O   UNL     1      -7.072  -1.711   9.024  1.00  0.00    -0.237 OA
ATOM     66  O   UNL     1      -7.483  -4.068   9.660  1.00  0.00    -0.237 OA
ATOM     67  O   UNL     1      -9.130  -2.324  10.231  1.00  0.00    -0.744 OA
ENDBRANCH  60  64
ENDBRANCH  43  57
BRANCH  44  68
ATOM     68  C   UNL     1       5.275  -2.014  12.703  1.00  0.00     0.023 A 
ATOM     69  C   UNL     1       6.051  -3.153  12.435  1.00  0.00     0.031 A 
ATOM     70  C   UNL     1       5.944  -0.832  13.067  1.00  0.00     0.131 A 
ATOM     71  C   UNL     1       7.447  -3.095  12.571  1.00  0.00     0.055 A 
ATOM     72  C   UNL     1       7.335  -0.765  13.149  1.00  0.00     0.041 A 
ATOM     73  F   UNL     1       5.250   0.285  13.338  1.00  0.00    -0.206 F 
ATOM     74  C   UNL     1       8.095  -1.905  12.912  1.00  0.00     0.022 A 
BRANCH  71  75
ATOM     75  S   UNL     1       8.404  -4.623  12.374  1.00  0.00     0.124 S 
ATOM     76  O   UNL     1       7.816  -5.478  13.399  1.00  0.00    -0.237 OA
ATOM     77  O   UNL     1       8.114  -4.986  10.991  1.00  0.00    -0.237 OA
ATOM     78  O   UNL     1       9.779  -4.199  12.629  1.00  0.00    -0.744 OA
ENDBRANCH  71  75
ENDBRANCH  44  68
BRANCH  56  79
ATOM     79  C   UNL     1       0.477  -5.415  16.447  1.00  0.00     0.023 A 
ATOM     80  C   UNL     1       0.993  -5.076  17.710  1.00  0.00     0.031 A 
ATOM     81  C   UNL     1       0.084  -6.747  16.229  1.00  0.00     0.131 A 
ATOM     82  C   UNL     1       1.153  -6.069  18.689  1.00  0.00     0.055 A 
ATOM     83  C   UNL     1       0.193  -7.719  17.225  1.00  0.00     0.041 A 
ATOM     84  F   UNL     1      -0.413  -7.127  15.041  1.00  0.00    -0.206 F 
ATOM     85  C   UNL     1       0.742  -7.384  18.460  1.00  0.00     0.022 A 
BRANCH  82  86
ATOM     86  S   UNL     1       1.989  -5.638  20.240  1.00  0.00     0.124 S 
ATOM     87  O   UNL     1       3.288  -5.172  19.766  1.00  0.00    -0.237 OA
ATOM     88  O   UNL     1       1.109  -4.615  20.797  1.00  0.00    -0.237 OA
ATOM     89  O   UNL     1       2.015  -6.899  20.979  1.00  0.00    -0.744 OA
ENDBRANCH  82  86
ENDBRANCH  56  79
ENDBRANCH  30  31
ENDBRANCH  23  25
ENDBRANCH  22  23
ENDBRANCH  21  22
ENDBRANCH   1  21
TORSDOF 20
