REMARK SMILES O=C(OCCOC(=O)c1cccc(OS(=O)(=O)c2cccc([N+](=O)[O-])c2)c1)c1ccc(-c2c3nc(c(-c4cc(S(=O)(=O)[O-])ccc4F)c4ccc([nH]4)c(-c4cc(S(=O)(=O)[O-])ccc4F)c4nc(c(-c5cc(S(=O)(=O)[O-])ccc5F)c5ccc2[nH]5)C=C4)C=C3)cc1
REMARK SMILES IDX 5 1 4 2 3 3 2 4 1 5 28 6 29 7 90 8 30 9 89 10 31 11 32 12
REMARK SMILES IDX 33 13 83 14 34 15 88 16 82 17 84 18 35 19 87 20 81 21 80 22
REMARK SMILES IDX 36 24 68 25 48 26 67 27 49 28 52 29 66 30 85 31 50 32 51 33
REMARK SMILES IDX 65 35 86 36 53 37 37 38 38 39 46 40 39 41 45 42 47 43 44 44
REMARK SMILES IDX 40 45 41 46 42 47 43 48 69 49 70 50 78 51 71 52 77 53 79 54
REMARK SMILES IDX 76 55 72 56 73 57 74 58 75 59 54 60 55 61 63 62 56 63 62 64
REMARK SMILES IDX 64 65 61 66 57 67 58 68 59 69 60 70 6 71 7 72 8 73 9 74
REMARK SMILES IDX 10 75 27 76 11 77 13 78 12 79 14 80 15 81 16 82 17 83 18 84
REMARK SMILES IDX 19 85 26 86 20 87 22 88 21 89 23 90 24 91 25 92
REMARK H PARENT 84 23 52 34
REMARK Flexibility Score: inf
ROOT
ATOM      1  C   UNL     1       4.014  -0.572  -2.068  1.00  0.00     0.275 C 
ENDROOT
BRANCH   1   2
ATOM      2  C   UNL     1       4.257  -1.348  -0.773  1.00  0.00     0.275 C 
BRANCH   2   3
ATOM      3  O   UNL     1       3.166  -1.282   0.162  1.00  0.00    -0.458 OA
BRANCH   3   4
ATOM      4  C   UNL     1       2.836  -0.361   1.097  1.00  0.00     0.338 C 
ATOM      5  O   UNL     1       1.827  -0.574   1.773  1.00  0.00    -0.246 OA
BRANCH   4   6
ATOM      6  C   UNL     1       3.559   0.937   1.338  1.00  0.00     0.060 A 
ATOM      7  C   UNL     1       4.840   1.275   0.897  1.00  0.00     0.016 A 
ATOM      8  C   UNL     1       2.870   1.899   2.106  1.00  0.00     0.016 A 
ATOM      9  C   UNL     1       5.419   2.510   1.214  1.00  0.00     0.010 A 
ATOM     10  C   UNL     1       3.434   3.146   2.409  1.00  0.00     0.010 A 
ATOM     11  C   UNL     1       4.732   3.445   1.989  1.00  0.00    -0.014 A 
BRANCH  11  12
ATOM     12  C   UNL     1       5.457   4.635   2.496  1.00  0.00     0.031 A 
ATOM     13  C   UNL     1       5.956   4.622   3.914  1.00  0.00     0.074 A 
ATOM     14  C   UNL     1       5.748   5.671   1.688  1.00  0.00     0.049 A 
ATOM     15  N   UNL     1       6.682   5.506   4.549  1.00  0.00    -0.248 NA
ATOM     16  C   UNL     1       5.598   3.444   4.718  1.00  0.00     0.031 C 
ATOM     17  C   UNL     1       5.384   5.778   0.277  1.00  0.00     0.029 A 
ATOM     18  N   UNL     1       6.434   6.830   1.940  1.00  0.00    -0.354 N 
ATOM     19  C   UNL     1       6.894   4.977   5.817  1.00  0.00     0.074 A 
ATOM     20  C   UNL     1       6.155   3.733   5.881  1.00  0.00     0.031 C 
ATOM     21  C   UNL     1       5.825   6.954  -0.205  1.00  0.00     0.029 A 
ATOM     22  C   UNL     1       6.507   7.674   0.858  1.00  0.00     0.049 A 
ATOM     23  H   UNL     1       6.838   7.038   2.813  1.00  0.00     0.167 HD
ATOM     24  C   UNL     1       7.657   5.464   6.827  1.00  0.00     0.034 A 
ATOM     25  C   UNL     1       7.065   8.890   0.749  1.00  0.00     0.034 A 
ATOM     26  C   UNL     1       8.354   6.725   6.771  1.00  0.00     0.049 A 
ATOM     27  C   UNL     1       7.803   9.466   1.925  1.00  0.00     0.074 A 
ATOM     28  C   UNL     1       9.148   7.323   7.734  1.00  0.00     0.029 A 
ATOM     29  N   UNL     1       8.319   7.598   5.691  1.00  0.00    -0.354 N 
ATOM     30  N   UNL     1       7.980   8.964   3.122  1.00  0.00    -0.248 NA
ATOM     31  C   UNL     1       8.441  10.770   1.707  1.00  0.00     0.031 C 
ATOM     32  C   UNL     1       9.537   8.584   7.263  1.00  0.00     0.029 A 
ATOM     33  C   UNL     1       9.046   8.743   5.978  1.00  0.00     0.049 A 
ATOM     34  H   UNL     1       7.846   7.428   4.845  1.00  0.00     0.167 HD
ATOM     35  C   UNL     1       8.763   9.891   3.800  1.00  0.00     0.074 A 
ATOM     36  C   UNL     1       9.029  10.973   2.873  1.00  0.00     0.031 C 
ATOM     37  C   UNL     1       9.241   9.844   5.068  1.00  0.00     0.034 A 
BRANCH  24  38
ATOM     38  C   UNL     1       7.708   4.636   8.086  1.00  0.00     0.023 A 
ATOM     39  C   UNL     1       8.244   3.334   8.085  1.00  0.00     0.031 A 
ATOM     40  C   UNL     1       7.112   5.104   9.269  1.00  0.00     0.131 A 
ATOM     41  C   UNL     1       8.075   2.509   9.207  1.00  0.00     0.055 A 
ATOM     42  C   UNL     1       7.028   4.307  10.412  1.00  0.00     0.041 A 
ATOM     43  F   UNL     1       6.564   6.328   9.320  1.00  0.00    -0.206 F 
ATOM     44  C   UNL     1       7.489   2.994  10.378  1.00  0.00     0.022 A 
BRANCH  41  45
ATOM     45  S   UNL     1       8.450   0.741   9.042  1.00  0.00     0.124 S 
ATOM     46  O   UNL     1       7.569   0.354   7.942  1.00  0.00    -0.237 OA
ATOM     47  O   UNL     1       9.878   0.748   8.745  1.00  0.00    -0.237 OA
ATOM     48  O   UNL     1       8.086   0.191  10.346  1.00  0.00    -0.744 OA
ENDBRANCH  41  45
ENDBRANCH  24  38
BRANCH  25  49
ATOM     49  C   UNL     1       6.933   9.726  -0.470  1.00  0.00     0.023 A 
ATOM     50  C   UNL     1       7.959   9.793  -1.424  1.00  0.00     0.031 A 
ATOM     51  C   UNL     1       5.873  10.646  -0.545  1.00  0.00     0.131 A 
ATOM     52  C   UNL     1       7.941  10.825  -2.372  1.00  0.00     0.055 A 
ATOM     53  C   UNL     1       5.869  11.676  -1.481  1.00  0.00     0.041 A 
ATOM     54  F   UNL     1       4.858  10.579   0.330  1.00  0.00    -0.206 F 
ATOM     55  C   UNL     1       6.916  11.778  -2.392  1.00  0.00     0.022 A 
BRANCH  52  56
ATOM     56  S   UNL     1       9.246  10.935  -3.625  1.00  0.00     0.124 S 
ATOM     57  O   UNL     1      10.185  11.858  -3.000  1.00  0.00    -0.237 OA
ATOM     58  O   UNL     1       9.691   9.551  -3.754  1.00  0.00    -0.237 OA
ATOM     59  O   UNL     1       8.521  11.450  -4.786  1.00  0.00    -0.744 OA
ENDBRANCH  52  56
ENDBRANCH  25  49
BRANCH  37  60
ATOM     60  C   UNL     1      10.105  11.003   5.487  1.00  0.00     0.023 A 
ATOM     61  C   UNL     1       9.578  12.300   5.620  1.00  0.00     0.031 A 
ATOM     62  C   UNL     1      11.489  10.826   5.648  1.00  0.00     0.131 A 
ATOM     63  C   UNL     1      10.444  13.383   5.822  1.00  0.00     0.055 A 
ATOM     64  C   UNL     1      12.337  11.899   5.919  1.00  0.00     0.041 A 
ATOM     65  F   UNL     1      12.043   9.610   5.514  1.00  0.00    -0.206 F 
ATOM     66  C   UNL     1      11.818  13.190   5.989  1.00  0.00     0.022 A 
BRANCH  63  67
ATOM     67  S   UNL     1       9.767  15.063   5.725  1.00  0.00     0.124 S 
ATOM     68  O   UNL     1       9.247  15.098   4.361  1.00  0.00    -0.237 OA
ATOM     69  O   UNL     1       8.768  15.060   6.788  1.00  0.00    -0.237 OA
ATOM     70  O   UNL     1      10.929  15.915   5.968  1.00  0.00    -0.744 OA
ENDBRANCH  63  67
ENDBRANCH  37  60
ENDBRANCH  11  12
ENDBRANCH   4   6
ENDBRANCH   3   4
ENDBRANCH   2   3
ENDBRANCH   1   2
BRANCH   1  71
ATOM     71  O   UNL     1       3.540   0.761  -1.838  1.00  0.00    -0.458 OA
BRANCH  71  72
ATOM     72  C   UNL     1       2.192   0.919  -1.883  1.00  0.00     0.338 C 
ATOM     73  O   UNL     1       1.359   0.065  -2.137  1.00  0.00    -0.246 OA
BRANCH  72  74
ATOM     74  C   UNL     1       1.856   2.290  -1.448  1.00  0.00     0.063 A 
ATOM     75  C   UNL     1       0.814   2.470  -0.533  1.00  0.00     0.016 A 
ATOM     76  C   UNL     1       2.580   3.386  -1.926  1.00  0.00     0.064 A 
ATOM     77  C   UNL     1       0.531   3.748  -0.054  1.00  0.00     0.005 A 
ATOM     78  C   UNL     1       2.256   4.670  -1.488  1.00  0.00     0.143 A 
ATOM     79  C   UNL     1       1.256   4.845  -0.526  1.00  0.00     0.048 A 
BRANCH  78  80
ATOM     80  O   UNL     1       2.877   5.816  -1.920  1.00  0.00    -0.379 OA
BRANCH  80  81
ATOM     81  S   UNL     1       3.674   5.862  -3.345  1.00  0.00     0.339 S 
ATOM     82  O   UNL     1       4.949   5.191  -3.177  1.00  0.00    -0.181 OA
ATOM     83  O   UNL     1       2.761   5.475  -4.405  1.00  0.00    -0.181 OA
BRANCH  81  84
ATOM     84  C   UNL     1       4.013   7.584  -3.612  1.00  0.00     0.112 A 
ATOM     85  C   UNL     1       5.163   7.950  -4.319  1.00  0.00     0.024 A 
ATOM     86  C   UNL     1       3.119   8.547  -3.136  1.00  0.00     0.109 A 
ATOM     87  C   UNL     1       5.394   9.294  -4.608  1.00  0.00     0.009 A 
ATOM     88  C   UNL     1       3.365   9.893  -3.432  1.00  0.00     0.270 A 
ATOM     89  C   UNL     1       4.483  10.266  -4.189  1.00  0.00     0.086 A 
BRANCH  88  90
ATOM     90  N   UNL     1       2.435  10.921  -2.948  1.00  0.00     0.062 N 
ATOM     91  O   UNL     1       2.603  12.086  -3.333  1.00  0.00    -0.258 OA
ATOM     92  O   UNL     1       1.513  10.555  -2.203  1.00  0.00    -0.258 OA
ENDBRANCH  88  90
ENDBRANCH  81  84
ENDBRANCH  80  81
ENDBRANCH  78  80
ENDBRANCH  72  74
ENDBRANCH  71  72
ENDBRANCH   1  71
TORSDOF 18
