REMARK SMILES CCc1sc(NC(=O)[C@H]2CC(C)=C(C)C[C@H]2C(=O)OCCOC(=O)c2ccc(-c3c4nc(c(-c5cc(S(=O)(=O)[O-])ccc5F)c5ccc([nH]5)c(-c5cc(S(=O)(=O)[O-])ccc5F)c5nc(c(-c6cc(S(=O)(=O)[O-])ccc6F)c6ccc3[nH]6)C=C5)C=C4)cc2)nc1-c1ccccc1
REMARK SMILES IDX 20 1 19 2 17 3 18 4 16 5 9 6 10 7 11 8 15 9 12 10 13 11
REMARK SMILES IDX 14 12 7 13 6 14 8 16 5 17 3 18 4 19 89 20 88 21 2 22 1 23
REMARK SMILES IDX 90 24 91 25 95 26 92 27 94 28 93 29 21 30 22 31 23 32 24 33
REMARK SMILES IDX 25 34 26 35 87 36 27 37 86 38 28 39 29 40 30 41 80 42 31 43
REMARK SMILES IDX 85 44 79 45 81 46 32 47 84 48 78 49 77 50 33 52 65 53 45 54
REMARK SMILES IDX 64 55 46 56 49 57 63 58 82 59 47 60 48 61 62 63 83 64 50 65
REMARK SMILES IDX 34 66 35 67 43 68 36 69 42 70 44 71 41 72 37 73 38 74 39 75
REMARK SMILES IDX 40 76 66 77 67 78 75 79 68 80 74 81 76 82 73 83 69 84 70 85
REMARK SMILES IDX 71 86 72 87 51 88 52 89 60 90 53 91 59 92 61 93 58 94 54 95
REMARK SMILES IDX 55 96 56 97 57 98
REMARK H PARENT 6 15 81 51 49 62
REMARK Flexibility Score: inf
ROOT
ATOM      1  C   UNL     1       1.432   3.629  -2.096  1.00  0.00     0.274 C 
ENDROOT
BRANCH   1   2
ATOM      2  O   UNL     1       2.606   3.449  -1.276  1.00  0.00    -0.462 OA
BRANCH   2   3
ATOM      3  C   UNL     1       3.747   3.133  -1.911  1.00  0.00     0.310 C 
ATOM      4  O   UNL     1       3.822   2.969  -3.126  1.00  0.00    -0.252 OA
BRANCH   3   5
ATOM      5  C   UNL     1       4.952   2.884  -1.011  1.00  0.00     0.116 C 
ATOM      6  C   UNL     1       5.185   3.584   0.347  1.00  0.00     0.097 C 
ATOM      7  C   UNL     1       5.581   2.721   1.558  1.00  0.00     0.045 C 
ATOM      8  C   UNL     1       5.450   1.222   1.417  1.00  0.00    -0.074 C 
ATOM      9  C   UNL     1       5.274   1.385  -1.069  1.00  0.00     0.046 C 
ATOM     10  C   UNL     1       5.513   0.481   2.730  1.00  0.00     0.039 C 
ATOM     11  C   UNL     1       5.297   0.619   0.223  1.00  0.00    -0.073 C 
ATOM     12  C   UNL     1       5.192  -0.875   0.052  1.00  0.00     0.039 C 
BRANCH   6  13
ATOM     13  C   UNL     1       4.363   4.826   0.720  1.00  0.00     0.230 C 
ATOM     14  N   UNL     1       3.082   4.902   1.145  1.00  0.00    -0.302 N 
ATOM     15  H   UNL     1       2.789   5.830   1.290  1.00  0.00     0.172 HD
ATOM     16  O   UNL     1       4.946   5.919   0.616  1.00  0.00    -0.274 OA
BRANCH  14  17
ATOM     17  C   UNL     1       2.098   3.996   1.419  1.00  0.00     0.190 A 
ATOM     18  C   UNL     1       0.731   2.006   1.510  1.00  0.00     0.034 A 
ATOM     19  S   UNL     1       2.398   2.346   1.617  1.00  0.00    -0.101 S 
ATOM     20  C   UNL     1       0.043   3.204   1.609  1.00  0.00     0.087 A 
ATOM     21  N   UNL     1       0.835   4.343   1.538  1.00  0.00    -0.220 NA
BRANCH  18  22
ATOM     22  C   UNL     1       0.269   0.593   1.346  1.00  0.00     0.046 C 
ATOM     23  C   UNL     1       0.739  -0.006   0.022  1.00  0.00     0.010 C 
ENDBRANCH  18  22
BRANCH  20  24
ATOM     24  C   UNL     1      -1.403   3.285   1.700  1.00  0.00     0.001 A 
ATOM     25  C   UNL     1      -2.072   2.676   2.771  1.00  0.00     0.010 A 
ATOM     26  C   UNL     1      -2.140   3.940   0.710  1.00  0.00     0.010 A 
ATOM     27  C   UNL     1      -3.465   2.684   2.828  1.00  0.00     0.001 A 
ATOM     28  C   UNL     1      -3.536   3.945   0.767  1.00  0.00     0.001 A 
ATOM     29  C   UNL     1      -4.197   3.310   1.820  1.00  0.00     0.000 A 
ENDBRANCH  20  24
ENDBRANCH  14  17
ENDBRANCH   6  13
ENDBRANCH   3   5
ENDBRANCH   2   3
ENDBRANCH   1   2
BRANCH   1  30
ATOM     30  C   UNL     1       1.171   5.107  -2.365  1.00  0.00     0.275 C 
BRANCH  30  31
ATOM     31  O   UNL     1       2.293   5.674  -3.060  1.00  0.00    -0.458 OA
BRANCH  31  32
ATOM     32  C   UNL     1       3.008   6.587  -2.361  1.00  0.00     0.338 C 
ATOM     33  O   UNL     1       2.746   7.043  -1.263  1.00  0.00    -0.246 OA
BRANCH  32  34
ATOM     34  C   UNL     1       4.179   6.968  -3.164  1.00  0.00     0.060 A 
ATOM     35  C   UNL     1       5.270   6.101  -3.265  1.00  0.00     0.016 A 
ATOM     36  C   UNL     1       4.210   8.218  -3.777  1.00  0.00     0.016 A 
ATOM     37  C   UNL     1       6.412   6.486  -3.963  1.00  0.00     0.010 A 
ATOM     38  C   UNL     1       5.338   8.588  -4.510  1.00  0.00     0.010 A 
ATOM     39  C   UNL     1       6.452   7.731  -4.595  1.00  0.00    -0.014 A 
BRANCH  39  40
ATOM     40  C   UNL     1       7.668   8.183  -5.312  1.00  0.00     0.031 A 
ATOM     41  C   UNL     1       8.456   9.333  -4.759  1.00  0.00     0.074 A 
ATOM     42  C   UNL     1       8.025   7.601  -6.471  1.00  0.00     0.049 A 
ATOM     43  N   UNL     1       9.386  10.054  -5.328  1.00  0.00    -0.248 NA
ATOM     44  C   UNL     1       8.132   9.733  -3.383  1.00  0.00     0.031 C 
ATOM     45  C   UNL     1       7.364   6.441  -7.071  1.00  0.00     0.029 A 
ATOM     46  N   UNL     1       9.010   7.928  -7.367  1.00  0.00    -0.354 N 
ATOM     47  C   UNL     1       9.735  11.023  -4.393  1.00  0.00     0.074 A 
ATOM     48  C   UNL     1       8.898  10.803  -3.230  1.00  0.00     0.031 C 
ATOM     49  C   UNL     1       7.944   6.171  -8.251  1.00  0.00     0.029 A 
ATOM     50  C   UNL     1       8.965   7.179  -8.519  1.00  0.00     0.049 A 
ATOM     51  H   UNL     1       9.682   8.628  -7.202  1.00  0.00     0.167 HD
ATOM     52  C   UNL     1      10.664  12.005  -4.505  1.00  0.00     0.034 A 
ATOM     53  C   UNL     1       9.623   7.329  -9.685  1.00  0.00     0.034 A 
ATOM     54  C   UNL     1      11.477  12.197  -5.683  1.00  0.00     0.049 A 
ATOM     55  C   UNL     1      10.602   8.463  -9.822  1.00  0.00     0.074 A 
ATOM     56  C   UNL     1      12.452  13.151  -5.919  1.00  0.00     0.029 A 
ATOM     57  N   UNL     1      11.403  11.416  -6.832  1.00  0.00    -0.354 N 
ATOM     58  N   UNL     1      10.901   9.404  -8.954  1.00  0.00    -0.248 NA
ATOM     59  C   UNL     1      11.331   8.559 -11.092  1.00  0.00     0.031 C 
ATOM     60  C   UNL     1      12.922  12.984  -7.228  1.00  0.00     0.029 A 
ATOM     61  C   UNL     1      12.294  11.882  -7.787  1.00  0.00     0.049 A 
ATOM     62  H   UNL     1      10.805  10.643  -6.950  1.00  0.00     0.167 HD
ATOM     63  C   UNL     1      11.866  10.195  -9.568  1.00  0.00     0.074 A 
ATOM     64  C   UNL     1      12.105   9.614 -10.876  1.00  0.00     0.031 C 
ATOM     65  C   UNL     1      12.502  11.296  -9.093  1.00  0.00     0.034 A 
BRANCH  52  66
ATOM     66  C   UNL     1      10.780  12.976  -3.352  1.00  0.00     0.023 A 
ATOM     67  C   UNL     1      11.158  12.560  -2.063  1.00  0.00     0.031 A 
ATOM     68  C   UNL     1      10.434  14.328  -3.528  1.00  0.00     0.131 A 
ATOM     69  C   UNL     1      11.091  13.460  -0.987  1.00  0.00     0.055 A 
ATOM     70  C   UNL     1      10.452  15.239  -2.469  1.00  0.00     0.041 A 
ATOM     71  F   UNL     1      10.044  14.784  -4.729  1.00  0.00    -0.206 F 
ATOM     72  C   UNL     1      10.762  14.802  -1.185  1.00  0.00     0.022 A 
BRANCH  69  73
ATOM     73  S   UNL     1      11.270  12.811   0.699  1.00  0.00     0.124 S 
ATOM     74  O   UNL     1      10.225  11.791   0.737  1.00  0.00    -0.237 OA
ATOM     75  O   UNL     1      12.643  12.320   0.702  1.00  0.00    -0.237 OA
ATOM     76  O   UNL     1      11.023  13.978   1.544  1.00  0.00    -0.744 OA
ENDBRANCH  69  73
ENDBRANCH  52  66
BRANCH  53  77
ATOM     77  C   UNL     1       9.313   6.427 -10.828  1.00  0.00     0.023 A 
ATOM     78  C   UNL     1      10.246   5.488 -11.291  1.00  0.00     0.031 A 
ATOM     79  C   UNL     1       8.058   6.482 -11.461  1.00  0.00     0.131 A 
ATOM     80  C   UNL     1       9.915   4.649 -12.368  1.00  0.00     0.055 A 
ATOM     81  C   UNL     1       7.718   5.620 -12.504  1.00  0.00     0.041 A 
ATOM     82  F   UNL     1       7.128   7.360 -11.050  1.00  0.00    -0.206 F 
ATOM     83  C   UNL     1       8.652   4.699 -12.967  1.00  0.00     0.022 A 
BRANCH  80  84
ATOM     84  S   UNL     1      11.172   3.506 -13.001  1.00  0.00     0.124 S 
ATOM     85  O   UNL     1      12.218   4.424 -13.435  1.00  0.00    -0.237 OA
ATOM     86  O   UNL     1      11.473   2.701 -11.822  1.00  0.00    -0.237 OA
ATOM     87  O   UNL     1      10.478   2.797 -14.075  1.00  0.00    -0.744 OA
ENDBRANCH  80  84
ENDBRANCH  53  77
BRANCH  65  88
ATOM     88  C   UNL     1      13.552  11.910  -9.984  1.00  0.00     0.023 A 
ATOM     89  C   UNL     1      13.213  12.594 -11.164  1.00  0.00     0.031 A 
ATOM     90  C   UNL     1      14.912  11.801  -9.644  1.00  0.00     0.131 A 
ATOM     91  C   UNL     1      14.228  13.106 -11.987  1.00  0.00     0.055 A 
ATOM     92  C   UNL     1      15.913  12.356 -10.441  1.00  0.00     0.041 A 
ATOM     93  F   UNL     1      15.287  11.155  -8.529  1.00  0.00    -0.206 F 
ATOM     94  C   UNL     1      15.574  13.005 -11.625  1.00  0.00     0.022 A 
BRANCH  91  95
ATOM     95  S   UNL     1      13.772  13.850 -13.578  1.00  0.00     0.124 S 
ATOM     96  O   UNL     1      13.131  12.731 -14.262  1.00  0.00    -0.237 OA
ATOM     97  O   UNL     1      12.891  14.940 -13.174  1.00  0.00    -0.237 OA
ATOM     98  O   UNL     1      15.055  14.268 -14.141  1.00  0.00    -0.744 OA
ENDBRANCH  91  95
ENDBRANCH  65  88
ENDBRANCH  39  40
ENDBRANCH  32  34
ENDBRANCH  31  32
ENDBRANCH  30  31
ENDBRANCH   1  30
TORSDOF 18
