REMARK SMILES COc1cccc([C@@H]2CC(c3cccc(C)c3)=NN2C(=O)CCC(=O)OCCOC(=O)c2ccc(-c3c4nc(c(-c5cc(S(=O)(=O)[O-])ccc5F)c5ccc([nH]5)c(-c5cc(S(=O)(=O)[O-])ccc5F)c5nc(c(-c6cc(S(=O)(=O)[O-])ccc6F)c6ccc3[nH]6)C=C5)C=C4)cc2)c1
REMARK SMILES IDX 27 1 26 2 24 3 25 4 23 5 22 6 20 7 21 8 19 9 8 10 9 11 10 12
REMARK SMILES IDX 18 13 7 14 3 15 4 16 95 17 5 18 6 19 2 20 1 21 11 22 12 23
REMARK SMILES IDX 17 24 13 25 15 26 14 27 16 28 28 29 29 30 30 31 31 32 32 33
REMARK SMILES IDX 33 34 94 35 34 36 93 37 35 38 36 39 37 40 87 41 38 42 92 43
REMARK SMILES IDX 86 44 88 45 39 46 91 47 85 48 84 49 40 51 72 52 52 53 71 54
REMARK SMILES IDX 53 55 56 56 70 57 89 58 54 59 55 60 69 62 90 63 57 64 41 65
REMARK SMILES IDX 42 66 50 67 43 68 49 69 51 70 48 71 44 72 45 73 46 74 47 75
REMARK SMILES IDX 73 76 74 77 82 78 75 79 81 80 83 81 80 82 76 83 77 84 78 85
REMARK SMILES IDX 79 86 58 87 59 88 67 89 60 90 66 91 68 92 65 93 61 94 62 95
REMARK SMILES IDX 63 96 64 97
REMARK H PARENT 88 50 56 61
REMARK Flexibility Score: inf
ROOT
ATOM      1  C   UNL     1       1.655   1.745   1.667  1.00  0.00     0.274 C 
ENDROOT
BRANCH   1   2
ATOM      2  O   UNL     1       2.586   2.608   0.979  1.00  0.00    -0.462 OA
BRANCH   2   3
ATOM      3  C   UNL     1       2.055   3.352  -0.028  1.00  0.00     0.306 C 
ATOM      4  O   UNL     1       0.889   3.275  -0.398  1.00  0.00    -0.252 OA
BRANCH   3   5
ATOM      5  C   UNL     1       3.062   4.245  -0.711  1.00  0.00     0.132 C 
BRANCH   5   6
ATOM      6  C   UNL     1       4.022   5.019   0.196  1.00  0.00     0.114 C 
BRANCH   6   7
ATOM      7  C   UNL     1       5.344   4.291   0.310  1.00  0.00     0.243 C 
ATOM      8  O   UNL     1       6.004   4.117  -0.723  1.00  0.00    -0.273 OA
BRANCH   7   9
ATOM      9  N   UNL     1       5.726   3.783   1.544  1.00  0.00    -0.225 N 
ATOM     10  C   UNL     1       5.045   3.855   2.853  1.00  0.00     0.147 C 
ATOM     11  C   UNL     1       5.615   2.682   3.642  1.00  0.00     0.091 C 
ATOM     12  C   UNL     1       6.560   2.130   2.626  1.00  0.00     0.071 C 
ATOM     13  N   UNL     1       6.674   2.783   1.517  1.00  0.00    -0.174 NA
BRANCH  10  14
ATOM     14  C   UNL     1       5.173   5.157   3.631  1.00  0.00    -0.019 A 
ATOM     15  C   UNL     1       4.262   6.650   5.360  1.00  0.00     0.119 A 
ATOM     16  C   UNL     1       5.285   7.554   5.082  1.00  0.00     0.046 A 
ATOM     17  C   UNL     1       4.237   5.445   4.659  1.00  0.00     0.052 A 
ATOM     18  C   UNL     1       6.256   7.266   4.121  1.00  0.00     0.004 A 
ATOM     19  C   UNL     1       6.199   6.076   3.394  1.00  0.00     0.006 A 
BRANCH  15  20
ATOM     20  O   UNL     1       3.391   7.075   6.319  1.00  0.00    -0.497 OA
ATOM     21  C   UNL     1       2.220   6.338   6.634  1.00  0.00     0.278 C 
ENDBRANCH  15  20
ENDBRANCH  10  14
BRANCH  12  22
ATOM     22  C   UNL     1       7.258   0.869   2.857  1.00  0.00    -0.002 A 
ATOM     23  C   UNL     1       8.649   0.843   2.864  1.00  0.00     0.010 A 
ATOM     24  C   UNL     1       6.507  -0.308   2.945  1.00  0.00     0.013 A 
ATOM     25  C   UNL     1       9.301  -0.380   2.997  1.00  0.00     0.001 A 
ATOM     26  C   UNL     1       7.159  -1.539   3.049  1.00  0.00    -0.050 A 
ATOM     27  C   UNL     1       8.561  -1.563   3.090  1.00  0.00     0.003 A 
ATOM     28  C   UNL     1       6.380  -2.820   3.084  1.00  0.00     0.044 C 
ENDBRANCH  12  22
ENDBRANCH   7   9
ENDBRANCH   6   7
ENDBRANCH   5   6
ENDBRANCH   3   5
ENDBRANCH   2   3
ENDBRANCH   1   2
BRANCH   1  29
ATOM     29  C   UNL     1       0.969   2.429   2.857  1.00  0.00     0.275 C 
BRANCH  29  30
ATOM     30  O   UNL     1       0.235   3.606   2.475  1.00  0.00    -0.458 OA
BRANCH  30  31
ATOM     31  C   UNL     1       0.979   4.727   2.547  1.00  0.00     0.338 C 
ATOM     32  O   UNL     1       2.159   4.774   2.874  1.00  0.00    -0.246 OA
BRANCH  31  33
ATOM     33  C   UNL     1       0.251   5.966   2.368  1.00  0.00     0.060 A 
ATOM     34  C   UNL     1      -0.364   6.321   1.175  1.00  0.00     0.016 A 
ATOM     35  C   UNL     1       0.293   6.838   3.456  1.00  0.00     0.016 A 
ATOM     36  C   UNL     1      -1.014   7.554   1.110  1.00  0.00     0.010 A 
ATOM     37  C   UNL     1      -0.417   8.018   3.425  1.00  0.00     0.010 A 
ATOM     38  C   UNL     1      -1.114   8.364   2.263  1.00  0.00    -0.014 A 
BRANCH  38  39
ATOM     39  C   UNL     1      -2.140   9.425   2.371  1.00  0.00     0.031 A 
ATOM     40  C   UNL     1      -1.787  10.835   2.747  1.00  0.00     0.074 A 
ATOM     41  C   UNL     1      -3.423   9.014   2.338  1.00  0.00     0.049 A 
ATOM     42  N   UNL     1      -2.584  11.839   3.003  1.00  0.00    -0.248 NA
ATOM     43  C   UNL     1      -0.361  11.138   2.933  1.00  0.00     0.031 C 
ATOM     44  C   UNL     1      -3.854   7.618   2.174  1.00  0.00     0.029 A 
ATOM     45  N   UNL     1      -4.596   9.703   2.451  1.00  0.00    -0.354 N 
ATOM     46  C   UNL     1      -1.765  12.878   3.434  1.00  0.00     0.074 A 
ATOM     47  C   UNL     1      -0.411  12.363   3.438  1.00  0.00     0.031 C 
ATOM     48  C   UNL     1      -5.189   7.568   2.117  1.00  0.00     0.029 A 
ATOM     49  C   UNL     1      -5.711   8.913   2.297  1.00  0.00     0.049 A 
ATOM     50  H   UNL     1      -4.640  10.671   2.625  1.00  0.00     0.167 HD
ATOM     51  C   UNL     1      -2.125  14.139   3.785  1.00  0.00     0.034 A 
ATOM     52  C   UNL     1      -7.014   9.239   2.288  1.00  0.00     0.034 A 
ATOM     53  C   UNL     1      -3.490  14.613   3.718  1.00  0.00     0.049 A 
ATOM     54  C   UNL     1      -7.370  10.681   2.475  1.00  0.00     0.074 A 
ATOM     55  C   UNL     1      -3.976  15.893   3.920  1.00  0.00     0.029 A 
ATOM     56  N   UNL     1      -4.591  13.816   3.418  1.00  0.00    -0.354 N 
ATOM     57  N   UNL     1      -6.578  11.686   2.773  1.00  0.00    -0.248 NA
ATOM     58  C   UNL     1      -8.778  11.040   2.304  1.00  0.00     0.031 C 
ATOM     59  C   UNL     1      -5.370  15.862   3.784  1.00  0.00     0.029 A 
ATOM     60  C   UNL     1      -5.752  14.575   3.437  1.00  0.00     0.049 A 
ATOM     61  H   UNL     1      -4.552  12.853   3.222  1.00  0.00     0.167 HD
ATOM     62  C   UNL     1      -7.396  12.806   2.821  1.00  0.00     0.074 A 
ATOM     63  C   UNL     1      -8.734  12.352   2.486  1.00  0.00     0.031 C 
ATOM     64  C   UNL     1      -7.075  14.089   3.122  1.00  0.00     0.034 A 
BRANCH  51  65
ATOM     65  C   UNL     1      -1.042  15.076   4.276  1.00  0.00     0.023 A 
ATOM     66  C   UNL     1       0.065  15.419   3.479  1.00  0.00     0.031 A 
ATOM     67  C   UNL     1      -1.103  15.625   5.571  1.00  0.00     0.131 A 
ATOM     68  C   UNL     1       1.101  16.205   4.008  1.00  0.00     0.055 A 
ATOM     69  C   UNL     1      -0.111  16.480   6.062  1.00  0.00     0.041 A 
ATOM     70  F   UNL     1      -2.123  15.330   6.392  1.00  0.00    -0.206 F 
ATOM     71  C   UNL     1       1.009  16.760   5.285  1.00  0.00     0.022 A 
BRANCH  68  72
ATOM     72  S   UNL     1       2.634  16.371   3.053  1.00  0.00     0.124 S 
ATOM     73  O   UNL     1       3.071  14.980   2.954  1.00  0.00    -0.237 OA
ATOM     74  O   UNL     1       2.170  16.984   1.814  1.00  0.00    -0.237 OA
ATOM     75  O   UNL     1       3.473  17.222   3.894  1.00  0.00    -0.744 OA
ENDBRANCH  68  72
ENDBRANCH  51  65
BRANCH  52  76
ATOM     76  C   UNL     1      -8.035   8.193   2.022  1.00  0.00     0.023 A 
ATOM     77  C   UNL     1      -8.734   8.176   0.806  1.00  0.00     0.031 A 
ATOM     78  C   UNL     1      -8.284   7.162   2.945  1.00  0.00     0.131 A 
ATOM     79  C   UNL     1      -9.672   7.165   0.553  1.00  0.00     0.055 A 
ATOM     80  C   UNL     1      -9.188   6.133   2.671  1.00  0.00     0.041 A 
ATOM     81  F   UNL     1      -7.615   7.115   4.107  1.00  0.00    -0.206 F 
ATOM     82  C   UNL     1      -9.895   6.137   1.472  1.00  0.00     0.022 A 
BRANCH  79  83
ATOM     83  S   UNL     1     -10.634   7.243  -0.981  1.00  0.00     0.124 S 
ATOM     84  O   UNL     1     -11.234   8.570  -0.892  1.00  0.00    -0.237 OA
ATOM     85  O   UNL     1      -9.599   7.074  -1.995  1.00  0.00    -0.237 OA
ATOM     86  O   UNL     1     -11.568   6.126  -0.853  1.00  0.00    -0.744 OA
ENDBRANCH  79  83
ENDBRANCH  52  76
BRANCH  64  87
ATOM     87  C   UNL     1      -8.207  15.078   3.081  1.00  0.00     0.023 A 
ATOM     88  C   UNL     1      -9.245  15.036   4.027  1.00  0.00     0.031 A 
ATOM     89  C   UNL     1      -8.268  16.042   2.061  1.00  0.00     0.131 A 
ATOM     90  C   UNL     1     -10.339  15.901   3.896  1.00  0.00     0.055 A 
ATOM     91  C   UNL     1      -9.332  16.938   1.969  1.00  0.00     0.041 A 
ATOM     92  F   UNL     1      -7.301  16.118   1.133  1.00  0.00    -0.206 F 
ATOM     93  C   UNL     1     -10.383  16.861   2.881  1.00  0.00     0.022 A 
BRANCH  90  94
ATOM     94  S   UNL     1     -11.750  15.688   5.013  1.00  0.00     0.124 S 
ATOM     95  O   UNL     1     -12.162  14.318   4.722  1.00  0.00    -0.237 OA
ATOM     96  O   UNL     1     -11.146  15.907   6.324  1.00  0.00    -0.237 OA
ATOM     97  O   UNL     1     -12.688  16.723   4.582  1.00  0.00    -0.744 OA
ENDBRANCH  90  94
ENDBRANCH  64  87
ENDBRANCH  38  39
ENDBRANCH  31  33
ENDBRANCH  30  31
ENDBRANCH  29  30
ENDBRANCH   1  29
TORSDOF 20
