REMARK SMILES CCCC[C@H](C(=O)OCCOC(=O)c1ccc(-c2c3nc(c(-c4cc(S(=O)(=O)[O-])ccc4F)c4ccc([nH]4)c(-c4cc(S(=O)(=O)[O-])ccc4F)c4nc(c(-c5cc(S(=O)(=O)[O-])ccc5F)c5ccc2[nH]5)C=C4)C=C3)cc1)N1C(=O)/C(=C/c2ccc(C)cc2)SC1=S
REMARK SMILES IDX 9 1 8 2 6 3 7 4 5 5 4 6 3 7 2 8 1 9 77 10 78 11 90 12 79 13
REMARK SMILES IDX 80 14 89 15 91 16 81 17 82 18 83 19 88 20 84 21 87 22 85 23
REMARK SMILES IDX 86 24 10 25 11 26 12 27 13 28 14 29 15 30 76 31 16 32 75 33
REMARK SMILES IDX 17 34 18 35 19 36 69 37 20 38 74 39 68 40 70 41 21 42 73 43
REMARK SMILES IDX 67 44 66 45 22 47 54 48 34 49 53 50 35 51 38 52 52 53 71 54
REMARK SMILES IDX 36 55 37 56 51 58 72 59 39 60 23 61 24 62 32 63 25 64 31 65
REMARK SMILES IDX 33 66 30 67 26 68 27 69 28 70 29 71 55 72 56 73 64 74 57 75
REMARK SMILES IDX 63 76 65 77 62 78 58 79 59 80 60 81 61 82 40 83 41 84 49 85
REMARK SMILES IDX 42 86 48 87 50 88 47 89 43 90 44 91 45 92 46 93
REMARK H PARENT 70 46 38 57
REMARK Flexibility Score: inf
ROOT
ATOM      1  C   UNL     1       2.415   1.527  -0.912  1.00  0.00     0.274 C 
ENDROOT
BRANCH   1   2
ATOM      2  O   UNL     1       0.971   1.474  -0.880  1.00  0.00    -0.461 OA
BRANCH   2   3
ATOM      3  C   UNL     1       0.302   2.422  -1.604  1.00  0.00     0.329 C 
ATOM      4  O   UNL     1       0.840   3.201  -2.377  1.00  0.00    -0.250 OA
BRANCH   3   5
ATOM      5  C   UNL     1      -1.191   2.434  -1.251  1.00  0.00     0.202 C 
BRANCH   5   6
ATOM      6  C   UNL     1      -1.569   3.595  -0.298  1.00  0.00     0.038 C 
BRANCH   6   7
ATOM      7  C   UNL     1      -0.671   3.875   0.916  1.00  0.00     0.002 C 
BRANCH   7   8
ATOM      8  C   UNL     1       0.689   4.550   0.670  1.00  0.00    -0.003 C 
ATOM      9  C   UNL     1       0.697   5.723  -0.301  1.00  0.00     0.004 C 
ENDBRANCH   7   8
ENDBRANCH   6   7
ENDBRANCH   5   6
BRANCH   5  10
ATOM     10  N   UNL     1      -2.046   2.339  -2.479  1.00  0.00    -0.278 N 
ATOM     11  C   UNL     1      -2.309   1.060  -2.986  1.00  0.00     0.266 C 
ATOM     12  C   UNL     1      -2.527   3.371  -3.267  1.00  0.00     0.149 C 
ATOM     13  O   UNL     1      -1.961   0.007  -2.471  1.00  0.00    -0.268 OA
ATOM     14  C   UNL     1      -3.029   1.156  -4.295  1.00  0.00     0.081 C 
ATOM     15  S   UNL     1      -3.699   2.732  -4.407  1.00  0.00    -0.054 SA
ATOM     16  S   UNL     1      -2.152   4.992  -3.318  1.00  0.00    -0.052 S 
ATOM     17  C   UNL     1      -3.029   0.213  -5.255  1.00  0.00     0.029 C 
BRANCH  17  18
ATOM     18  C   UNL     1      -3.592   0.374  -6.617  1.00  0.00    -0.024 A 
ATOM     19  C   UNL     1      -4.423  -0.602  -7.173  1.00  0.00     0.008 A 
ATOM     20  C   UNL     1      -3.292   1.498  -7.402  1.00  0.00     0.008 A 
ATOM     21  C   UNL     1      -5.008  -0.406  -8.436  1.00  0.00     0.004 A 
ATOM     22  C   UNL     1      -3.879   1.703  -8.650  1.00  0.00     0.004 A 
ATOM     23  C   UNL     1      -4.758   0.759  -9.172  1.00  0.00    -0.051 A 
ATOM     24  C   UNL     1      -5.457   1.029 -10.473  1.00  0.00     0.044 C 
ENDBRANCH  17  18
ENDBRANCH   5  10
ENDBRANCH   3   5
ENDBRANCH   2   3
ENDBRANCH   1   2
BRANCH   1  25
ATOM     25  C   UNL     1       3.046   0.565  -1.918  1.00  0.00     0.275 C 
BRANCH  25  26
ATOM     26  O   UNL     1       2.885   1.048  -3.261  1.00  0.00    -0.458 OA
BRANCH  26  27
ATOM     27  C   UNL     1       1.892   0.457  -3.959  1.00  0.00     0.338 C 
ATOM     28  O   UNL     1       1.195  -0.482  -3.598  1.00  0.00    -0.246 OA
BRANCH  27  29
ATOM     29  C   UNL     1       1.620   1.223  -5.179  1.00  0.00     0.060 A 
ATOM     30  C   UNL     1       0.479   2.016  -5.172  1.00  0.00     0.016 A 
ATOM     31  C   UNL     1       2.381   1.097  -6.338  1.00  0.00     0.016 A 
ATOM     32  C   UNL     1       0.059   2.661  -6.320  1.00  0.00     0.010 A 
ATOM     33  C   UNL     1       1.954   1.745  -7.507  1.00  0.00     0.010 A 
ATOM     34  C   UNL     1       0.764   2.497  -7.514  1.00  0.00    -0.014 A 
BRANCH  34  35
ATOM     35  C   UNL     1       0.146   3.012  -8.763  1.00  0.00     0.031 A 
ATOM     36  C   UNL     1      -0.404   2.033  -9.769  1.00  0.00     0.074 A 
ATOM     37  C   UNL     1      -0.057   4.335  -8.919  1.00  0.00     0.049 A 
ATOM     38  N   UNL     1      -0.982   2.265 -10.919  1.00  0.00    -0.248 NA
ATOM     39  C   UNL     1      -0.309   0.605  -9.423  1.00  0.00     0.031 C 
ATOM     40  C   UNL     1       0.340   5.366  -7.956  1.00  0.00     0.029 A 
ATOM     41  N   UNL     1      -0.660   5.041  -9.929  1.00  0.00    -0.354 N 
ATOM     42  C   UNL     1      -1.346   1.017 -11.418  1.00  0.00     0.074 A 
ATOM     43  C   UNL     1      -0.856   0.029 -10.483  1.00  0.00     0.031 C 
ATOM     44  C   UNL     1      -0.026   6.569  -8.424  1.00  0.00     0.029 A 
ATOM     45  C   UNL     1      -0.616   6.405  -9.748  1.00  0.00     0.049 A 
ATOM     46  H   UNL     1      -1.083   4.614 -10.709  1.00  0.00     0.167 HD
ATOM     47  C   UNL     1      -2.068   0.727 -12.528  1.00  0.00     0.034 A 
ATOM     48  C   UNL     1      -0.960   7.411 -10.578  1.00  0.00     0.034 A 
ATOM     49  C   UNL     1      -2.571   1.732 -13.434  1.00  0.00     0.049 A 
ATOM     50  C   UNL     1      -1.547   7.058 -11.920  1.00  0.00     0.074 A 
ATOM     51  C   UNL     1      -3.353   1.567 -14.563  1.00  0.00     0.029 A 
ATOM     52  N   UNL     1      -2.337   3.097 -13.312  1.00  0.00    -0.354 N 
ATOM     53  N   UNL     1      -1.856   5.873 -12.397  1.00  0.00    -0.248 NA
ATOM     54  C   UNL     1      -1.821   8.169 -12.838  1.00  0.00     0.031 C 
ATOM     55  C   UNL     1      -3.535   2.821 -15.159  1.00  0.00     0.029 A 
ATOM     56  C   UNL     1      -2.917   3.779 -14.371  1.00  0.00     0.049 A 
ATOM     57  H   UNL     1      -1.832   3.519 -12.579  1.00  0.00     0.167 HD
ATOM     58  C   UNL     1      -2.378   6.100 -13.666  1.00  0.00     0.074 A 
ATOM     59  C   UNL     1      -2.353   7.535 -13.873  1.00  0.00     0.031 C 
ATOM     60  C   UNL     1      -2.845   5.207 -14.575  1.00  0.00     0.034 A 
BRANCH  47  61
ATOM     61  C   UNL     1      -2.367  -0.726 -12.814  1.00  0.00     0.023 A 
ATOM     62  C   UNL     1      -3.196  -1.484 -11.968  1.00  0.00     0.031 A 
ATOM     63  C   UNL     1      -1.847  -1.359 -13.954  1.00  0.00     0.131 A 
ATOM     64  C   UNL     1      -3.477  -2.826 -12.260  1.00  0.00     0.055 A 
ATOM     65  C   UNL     1      -2.156  -2.688 -14.263  1.00  0.00     0.041 A 
ATOM     66  F   UNL     1      -1.029  -0.699 -14.788  1.00  0.00    -0.206 F 
ATOM     67  C   UNL     1      -2.974  -3.430 -13.413  1.00  0.00     0.022 A 
BRANCH  64  68
ATOM     68  S   UNL     1      -4.465  -3.785 -11.079  1.00  0.00     0.124 S 
ATOM     69  O   UNL     1      -3.665  -3.689  -9.861  1.00  0.00    -0.237 OA
ATOM     70  O   UNL     1      -5.732  -3.061 -11.065  1.00  0.00    -0.237 OA
ATOM     71  O   UNL     1      -4.516  -5.117 -11.678  1.00  0.00    -0.744 OA
ENDBRANCH  64  68
ENDBRANCH  47  61
BRANCH  48  72
ATOM     72  C   UNL     1      -0.646   8.827 -10.220  1.00  0.00     0.023 A 
ATOM     73  C   UNL     1      -1.644   9.809 -10.111  1.00  0.00     0.031 A 
ATOM     74  C   UNL     1       0.692   9.229 -10.037  1.00  0.00     0.131 A 
ATOM     75  C   UNL     1      -1.285  11.144  -9.855  1.00  0.00     0.055 A 
ATOM     76  C   UNL     1       1.038  10.544  -9.727  1.00  0.00     0.041 A 
ATOM     77  F   UNL     1       1.691   8.338 -10.149  1.00  0.00    -0.206 F 
ATOM     78  C   UNL     1       0.047  11.514  -9.647  1.00  0.00     0.022 A 
BRANCH  75  79
ATOM     79  S   UNL     1      -2.575  12.421  -9.890  1.00  0.00     0.124 S 
ATOM     80  O   UNL     1      -3.133  12.245 -11.226  1.00  0.00    -0.237 OA
ATOM     81  O   UNL     1      -3.429  12.019  -8.778  1.00  0.00    -0.237 OA
ATOM     82  O   UNL     1      -1.831  13.662  -9.684  1.00  0.00    -0.744 OA
ENDBRANCH  75  79
ENDBRANCH  48  72
BRANCH  60  83
ATOM     83  C   UNL     1      -3.381   5.779 -15.862  1.00  0.00     0.023 A 
ATOM     84  C   UNL     1      -2.527   6.367 -16.811  1.00  0.00     0.031 A 
ATOM     85  C   UNL     1      -4.762   5.771 -16.124  1.00  0.00     0.131 A 
ATOM     86  C   UNL     1      -3.068   6.973 -17.954  1.00  0.00     0.055 A 
ATOM     87  C   UNL     1      -5.290   6.326 -17.291  1.00  0.00     0.041 A 
ATOM     88  F   UNL     1      -5.621   5.227 -15.248  1.00  0.00    -0.206 F 
ATOM     89  C   UNL     1      -4.442   6.942 -18.208  1.00  0.00     0.022 A 
BRANCH  86  90
ATOM     90  S   UNL     1      -1.959   7.879 -19.066  1.00  0.00     0.124 S 
ATOM     91  O   UNL     1      -1.430   8.917 -18.187  1.00  0.00    -0.237 OA
ATOM     92  O   UNL     1      -1.012   6.847 -19.475  1.00  0.00    -0.237 OA
ATOM     93  O   UNL     1      -2.848   8.357 -20.124  1.00  0.00    -0.744 OA
ENDBRANCH  86  90
ENDBRANCH  60  83
ENDBRANCH  34  35
ENDBRANCH  27  29
ENDBRANCH  26  27
ENDBRANCH  25  26
ENDBRANCH   1  25
TORSDOF 19
