REMARK SMILES O=C(OCCOC(=O)c1ccc(N2C(=O)[C@@H]3N=NC(c4ccccc4)=C3[C@H]2c2cccc(Br)c2)cc1)c1ccc(-c2c3nc(c(-c4cc(S(=O)(=O)[O-])ccc4F)c4ccc([nH]4)c(-c4cc(S(=O)(=O)[O-])ccc4F)c4nc(c(-c5cc(S(=O)(=O)[O-])ccc5F)c5ccc2[nH]5)C=C4)C=C3)cc1
REMARK SMILES IDX 4 1 3 2 2 3 1 4 37 5 38 6 99 7 39 8 98 9 40 10 41 11 42 12
REMARK SMILES IDX 92 13 43 14 97 15 91 16 93 17 44 18 96 19 90 20 89 21 45 23
REMARK SMILES IDX 77 24 57 25 76 26 58 27 61 28 75 29 94 30 59 31 60 32 74 34
REMARK SMILES IDX 95 35 62 36 46 37 47 38 55 39 48 40 54 41 56 42 53 43 49 44
REMARK SMILES IDX 50 45 51 46 52 47 78 48 79 49 87 50 80 51 86 52 88 53 85 54
REMARK SMILES IDX 81 55 82 56 83 57 84 58 63 59 64 60 72 61 65 62 71 63 73 64
REMARK SMILES IDX 70 65 66 66 67 67 68 68 69 69 5 70 6 71 7 72 8 73 9 74 10 75
REMARK SMILES IDX 36 76 11 77 35 78 12 79 13 80 14 81 27 82 16 83 15 84 26 85
REMARK SMILES IDX 17 86 19 87 18 88 28 89 29 90 34 91 30 92 32 93 31 94 33 95
REMARK SMILES IDX 20 96 21 97 25 98 22 99 24 100 23 101
REMARK H PARENT 93 22 61 33
REMARK Flexibility Score: inf
ROOT
ATOM      1  C   UNL     1       4.776  -0.808  -0.623  1.00  0.00     0.275 C 
ENDROOT
BRANCH   1   2
ATOM      2  O   UNL     1       3.626  -1.510  -0.109  1.00  0.00    -0.458 OA
BRANCH   2   3
ATOM      3  C   UNL     1       2.491  -0.804   0.094  1.00  0.00     0.338 C 
ATOM      4  O   UNL     1       1.673  -0.544  -0.775  1.00  0.00    -0.246 OA
BRANCH   3   5
ATOM      5  C   UNL     1       2.297  -0.484   1.526  1.00  0.00     0.060 A 
ATOM      6  C   UNL     1       3.376  -0.415   2.414  1.00  0.00     0.016 A 
ATOM      7  C   UNL     1       0.997  -0.216   1.975  1.00  0.00     0.016 A 
ATOM      8  C   UNL     1       3.157  -0.111   3.748  1.00  0.00     0.010 A 
ATOM      9  C   UNL     1       0.778   0.090   3.313  1.00  0.00     0.010 A 
ATOM     10  C   UNL     1       1.857   0.119   4.202  1.00  0.00    -0.014 A 
BRANCH  10  11
ATOM     11  C   UNL     1       1.691   0.450   5.616  1.00  0.00     0.031 A 
ATOM     12  C   UNL     1       2.267   1.743   6.072  1.00  0.00     0.074 A 
ATOM     13  C   UNL     1       0.945  -0.286   6.461  1.00  0.00     0.049 A 
ATOM     14  N   UNL     1       3.150   1.950   6.996  1.00  0.00    -0.248 NA
ATOM     15  C   UNL     1       1.855   2.956   5.361  1.00  0.00     0.031 C 
ATOM     16  C   UNL     1       0.085  -1.420   6.123  1.00  0.00     0.029 A 
ATOM     17  N   UNL     1       0.702  -0.085   7.790  1.00  0.00    -0.354 N 
ATOM     18  C   UNL     1       3.247   3.335   7.134  1.00  0.00     0.074 A 
ATOM     19  C   UNL     1       2.551   3.890   6.008  1.00  0.00     0.031 C 
ATOM     20  C   UNL     1      -0.756  -1.653   7.152  1.00  0.00     0.029 A 
ATOM     21  C   UNL     1      -0.411  -0.770   8.256  1.00  0.00     0.049 A 
ATOM     22  H   UNL     1       1.261   0.490   8.361  1.00  0.00     0.167 HD
ATOM     23  C   UNL     1       3.716   3.914   8.276  1.00  0.00     0.034 A 
ATOM     24  C   UNL     1      -1.064  -0.577   9.428  1.00  0.00     0.034 A 
ATOM     25  C   UNL     1       4.496   2.976   9.056  1.00  0.00     0.049 A 
ATOM     26  C   UNL     1      -0.119   0.060  10.375  1.00  0.00     0.074 A 
ATOM     27  C   UNL     1       5.600   2.183   8.797  1.00  0.00     0.029 A 
ATOM     28  N   UNL     1       3.980   2.495  10.239  1.00  0.00    -0.354 N 
ATOM     29  N   UNL     1       0.944  -0.533  10.843  1.00  0.00    -0.248 NA
ATOM     30  C   UNL     1      -0.124   1.509  10.509  1.00  0.00     0.031 C 
ATOM     31  C   UNL     1       5.377   0.983   9.536  1.00  0.00     0.029 A 
ATOM     32  C   UNL     1       4.182   1.139  10.239  1.00  0.00     0.049 A 
ATOM     33  H   UNL     1       3.548   3.023  10.948  1.00  0.00     0.167 HD
ATOM     34  C   UNL     1       1.903   0.463  10.927  1.00  0.00     0.074 A 
ATOM     35  C   UNL     1       1.153   1.712  10.841  1.00  0.00     0.031 C 
ATOM     36  C   UNL     1       3.232   0.183  10.770  1.00  0.00     0.034 A 
BRANCH  23  37
ATOM     37  C   UNL     1       3.166   5.199   8.881  1.00  0.00     0.023 A 
ATOM     38  C   UNL     1       3.667   5.564  10.147  1.00  0.00     0.031 A 
ATOM     39  C   UNL     1       1.993   5.877   8.480  1.00  0.00     0.131 A 
ATOM     40  C   UNL     1       2.921   6.376  11.017  1.00  0.00     0.055 A 
ATOM     41  C   UNL     1       1.301   6.760   9.318  1.00  0.00     0.041 A 
ATOM     42  F   UNL     1       1.401   5.677   7.300  1.00  0.00    -0.206 F 
ATOM     43  C   UNL     1       1.733   6.973  10.615  1.00  0.00     0.022 A 
BRANCH  40  44
ATOM     44  S   UNL     1       3.410   6.409  12.761  1.00  0.00     0.124 S 
ATOM     45  O   UNL     1       3.515   4.982  13.053  1.00  0.00    -0.237 OA
ATOM     46  O   UNL     1       4.665   7.150  12.706  1.00  0.00    -0.237 OA
ATOM     47  O   UNL     1       2.301   7.102  13.411  1.00  0.00    -0.744 OA
ENDBRANCH  40  44
ENDBRANCH  23  37
BRANCH  24  48
ATOM     48  C   UNL     1      -2.527  -0.699   9.652  1.00  0.00     0.023 A 
ATOM     49  C   UNL     1      -3.086  -0.874  10.931  1.00  0.00     0.031 A 
ATOM     50  C   UNL     1      -3.429  -0.438   8.594  1.00  0.00     0.131 A 
ATOM     51  C   UNL     1      -4.487  -0.808  11.107  1.00  0.00     0.055 A 
ATOM     52  C   UNL     1      -4.812  -0.396   8.768  1.00  0.00     0.041 A 
ATOM     53  F   UNL     1      -2.992  -0.134   7.361  1.00  0.00    -0.206 F 
ATOM     54  C   UNL     1      -5.348  -0.576  10.031  1.00  0.00     0.022 A 
BRANCH  51  55
ATOM     55  S   UNL     1      -5.207  -0.914  12.775  1.00  0.00     0.124 S 
ATOM     56  O   UNL     1      -5.037  -2.325  13.097  1.00  0.00    -0.237 OA
ATOM     57  O   UNL     1      -4.391   0.029  13.531  1.00  0.00    -0.237 OA
ATOM     58  O   UNL     1      -6.595  -0.492  12.573  1.00  0.00    -0.744 OA
ENDBRANCH  51  55
ENDBRANCH  24  48
BRANCH  36  59
ATOM     59  C   UNL     1       3.697  -1.251  10.885  1.00  0.00     0.023 A 
ATOM     60  C   UNL     1       3.201  -2.317  10.104  1.00  0.00     0.031 A 
ATOM     61  C   UNL     1       4.782  -1.516  11.741  1.00  0.00     0.131 A 
ATOM     62  C   UNL     1       3.778  -3.596  10.212  1.00  0.00     0.055 A 
ATOM     63  C   UNL     1       5.362  -2.781  11.832  1.00  0.00     0.041 A 
ATOM     64  F   UNL     1       5.324  -0.535  12.482  1.00  0.00    -0.206 F 
ATOM     65  C   UNL     1       4.857  -3.828  11.072  1.00  0.00     0.022 A 
BRANCH  62  66
ATOM     66  S   UNL     1       3.128  -4.989   9.237  1.00  0.00     0.124 S 
ATOM     67  O   UNL     1       1.683  -4.878   9.396  1.00  0.00    -0.237 OA
ATOM     68  O   UNL     1       3.649  -4.708   7.902  1.00  0.00    -0.237 OA
ATOM     69  O   UNL     1       3.722  -6.161   9.883  1.00  0.00    -0.744 OA
ENDBRANCH  62  66
ENDBRANCH  36  59
ENDBRANCH  10  11
ENDBRANCH   3   5
ENDBRANCH   2   3
ENDBRANCH   1   2
BRANCH   1  70
ATOM     70  C   UNL     1       4.500   0.394  -1.524  1.00  0.00     0.275 C 
BRANCH  70  71
ATOM     71  O   UNL     1       3.912   1.469  -0.768  1.00  0.00    -0.458 OA
BRANCH  71  72
ATOM     72  C   UNL     1       3.075   2.256  -1.486  1.00  0.00     0.338 C 
ATOM     73  O   UNL     1       2.836   2.193  -2.681  1.00  0.00    -0.246 OA
BRANCH  72  74
ATOM     74  C   UNL     1       2.544   3.329  -0.632  1.00  0.00     0.060 A 
ATOM     75  C   UNL     1       1.393   3.135   0.131  1.00  0.00     0.018 A 
ATOM     76  C   UNL     1       3.152   4.584  -0.688  1.00  0.00     0.018 A 
ATOM     77  C   UNL     1       0.863   4.207   0.858  1.00  0.00     0.027 A 
ATOM     78  C   UNL     1       2.596   5.662   0.010  1.00  0.00     0.027 A 
ATOM     79  C   UNL     1       1.449   5.482   0.788  1.00  0.00     0.045 A 
BRANCH  79  80
ATOM     80  N   UNL     1       0.901   6.556   1.535  1.00  0.00    -0.299 N 
ATOM     81  C   UNL     1       0.595   6.364   2.917  1.00  0.00     0.259 C 
ATOM     82  C   UNL     1      -0.001   7.545   0.923  1.00  0.00     0.152 C 
ATOM     83  C   UNL     1      -0.546   7.293   3.264  1.00  0.00     0.248 C 
ATOM     84  O   UNL     1       1.138   5.583   3.663  1.00  0.00    -0.271 OA
ATOM     85  C   UNL     1      -1.114   7.374   1.896  1.00  0.00     0.021 C 
ATOM     86  N   UNL     1      -1.636   6.680   4.029  1.00  0.00    -0.170 NA
ATOM     87  C   UNL     1      -2.375   6.950   1.995  1.00  0.00     0.097 C 
ATOM     88  N   UNL     1      -2.671   6.623   3.305  1.00  0.00    -0.154 NA
BRANCH  82  89
ATOM     89  C   UNL     1       0.551   8.984   1.015  1.00  0.00    -0.020 A 
ATOM     90  C   UNL     1      -0.320  10.073   1.239  1.00  0.00     0.006 A 
ATOM     91  C   UNL     1       1.929   9.258   0.991  1.00  0.00     0.022 A 
ATOM     92  C   UNL     1       0.171  11.346   1.548  1.00  0.00     0.002 A 
ATOM     93  C   UNL     1       2.414  10.540   1.272  1.00  0.00     0.018 A 
ATOM     94  C   UNL     1       1.542  11.578   1.579  1.00  0.00     0.016 A 
ATOM     95  Br  UNL     1       4.279  10.856   1.281  1.00  0.00    -0.051 Br
ENDBRANCH  82  89
BRANCH  87  96
ATOM     96  C   UNL     1      -3.327   6.516   0.972  1.00  0.00     0.002 A 
ATOM     97  C   UNL     1      -4.308   7.387   0.486  1.00  0.00     0.010 A 
ATOM     98  C   UNL     1      -3.426   5.146   0.682  1.00  0.00     0.010 A 
ATOM     99  C   UNL     1      -5.400   6.885  -0.232  1.00  0.00     0.001 A 
ATOM    100  C   UNL     1      -4.517   4.648  -0.033  1.00  0.00     0.001 A 
ATOM    101  C   UNL     1      -5.512   5.516  -0.475  1.00  0.00     0.000 A 
ENDBRANCH  87  96
ENDBRANCH  79  80
ENDBRANCH  72  74
ENDBRANCH  71  72
ENDBRANCH  70  71
ENDBRANCH   1  70
TORSDOF 17
