REMARK SMILES Cc1ccc(C)c(-c2csc(C(=O)OCCOC(=O)c3ccc(-c4c5nc(c(-c6cc(S(=O)(=O)[O-])ccc6F)c6ccc([nH]6)c(-c6cc(S(=O)(=O)[O-])ccc6F)c6nc(c(-c7cc(S(=O)(=O)[O-])ccc7F)c7ccc4[nH]7)C=C6)C=C5)cc3)n2)c1
REMARK SMILES IDX 16 1 15 2 14 3 12 4 13 5 11 6 8 7 9 8 83 9 10 10 7 11 1 12
REMARK SMILES IDX 2 13 3 14 84 15 4 16 5 17 6 18 17 19 18 20 19 21 20 22 21 23
REMARK SMILES IDX 82 24 22 25 81 26 23 27 24 28 25 29 75 30 26 31 80 32 74 33
REMARK SMILES IDX 76 34 27 35 79 36 73 37 72 38 28 40 60 41 40 42 59 43 41 44
REMARK SMILES IDX 44 45 58 46 77 47 42 48 43 49 57 51 78 52 45 53 29 54 30 55
REMARK SMILES IDX 38 56 31 57 37 58 39 59 36 60 32 61 33 62 34 63 35 64 61 65
REMARK SMILES IDX 62 66 70 67 63 68 69 69 71 70 68 71 64 72 65 73 66 74 67 75
REMARK SMILES IDX 46 76 47 77 55 78 48 79 54 80 56 81 53 82 49 83 50 84 51 85
REMARK SMILES IDX 52 86
REMARK H PARENT 76 39 44 50
REMARK Flexibility Score: inf
ROOT
ATOM      1  C   UNL     1      -3.533   6.599  -4.359  1.00  0.00     0.275 C 
ENDROOT
BRANCH   1   2
ATOM      2  C   UNL     1      -2.159   5.925  -4.266  1.00  0.00     0.275 C 
BRANCH   2   3
ATOM      3  O   UNL     1      -1.954   5.220  -3.044  1.00  0.00    -0.457 OA
BRANCH   3   4
ATOM      4  C   UNL     1      -2.699   4.099  -2.882  1.00  0.00     0.367 C 
ATOM      5  O   UNL     1      -3.519   3.678  -3.707  1.00  0.00    -0.243 OA
BRANCH   4   6
ATOM      6  C   UNL     1      -2.318   3.457  -1.657  1.00  0.00     0.202 A 
ATOM      7  C   UNL     1      -1.362   2.000  -0.329  1.00  0.00     0.082 A 
ATOM      8  C   UNL     1      -2.005   2.757   0.630  1.00  0.00     0.096 A 
ATOM      9  N   UNL     1      -1.536   2.400  -1.634  1.00  0.00    -0.230 NA
ATOM     10  S   UNL     1      -2.874   4.024  -0.140  1.00  0.00    -0.115 S 
BRANCH   7  11
ATOM     11  C   UNL     1      -0.615   0.794  -0.053  1.00  0.00     0.004 A 
ATOM     12  C   UNL     1       3.060  -0.211   0.108  1.00  0.00     0.044 C 
ATOM     13  C   UNL     1       1.562  -0.282   0.128  1.00  0.00    -0.050 A 
ATOM     14  C   UNL     1       0.918  -1.520   0.231  1.00  0.00     0.004 A 
ATOM     15  C   UNL     1       0.786   0.873  -0.013  1.00  0.00     0.014 A 
ATOM     16  C   UNL     1      -0.476  -1.603   0.193  1.00  0.00     0.004 A 
ATOM     17  C   UNL     1      -1.261  -0.451   0.039  1.00  0.00    -0.042 A 
ATOM     18  C   UNL     1      -2.754  -0.615  -0.057  1.00  0.00     0.045 C 
ENDBRANCH   7  11
ENDBRANCH   4   6
ENDBRANCH   3   4
ENDBRANCH   2   3
ENDBRANCH   1   2
BRANCH   1  19
ATOM     19  O   UNL     1      -4.255   6.837  -3.118  1.00  0.00    -0.458 OA
BRANCH  19  20
ATOM     20  C   UNL     1      -3.843   7.399  -1.954  1.00  0.00     0.338 C 
ATOM     21  O   UNL     1      -4.520   7.311  -0.936  1.00  0.00    -0.246 OA
BRANCH  20  22
ATOM     22  C   UNL     1      -2.517   8.040  -1.908  1.00  0.00     0.060 A 
ATOM     23  C   UNL     1      -1.671   7.760  -0.828  1.00  0.00     0.016 A 
ATOM     24  C   UNL     1      -2.082   8.852  -2.949  1.00  0.00     0.016 A 
ATOM     25  C   UNL     1      -0.348   8.195  -0.858  1.00  0.00     0.010 A 
ATOM     26  C   UNL     1      -0.742   9.204  -3.017  1.00  0.00     0.010 A 
ATOM     27  C   UNL     1       0.140   8.886  -1.976  1.00  0.00    -0.014 A 
BRANCH  27  28
ATOM     28  C   UNL     1       1.578   9.182  -2.071  1.00  0.00     0.031 A 
ATOM     29  C   UNL     1       2.548   8.083  -1.776  1.00  0.00     0.074 A 
ATOM     30  C   UNL     1       2.103  10.312  -2.594  1.00  0.00     0.049 A 
ATOM     31  N   UNL     1       3.443   8.054  -0.842  1.00  0.00    -0.248 NA
ATOM     32  C   UNL     1       2.521   6.868  -2.599  1.00  0.00     0.031 C 
ATOM     33  C   UNL     1       1.400  11.436  -3.213  1.00  0.00     0.029 A 
ATOM     34  N   UNL     1       3.420  10.623  -2.794  1.00  0.00    -0.354 N 
ATOM     35  C   UNL     1       4.236   6.931  -1.073  1.00  0.00     0.074 A 
ATOM     36  C   UNL     1       3.547   6.177  -2.092  1.00  0.00     0.031 C 
ATOM     37  C   UNL     1       2.272  12.158  -3.946  1.00  0.00     0.029 A 
ATOM     38  C   UNL     1       3.612  11.658  -3.695  1.00  0.00     0.049 A 
ATOM     39  H   UNL     1       4.159  10.157  -2.341  1.00  0.00     0.167 HD
ATOM     40  C   UNL     1       5.481   6.807  -0.523  1.00  0.00     0.034 A 
ATOM     41  C   UNL     1       4.779  12.098  -4.221  1.00  0.00     0.034 A 
ATOM     42  C   UNL     1       5.679   7.757   0.552  1.00  0.00     0.049 A 
ATOM     43  C   UNL     1       5.853  11.773  -3.257  1.00  0.00     0.074 A 
ATOM     44  C   UNL     1       4.992   8.081   1.708  1.00  0.00     0.029 A 
ATOM     45  N   UNL     1       6.567   8.795   0.372  1.00  0.00    -0.354 N 
ATOM     46  N   UNL     1       5.928  12.305  -2.068  1.00  0.00    -0.248 NA
ATOM     47  C   UNL     1       6.645  10.568  -3.442  1.00  0.00     0.031 C 
ATOM     48  C   UNL     1       5.110   9.499   1.818  1.00  0.00     0.029 A 
ATOM     49  C   UNL     1       5.909   9.934   0.760  1.00  0.00     0.049 A 
ATOM     50  H   UNL     1       7.489   8.732   0.032  1.00  0.00     0.167 HD
ATOM     51  C   UNL     1       6.388  11.287  -1.252  1.00  0.00     0.074 A 
ATOM     52  C   UNL     1       6.958  10.306  -2.170  1.00  0.00     0.031 C 
ATOM     53  C   UNL     1       6.000  11.198   0.057  1.00  0.00     0.034 A 
BRANCH  40  54
ATOM     54  C   UNL     1       6.660   6.054  -1.118  1.00  0.00     0.023 A 
ATOM     55  C   UNL     1       7.865   6.055  -0.381  1.00  0.00     0.031 A 
ATOM     56  C   UNL     1       6.768   5.613  -2.453  1.00  0.00     0.131 A 
ATOM     57  C   UNL     1       9.099   5.780  -0.995  1.00  0.00     0.055 A 
ATOM     58  C   UNL     1       7.989   5.249  -3.035  1.00  0.00     0.041 A 
ATOM     59  F   UNL     1       5.725   5.597  -3.291  1.00  0.00    -0.206 F 
ATOM     60  C   UNL     1       9.170   5.371  -2.320  1.00  0.00     0.022 A 
BRANCH  57  61
ATOM     61  S   UNL     1      10.614   6.209  -0.093  1.00  0.00     0.124 S 
ATOM     62  O   UNL     1      10.327   7.580   0.318  1.00  0.00    -0.237 OA
ATOM     63  O   UNL     1      10.627   5.207   0.967  1.00  0.00    -0.237 OA
ATOM     64  O   UNL     1      11.661   6.066  -1.102  1.00  0.00    -0.744 OA
ENDBRANCH  57  61
ENDBRANCH  40  54
BRANCH  41  65
ATOM     65  C   UNL     1       4.984  12.671  -5.569  1.00  0.00     0.023 A 
ATOM     66  C   UNL     1       6.080  13.491  -5.883  1.00  0.00     0.031 A 
ATOM     67  C   UNL     1       4.176  12.239  -6.648  1.00  0.00     0.131 A 
ATOM     68  C   UNL     1       6.322  13.864  -7.223  1.00  0.00     0.055 A 
ATOM     69  C   UNL     1       4.407  12.627  -7.968  1.00  0.00     0.041 A 
ATOM     70  F   UNL     1       3.178  11.360  -6.461  1.00  0.00    -0.206 F 
ATOM     71  C   UNL     1       5.488  13.440  -8.262  1.00  0.00     0.022 A 
BRANCH  68  72
ATOM     72  S   UNL     1       7.815  14.810  -7.650  1.00  0.00     0.124 S 
ATOM     73  O   UNL     1       7.443  16.165  -7.262  1.00  0.00    -0.237 OA
ATOM     74  O   UNL     1       8.843  14.162  -6.843  1.00  0.00    -0.237 OA
ATOM     75  O   UNL     1       7.948  14.594  -9.091  1.00  0.00    -0.744 OA
ENDBRANCH  68  72
ENDBRANCH  41  65
BRANCH  53  76
ATOM     76  C   UNL     1       5.353  12.399   0.718  1.00  0.00     0.023 A 
ATOM     77  C   UNL     1       4.232  13.086   0.202  1.00  0.00     0.031 A 
ATOM     78  C   UNL     1       5.819  12.783   1.989  1.00  0.00     0.131 A 
ATOM     79  C   UNL     1       3.637  14.126   0.939  1.00  0.00     0.055 A 
ATOM     80  C   UNL     1       5.213  13.800   2.728  1.00  0.00     0.041 A 
ATOM     81  F   UNL     1       6.859  12.147   2.556  1.00  0.00    -0.206 F 
ATOM     82  C   UNL     1       4.124  14.483   2.200  1.00  0.00     0.022 A 
BRANCH  79  83
ATOM     83  S   UNL     1       2.229  15.054   0.254  1.00  0.00     0.124 S 
ATOM     84  O   UNL     1       2.581  15.242  -1.148  1.00  0.00    -0.237 OA
ATOM     85  O   UNL     1       1.106  14.157   0.514  1.00  0.00    -0.237 OA
ATOM     86  O   UNL     1       2.220  16.284   1.050  1.00  0.00    -0.744 OA
ENDBRANCH  79  83
ENDBRANCH  53  76
ENDBRANCH  27  28
ENDBRANCH  20  22
ENDBRANCH  19  20
ENDBRANCH   1  19
TORSDOF 15
