REMARK SMILES Cc1ccc(NC(=O)c2cnn3c2NC2=C(C(=O)CCC2)[C@H]3c2ccc(C(=O)OCCOC(=O)c3ccc(-c4c5nc(c(-c6cc(S(=O)(=O)[O-])ccc6F)c6ccc([nH]6)c(-c6cc(S(=O)(=O)[O-])ccc6F)c6nc(c(-c7cc(S(=O)(=O)[O-])ccc7F)c7ccc4[nH]7)C=C6)C=C5)cc3)cc2)cc1
REMARK SMILES IDX 30 1 29 2 27 3 28 4 26 5 23 6 24 7 99 8 25 9 98 10 22 11
REMARK SMILES IDX 9 12 10 13 13 14 11 15 12 16 14 17 15 18 16 20 21 21 17 22
REMARK SMILES IDX 20 23 18 24 19 25 7 26 6 27 8 29 5 30 1 31 2 32 3 33 101 34
REMARK SMILES IDX 4 35 100 36 31 37 32 38 33 39 34 40 35 41 36 42 97 43 37 44
REMARK SMILES IDX 96 45 38 46 39 47 40 48 90 49 41 50 95 51 89 52 91 53 42 54
REMARK SMILES IDX 94 55 88 56 87 57 43 59 75 60 55 61 74 62 56 63 59 64 73 65
REMARK SMILES IDX 92 66 57 67 58 68 72 70 93 71 60 72 44 73 45 74 53 75 46 76
REMARK SMILES IDX 52 77 54 78 51 79 47 80 48 81 49 82 50 83 76 84 77 85 85 86
REMARK SMILES IDX 78 87 84 88 86 89 83 90 79 91 80 92 81 93 82 94 61 95 62 96
REMARK SMILES IDX 70 97 63 98 69 99 71 100 68 101 64 102 65 103 66 104 67 105
REMARK H PARENT 14 19 6 28 91 58 59 69
REMARK Flexibility Score: inf
ROOT
ATOM      1  C   UNL     1       0.254  -3.454  -7.701  1.00  0.00     0.275 C 
ENDROOT
BRANCH   1   2
ATOM      2  O   UNL     1      -0.367  -4.056  -6.555  1.00  0.00    -0.458 OA
BRANCH   2   3
ATOM      3  C   UNL     1       0.445  -4.567  -5.603  1.00  0.00     0.338 C 
ATOM      4  O   UNL     1       1.660  -4.554  -5.595  1.00  0.00    -0.246 OA
BRANCH   3   5
ATOM      5  C   UNL     1      -0.373  -5.007  -4.459  1.00  0.00     0.060 A 
ATOM      6  C   UNL     1      -1.648  -5.658  -1.994  1.00  0.00    -0.019 A 
ATOM      7  C   UNL     1      -1.081  -6.660  -2.801  1.00  0.00     0.007 A 
ATOM      8  C   UNL     1      -1.601  -4.346  -2.522  1.00  0.00     0.007 A 
ATOM      9  C   UNL     1      -0.434  -6.335  -4.018  1.00  0.00     0.016 A 
ATOM     10  C   UNL     1      -0.987  -4.013  -3.724  1.00  0.00     0.016 A 
BRANCH   6  11
ATOM     11  C   UNL     1      -2.354  -5.984  -0.624  1.00  0.00     0.175 C 
ATOM     12  C   UNL     1      -3.737  -2.798  -0.021  1.00  0.00     0.102 A 
ATOM     13  C   UNL     1      -2.946  -3.020   1.145  1.00  0.00     0.151 A 
ATOM     14  C   UNL     1      -3.928  -4.073  -0.527  1.00  0.00     0.142 A 
ATOM     15  N   UNL     1      -2.363  -4.222   1.149  1.00  0.00    -0.178 NA
ATOM     16  N   UNL     1      -2.841  -4.754   0.012  1.00  0.00    -0.237 N 
ATOM     17  N   UNL     1      -4.688  -4.758  -1.454  1.00  0.00    -0.343 N 
ATOM     18  C   UNL     1      -4.614  -6.174  -1.516  1.00  0.00     0.026 C 
ATOM     19  H   UNL     1      -5.278  -4.266  -2.070  1.00  0.00     0.168 HD
ATOM     20  C   UNL     1      -3.628  -6.776  -0.807  1.00  0.00     0.044 C 
ATOM     21  C   UNL     1      -5.808  -7.028  -1.850  1.00  0.00     0.055 C 
ATOM     22  C   UNL     1      -4.242  -7.309   0.478  1.00  0.00     0.163 C 
ATOM     23  C   UNL     1      -6.507  -7.501  -0.572  1.00  0.00     0.014 C 
ATOM     24  O   UNL     1      -3.528  -7.750   1.376  1.00  0.00    -0.294 OA
ATOM     25  C   UNL     1      -5.746  -7.076   0.680  1.00  0.00     0.081 C 
BRANCH  12  26
ATOM     26  C   UNL     1      -4.190  -1.529  -0.528  1.00  0.00     0.261 C 
ATOM     27  N   UNL     1      -3.328  -0.439  -0.496  1.00  0.00    -0.322 N 
ATOM     28  H   UNL     1      -3.793   0.423  -0.599  1.00  0.00     0.170 HD
ATOM     29  O   UNL     1      -5.332  -1.373  -0.957  1.00  0.00    -0.269 OA
BRANCH  27  30
ATOM     30  C   UNL     1      -1.922  -0.295  -0.348  1.00  0.00     0.041 A 
ATOM     31  C   UNL     1       2.357   0.383   0.050  1.00  0.00     0.044 C 
ATOM     32  C   UNL     1       0.878   0.176  -0.088  1.00  0.00    -0.051 A 
ATOM     33  C   UNL     1       0.387  -1.108  -0.293  1.00  0.00     0.005 A 
ATOM     34  C   UNL     1      -0.037   1.229  -0.016  1.00  0.00     0.005 A 
ATOM     35  C   UNL     1      -0.988  -1.328  -0.429  1.00  0.00     0.026 A 
ATOM     36  C   UNL     1      -1.418   0.996  -0.155  1.00  0.00     0.026 A 
ENDBRANCH  27  30
ENDBRANCH  12  26
ENDBRANCH   6  11
ENDBRANCH   3   5
ENDBRANCH   2   3
ENDBRANCH   1   2
BRANCH   1  37
ATOM     37  C   UNL     1       1.347  -4.255  -8.452  1.00  0.00     0.275 C 
BRANCH  37  38
ATOM     38  O   UNL     1       1.227  -5.664  -8.788  1.00  0.00    -0.458 OA
BRANCH  38  39
ATOM     39  C   UNL     1       0.504  -6.543  -8.039  1.00  0.00     0.338 C 
ATOM     40  O   UNL     1       0.970  -7.309  -7.234  1.00  0.00    -0.246 OA
BRANCH  39  41
ATOM     41  C   UNL     1      -0.947  -6.341  -8.241  1.00  0.00     0.060 A 
ATOM     42  C   UNL     1      -1.846  -6.788  -7.257  1.00  0.00     0.016 A 
ATOM     43  C   UNL     1      -1.343  -5.473  -9.253  1.00  0.00     0.016 A 
ATOM     44  C   UNL     1      -3.137  -6.281  -7.233  1.00  0.00     0.010 A 
ATOM     45  C   UNL     1      -2.530  -4.821  -9.111  1.00  0.00     0.010 A 
ATOM     46  C   UNL     1      -3.446  -5.287  -8.158  1.00  0.00    -0.014 A 
BRANCH  46  47
ATOM     47  C   UNL     1      -4.794  -4.939  -8.539  1.00  0.00     0.031 A 
ATOM     48  C   UNL     1      -5.528  -3.880  -7.833  1.00  0.00     0.074 A 
ATOM     49  C   UNL     1      -5.104  -5.523  -9.723  1.00  0.00     0.049 A 
ATOM     50  N   UNL     1      -6.807  -3.848  -7.714  1.00  0.00    -0.248 NA
ATOM     51  C   UNL     1      -4.876  -2.762  -7.138  1.00  0.00     0.031 C 
ATOM     52  C   UNL     1      -6.119  -5.210 -10.706  1.00  0.00     0.029 A 
ATOM     53  N   UNL     1      -4.466  -6.625 -10.312  1.00  0.00    -0.354 N 
ATOM     54  C   UNL     1      -7.130  -2.548  -7.374  1.00  0.00     0.074 A 
ATOM     55  C   UNL     1      -5.924  -1.988  -6.816  1.00  0.00     0.031 C 
ATOM     56  C   UNL     1      -6.258  -6.277 -11.524  1.00  0.00     0.029 A 
ATOM     57  C   UNL     1      -5.429  -7.351 -10.988  1.00  0.00     0.049 A 
ATOM     58  H   UNL     1      -3.507  -6.842 -10.254  1.00  0.00     0.167 HD
ATOM     59  C   UNL     1      -8.279  -2.006  -7.873  1.00  0.00     0.034 A 
ATOM     60  C   UNL     1      -5.872  -8.545 -10.486  1.00  0.00     0.034 A 
ATOM     61  C   UNL     1      -8.879  -2.945  -8.819  1.00  0.00     0.049 A 
ATOM     62  C   UNL     1      -7.318  -8.395 -10.068  1.00  0.00     0.074 A 
ATOM     63  C   UNL     1      -8.829  -3.001 -10.202  1.00  0.00     0.029 A 
ATOM     64  N   UNL     1      -9.335  -4.176  -8.382  1.00  0.00    -0.354 N 
ATOM     65  N   UNL     1      -7.828  -7.286  -9.600  1.00  0.00    -0.248 NA
ATOM     66  C   UNL     1      -8.311  -9.443 -10.259  1.00  0.00     0.031 C 
ATOM     67  C   UNL     1      -9.223  -4.305 -10.593  1.00  0.00     0.029 A 
ATOM     68  C   UNL     1      -9.498  -5.034  -9.448  1.00  0.00     0.049 A 
ATOM     69  H   UNL     1      -9.518  -4.407  -7.443  1.00  0.00     0.167 HD
ATOM     70  C   UNL     1      -9.192  -7.409  -9.547  1.00  0.00     0.074 A 
ATOM     71  C   UNL     1      -9.440  -8.788  -9.941  1.00  0.00     0.031 C 
ATOM     72  C   UNL     1     -10.023  -6.367  -9.236  1.00  0.00     0.034 A 
BRANCH  59  73
ATOM     73  C   UNL     1      -8.710  -0.557  -7.843  1.00  0.00     0.023 A 
ATOM     74  C   UNL     1      -9.633  -0.117  -8.820  1.00  0.00     0.031 A 
ATOM     75  C   UNL     1      -8.316   0.416  -6.909  1.00  0.00     0.131 A 
ATOM     76  C   UNL     1     -10.067   1.214  -8.898  1.00  0.00     0.055 A 
ATOM     77  C   UNL     1      -8.740   1.755  -6.989  1.00  0.00     0.041 A 
ATOM     78  F   UNL     1      -7.542   0.110  -5.859  1.00  0.00    -0.206 F 
ATOM     79  C   UNL     1      -9.615   2.163  -7.991  1.00  0.00     0.022 A 
BRANCH  76  80
ATOM     80  S   UNL     1     -11.239   1.666 -10.206  1.00  0.00     0.124 S 
ATOM     81  O   UNL     1     -10.466   1.397 -11.415  1.00  0.00    -0.237 OA
ATOM     82  O   UNL     1     -12.360   0.771  -9.945  1.00  0.00    -0.237 OA
ATOM     83  O   UNL     1     -11.506   3.080  -9.947  1.00  0.00    -0.744 OA
ENDBRANCH  76  80
ENDBRANCH  59  73
BRANCH  60  84
ATOM     84  C   UNL     1      -4.834  -9.357  -9.767  1.00  0.00     0.023 A 
ATOM     85  C   UNL     1      -3.657  -9.681 -10.479  1.00  0.00     0.031 A 
ATOM     86  C   UNL     1      -4.804  -9.522  -8.374  1.00  0.00     0.131 A 
ATOM     87  C   UNL     1      -2.466  -9.992  -9.801  1.00  0.00     0.055 A 
ATOM     88  C   UNL     1      -3.625  -9.894  -7.703  1.00  0.00     0.041 A 
ATOM     89  F   UNL     1      -5.875  -9.230  -7.624  1.00  0.00    -0.206 F 
ATOM     90  C   UNL     1      -2.439 -10.091  -8.412  1.00  0.00     0.022 A 
BRANCH  87  91
ATOM     91  S   UNL     1      -0.915  -9.997 -10.752  1.00  0.00     0.124 S 
ATOM     92  O   UNL     1      -0.986 -11.280 -11.443  1.00  0.00    -0.237 OA
ATOM     93  O   UNL     1      -1.067  -8.809 -11.589  1.00  0.00    -0.237 OA
ATOM     94  O   UNL     1       0.114  -9.890  -9.724  1.00  0.00    -0.744 OA
ENDBRANCH  87  91
ENDBRANCH  60  84
BRANCH  72  95
ATOM     95  C   UNL     1     -11.463  -6.496  -8.808  1.00  0.00     0.023 A 
ATOM     96  C   UNL     1     -12.023  -7.726  -8.465  1.00  0.00     0.031 A 
ATOM     97  C   UNL     1     -12.303  -5.368  -8.627  1.00  0.00     0.131 A 
ATOM     98  C   UNL     1     -13.370  -7.833  -8.103  1.00  0.00     0.055 A 
ATOM     99  C   UNL     1     -13.610  -5.463  -8.147  1.00  0.00     0.041 A 
ATOM    100  F   UNL     1     -11.894  -4.118  -8.887  1.00  0.00    -0.206 F 
ATOM    101  C   UNL     1     -14.164  -6.709  -7.909  1.00  0.00     0.022 A 
BRANCH  98 102
ATOM    102  S   UNL     1     -14.063  -9.497  -8.011  1.00  0.00     0.124 S 
ATOM    103  O   UNL     1     -13.882  -9.968  -9.383  1.00  0.00    -0.237 OA
ATOM    104  O   UNL     1     -13.214 -10.135  -7.009  1.00  0.00    -0.237 OA
ATOM    105  O   UNL     1     -15.447  -9.270  -7.607  1.00  0.00    -0.744 OA
ENDBRANCH  98 102
ENDBRANCH  72  95
ENDBRANCH  46  47
ENDBRANCH  39  41
ENDBRANCH  38  39
ENDBRANCH  37  38
ENDBRANCH   1  37
TORSDOF 17
