REMARK SMILES O=C(OCCOC(=O)c1cc(SCCn2cccn2)cs1)c1ccc(-c2c3nc(c(-c4cc(S(=O)(=O)[O-])ccc4F)c4ccc([nH]4)c(-c4cc(S(=O)(=O)[O-])ccc4F)c4nc(c(-c5cc(S(=O)(=O)[O-])ccc5F)c5ccc2[nH]5)C=C4)C=C3)cc1
REMARK SMILES IDX 5 1 4 2 3 3 2 4 1 5 22 6 23 7 84 8 24 9 83 10 25 11 26 12
REMARK SMILES IDX 27 13 77 14 28 15 82 16 76 17 78 18 29 19 81 20 75 21 74 22
REMARK SMILES IDX 30 24 62 25 42 26 61 27 43 28 46 29 60 30 79 31 44 32 45 33
REMARK SMILES IDX 59 35 80 36 47 37 31 38 32 39 40 40 33 41 39 42 41 43 38 44
REMARK SMILES IDX 34 45 35 46 36 47 37 48 63 49 64 50 72 51 65 52 71 53 73 54
REMARK SMILES IDX 70 55 66 56 67 57 68 58 69 59 48 60 49 61 57 62 50 63 56 64
REMARK SMILES IDX 58 65 55 66 51 67 52 68 53 69 54 70 6 71 7 72 8 73 9 74
REMARK SMILES IDX 10 75 21 76 11 77 20 78 12 79 13 80 14 81 15 82 16 83 19 84
REMARK SMILES IDX 17 85 18 86
REMARK H PARENT 78 23 46 34
REMARK Flexibility Score: inf
ROOT
ATOM      1  C   UNL     1       3.894  -1.558  -0.338  1.00  0.00     0.275 C 
ENDROOT
BRANCH   1   2
ATOM      2  C   UNL     1       4.400  -0.763   0.864  1.00  0.00     0.275 C 
BRANCH   2   3
ATOM      3  O   UNL     1       3.409  -0.087   1.662  1.00  0.00    -0.458 OA
BRANCH   3   4
ATOM      4  C   UNL     1       2.231   0.221   1.073  1.00  0.00     0.338 C 
ATOM      5  O   UNL     1       1.355  -0.587   0.810  1.00  0.00    -0.246 OA
BRANCH   4   6
ATOM      6  C   UNL     1       2.132   1.677   0.821  1.00  0.00     0.060 A 
ATOM      7  C   UNL     1       3.269   2.497   0.796  1.00  0.00     0.016 A 
ATOM      8  C   UNL     1       0.868   2.214   0.551  1.00  0.00     0.016 A 
ATOM      9  C   UNL     1       3.138   3.852   0.533  1.00  0.00     0.010 A 
ATOM     10  C   UNL     1       0.737   3.571   0.286  1.00  0.00     0.010 A 
ATOM     11  C   UNL     1       1.870   4.389   0.297  1.00  0.00    -0.014 A 
BRANCH  11  12
ATOM     12  C   UNL     1       1.772   5.823   0.054  1.00  0.00     0.031 A 
ATOM     13  C   UNL     1       2.247   6.327  -1.263  1.00  0.00     0.074 A 
ATOM     14  C   UNL     1       1.171   6.656   0.924  1.00  0.00     0.049 A 
ATOM     15  N   UNL     1       3.200   7.168  -1.500  1.00  0.00    -0.248 NA
ATOM     16  C   UNL     1       1.615   5.792  -2.476  1.00  0.00     0.031 C 
ATOM     17  C   UNL     1       0.399   6.297   2.115  1.00  0.00     0.029 A 
ATOM     18  N   UNL     1       1.029   8.009   0.852  1.00  0.00    -0.354 N 
ATOM     19  C   UNL     1       3.177   7.420  -2.872  1.00  0.00     0.074 A 
ATOM     20  C   UNL     1       2.269   6.452  -3.433  1.00  0.00     0.031 C 
ATOM     21  C   UNL     1      -0.312   7.372   2.519  1.00  0.00     0.029 A 
ATOM     22  C   UNL     1       0.058   8.518   1.703  1.00  0.00     0.049 A 
ATOM     23  H   UNL     1       1.567   8.575   0.251  1.00  0.00     0.167 HD
ATOM     24  C   UNL     1       3.778   8.519  -3.413  1.00  0.00     0.034 A 
ATOM     25  C   UNL     1      -0.463   9.770   1.693  1.00  0.00     0.034 A 
ATOM     26  C   UNL     1       4.721   9.109  -2.492  1.00  0.00     0.049 A 
ATOM     27  C   UNL     1       0.522  10.658   1.029  1.00  0.00     0.074 A 
ATOM     28  C   UNL     1       5.854   8.659  -1.841  1.00  0.00     0.029 A 
ATOM     29  N   UNL     1       4.372  10.275  -1.851  1.00  0.00    -0.354 N 
ATOM     30  N   UNL     1       1.697  10.929   1.529  1.00  0.00    -0.248 NA
ATOM     31  C   UNL     1       0.393  10.896  -0.401  1.00  0.00     0.031 C 
ATOM     32  C   UNL     1       5.801   9.270  -0.554  1.00  0.00     0.029 A 
ATOM     33  C   UNL     1       4.676  10.097  -0.524  1.00  0.00     0.049 A 
ATOM     34  H   UNL     1       3.982  11.080  -2.262  1.00  0.00     0.167 HD
ATOM     35  C   UNL     1       2.555  10.947   0.442  1.00  0.00     0.074 A 
ATOM     36  C   UNL     1       1.682  11.036  -0.726  1.00  0.00     0.031 C 
ATOM     37  C   UNL     1       3.873  10.606   0.569  1.00  0.00     0.034 A 
BRANCH  24  38
ATOM     38  C   UNL     1       3.323   9.264  -4.651  1.00  0.00     0.023 A 
ATOM     39  C   UNL     1       4.092  10.373  -5.065  1.00  0.00     0.031 A 
ATOM     40  C   UNL     1       2.054   9.142  -5.257  1.00  0.00     0.131 A 
ATOM     41  C   UNL     1       3.563  11.343  -5.934  1.00  0.00     0.055 A 
ATOM     42  C   UNL     1       1.562  10.070  -6.181  1.00  0.00     0.041 A 
ATOM     43  F   UNL     1       1.185   8.181  -4.920  1.00  0.00    -0.206 F 
ATOM     44  C   UNL     1       2.301  11.197  -6.498  1.00  0.00     0.022 A 
BRANCH  41  45
ATOM     45  S   UNL     1       4.475  12.896  -6.149  1.00  0.00     0.124 S 
ATOM     46  O   UNL     1       4.667  13.319  -4.766  1.00  0.00    -0.237 OA
ATOM     47  O   UNL     1       5.669  12.450  -6.859  1.00  0.00    -0.237 OA
ATOM     48  O   UNL     1       3.558  13.722  -6.931  1.00  0.00    -0.744 OA
ENDBRANCH  41  45
ENDBRANCH  24  38
BRANCH  25  49
ATOM     49  C   UNL     1      -1.879  10.134   1.954  1.00  0.00     0.023 A 
ATOM     50  C   UNL     1      -2.278  11.434   2.319  1.00  0.00     0.031 A 
ATOM     51  C   UNL     1      -2.909   9.220   1.629  1.00  0.00     0.131 A 
ATOM     52  C   UNL     1      -3.651  11.768   2.362  1.00  0.00     0.055 A 
ATOM     53  C   UNL     1      -4.263   9.550   1.686  1.00  0.00     0.041 A 
ATOM     54  F   UNL     1      -2.630   7.993   1.161  1.00  0.00    -0.206 F 
ATOM     55  C   UNL     1      -4.641  10.832   2.048  1.00  0.00     0.022 A 
BRANCH  52  56
ATOM     56  S   UNL     1      -4.169  13.474   2.729  1.00  0.00     0.124 S 
ATOM     57  O   UNL     1      -3.857  13.593   4.149  1.00  0.00    -0.237 OA
ATOM     58  O   UNL     1      -3.345  14.256   1.815  1.00  0.00    -0.237 OA
ATOM     59  O   UNL     1      -5.598  13.472   2.412  1.00  0.00    -0.744 OA
ENDBRANCH  52  56
ENDBRANCH  25  49
BRANCH  37  60
ATOM     60  C   UNL     1       4.469  10.497   1.956  1.00  0.00     0.023 A 
ATOM     61  C   UNL     1       3.985   9.638   2.967  1.00  0.00     0.031 A 
ATOM     62  C   UNL     1       5.669  11.188   2.204  1.00  0.00     0.131 A 
ATOM     63  C   UNL     1       4.693   9.506   4.177  1.00  0.00     0.055 A 
ATOM     64  C   UNL     1       6.377  11.040   3.396  1.00  0.00     0.041 A 
ATOM     65  F   UNL     1       6.199  11.992   1.268  1.00  0.00    -0.206 F 
ATOM     66  C   UNL     1       5.888  10.201   4.390  1.00  0.00     0.022 A 
BRANCH  63  67
ATOM     67  S   UNL     1       4.069   8.424   5.502  1.00  0.00     0.124 S 
ATOM     68  O   UNL     1       2.657   8.776   5.597  1.00  0.00    -0.237 OA
ATOM     69  O   UNL     1       4.365   7.090   4.986  1.00  0.00    -0.237 OA
ATOM     70  O   UNL     1       4.872   8.814   6.664  1.00  0.00    -0.744 OA
ENDBRANCH  63  67
ENDBRANCH  37  60
ENDBRANCH  11  12
ENDBRANCH   4   6
ENDBRANCH   3   4
ENDBRANCH   2   3
ENDBRANCH   1   2
BRANCH   1  71
ATOM     71  O   UNL     1       3.351  -0.654  -1.312  1.00  0.00    -0.458 OA
BRANCH  71  72
ATOM     72  C   UNL     1       2.562  -1.239  -2.261  1.00  0.00     0.348 C 
ATOM     73  O   UNL     1       2.381  -2.445  -2.366  1.00  0.00    -0.245 OA
BRANCH  72  74
ATOM     74  C   UNL     1       2.163  -0.249  -3.232  1.00  0.00     0.113 A 
ATOM     75  C   UNL     1       2.417  -0.285  -4.588  1.00  0.00     0.042 A 
ATOM     76  S   UNL     1       1.282   1.143  -2.800  1.00  0.00    -0.136 S 
ATOM     77  C   UNL     1       2.090   0.941  -5.228  1.00  0.00     0.019 A 
ATOM     78  C   UNL     1       1.395   1.780  -4.385  1.00  0.00     0.080 A 
BRANCH  77  79
ATOM     79  S   UNL     1       2.476   1.375  -6.885  1.00  0.00    -0.123 SA
BRANCH  79  80
ATOM     80  C   UNL     1       3.854   0.279  -7.350  1.00  0.00     0.098 C 
BRANCH  80  81
ATOM     81  C   UNL     1       5.250   0.689  -6.877  1.00  0.00     0.155 C 
BRANCH  81  82
ATOM     82  N   UNL     1       5.527   0.405  -5.485  1.00  0.00    -0.272 N 
ATOM     83  C   UNL     1       5.868  -0.803  -4.940  1.00  0.00     0.108 A 
ATOM     84  N   UNL     1       5.500   1.399  -4.584  1.00  0.00    -0.182 NA
ATOM     85  C   UNL     1       5.996  -0.584  -3.588  1.00  0.00     0.042 A 
ATOM     86  C   UNL     1       5.751   0.792  -3.423  1.00  0.00     0.135 A 
ENDBRANCH  81  82
ENDBRANCH  80  81
ENDBRANCH  79  80
ENDBRANCH  77  79
ENDBRANCH  72  74
ENDBRANCH  71  72
ENDBRANCH   1  71
TORSDOF 18
