REMARK SMILES Cc1ccc(C(=O)N2CCC3(CCC(=O)N(CC(=O)OCCOC(=O)c4ccc(-c5c6nc(c(-c7cc(S(=O)(=O)[O-])ccc7F)c7ccc([nH]7)c(-c7cc(S(=O)(=O)[O-])ccc7F)c7nc(c(-c8cc(S(=O)(=O)[O-])ccc8F)c8ccc5[nH]8)C=C7)C=C6)cc4)C3)CC2)cc1O
REMARK SMILES IDX 21 1 20 2 18 3 19 4 17 5 16 6 6 7 7 8 8 9 9 10 91 11 10 12
REMARK SMILES IDX 90 13 11 14 12 15 89 16 13 17 14 18 15 19 5 20 1 21 2 22
REMARK SMILES IDX 3 23 93 24 4 25 92 26 94 27 22 29 23 30 24 31 25 32 26 33
REMARK SMILES IDX 27 34 88 35 28 36 87 37 29 38 30 39 31 40 81 41 32 42 86 43
REMARK SMILES IDX 80 44 82 45 33 46 85 47 79 48 78 49 34 51 66 52 46 53 65 54
REMARK SMILES IDX 47 55 50 56 64 57 83 58 48 59 49 60 63 62 84 63 51 64 35 65
REMARK SMILES IDX 36 66 44 67 37 68 43 69 45 70 42 71 38 72 39 73 40 74 41 75
REMARK SMILES IDX 67 76 68 77 76 78 69 79 75 80 77 81 74 82 70 83 71 84 72 85
REMARK SMILES IDX 73 86 52 87 53 88 61 89 54 90 60 91 62 92 59 93 55 94 56 95
REMARK SMILES IDX 57 96 58 97
REMARK H PARENT 94 28 82 50 50 61
REMARK Flexibility Score: inf
ROOT
ATOM      1  C   UNL     1      10.038  -5.278   4.143  1.00  0.00     0.274 C 
ENDROOT
BRANCH   1   2
ATOM      2  O   UNL     1       9.137  -4.467   3.371  1.00  0.00    -0.461 OA
BRANCH   2   3
ATOM      3  C   UNL     1       8.342  -3.627   4.073  1.00  0.00     0.325 C 
ATOM      4  O   UNL     1       8.219  -3.636   5.295  1.00  0.00    -0.250 OA
BRANCH   3   5
ATOM      5  C   UNL     1       7.608  -2.606   3.206  1.00  0.00     0.242 C 
BRANCH   5   6
ATOM      6  N   UNL     1       7.757  -2.652   1.753  1.00  0.00    -0.331 N 
ATOM      7  C   UNL     1       2.928   1.479   0.377  1.00  0.00     0.253 C 
ATOM      8  O   UNL     1       2.781   2.569   0.923  1.00  0.00    -0.269 OA
ATOM      9  N   UNL     1       4.173   0.888   0.199  1.00  0.00    -0.339 N 
ATOM     10  C   UNL     1       5.233   1.176   1.149  1.00  0.00     0.120 C 
ATOM     11  C   UNL     1       4.589   0.197  -1.010  1.00  0.00     0.120 C 
ATOM     12  C   UNL     1       5.840  -0.150   1.615  1.00  0.00     0.030 C 
ATOM     13  C   UNL     1       5.266  -1.126  -0.675  1.00  0.00     0.030 C 
ATOM     14  C   UNL     1       6.346  -1.040   0.444  1.00  0.00    -0.008 C 
ATOM     15  C   UNL     1       7.680  -0.495  -0.138  1.00  0.00     0.019 C 
ATOM     16  C   UNL     1       6.584  -2.492   0.926  1.00  0.00     0.127 C 
ATOM     17  C   UNL     1       8.881  -0.745   0.775  1.00  0.00     0.101 C 
ATOM     18  C   UNL     1       8.949  -2.196   1.205  1.00  0.00     0.223 C 
ATOM     19  O   UNL     1       9.963  -2.877   1.139  1.00  0.00    -0.275 OA
BRANCH   7  20
ATOM     20  C   UNL     1       1.708   0.687   0.052  1.00  0.00     0.043 A 
ATOM     21  C   UNL     1      -1.989  -1.541  -0.172  1.00  0.00     0.048 C 
ATOM     22  C   UNL     1      -0.712  -0.753  -0.142  1.00  0.00    -0.009 A 
ATOM     23  C   UNL     1       0.494  -1.417   0.112  1.00  0.00     0.008 A 
ATOM     24  C   UNL     1      -0.684   0.640  -0.293  1.00  0.00     0.119 A 
ATOM     25  C   UNL     1       1.689  -0.702   0.226  1.00  0.00     0.014 A 
ATOM     26  C   UNL     1       0.511   1.356  -0.213  1.00  0.00     0.060 A 
BRANCH  24  27
ATOM     27  O   UNL     1      -1.820   1.374  -0.488  1.00  0.00    -0.508 OA
ATOM     28  H   UNL     1      -2.650   0.944  -0.549  1.00  0.00     0.293 HD
ENDBRANCH  24  27
ENDBRANCH   7  20
ENDBRANCH   5   6
ENDBRANCH   3   5
ENDBRANCH   2   3
ENDBRANCH   1   2
BRANCH   1  29
ATOM     29  C   UNL     1      11.399  -4.596   4.272  1.00  0.00     0.275 C 
BRANCH  29  30
ATOM     30  O   UNL     1      11.275  -3.389   5.049  1.00  0.00    -0.458 OA
BRANCH  30  31
ATOM     31  C   UNL     1      11.600  -2.247   4.403  1.00  0.00     0.338 C 
ATOM     32  O   UNL     1      12.030  -2.121   3.272  1.00  0.00    -0.246 OA
BRANCH  31  33
ATOM     33  C   UNL     1      11.408  -1.093   5.290  1.00  0.00     0.060 A 
ATOM     34  C   UNL     1      10.125  -0.618   5.564  1.00  0.00     0.016 A 
ATOM     35  C   UNL     1      12.535  -0.392   5.720  1.00  0.00     0.016 A 
ATOM     36  C   UNL     1       9.967   0.602   6.218  1.00  0.00     0.010 A 
ATOM     37  C   UNL     1      12.373   0.799   6.429  1.00  0.00     0.010 A 
ATOM     38  C   UNL     1      11.089   1.322   6.656  1.00  0.00    -0.014 A 
BRANCH  38  39
ATOM     39  C   UNL     1      10.926   2.632   7.334  1.00  0.00     0.031 A 
ATOM     40  C   UNL     1      11.409   3.892   6.666  1.00  0.00     0.074 A 
ATOM     41  C   UNL     1      10.361   2.681   8.555  1.00  0.00     0.049 A 
ATOM     42  N   UNL     1      11.476   5.107   7.143  1.00  0.00    -0.248 NA
ATOM     43  C   UNL     1      11.891   3.763   5.281  1.00  0.00     0.031 C 
ATOM     44  C   UNL     1       9.839   1.526   9.289  1.00  0.00     0.029 A 
ATOM     45  N   UNL     1      10.141   3.739   9.400  1.00  0.00    -0.354 N 
ATOM     46  C   UNL     1      12.038   5.883   6.135  1.00  0.00     0.074 A 
ATOM     47  C   UNL     1      12.301   4.997   5.021  1.00  0.00     0.031 C 
ATOM     48  C   UNL     1       9.359   1.938  10.472  1.00  0.00     0.029 A 
ATOM     49  C   UNL     1       9.595   3.372  10.608  1.00  0.00     0.049 A 
ATOM     50  H   UNL     1      10.354   4.671   9.165  1.00  0.00     0.167 HD
ATOM     51  C   UNL     1      12.312   7.211   6.144  1.00  0.00     0.034 A 
ATOM     52  C   UNL     1       9.350   4.099  11.715  1.00  0.00     0.034 A 
ATOM     53  C   UNL     1      12.020   8.084   7.256  1.00  0.00     0.049 A 
ATOM     54  C   UNL     1       9.680   5.567  11.705  1.00  0.00     0.074 A 
ATOM     55  C   UNL     1      12.223   9.450   7.357  1.00  0.00     0.029 A 
ATOM     56  N   UNL     1      11.466   7.675   8.462  1.00  0.00    -0.354 N 
ATOM     57  N   UNL     1      10.219   6.284  10.745  1.00  0.00    -0.248 NA
ATOM     58  C   UNL     1       9.370   6.324  12.924  1.00  0.00     0.031 C 
ATOM     59  C   UNL     1      11.840   9.857   8.641  1.00  0.00     0.029 A 
ATOM     60  C   UNL     1      11.343   8.757   9.321  1.00  0.00     0.049 A 
ATOM     61  H   UNL     1      11.199   6.752   8.676  1.00  0.00     0.167 HD
ATOM     62  C   UNL     1      10.297   7.581  11.242  1.00  0.00     0.074 A 
ATOM     63  C   UNL     1       9.732   7.550  12.576  1.00  0.00     0.031 C 
ATOM     64  C   UNL     1      10.790   8.699  10.652  1.00  0.00     0.034 A 
BRANCH  51  65
ATOM     65  C   UNL     1      13.010   7.790   4.940  1.00  0.00     0.023 A 
ATOM     66  C   UNL     1      12.377   7.903   3.690  1.00  0.00     0.031 A 
ATOM     67  C   UNL     1      14.339   8.239   5.051  1.00  0.00     0.131 A 
ATOM     68  C   UNL     1      13.089   8.409   2.591  1.00  0.00     0.055 A 
ATOM     69  C   UNL     1      15.021   8.797   3.969  1.00  0.00     0.041 A 
ATOM     70  F   UNL     1      14.999   8.136   6.216  1.00  0.00    -0.206 F 
ATOM     71  C   UNL     1      14.399   8.877   2.727  1.00  0.00     0.022 A 
BRANCH  68  72
ATOM     72  S   UNL     1      12.311   8.365   0.952  1.00  0.00     0.124 S 
ATOM     73  O   UNL     1      12.116   6.930   0.756  1.00  0.00    -0.237 OA
ATOM     74  O   UNL     1      11.101   9.152   1.155  1.00  0.00    -0.237 OA
ATOM     75  O   UNL     1      13.312   8.975   0.080  1.00  0.00    -0.744 OA
ENDBRANCH  68  72
ENDBRANCH  51  65
BRANCH  52  76
ATOM     76  C   UNL     1       8.821   3.442  12.943  1.00  0.00     0.023 A 
ATOM     77  C   UNL     1       7.552   3.760  13.450  1.00  0.00     0.031 A 
ATOM     78  C   UNL     1       9.600   2.507  13.649  1.00  0.00     0.131 A 
ATOM     79  C   UNL     1       7.115   3.177  14.650  1.00  0.00     0.055 A 
ATOM     80  C   UNL     1       9.141   1.893  14.814  1.00  0.00     0.041 A 
ATOM     81  F   UNL     1      10.820   2.166  13.203  1.00  0.00    -0.206 F 
ATOM     82  C   UNL     1       7.895   2.237  15.328  1.00  0.00     0.022 A 
BRANCH  79  83
ATOM     83  S   UNL     1       5.541   3.731  15.361  1.00  0.00     0.124 S 
ATOM     84  O   UNL     1       5.739   5.173  15.442  1.00  0.00    -0.237 OA
ATOM     85  O   UNL     1       4.581   3.270  14.363  1.00  0.00    -0.237 OA
ATOM     86  O   UNL     1       5.485   3.035  16.645  1.00  0.00    -0.744 OA
ENDBRANCH  79  83
ENDBRANCH  52  76
BRANCH  64  87
ATOM     87  C   UNL     1      10.700   9.976  11.445  1.00  0.00     0.023 A 
ATOM     88  C   UNL     1      11.492  10.189  12.586  1.00  0.00     0.031 A 
ATOM     89  C   UNL     1       9.788  10.977  11.070  1.00  0.00     0.131 A 
ATOM     90  C   UNL     1      11.319  11.355  13.345  1.00  0.00     0.055 A 
ATOM     91  C   UNL     1       9.656  12.158  11.801  1.00  0.00     0.041 A 
ATOM     92  F   UNL     1       9.008  10.820   9.988  1.00  0.00    -0.206 F 
ATOM     93  C   UNL     1      10.415  12.346  12.953  1.00  0.00     0.022 A 
BRANCH  90  94
ATOM     94  S   UNL     1      12.235  11.524  14.902  1.00  0.00     0.124 S 
ATOM     95  O   UNL     1      11.770  10.364  15.656  1.00  0.00    -0.237 OA
ATOM     96  O   UNL     1      13.623  11.478  14.454  1.00  0.00    -0.237 OA
ATOM     97  O   UNL     1      11.795  12.818  15.420  1.00  0.00    -0.744 OA
ENDBRANCH  90  94
ENDBRANCH  64  87
ENDBRANCH  38  39
ENDBRANCH  31  33
ENDBRANCH  30  31
ENDBRANCH  29  30
ENDBRANCH   1  29
TORSDOF 17
