REMARK SMILES COc1ccc2c(c1)[C@H]([NH2+][C@H]1CCC[C@H](C(=O)OCCOC(=O)c3ccc(-c4c5nc(c(-c6cc(S(=O)(=O)[O-])ccc6F)c6ccc([nH]6)c(-c6cc(S(=O)(=O)[O-])ccc6F)c6nc(c(-c7cc(S(=O)(=O)[O-])ccc7F)c7ccc4[nH]7)C=C6)C=C5)cc3)C1)CC2
REMARK SMILES IDX 19 1 18 2 16 3 17 4 15 5 11 6 12 7 87 8 13 9 14 10 10 11
REMARK SMILES IDX 9 14 3 15 4 16 8 17 5 18 7 19 6 20 89 21 88 22 2 23 1 24
REMARK SMILES IDX 20 25 21 26 22 27 23 28 24 29 25 30 86 31 26 32 85 33 27 34
REMARK SMILES IDX 28 35 29 36 79 37 30 38 84 39 78 40 80 41 31 42 83 43 77 44
REMARK SMILES IDX 76 45 32 47 64 48 44 49 63 50 45 51 48 52 62 53 81 54 46 55
REMARK SMILES IDX 47 56 61 58 82 59 49 60 33 61 34 62 42 63 35 64 41 65 43 66
REMARK SMILES IDX 40 67 36 68 37 69 38 70 39 71 65 72 66 73 74 74 67 75 73 76
REMARK SMILES IDX 75 77 72 78 68 79 69 80 70 81 71 82 50 83 51 84 59 85 52 86
REMARK SMILES IDX 58 87 60 88 57 89 53 90 54 91 55 92 56 93
REMARK H PARENT 10 12 10 13 80 46 48 57
REMARK Flexibility Score: inf
ROOT
ATOM      1  C   UNL     1      -6.363  -5.711   0.370  1.00  0.00     0.274 C 
ENDROOT
BRANCH   1   2
ATOM      2  O   UNL     1      -5.822  -5.022   1.509  1.00  0.00    -0.462 OA
BRANCH   2   3
ATOM      3  C   UNL     1      -4.588  -4.470   1.371  1.00  0.00     0.309 C 
ATOM      4  O   UNL     1      -3.851  -4.655   0.411  1.00  0.00    -0.252 OA
BRANCH   3   5
ATOM      5  C   UNL     1      -4.253  -3.515   2.514  1.00  0.00     0.105 C 
ATOM      6  C   UNL     1      -2.362  -3.019   4.255  1.00  0.00     0.183 C 
ATOM      7  C   UNL     1      -3.446  -3.174   5.331  1.00  0.00     0.065 C 
ATOM      8  C   UNL     1      -2.799  -3.740   2.962  1.00  0.00     0.080 C 
ATOM      9  C   UNL     1      -4.836  -2.764   4.862  1.00  0.00     0.007 C 
ATOM     10  C   UNL     1      -5.260  -3.596   3.667  1.00  0.00     0.016 C 
BRANCH   6  11
ATOM     11  N   UNL     1      -1.767  -1.683   4.087  1.00  0.00    -0.338 N 
ATOM     12  H   UNL     1      -1.442  -1.391   5.008  1.00  0.00     0.347 HD
ATOM     13  H   UNL     1      -1.070  -1.837   3.359  1.00  0.00     0.347 HD
BRANCH  11  14
ATOM     14  C   UNL     1      -2.549  -0.583   3.556  1.00  0.00     0.214 C 
ATOM     15  C   UNL     1      -4.372   1.263   6.380  1.00  0.00     0.119 A 
ATOM     16  C   UNL     1      -4.533   2.495   5.740  1.00  0.00     0.047 A 
ATOM     17  C   UNL     1      -3.611   0.245   5.812  1.00  0.00     0.056 A 
ATOM     18  C   UNL     1      -3.933   2.714   4.498  1.00  0.00     0.008 A 
ATOM     19  C   UNL     1      -3.107   0.422   4.537  1.00  0.00     0.016 A 
ATOM     20  C   UNL     1      -3.220   1.675   3.914  1.00  0.00    -0.038 A 
ATOM     21  C   UNL     1      -2.542   1.665   2.577  1.00  0.00     0.042 C 
ATOM     22  C   UNL     1      -1.702   0.378   2.690  1.00  0.00     0.075 C 
BRANCH  15  23
ATOM     23  O   UNL     1      -4.995   1.007   7.574  1.00  0.00    -0.497 OA
ATOM     24  C   UNL     1      -6.343   0.594   7.326  1.00  0.00     0.278 C 
ENDBRANCH  15  23
ENDBRANCH  11  14
ENDBRANCH   6  11
ENDBRANCH   3   5
ENDBRANCH   2   3
ENDBRANCH   1   2
BRANCH   1  25
ATOM     25  C   UNL     1      -7.361  -4.814  -0.367  1.00  0.00     0.275 C 
BRANCH  25  26
ATOM     26  O   UNL     1      -6.698  -3.756  -1.083  1.00  0.00    -0.458 OA
BRANCH  26  27
ATOM     27  C   UNL     1      -6.528  -2.603  -0.392  1.00  0.00     0.338 C 
ATOM     28  O   UNL     1      -6.893  -2.365   0.746  1.00  0.00    -0.246 OA
BRANCH  27  29
ATOM     29  C   UNL     1      -5.726  -1.666  -1.191  1.00  0.00     0.060 A 
ATOM     30  C   UNL     1      -4.451  -1.316  -0.739  1.00  0.00     0.016 A 
ATOM     31  C   UNL     1      -6.261  -1.074  -2.335  1.00  0.00     0.016 A 
ATOM     32  C   UNL     1      -3.711  -0.349  -1.414  1.00  0.00     0.010 A 
ATOM     33  C   UNL     1      -5.506  -0.123  -3.026  1.00  0.00     0.010 A 
ATOM     34  C   UNL     1      -4.232   0.255  -2.564  1.00  0.00    -0.014 A 
BRANCH  34  35
ATOM     35  C   UNL     1      -3.465   1.307  -3.275  1.00  0.00     0.031 A 
ATOM     36  C   UNL     1      -3.962   2.725  -3.259  1.00  0.00     0.074 A 
ATOM     37  C   UNL     1      -2.346   0.984  -3.950  1.00  0.00     0.049 A 
ATOM     38  N   UNL     1      -3.559   3.752  -3.960  1.00  0.00    -0.248 NA
ATOM     39  C   UNL     1      -5.069   3.021  -2.336  1.00  0.00     0.031 C 
ATOM     40  C   UNL     1      -1.735  -0.347  -3.986  1.00  0.00     0.029 A 
ATOM     41  N   UNL     1      -1.530   1.745  -4.750  1.00  0.00    -0.354 N 
ATOM     42  C   UNL     1      -4.388   4.808  -3.596  1.00  0.00     0.074 A 
ATOM     43  C   UNL     1      -5.319   4.293  -2.614  1.00  0.00     0.031 C 
ATOM     44  C   UNL     1      -0.647  -0.309  -4.772  1.00  0.00     0.029 A 
ATOM     45  C   UNL     1      -0.523   1.025  -5.351  1.00  0.00     0.049 A 
ATOM     46  H   UNL     1      -1.654   2.713  -4.880  1.00  0.00     0.167 HD
ATOM     47  C   UNL     1      -4.373   6.085  -4.052  1.00  0.00     0.034 A 
ATOM     48  C   UNL     1       0.364   1.387  -6.300  1.00  0.00     0.034 A 
ATOM     49  C   UNL     1      -3.418   6.581  -5.013  1.00  0.00     0.049 A 
ATOM     50  C   UNL     1       0.316   2.796  -6.837  1.00  0.00     0.074 A 
ATOM     51  C   UNL     1      -3.292   7.863  -5.519  1.00  0.00     0.029 A 
ATOM     52  N   UNL     1      -2.428   5.817  -5.616  1.00  0.00    -0.354 N 
ATOM     53  N   UNL     1      -0.487   3.781  -6.502  1.00  0.00    -0.248 NA
ATOM     54  C   UNL     1       1.288   3.142  -7.882  1.00  0.00     0.031 C 
ATOM     55  C   UNL     1      -2.267   7.860  -6.472  1.00  0.00     0.029 A 
ATOM     56  C   UNL     1      -1.707   6.593  -6.510  1.00  0.00     0.049 A 
ATOM     57  H   UNL     1      -2.261   4.864  -5.435  1.00  0.00     0.167 HD
ATOM     58  C   UNL     1      -0.089   4.871  -7.271  1.00  0.00     0.074 A 
ATOM     59  C   UNL     1       1.025   4.425  -8.081  1.00  0.00     0.031 C 
ATOM     60  C   UNL     1      -0.594   6.130  -7.302  1.00  0.00     0.034 A 
BRANCH  47  61
ATOM     61  C   UNL     1      -5.456   7.014  -3.567  1.00  0.00     0.023 A 
ATOM     62  C   UNL     1      -5.533   7.442  -2.231  1.00  0.00     0.031 A 
ATOM     63  C   UNL     1      -6.434   7.477  -4.467  1.00  0.00     0.131 A 
ATOM     64  C   UNL     1      -6.595   8.265  -1.823  1.00  0.00     0.055 A 
ATOM     65  C   UNL     1      -7.447   8.350  -4.069  1.00  0.00     0.041 A 
ATOM     66  F   UNL     1      -6.421   7.082  -5.750  1.00  0.00    -0.206 F 
ATOM     67  C   UNL     1      -7.538   8.741  -2.737  1.00  0.00     0.022 A 
BRANCH  64  68
ATOM     68  S   UNL     1      -6.788   8.623  -0.055  1.00  0.00     0.124 S 
ATOM     69  O   UNL     1      -6.977   7.285   0.499  1.00  0.00    -0.237 OA
ATOM     70  O   UNL     1      -5.528   9.278   0.275  1.00  0.00    -0.237 OA
ATOM     71  O   UNL     1      -7.969   9.483  -0.006  1.00  0.00    -0.744 OA
ENDBRANCH  64  68
ENDBRANCH  47  61
BRANCH  48  72
ATOM     72  C   UNL     1       1.331   0.397  -6.856  1.00  0.00     0.023 A 
ATOM     73  C   UNL     1       2.716   0.588  -6.725  1.00  0.00     0.031 A 
ATOM     74  C   UNL     1       0.887  -0.719  -7.588  1.00  0.00     0.131 A 
ATOM     75  C   UNL     1       3.606  -0.290  -7.362  1.00  0.00     0.055 A 
ATOM     76  C   UNL     1       1.777  -1.623  -8.169  1.00  0.00     0.041 A 
ATOM     77  F   UNL     1      -0.426  -0.948  -7.750  1.00  0.00    -0.206 F 
ATOM     78  C   UNL     1       3.147  -1.402  -8.071  1.00  0.00     0.022 A 
BRANCH  75  79
ATOM     79  S   UNL     1       5.376   0.108  -7.343  1.00  0.00     0.124 S 
ATOM     80  O   UNL     1       5.384   1.454  -7.906  1.00  0.00    -0.237 OA
ATOM     81  O   UNL     1       5.695   0.003  -5.924  1.00  0.00    -0.237 OA
ATOM     82  O   UNL     1       5.965  -0.926  -8.192  1.00  0.00    -0.744 OA
ENDBRANCH  75  79
ENDBRANCH  48  72
BRANCH  60  83
ATOM     83  C   UNL     1       0.106   7.125  -8.192  1.00  0.00     0.023 A 
ATOM     84  C   UNL     1       0.043   7.042  -9.593  1.00  0.00     0.031 A 
ATOM     85  C   UNL     1       0.854   8.170  -7.620  1.00  0.00     0.131 A 
ATOM     86  C   UNL     1       0.754   7.962 -10.377  1.00  0.00     0.055 A 
ATOM     87  C   UNL     1       1.516   9.113  -8.405  1.00  0.00     0.041 A 
ATOM     88  F   UNL     1       0.946   8.292  -6.286  1.00  0.00    -0.206 F 
ATOM     89  C   UNL     1       1.477   9.005  -9.793  1.00  0.00     0.022 A 
BRANCH  86  90
ATOM     90  S   UNL     1       0.778   7.739 -12.177  1.00  0.00     0.124 S 
ATOM     91  O   UNL     1       1.397   6.425 -12.313  1.00  0.00    -0.237 OA
ATOM     92  O   UNL     1      -0.638   7.815 -12.521  1.00  0.00    -0.237 OA
ATOM     93  O   UNL     1       1.590   8.859 -12.651  1.00  0.00    -0.744 OA
ENDBRANCH  86  90
ENDBRANCH  60  83
ENDBRANCH  34  35
ENDBRANCH  27  29
ENDBRANCH  26  27
ENDBRANCH  25  26
ENDBRANCH   1  25
TORSDOF 17
