REMARK SMILES CC[C@@H]([NH3+])C(=O)N1CC[C@H](C(=O)OCCOC(=O)c2ccc(-c3c4nc(c(-c5cc(S(=O)(=O)[O-])ccc5F)c5ccc([nH]5)c(-c5cc(S(=O)(=O)[O-])ccc5F)c5nc(c(-c6cc(S(=O)(=O)[O-])ccc6F)c6ccc3[nH]6)C=C5)C=C4)cc2)[C@@H]1C
REMARK SMILES IDX 14 1 13 2 11 3 12 4 10 5 7 6 8 7 82 8 9 9 83 10 5 11 6 12
REMARK SMILES IDX 3 13 2 14 1 15 4 16 15 20 16 21 17 22 18 23 19 24 20 25
REMARK SMILES IDX 81 26 21 27 80 28 22 29 23 30 24 31 74 32 25 33 79 34 73 35
REMARK SMILES IDX 75 36 26 37 78 38 72 39 71 40 27 42 59 43 39 44 58 45 40 46
REMARK SMILES IDX 43 47 57 48 76 49 41 50 42 51 56 53 77 54 44 55 28 56 29 57
REMARK SMILES IDX 37 58 30 59 36 60 38 61 35 62 31 63 32 64 33 65 34 66 60 67
REMARK SMILES IDX 61 68 69 69 62 70 68 71 70 72 67 73 63 74 64 75 65 76 66 77
REMARK SMILES IDX 45 78 46 79 54 80 47 81 53 82 55 83 52 84 48 85 49 86 50 87
REMARK SMILES IDX 51 88
REMARK H PARENT 4 17 4 18 4 19 75 41 43 52
REMARK Flexibility Score: inf
ROOT
ATOM      1  C   UNL     1      -5.878  -5.085   1.716  1.00  0.00     0.274 C 
ENDROOT
BRANCH   1   2
ATOM      2  O   UNL     1      -5.231  -3.824   2.005  1.00  0.00    -0.462 OA
BRANCH   2   3
ATOM      3  C   UNL     1      -4.143  -3.915   2.825  1.00  0.00     0.311 C 
ATOM      4  O   UNL     1      -3.726  -4.969   3.287  1.00  0.00    -0.252 OA
BRANCH   3   5
ATOM      5  C   UNL     1      -3.570  -2.537   3.155  1.00  0.00     0.123 C 
ATOM      6  N   UNL     1      -1.181  -2.573   3.031  1.00  0.00    -0.334 N 
ATOM      7  C   UNL     1      -1.577  -3.184   4.291  1.00  0.00     0.121 C 
ATOM      8  C   UNL     1      -2.359  -2.054   2.314  1.00  0.00     0.096 C 
ATOM      9  C   UNL     1      -2.966  -2.617   4.560  1.00  0.00     0.039 C 
ATOM     10  C   UNL     1      -2.462  -2.435   0.840  1.00  0.00     0.032 C 
BRANCH   6  11
ATOM     11  C   UNL     1       0.171  -2.332   2.872  1.00  0.00     0.280 C 
ATOM     12  O   UNL     1       0.986  -3.056   3.461  1.00  0.00    -0.268 OA
BRANCH  11  13
ATOM     13  C   UNL     1       0.705  -1.069   2.147  1.00  0.00     0.270 C 
BRANCH  13  14
ATOM     14  C   UNL     1       0.464  -0.976   0.644  1.00  0.00     0.072 C 
ATOM     15  C   UNL     1       1.396   0.010  -0.052  1.00  0.00     0.011 C 
ENDBRANCH  13  14
BRANCH  13  16
ATOM     16  N   UNL     1       0.242   0.141   2.869  1.00  0.00    -0.347 N 
ATOM     17  H   UNL     1      -0.775   0.199   2.818  1.00  0.00     0.345 HD
ATOM     18  H   UNL     1       0.652   0.971   2.441  1.00  0.00     0.345 HD
ATOM     19  H   UNL     1       0.531   0.086   3.846  1.00  0.00     0.345 HD
ENDBRANCH  13  16
ENDBRANCH  11  13
ENDBRANCH   6  11
ENDBRANCH   3   5
ENDBRANCH   2   3
ENDBRANCH   1   2
BRANCH   1  20
ATOM     20  C   UNL     1      -5.399  -5.658   0.384  1.00  0.00     0.275 C 
BRANCH  20  21
ATOM     21  O   UNL     1      -3.981  -5.867   0.435  1.00  0.00    -0.458 OA
BRANCH  21  22
ATOM     22  C   UNL     1      -3.365  -5.926  -0.768  1.00  0.00     0.338 C 
ATOM     23  O   UNL     1      -3.930  -5.942  -1.856  1.00  0.00    -0.246 OA
BRANCH  22  24
ATOM     24  C   UNL     1      -1.888  -5.915  -0.604  1.00  0.00     0.060 A 
ATOM     25  C   UNL     1      -1.274  -5.548   0.599  1.00  0.00     0.016 A 
ATOM     26  C   UNL     1      -1.092  -6.204  -1.715  1.00  0.00     0.016 A 
ATOM     27  C   UNL     1       0.114  -5.389   0.667  1.00  0.00     0.010 A 
ATOM     28  C   UNL     1       0.301  -6.129  -1.617  1.00  0.00     0.010 A 
ATOM     29  C   UNL     1       0.924  -5.694  -0.433  1.00  0.00    -0.014 A 
BRANCH  29  30
ATOM     30  C   UNL     1       2.409  -5.551  -0.394  1.00  0.00     0.031 A 
ATOM     31  C   UNL     1       3.103  -4.711  -1.435  1.00  0.00     0.074 A 
ATOM     32  C   UNL     1       3.151  -6.210   0.519  1.00  0.00     0.049 A 
ATOM     33  N   UNL     1       4.353  -4.721  -1.818  1.00  0.00    -0.248 NA
ATOM     34  C   UNL     1       2.260  -3.745  -2.157  1.00  0.00     0.031 C 
ATOM     35  C   UNL     1       2.629  -6.994   1.639  1.00  0.00     0.029 A 
ATOM     36  N   UNL     1       4.516  -6.341   0.633  1.00  0.00    -0.354 N 
ATOM     37  C   UNL     1       4.435  -3.819  -2.875  1.00  0.00     0.074 A 
ATOM     38  C   UNL     1       3.105  -3.276  -3.064  1.00  0.00     0.031 C 
ATOM     39  C   UNL     1       3.655  -7.516   2.328  1.00  0.00     0.029 A 
ATOM     40  C   UNL     1       4.900  -7.196   1.641  1.00  0.00     0.049 A 
ATOM     41  H   UNL     1       5.155  -5.870   0.050  1.00  0.00     0.167 HD
ATOM     42  C   UNL     1       5.519  -3.493  -3.624  1.00  0.00     0.034 A 
ATOM     43  C   UNL     1       6.103  -7.726   1.940  1.00  0.00     0.034 A 
ATOM     44  C   UNL     1       6.846  -4.011  -3.385  1.00  0.00     0.049 A 
ATOM     45  C   UNL     1       7.286  -7.392   1.070  1.00  0.00     0.074 A 
ATOM     46  C   UNL     1       8.016  -3.748  -4.078  1.00  0.00     0.029 A 
ATOM     47  N   UNL     1       7.183  -4.888  -2.361  1.00  0.00    -0.354 N 
ATOM     48  N   UNL     1       7.336  -6.630   0.002  1.00  0.00    -0.248 NA
ATOM     49  C   UNL     1       8.570  -8.004   1.435  1.00  0.00     0.031 C 
ATOM     50  C   UNL     1       9.047  -4.502  -3.505  1.00  0.00     0.029 A 
ATOM     51  C   UNL     1       8.537  -5.184  -2.413  1.00  0.00     0.049 A 
ATOM     52  H   UNL     1       6.552  -5.247  -1.696  1.00  0.00     0.167 HD
ATOM     53  C   UNL     1       8.662  -6.656  -0.419  1.00  0.00     0.074 A 
ATOM     54  C   UNL     1       9.379  -7.502   0.513  1.00  0.00     0.031 C 
ATOM     55  C   UNL     1       9.236  -6.033  -1.479  1.00  0.00     0.034 A 
BRANCH  42  56
ATOM     56  C   UNL     1       5.299  -2.588  -4.813  1.00  0.00     0.023 A 
ATOM     57  C   UNL     1       4.894  -1.250  -4.674  1.00  0.00     0.031 A 
ATOM     58  C   UNL     1       5.480  -3.088  -6.117  1.00  0.00     0.131 A 
ATOM     59  C   UNL     1       4.619  -0.480  -5.816  1.00  0.00     0.055 A 
ATOM     60  C   UNL     1       5.279  -2.295  -7.247  1.00  0.00     0.041 A 
ATOM     61  F   UNL     1       5.846  -4.365  -6.314  1.00  0.00    -0.206 F 
ATOM     62  C   UNL     1       4.832  -0.986  -7.101  1.00  0.00     0.022 A 
BRANCH  59  63
ATOM     63  S   UNL     1       3.846   1.147  -5.600  1.00  0.00     0.124 S 
ATOM     64  O   UNL     1       2.628   0.802  -4.871  1.00  0.00    -0.237 OA
ATOM     65  O   UNL     1       4.856   1.877  -4.843  1.00  0.00    -0.237 OA
ATOM     66  O   UNL     1       3.634   1.611  -6.969  1.00  0.00    -0.744 OA
ENDBRANCH  59  63
ENDBRANCH  42  56
BRANCH  43  67
ATOM     67  C   UNL     1       6.231  -8.702   3.059  1.00  0.00     0.023 A 
ATOM     68  C   UNL     1       6.993  -8.403   4.199  1.00  0.00     0.031 A 
ATOM     69  C   UNL     1       5.605  -9.961   2.994  1.00  0.00     0.131 A 
ATOM     70  C   UNL     1       7.131  -9.362   5.216  1.00  0.00     0.055 A 
ATOM     71  C   UNL     1       5.701 -10.888   4.031  1.00  0.00     0.041 A 
ATOM     72  F   UNL     1       4.869 -10.299   1.923  1.00  0.00    -0.206 F 
ATOM     73  C   UNL     1       6.477 -10.594   5.148  1.00  0.00     0.022 A 
BRANCH  70  74
ATOM     74  S   UNL     1       8.242  -9.003   6.605  1.00  0.00     0.124 S 
ATOM     75  O   UNL     1       9.515  -8.798   5.922  1.00  0.00    -0.237 OA
ATOM     76  O   UNL     1       7.628  -7.816   7.189  1.00  0.00    -0.237 OA
ATOM     77  O   UNL     1       8.163 -10.210   7.425  1.00  0.00    -0.744 OA
ENDBRANCH  70  74
ENDBRANCH  43  67
BRANCH  55  78
ATOM     78  C   UNL     1      10.725  -6.196  -1.642  1.00  0.00     0.023 A 
ATOM     79  C   UNL     1      11.298  -7.413  -2.050  1.00  0.00     0.031 A 
ATOM     80  C   UNL     1      11.580  -5.113  -1.372  1.00  0.00     0.131 A 
ATOM     81  C   UNL     1      12.694  -7.529  -2.135  1.00  0.00     0.055 A 
ATOM     82  C   UNL     1      12.964  -5.222  -1.503  1.00  0.00     0.041 A 
ATOM     83  F   UNL     1      11.080  -3.931  -0.979  1.00  0.00    -0.206 F 
ATOM     84  C   UNL     1      13.529  -6.438  -1.877  1.00  0.00     0.022 A 
BRANCH  81  85
ATOM     85  S   UNL     1      13.415  -9.147  -2.529  1.00  0.00     0.124 S 
ATOM     86  O   UNL     1      12.945  -9.967  -1.417  1.00  0.00    -0.237 OA
ATOM     87  O   UNL     1      12.829  -9.443  -3.832  1.00  0.00    -0.237 OA
ATOM     88  O   UNL     1      14.854  -8.888  -2.543  1.00  0.00    -0.744 OA
ENDBRANCH  81  85
ENDBRANCH  55  78
ENDBRANCH  29  30
ENDBRANCH  22  24
ENDBRANCH  21  22
ENDBRANCH  20  21
ENDBRANCH   1  20
TORSDOF 18
