REMARK SMILES COc1cc(Br)c(OC)c(C(=O)N2CCC[C@@H]2C(=O)OCCOC(=O)c2ccc(-c3c4nc(c(-c5cc(S(=O)(=O)[O-])ccc5F)c5ccc([nH]5)c(-c5cc(S(=O)(=O)[O-])ccc5F)c5nc(c(-c6cc(S(=O)(=O)[O-])ccc6F)c6ccc3[nH]6)C=C5)C=C4)cc2)c1
REMARK SMILES IDX 21 1 20 2 18 3 19 4 17 5 13 6 14 7 15 8 16 9 11 10 12 11
REMARK SMILES IDX 10 12 3 13 4 14 89 15 5 16 6 17 7 18 2 19 1 20 8 21 9 22
REMARK SMILES IDX 22 23 23 24 24 25 25 26 26 27 27 28 88 29 28 30 87 31 29 32
REMARK SMILES IDX 30 33 31 34 81 35 32 36 86 37 80 38 82 39 33 40 85 41 79 42
REMARK SMILES IDX 78 43 34 45 66 46 46 47 65 48 47 49 50 50 64 51 83 52 48 53
REMARK SMILES IDX 49 54 63 56 84 57 51 58 35 59 36 60 44 61 37 62 43 63 45 64
REMARK SMILES IDX 42 65 38 66 39 67 40 68 41 69 67 70 68 71 76 72 69 73 75 74
REMARK SMILES IDX 77 75 74 76 70 77 71 78 72 79 73 80 52 81 53 82 61 83 54 84
REMARK SMILES IDX 60 85 62 86 59 87 55 88 56 89 57 90 58 91
REMARK H PARENT 82 44 50 55
REMARK Flexibility Score: inf
ROOT
ATOM      1  C   UNL     1      -1.347  -0.474  -7.082  1.00  0.00     0.274 C 
ENDROOT
BRANCH   1   2
ATOM      2  O   UNL     1      -2.065   0.339  -6.135  1.00  0.00    -0.461 OA
BRANCH   2   3
ATOM      3  C   UNL     1      -1.737   1.661  -6.137  1.00  0.00     0.328 C 
ATOM      4  O   UNL     1      -0.812   2.129  -6.793  1.00  0.00    -0.250 OA
BRANCH   3   5
ATOM      5  C   UNL     1      -2.570   2.496  -5.155  1.00  0.00     0.195 C 
ATOM      6  N   UNL     1      -1.848   2.703  -3.906  1.00  0.00    -0.325 N 
ATOM      7  C   UNL     1      -2.807   2.835  -2.830  1.00  0.00     0.121 C 
ATOM      8  C   UNL     1      -3.876   1.831  -3.212  1.00  0.00     0.024 C 
ATOM      9  C   UNL     1      -3.939   1.936  -4.737  1.00  0.00     0.039 C 
BRANCH   6  10
ATOM     10  C   UNL     1      -0.669   3.439  -3.907  1.00  0.00     0.258 C 
ATOM     11  O   UNL     1      -0.577   4.498  -4.511  1.00  0.00    -0.269 OA
BRANCH  10  12
ATOM     12  C   UNL     1       0.498   2.751  -3.240  1.00  0.00     0.086 A 
ATOM     13  C   UNL     1       1.293   0.822  -1.992  1.00  0.00     0.121 A 
ATOM     14  C   UNL     1       2.588   1.308  -2.036  1.00  0.00     0.066 A 
ATOM     15  C   UNL     1       0.268   1.503  -2.626  1.00  0.00     0.064 A 
ATOM     16  C   UNL     1       2.848   2.542  -2.647  1.00  0.00     0.064 A 
ATOM     17  Br  UNL     1       4.646   3.147  -2.486  1.00  0.00    -0.047 Br
ATOM     18  C   UNL     1       1.810   3.283  -3.251  1.00  0.00     0.146 A 
BRANCH  13  19
ATOM     19  O   UNL     1       0.984  -0.338  -1.338  1.00  0.00    -0.497 OA
ATOM     20  C   UNL     1       1.076  -0.144   0.076  1.00  0.00     0.278 C 
ENDBRANCH  13  19
BRANCH  18  21
ATOM     21  O   UNL     1       1.985   4.563  -3.707  1.00  0.00    -0.495 OA
ATOM     22  C   UNL     1       2.955   4.744  -4.736  1.00  0.00     0.278 C 
ENDBRANCH  18  21
ENDBRANCH  10  12
ENDBRANCH   6  10
ENDBRANCH   3   5
ENDBRANCH   2   3
ENDBRANCH   1   2
BRANCH   1  23
ATOM     23  C   UNL     1      -2.197  -0.769  -8.321  1.00  0.00     0.275 C 
BRANCH  23  24
ATOM     24  O   UNL     1      -2.543   0.426  -9.045  1.00  0.00    -0.458 OA
BRANCH  24  25
ATOM     25  C   UNL     1      -3.718   0.996  -8.682  1.00  0.00     0.338 C 
ATOM     26  O   UNL     1      -4.495   0.602  -7.831  1.00  0.00    -0.246 OA
BRANCH  25  27
ATOM     27  C   UNL     1      -3.882   2.279  -9.381  1.00  0.00     0.060 A 
ATOM     28  C   UNL     1      -3.780   3.454  -8.634  1.00  0.00     0.016 A 
ATOM     29  C   UNL     1      -4.213   2.327 -10.735  1.00  0.00     0.016 A 
ATOM     30  C   UNL     1      -3.996   4.689  -9.234  1.00  0.00     0.010 A 
ATOM     31  C   UNL     1      -4.423   3.571 -11.341  1.00  0.00     0.010 A 
ATOM     32  C   UNL     1      -4.313   4.758 -10.595  1.00  0.00    -0.014 A 
BRANCH  32  33
ATOM     33  C   UNL     1      -4.533   6.077 -11.234  1.00  0.00     0.031 A 
ATOM     34  C   UNL     1      -5.916   6.496 -11.635  1.00  0.00     0.074 A 
ATOM     35  C   UNL     1      -3.483   6.894 -11.445  1.00  0.00     0.049 A 
ATOM     36  N   UNL     1      -6.298   7.536 -12.329  1.00  0.00    -0.248 NA
ATOM     37  C   UNL     1      -7.016   5.625 -11.195  1.00  0.00     0.031 C 
ATOM     38  C   UNL     1      -2.106   6.618 -11.030  1.00  0.00     0.029 A 
ATOM     39  N   UNL     1      -3.406   8.114 -12.066  1.00  0.00    -0.354 N 
ATOM     40  C   UNL     1      -7.681   7.439 -12.429  1.00  0.00     0.074 A 
ATOM     41  C   UNL     1      -8.066   6.225 -11.737  1.00  0.00     0.031 C 
ATOM     42  C   UNL     1      -1.321   7.636 -11.416  1.00  0.00     0.029 A 
ATOM     43  C   UNL     1      -2.123   8.599 -12.163  1.00  0.00     0.049 A 
ATOM     44  H   UNL     1      -4.194   8.596 -12.409  1.00  0.00     0.167 HD
ATOM     45  C   UNL     1      -8.543   8.287 -13.044  1.00  0.00     0.034 A 
ATOM     46  C   UNL     1      -1.641   9.669 -12.824  1.00  0.00     0.034 A 
ATOM     47  C   UNL     1      -8.130   9.489 -13.728  1.00  0.00     0.049 A 
ATOM     48  C   UNL     1      -2.603  10.533 -13.598  1.00  0.00     0.074 A 
ATOM     49  C   UNL     1      -8.915  10.431 -14.371  1.00  0.00     0.029 A 
ATOM     50  N   UNL     1      -6.813   9.911 -13.871  1.00  0.00    -0.354 N 
ATOM     51  N   UNL     1      -3.907  10.417 -13.713  1.00  0.00    -0.248 NA
ATOM     52  C   UNL     1      -2.029  11.661 -14.341  1.00  0.00     0.031 C 
ATOM     53  C   UNL     1      -8.070  11.380 -14.959  1.00  0.00     0.029 A 
ATOM     54  C   UNL     1      -6.761  11.072 -14.627  1.00  0.00     0.049 A 
ATOM     55  H   UNL     1      -6.030   9.450 -13.490  1.00  0.00     0.167 HD
ATOM     56  C   UNL     1      -4.309  11.465 -14.535  1.00  0.00     0.074 A 
ATOM     57  C   UNL     1      -3.112  12.213 -14.868  1.00  0.00     0.031 C 
ATOM     58  C   UNL     1      -5.553  11.784 -14.974  1.00  0.00     0.034 A 
BRANCH  45  59
ATOM     59  C   UNL     1     -10.002   7.902 -13.059  1.00  0.00     0.023 A 
ATOM     60  C   UNL     1     -10.769   7.839 -11.883  1.00  0.00     0.031 A 
ATOM     61  C   UNL     1     -10.628   7.565 -14.273  1.00  0.00     0.131 A 
ATOM     62  C   UNL     1     -12.097   7.385 -11.937  1.00  0.00     0.055 A 
ATOM     63  C   UNL     1     -11.970   7.183 -14.329  1.00  0.00     0.041 A 
ATOM     64  F   UNL     1      -9.940   7.585 -15.425  1.00  0.00    -0.206 F 
ATOM     65  C   UNL     1     -12.709   7.078 -13.155  1.00  0.00     0.022 A 
BRANCH  62  66
ATOM     66  S   UNL     1     -12.975   7.074 -10.380  1.00  0.00     0.124 S 
ATOM     67  O   UNL     1     -12.104   6.092  -9.739  1.00  0.00    -0.237 OA
ATOM     68  O   UNL     1     -13.008   8.396  -9.767  1.00  0.00    -0.237 OA
ATOM     69  O   UNL     1     -14.271   6.555 -10.815  1.00  0.00    -0.744 OA
ENDBRANCH  62  66
ENDBRANCH  45  59
BRANCH  46  70
ATOM     70  C   UNL     1      -0.175   9.936 -12.858  1.00  0.00     0.023 A 
ATOM     71  C   UNL     1       0.367  11.102 -12.297  1.00  0.00     0.031 A 
ATOM     72  C   UNL     1       0.704   9.037 -13.492  1.00  0.00     0.131 A 
ATOM     73  C   UNL     1       1.744  11.355 -12.409  1.00  0.00     0.055 A 
ATOM     74  C   UNL     1       2.078   9.268 -13.554  1.00  0.00     0.041 A 
ATOM     75  F   UNL     1       0.236   7.910 -14.051  1.00  0.00    -0.206 F 
ATOM     76  C   UNL     1       2.604  10.439 -13.019  1.00  0.00     0.022 A 
BRANCH  73  77
ATOM     77  S   UNL     1       2.387  12.943 -11.813  1.00  0.00     0.124 S 
ATOM     78  O   UNL     1       1.613  13.893 -12.604  1.00  0.00    -0.237 OA
ATOM     79  O   UNL     1       2.071  12.884 -10.390  1.00  0.00    -0.237 OA
ATOM     80  O   UNL     1       3.811  12.876 -12.136  1.00  0.00    -0.744 OA
ENDBRANCH  73  77
ENDBRANCH  46  70
BRANCH  58  81
ATOM     81  C   UNL     1      -5.668  13.007 -15.848  1.00  0.00     0.023 A 
ATOM     82  C   UNL     1      -5.151  13.026 -17.155  1.00  0.00     0.031 A 
ATOM     83  C   UNL     1      -6.285  14.172 -15.361  1.00  0.00     0.131 A 
ATOM     84  C   UNL     1      -5.217  14.204 -17.914  1.00  0.00     0.055 A 
ATOM     85  C   UNL     1      -6.396  15.324 -16.140  1.00  0.00     0.041 A 
ATOM     86  F   UNL     1      -6.792  14.208 -14.118  1.00  0.00    -0.206 F 
ATOM     87  C   UNL     1      -5.850  15.348 -17.421  1.00  0.00     0.022 A 
BRANCH  84  88
ATOM     88  S   UNL     1      -4.399  14.246 -19.532  1.00  0.00     0.124 S 
ATOM     89  O   UNL     1      -3.005  14.007 -19.173  1.00  0.00    -0.237 OA
ATOM     90  O   UNL     1      -5.067  13.165 -20.251  1.00  0.00    -0.237 OA
ATOM     91  O   UNL     1      -4.689  15.590 -20.029  1.00  0.00    -0.744 OA
ENDBRANCH  84  88
ENDBRANCH  58  81
ENDBRANCH  32  33
ENDBRANCH  25  27
ENDBRANCH  24  25
ENDBRANCH  23  24
ENDBRANCH   1  23
TORSDOF 18
