REMARK SMILES O=C(C[C@@H](C(=O)N(c1ccccc1)c1ccccc1)[NH+]1CCOCC1)OCCOC(=O)c1ccc(-c2c3nc(c(-c4cc(S(=O)(=O)[O-])ccc4F)c4ccc([nH]4)c(-c4cc(S(=O)(=O)[O-])ccc4F)c4nc(c(-c5cc(S(=O)(=O)[O-])ccc5F)c5ccc2[nH]5)C=C4)C=C3)cc1
REMARK SMILES IDX 27 1 26 2 2 3 1 4 3 5 4 6 5 7 6 8 7 9 8 10 9 11 13 12 10 13
REMARK SMILES IDX 12 14 11 15 14 16 15 17 19 18 16 19 18 20 17 21 20 22 21 23
REMARK SMILES IDX 25 24 22 26 24 27 23 28 28 29 29 30 30 31 31 32 32 33 33 34
REMARK SMILES IDX 94 35 34 36 93 37 35 38 36 39 37 40 87 41 38 42 92 43 86 44
REMARK SMILES IDX 88 45 39 46 91 47 85 48 84 49 40 51 72 52 52 53 71 54 53 55
REMARK SMILES IDX 56 56 70 57 89 58 54 59 55 60 69 62 90 63 57 64 41 65 42 66
REMARK SMILES IDX 50 67 43 68 49 69 51 70 48 71 44 72 45 73 46 74 47 75 73 76
REMARK SMILES IDX 74 77 82 78 75 79 81 80 83 81 80 82 76 83 77 84 78 85 79 86
REMARK SMILES IDX 58 87 59 88 67 89 60 90 66 91 68 92 65 93 61 94 62 95 63 96
REMARK SMILES IDX 64 97
REMARK H PARENT 20 25 88 50 56 61
REMARK Flexibility Score: inf
ROOT
ATOM      1  C   UNL     1       4.503   1.528  -0.999  1.00  0.00     0.274 C 
ENDROOT
BRANCH   1   2
ATOM      2  O   UNL     1       3.162   0.997  -1.085  1.00  0.00    -0.462 OA
BRANCH   2   3
ATOM      3  C   UNL     1       2.496   0.395  -0.074  1.00  0.00     0.312 C 
ATOM      4  O   UNL     1       1.270   0.321  -0.100  1.00  0.00    -0.252 OA
BRANCH   3   5
ATOM      5  C   UNL     1       3.264  -0.127   1.113  1.00  0.00     0.198 C 
BRANCH   5   6
ATOM      6  C   UNL     1       4.040  -1.452   1.064  1.00  0.00     0.286 C 
BRANCH   6   7
ATOM      7  C   UNL     1       4.805  -1.662  -0.256  1.00  0.00     0.290 C 
ATOM      8  O   UNL     1       5.985  -1.268  -0.268  1.00  0.00    -0.267 OA
ATOM      9  N   UNL     1       4.248  -2.191  -1.443  1.00  0.00    -0.276 N 
BRANCH   9  10
ATOM     10  C   UNL     1       2.874  -2.528  -1.817  1.00  0.00     0.049 A 
ATOM     11  C   UNL     1       2.577  -2.987  -3.125  1.00  0.00     0.027 A 
ATOM     12  C   UNL     1       1.757  -2.371  -0.999  1.00  0.00     0.027 A 
ATOM     13  C   UNL     1       1.277  -3.005  -3.651  1.00  0.00     0.002 A 
ATOM     14  C   UNL     1       0.447  -2.370  -1.518  1.00  0.00     0.002 A 
ATOM     15  C   UNL     1       0.210  -2.635  -2.856  1.00  0.00     0.000 A 
ENDBRANCH   9  10
BRANCH   9  16
ATOM     16  C   UNL     1       5.189  -2.177  -2.548  1.00  0.00     0.049 A 
ATOM     17  C   UNL     1       5.003  -1.301  -3.631  1.00  0.00     0.027 A 
ATOM     18  C   UNL     1       6.374  -2.926  -2.477  1.00  0.00     0.027 A 
ATOM     19  C   UNL     1       5.965  -1.205  -4.638  1.00  0.00     0.002 A 
ATOM     20  C   UNL     1       7.343  -2.812  -3.476  1.00  0.00     0.002 A 
ATOM     21  C   UNL     1       7.136  -1.956  -4.557  1.00  0.00     0.000 A 
ENDBRANCH   9  16
ENDBRANCH   6   7
BRANCH   6  22
ATOM     22  N   UNL     1       4.904  -1.556   2.305  1.00  0.00    -0.320 N 
ATOM     23  C   UNL     1       5.665  -0.405   2.828  1.00  0.00     0.291 C 
ATOM     24  C   UNL     1       5.709  -2.777   2.468  1.00  0.00     0.291 C 
ATOM     25  H   UNL     1       4.076  -1.589   2.901  1.00  0.00     0.348 HD
ATOM     26  C   UNL     1       7.118  -0.305   2.349  1.00  0.00     0.221 C 
ATOM     27  C   UNL     1       7.210  -2.650   2.112  1.00  0.00     0.221 C 
ATOM     28  O   UNL     1       7.835  -1.495   2.685  1.00  0.00    -0.370 OA
ENDBRANCH   6  22
ENDBRANCH   5   6
ENDBRANCH   3   5
ENDBRANCH   2   3
ENDBRANCH   1   2
BRANCH   1  29
ATOM     29  C   UNL     1       4.534   2.971  -0.493  1.00  0.00     0.275 C 
BRANCH  29  30
ATOM     30  O   UNL     1       4.159   3.014   0.896  1.00  0.00    -0.458 OA
BRANCH  30  31
ATOM     31  C   UNL     1       2.859   3.338   1.135  1.00  0.00     0.338 C 
ATOM     32  O   UNL     1       2.062   3.750   0.322  1.00  0.00    -0.246 OA
BRANCH  31  33
ATOM     33  C   UNL     1       2.502   2.893   2.506  1.00  0.00     0.060 A 
ATOM     34  C   UNL     1       1.242   2.308   2.693  1.00  0.00     0.016 A 
ATOM     35  C   UNL     1       3.388   3.011   3.582  1.00  0.00     0.016 A 
ATOM     36  C   UNL     1       0.847   1.882   3.961  1.00  0.00     0.010 A 
ATOM     37  C   UNL     1       2.986   2.602   4.857  1.00  0.00     0.010 A 
ATOM     38  C   UNL     1       1.697   2.075   5.057  1.00  0.00    -0.014 A 
BRANCH  38  39
ATOM     39  C   UNL     1       1.138   2.005   6.430  1.00  0.00     0.031 A 
ATOM     40  C   UNL     1       0.585   3.280   7.011  1.00  0.00     0.074 A 
ATOM     41  C   UNL     1       1.096   0.857   7.129  1.00  0.00     0.049 A 
ATOM     42  N   UNL     1       0.083   3.511   8.194  1.00  0.00    -0.248 NA
ATOM     43  C   UNL     1       0.612   4.457   6.126  1.00  0.00     0.031 C 
ATOM     44  C   UNL     1       1.549  -0.446   6.646  1.00  0.00     0.029 A 
ATOM     45  N   UNL     1       0.650   0.608   8.403  1.00  0.00    -0.354 N 
ATOM     46  C   UNL     1      -0.273   4.857   8.194  1.00  0.00     0.074 A 
ATOM     47  C   UNL     1       0.112   5.397   6.909  1.00  0.00     0.031 C 
ATOM     48  C   UNL     1       1.368  -1.357   7.620  1.00  0.00     0.029 A 
ATOM     49  C   UNL     1       0.820  -0.698   8.805  1.00  0.00     0.049 A 
ATOM     50  H   UNL     1       0.247   1.298   8.977  1.00  0.00     0.167 HD
ATOM     51  C   UNL     1      -0.874   5.576   9.173  1.00  0.00     0.034 A 
ATOM     52  C   UNL     1       0.581  -1.278  10.000  1.00  0.00     0.034 A 
ATOM     53  C   UNL     1      -1.212   5.030  10.462  1.00  0.00     0.049 A 
ATOM     54  C   UNL     1       0.013  -0.430  11.118  1.00  0.00     0.074 A 
ATOM     55  C   UNL     1      -1.795   5.665  11.544  1.00  0.00     0.029 A 
ATOM     56  N   UNL     1      -0.980   3.716  10.850  1.00  0.00    -0.354 N 
ATOM     57  N   UNL     1      -0.319   0.842  11.108  1.00  0.00    -0.248 NA
ATOM     58  C   UNL     1      -0.217  -1.098  12.406  1.00  0.00     0.031 C 
ATOM     59  C   UNL     1      -1.849   4.756  12.606  1.00  0.00     0.029 A 
ATOM     60  C   UNL     1      -1.377   3.529  12.163  1.00  0.00     0.049 A 
ATOM     61  H   UNL     1      -0.590   3.019  10.274  1.00  0.00     0.167 HD
ATOM     62  C   UNL     1      -0.828   1.114  12.377  1.00  0.00     0.074 A 
ATOM     63  C   UNL     1      -0.770  -0.128  13.120  1.00  0.00     0.031 C 
ATOM     64  C   UNL     1      -1.305   2.280  12.885  1.00  0.00     0.034 A 
BRANCH  51  65
ATOM     65  C   UNL     1      -1.125   7.037   8.892  1.00  0.00     0.023 A 
ATOM     66  C   UNL     1      -1.997   7.453   7.869  1.00  0.00     0.031 A 
ATOM     67  C   UNL     1      -0.432   8.027   9.609  1.00  0.00     0.131 A 
ATOM     68  C   UNL     1      -2.090   8.814   7.540  1.00  0.00     0.055 A 
ATOM     69  C   UNL     1      -0.592   9.386   9.331  1.00  0.00     0.041 A 
ATOM     70  F   UNL     1       0.436   7.689  10.576  1.00  0.00    -0.206 F 
ATOM     71  C   UNL     1      -1.413   9.785   8.280  1.00  0.00     0.022 A 
BRANCH  68  72
ATOM     72  S   UNL     1      -2.984   9.284   6.032  1.00  0.00     0.124 S 
ATOM     73  O   UNL     1      -2.237   8.557   5.009  1.00  0.00    -0.237 OA
ATOM     74  O   UNL     1      -4.334   8.803   6.302  1.00  0.00    -0.237 OA
ATOM     75  O   UNL     1      -2.837  10.737   5.986  1.00  0.00    -0.744 OA
ENDBRANCH  68  72
ENDBRANCH  51  65
BRANCH  52  76
ATOM     76  C   UNL     1       0.915  -2.715  10.235  1.00  0.00     0.023 A 
ATOM     77  C   UNL     1      -0.076  -3.651  10.573  1.00  0.00     0.031 A 
ATOM     78  C   UNL     1       2.250  -3.159  10.198  1.00  0.00     0.131 A 
ATOM     79  C   UNL     1       0.286  -4.968  10.907  1.00  0.00     0.055 A 
ATOM     80  C   UNL     1       2.599  -4.482  10.477  1.00  0.00     0.041 A 
ATOM     81  F   UNL     1       3.241  -2.307   9.889  1.00  0.00    -0.206 F 
ATOM     82  C   UNL     1       1.615  -5.392  10.849  1.00  0.00     0.022 A 
BRANCH  79  83
ATOM     83  S   UNL     1      -0.998  -6.099  11.514  1.00  0.00     0.124 S 
ATOM     84  O   UNL     1      -1.504  -5.378  12.676  1.00  0.00    -0.237 OA
ATOM     85  O   UNL     1      -1.896  -6.180  10.367  1.00  0.00    -0.237 OA
ATOM     86  O   UNL     1      -0.259  -7.324  11.812  1.00  0.00    -0.744 OA
ENDBRANCH  79  83
ENDBRANCH  52  76
BRANCH  64  87
ATOM     87  C   UNL     1      -1.848   2.248  14.293  1.00  0.00     0.023 A 
ATOM     88  C   UNL     1      -1.018   2.026  15.406  1.00  0.00     0.031 A 
ATOM     89  C   UNL     1      -3.222   2.449  14.522  1.00  0.00     0.131 A 
ATOM     90  C   UNL     1      -1.577   1.957  16.691  1.00  0.00     0.055 A 
ATOM     91  C   UNL     1      -3.762   2.441  15.808  1.00  0.00     0.041 A 
ATOM     92  F   UNL     1      -4.061   2.666  13.496  1.00  0.00    -0.206 F 
ATOM     93  C   UNL     1      -2.941   2.181  16.901  1.00  0.00     0.022 A 
BRANCH  90  94
ATOM     94  S   UNL     1      -0.512   1.482  18.080  1.00  0.00     0.124 S 
ATOM     95  O   UNL     1      -0.019   0.177  17.653  1.00  0.00    -0.237 OA
ATOM     96  O   UNL     1       0.472   2.559  18.102  1.00  0.00    -0.237 OA
ATOM     97  O   UNL     1      -1.427   1.457  19.221  1.00  0.00    -0.744 OA
ENDBRANCH  90  94
ENDBRANCH  64  87
ENDBRANCH  38  39
ENDBRANCH  31  33
ENDBRANCH  30  31
ENDBRANCH  29  30
ENDBRANCH   1  29
TORSDOF 19
