REMARK SMILES COC(=O)c1ccc(-c2ccc(C(=O)OCCOC(=O)c3ccc(-c4c5nc(c(-c6cc(S(=O)(=O)[O-])ccc6F)c6ccc([nH]6)c(-c6cc(S(=O)(=O)[O-])ccc6F)c6nc(c(-c7cc(S(=O)(=O)[O-])ccc7F)c7ccc4[nH]7)C=C6)C=C5)cc3)cc2O)cc1F
REMARK SMILES IDX 16 1 15 2 13 3 14 4 12 5 9 6 10 7 85 8 11 9 84 10 8 11 5 12
REMARK SMILES IDX 6 13 88 14 7 15 87 16 89 17 3 18 4 19 2 20 1 21 86 22 17 24
REMARK SMILES IDX 18 25 19 26 20 27 21 28 22 29 83 30 23 31 82 32 24 33 25 34
REMARK SMILES IDX 26 35 76 36 27 37 81 38 75 39 77 40 28 41 80 42 74 43 73 44
REMARK SMILES IDX 29 46 61 47 41 48 60 49 42 50 45 51 59 52 78 53 43 54 44 55
REMARK SMILES IDX 58 57 79 58 46 59 30 60 31 61 39 62 32 63 38 64 40 65 37 66
REMARK SMILES IDX 33 67 34 68 35 69 36 70 62 71 63 72 71 73 64 74 70 75 72 76
REMARK SMILES IDX 69 77 65 78 66 79 67 80 68 81 47 82 48 83 56 84 49 85 55 86
REMARK SMILES IDX 57 87 54 88 50 89 51 90 52 91 53 92
REMARK H PARENT 86 23 77 45 45 56
REMARK Flexibility Score: inf
ROOT
ATOM      1  C   UNL     1      -4.018  13.320   0.414  1.00  0.00     0.275 C 
ENDROOT
BRANCH   1   2
ATOM      2  O   UNL     1      -3.503  12.004   0.707  1.00  0.00    -0.458 OA
BRANCH   2   3
ATOM      3  C   UNL     1      -3.244  11.229  -0.375  1.00  0.00     0.338 C 
ATOM      4  O   UNL     1      -3.444  11.526  -1.542  1.00  0.00    -0.246 OA
BRANCH   3   5
ATOM      5  C   UNL     1      -2.596   9.956   0.019  1.00  0.00     0.063 A 
ATOM      6  C   UNL     1      -1.403   7.458   0.568  1.00  0.00     0.024 A 
ATOM      7  C   UNL     1      -0.959   8.241  -0.502  1.00  0.00     0.013 A 
ATOM      8  C   UNL     1      -2.449   7.962   1.366  1.00  0.00     0.124 A 
ATOM      9  C   UNL     1      -1.579   9.451  -0.796  1.00  0.00     0.016 A 
ATOM     10  C   UNL     1      -3.031   9.212   1.117  1.00  0.00     0.062 A 
BRANCH   6  11
ATOM     11  C   UNL     1      -0.824   6.119   0.729  1.00  0.00    -0.012 A 
ATOM     12  C   UNL     1       0.299   3.540   0.828  1.00  0.00     0.095 A 
ATOM     13  C   UNL     1       1.096   4.660   1.091  1.00  0.00     0.019 A 
ATOM     14  C   UNL     1      -1.050   3.710   0.531  1.00  0.00     0.138 A 
ATOM     15  C   UNL     1       0.537   5.941   1.033  1.00  0.00     0.010 A 
ATOM     16  C   UNL     1      -1.608   4.983   0.479  1.00  0.00     0.049 A 
ATOM     17  F   UNL     1      -1.854   2.659   0.308  1.00  0.00    -0.206 F 
BRANCH  12  18
ATOM     18  C   UNL     1       0.902   2.200   0.918  1.00  0.00     0.340 C 
ATOM     19  O   UNL     1       1.747   1.899   1.744  1.00  0.00    -0.246 OA
BRANCH  18  20
ATOM     20  O   UNL     1       0.419   1.403  -0.066  1.00  0.00    -0.465 OA
ATOM     21  C   UNL     1       0.950   0.080  -0.052  1.00  0.00     0.282 C 
ENDBRANCH  18  20
ENDBRANCH  12  18
ENDBRANCH   6  11
BRANCH   8  22
ATOM     22  O   UNL     1      -2.926   7.193   2.395  1.00  0.00    -0.507 OA
ATOM     23  H   UNL     1      -2.544   6.355   2.571  1.00  0.00     0.293 HD
ENDBRANCH   8  22
ENDBRANCH   3   5
ENDBRANCH   2   3
ENDBRANCH   1   2
BRANCH   1  24
ATOM     24  C   UNL     1      -2.935  14.394   0.535  1.00  0.00     0.275 C 
BRANCH  24  25
ATOM     25  O   UNL     1      -1.950  14.255  -0.505  1.00  0.00    -0.458 OA
BRANCH  25  26
ATOM     26  C   UNL     1      -0.774  13.718  -0.106  1.00  0.00     0.338 C 
ATOM     27  O   UNL     1      -0.467  13.374   1.024  1.00  0.00    -0.246 OA
BRANCH  26  28
ATOM     28  C   UNL     1       0.114  13.506  -1.259  1.00  0.00     0.060 A 
ATOM     29  C   UNL     1      -0.144  12.420  -2.082  1.00  0.00     0.016 A 
ATOM     30  C   UNL     1       1.297  14.223  -1.405  1.00  0.00     0.016 A 
ATOM     31  C   UNL     1       0.843  11.938  -2.936  1.00  0.00     0.010 A 
ATOM     32  C   UNL     1       2.223  13.830  -2.384  1.00  0.00     0.010 A 
ATOM     33  C   UNL     1       2.032  12.652  -3.132  1.00  0.00    -0.014 A 
BRANCH  33  34
ATOM     34  C   UNL     1       3.061  12.164  -4.104  1.00  0.00     0.031 A 
ATOM     35  C   UNL     1       4.500  11.986  -3.677  1.00  0.00     0.074 A 
ATOM     36  C   UNL     1       2.711  11.861  -5.373  1.00  0.00     0.049 A 
ATOM     37  N   UNL     1       5.561  11.777  -4.416  1.00  0.00    -0.248 NA
ATOM     38  C   UNL     1       4.787  12.068  -2.236  1.00  0.00     0.031 C 
ATOM     39  C   UNL     1       1.351  11.922  -5.919  1.00  0.00     0.029 A 
ATOM     40  N   UNL     1       3.464  11.426  -6.439  1.00  0.00    -0.354 N 
ATOM     41  C   UNL     1       6.643  11.757  -3.540  1.00  0.00     0.074 A 
ATOM     42  C   UNL     1       6.111  11.985  -2.214  1.00  0.00     0.031 C 
ATOM     43  C   UNL     1       1.358  11.481  -7.184  1.00  0.00     0.029 A 
ATOM     44  C   UNL     1       2.733  11.232  -7.590  1.00  0.00     0.049 A 
ATOM     45  H   UNL     1       4.434  11.269  -6.384  1.00  0.00     0.167 HD
ATOM     46  C   UNL     1       7.956  11.565  -3.820  1.00  0.00     0.034 A 
ATOM     47  C   UNL     1       3.116  10.948  -8.851  1.00  0.00     0.034 A 
ATOM     48  C   UNL     1       8.466  11.287  -5.141  1.00  0.00     0.049 A 
ATOM     49  C   UNL     1       4.582  10.818  -9.153  1.00  0.00     0.074 A 
ATOM     50  C   UNL     1       9.778  11.070  -5.527  1.00  0.00     0.029 A 
ATOM     51  N   UNL     1       7.692  11.174  -6.288  1.00  0.00    -0.354 N 
ATOM     52  N   UNL     1       5.599  10.905  -8.330  1.00  0.00    -0.248 NA
ATOM     53  C   UNL     1       4.953  10.577 -10.553  1.00  0.00     0.031 C 
ATOM     54  C   UNL     1       9.804  10.890  -6.913  1.00  0.00     0.029 A 
ATOM     55  C   UNL     1       8.502  10.916  -7.383  1.00  0.00     0.049 A 
ATOM     56  H   UNL     1       6.712  11.262  -6.319  1.00  0.00     0.167 HD
ATOM     57  C   UNL     1       6.733  10.715  -9.111  1.00  0.00     0.074 A 
ATOM     58  C   UNL     1       6.274  10.500 -10.468  1.00  0.00     0.031 C 
ATOM     59  C   UNL     1       8.036  10.715  -8.734  1.00  0.00     0.034 A 
BRANCH  46  60
ATOM     60  C   UNL     1       8.950  11.694  -2.693  1.00  0.00     0.023 A 
ATOM     61  C   UNL     1       9.026  10.756  -1.651  1.00  0.00     0.031 A 
ATOM     62  C   UNL     1       9.871  12.759  -2.691  1.00  0.00     0.131 A 
ATOM     63  C   UNL     1       9.978  10.920  -0.631  1.00  0.00     0.055 A 
ATOM     64  C   UNL     1      10.857  12.881  -1.710  1.00  0.00     0.041 A 
ATOM     65  F   UNL     1       9.835  13.694  -3.654  1.00  0.00    -0.206 F 
ATOM     66  C   UNL     1      10.910  11.961  -0.668  1.00  0.00     0.022 A 
BRANCH  63  67
ATOM     67  S   UNL     1       9.940   9.792   0.788  1.00  0.00     0.124 S 
ATOM     68  O   UNL     1       8.637  10.101   1.373  1.00  0.00    -0.237 OA
ATOM     69  O   UNL     1      10.062   8.483   0.157  1.00  0.00    -0.237 OA
ATOM     70  O   UNL     1      11.090  10.208   1.588  1.00  0.00    -0.744 OA
ENDBRANCH  63  67
ENDBRANCH  46  60
BRANCH  47  71
ATOM     71  C   UNL     1       2.093  10.844  -9.930  1.00  0.00     0.023 A 
ATOM     72  C   UNL     1       1.837   9.622 -10.569  1.00  0.00     0.031 A 
ATOM     73  C   UNL     1       1.339  11.966 -10.322  1.00  0.00     0.131 A 
ATOM     74  C   UNL     1       0.857   9.551 -11.572  1.00  0.00     0.055 A 
ATOM     75  C   UNL     1       0.333  11.880 -11.285  1.00  0.00     0.041 A 
ATOM     76  F   UNL     1       1.544  13.159  -9.739  1.00  0.00    -0.206 F 
ATOM     77  C   UNL     1       0.091  10.667 -11.920  1.00  0.00     0.022 A 
BRANCH  74  78
ATOM     78  S   UNL     1       0.611   7.979 -12.441  1.00  0.00     0.124 S 
ATOM     79  O   UNL     1       1.898   7.804 -13.105  1.00  0.00    -0.237 OA
ATOM     80  O   UNL     1       0.326   7.063 -11.341  1.00  0.00    -0.237 OA
ATOM     81  O   UNL     1      -0.518   8.254 -13.328  1.00  0.00    -0.744 OA
ENDBRANCH  74  78
ENDBRANCH  47  71
BRANCH  59  82
ATOM     82  C   UNL     1       9.063  10.433  -9.796  1.00  0.00     0.023 A 
ATOM     83  C   UNL     1       9.360  11.370 -10.800  1.00  0.00     0.031 A 
ATOM     84  C   UNL     1       9.784   9.226  -9.776  1.00  0.00     0.131 A 
ATOM     85  C   UNL     1      10.335  11.071 -11.763  1.00  0.00     0.055 A 
ATOM     86  C   UNL     1      10.788   8.956 -10.706  1.00  0.00     0.041 A 
ATOM     87  F   UNL     1       9.537   8.300  -8.836  1.00  0.00    -0.206 F 
ATOM     88  C   UNL     1      11.064   9.879 -11.710  1.00  0.00     0.022 A 
BRANCH  85  89
ATOM     89  S   UNL     1      10.616  12.247 -13.114  1.00  0.00     0.124 S 
ATOM     90  O   UNL     1       9.334  12.218 -13.810  1.00  0.00    -0.237 OA
ATOM     91  O   UNL     1      10.925  13.481 -12.400  1.00  0.00    -0.237 OA
ATOM     92  O   UNL     1      11.735  11.662 -13.851  1.00  0.00    -0.744 OA
ENDBRANCH  85  89
ENDBRANCH  59  82
ENDBRANCH  33  34
ENDBRANCH  26  28
ENDBRANCH  25  26
ENDBRANCH  24  25
ENDBRANCH   1  24
TORSDOF 18
