REMARK SMILES O=C(OCCOC(=O)c1cc(-c2cccc(Cl)c2)oc1C(F)(F)F)c1ccc(-c2c3nc(c(-c4cc(S(=O)(=O)[O-])ccc4F)c4ccc([nH]4)c(-c4cc(S(=O)(=O)[O-])ccc4F)c4nc(c(-c5cc(S(=O)(=O)[O-])ccc5F)c5ccc2[nH]5)C=C4)C=C3)cc1
REMARK SMILES IDX 4 1 3 2 2 3 1 4 25 5 26 6 87 7 27 8 86 9 28 10 29 11 30 12
REMARK SMILES IDX 80 13 31 14 85 15 79 16 81 17 32 18 84 19 78 20 77 21 33 23
REMARK SMILES IDX 65 24 45 25 64 26 46 27 49 28 63 29 82 30 47 31 48 32 62 34
REMARK SMILES IDX 83 35 50 36 34 37 35 38 43 39 36 40 42 41 44 42 41 43 37 44
REMARK SMILES IDX 38 45 39 46 40 47 66 48 67 49 75 50 68 51 74 52 76 53 73 54
REMARK SMILES IDX 69 55 70 56 71 57 72 58 51 59 52 60 60 61 53 62 59 63 61 64
REMARK SMILES IDX 58 65 54 66 55 67 56 68 57 69 5 70 6 71 7 72 8 73 9 74 10 75
REMARK SMILES IDX 20 76 11 77 19 78 21 79 22 80 23 81 24 82 12 83 13 84 18 85
REMARK SMILES IDX 14 86 16 87 15 88 17 89
REMARK H PARENT 81 22 49 33
REMARK Flexibility Score: inf
ROOT
ATOM      1  C   UNL     1       4.258  -0.090  -1.581  1.00  0.00     0.275 C 
ENDROOT
BRANCH   1   2
ATOM      2  O   UNL     1       3.302  -0.908  -0.884  1.00  0.00    -0.458 OA
BRANCH   2   3
ATOM      3  C   UNL     1       3.134  -1.140   0.439  1.00  0.00     0.338 C 
ATOM      4  O   UNL     1       2.293  -1.963   0.793  1.00  0.00    -0.246 OA
BRANCH   3   5
ATOM      5  C   UNL     1       3.821  -0.342   1.502  1.00  0.00     0.060 A 
ATOM      6  C   UNL     1       5.090   0.225   1.398  1.00  0.00     0.016 A 
ATOM      7  C   UNL     1       3.122  -0.170   2.710  1.00  0.00     0.016 A 
ATOM      8  C   UNL     1       5.619   1.003   2.428  1.00  0.00     0.010 A 
ATOM      9  C   UNL     1       3.635   0.629   3.740  1.00  0.00     0.010 A 
ATOM     10  C   UNL     1       4.903   1.207   3.608  1.00  0.00    -0.014 A 
BRANCH  10  11
ATOM     11  C   UNL     1       5.612   1.817   4.760  1.00  0.00     0.031 A 
ATOM     12  C   UNL     1       6.061   0.899   5.863  1.00  0.00     0.074 A 
ATOM     13  C   UNL     1       5.967   3.118   4.747  1.00  0.00     0.049 A 
ATOM     14  N   UNL     1       6.786   1.162   6.916  1.00  0.00    -0.248 NA
ATOM     15  C   UNL     1       5.663  -0.515   5.746  1.00  0.00     0.031 C 
ATOM     16  C   UNL     1       5.677   4.058   3.664  1.00  0.00     0.029 A 
ATOM     17  N   UNL     1       6.658   3.877   5.655  1.00  0.00    -0.354 N 
ATOM     18  C   UNL     1       6.960  -0.057   7.563  1.00  0.00     0.074 A 
ATOM     19  C   UNL     1       6.187  -1.039   6.840  1.00  0.00     0.031 C 
ATOM     20  C   UNL     1       6.159   5.272   3.981  1.00  0.00     0.029 A 
ATOM     21  C   UNL     1       6.797   5.200   5.289  1.00  0.00     0.049 A 
ATOM     22  H   UNL     1       7.023   3.512   6.494  1.00  0.00     0.167 HD
ATOM     23  C   UNL     1       7.736  -0.338   8.636  1.00  0.00     0.034 A 
ATOM     24  C   UNL     1       7.374   6.230   5.943  1.00  0.00     0.034 A 
ATOM     25  C   UNL     1       8.473   0.671   9.350  1.00  0.00     0.049 A 
ATOM     26  C   UNL     1       8.038   5.927   7.262  1.00  0.00     0.074 A 
ATOM     27  C   UNL     1       9.285   0.528  10.458  1.00  0.00     0.029 A 
ATOM     28  N   UNL     1       8.462   2.026   9.032  1.00  0.00    -0.354 N 
ATOM     29  N   UNL     1       8.208   4.765   7.853  1.00  0.00    -0.248 NA
ATOM     30  C   UNL     1       8.606   7.066   7.989  1.00  0.00     0.031 C 
ATOM     31  C   UNL     1       9.698   1.804  10.858  1.00  0.00     0.029 A 
ATOM     32  C   UNL     1       9.220   2.736   9.947  1.00  0.00     0.049 A 
ATOM     33  H   UNL     1       7.985   2.422   8.268  1.00  0.00     0.167 HD
ATOM     34  C   UNL     1       8.965   5.026   8.990  1.00  0.00     0.074 A 
ATOM     35  C   UNL     1       9.202   6.458   9.003  1.00  0.00     0.031 C 
ATOM     36  C   UNL     1       9.445   4.163   9.923  1.00  0.00     0.034 A 
BRANCH  23  37
ATOM     37  C   UNL     1       7.760  -1.775   9.102  1.00  0.00     0.023 A 
ATOM     38  C   UNL     1       8.226  -2.813   8.273  1.00  0.00     0.031 A 
ATOM     39  C   UNL     1       7.215  -2.125  10.348  1.00  0.00     0.131 A 
ATOM     40  C   UNL     1       8.045  -4.151   8.655  1.00  0.00     0.055 A 
ATOM     41  C   UNL     1       7.120  -3.456  10.762  1.00  0.00     0.041 A 
ATOM     42  F   UNL     1       6.728  -1.183  11.171  1.00  0.00    -0.206 F 
ATOM     43  C   UNL     1       7.517  -4.479   9.905  1.00  0.00     0.022 A 
BRANCH  40  44
ATOM     44  S   UNL     1       8.332  -5.452   7.421  1.00  0.00     0.124 S 
ATOM     45  O   UNL     1       7.401  -5.066   6.363  1.00  0.00    -0.237 OA
ATOM     46  O   UNL     1       9.748  -5.291   7.114  1.00  0.00    -0.237 OA
ATOM     47  O   UNL     1       7.982  -6.681   8.130  1.00  0.00    -0.744 OA
ENDBRANCH  40  44
ENDBRANCH  23  37
BRANCH  24  48
ATOM     48  C   UNL     1       7.315   7.630   5.415  1.00  0.00     0.023 A 
ATOM     49  C   UNL     1       8.461   8.380   5.108  1.00  0.00     0.031 A 
ATOM     50  C   UNL     1       6.075   8.280   5.301  1.00  0.00     0.131 A 
ATOM     51  C   UNL     1       8.336   9.735   4.742  1.00  0.00     0.055 A 
ATOM     52  C   UNL     1       5.947   9.608   4.893  1.00  0.00     0.041 A 
ATOM     53  F   UNL     1       4.954   7.622   5.606  1.00  0.00    -0.206 F 
ATOM     54  C   UNL     1       7.087  10.350   4.623  1.00  0.00     0.022 A 
BRANCH  51  55
ATOM     55  S   UNL     1       9.840  10.724   4.505  1.00  0.00     0.124 S 
ATOM     56  O   UNL     1      10.508  10.563   5.790  1.00  0.00    -0.237 OA
ATOM     57  O   UNL     1      10.460  10.055   3.366  1.00  0.00    -0.237 OA
ATOM     58  O   UNL     1       9.325  12.064   4.231  1.00  0.00    -0.744 OA
ENDBRANCH  51  55
ENDBRANCH  24  48
BRANCH  36  59
ATOM     59  C   UNL     1      10.360   4.745  10.971  1.00  0.00     0.023 A 
ATOM     60  C   UNL     1       9.909   5.669  11.926  1.00  0.00     0.031 A 
ATOM     61  C   UNL     1      11.719   4.378  10.988  1.00  0.00     0.131 A 
ATOM     62  C   UNL     1      10.825   6.253  12.812  1.00  0.00     0.055 A 
ATOM     63  C   UNL     1      12.607   4.901  11.925  1.00  0.00     0.041 A 
ATOM     64  F   UNL     1      12.203   3.503  10.092  1.00  0.00    -0.206 F 
ATOM     65  C   UNL     1      12.166   5.858  12.834  1.00  0.00     0.022 A 
BRANCH  62  66
ATOM     66  S   UNL     1      10.267   7.632  13.848  1.00  0.00     0.124 S 
ATOM     67  O   UNL     1       9.787   8.583  12.851  1.00  0.00    -0.237 OA
ATOM     68  O   UNL     1       9.242   7.005  14.676  1.00  0.00    -0.237 OA
ATOM     69  O   UNL     1      11.478   8.037  14.560  1.00  0.00    -0.744 OA
ENDBRANCH  62  66
ENDBRANCH  36  59
ENDBRANCH  10  11
ENDBRANCH   3   5
ENDBRANCH   2   3
ENDBRANCH   1   2
BRANCH   1  70
ATOM     70  C   UNL     1       3.870   1.385  -1.714  1.00  0.00     0.275 C 
BRANCH  70  71
ATOM     71  O   UNL     1       3.521   2.027  -0.478  1.00  0.00    -0.458 OA
BRANCH  71  72
ATOM     72  C   UNL     1       2.191   2.060  -0.168  1.00  0.00     0.342 C 
ATOM     73  O   UNL     1       1.302   1.590  -0.866  1.00  0.00    -0.246 OA
BRANCH  72  74
ATOM     74  C   UNL     1       1.938   2.706   1.105  1.00  0.00     0.111 A 
ATOM     75  C   UNL     1       2.595   3.840   1.674  1.00  0.00     0.067 A 
ATOM     76  C   UNL     1       0.984   2.320   2.038  1.00  0.00     0.223 A 
ATOM     77  C   UNL     1       2.039   4.042   2.917  1.00  0.00     0.135 A 
ATOM     78  O   UNL     1       1.067   3.121   3.142  1.00  0.00    -0.451 OA
BRANCH  76  79
ATOM     79  C   UNL     1      -0.023   1.232   2.122  1.00  0.00     0.450 C 
ATOM     80  F   UNL     1       0.096   0.529   3.282  1.00  0.00    -0.163 F 
ATOM     81  F   UNL     1      -1.291   1.718   2.097  1.00  0.00    -0.163 F 
ATOM     82  F   UNL     1       0.074   0.329   1.119  1.00  0.00    -0.163 F 
ENDBRANCH  76  79
BRANCH  77  83
ATOM     83  C   UNL     1       2.215   5.006   3.984  1.00  0.00     0.019 A 
ATOM     84  C   UNL     1       1.980   6.366   3.747  1.00  0.00     0.012 A 
ATOM     85  C   UNL     1       2.584   4.585   5.269  1.00  0.00     0.032 A 
ATOM     86  C   UNL     1       2.072   7.288   4.790  1.00  0.00     0.002 A 
ATOM     87  C   UNL     1       2.704   5.514   6.299  1.00  0.00     0.041 A 
ATOM     88  C   UNL     1       2.422   6.859   6.071  1.00  0.00     0.020 A 
ATOM     89  Cl  UNL     1       3.209   5.001   7.861  1.00  0.00    -0.084 Cl
ENDBRANCH  77  83
ENDBRANCH  72  74
ENDBRANCH  71  72
ENDBRANCH  70  71
ENDBRANCH   1  70
TORSDOF 16
