REMARK SMILES Cn1ccc(NC(=O)[C@@H]2CCCC[C@@H]2C(=O)OCCOC(=O)c2ccc(-c3c4nc(c(-c5cc(S(=O)(=O)[O-])ccc5F)c5ccc([nH]5)c(-c5cc(S(=O)(=O)[O-])ccc5F)c5nc(c(-c6cc(S(=O)(=O)[O-])ccc6F)c6ccc3[nH]6)C=C5)C=C4)cc2)n1
REMARK SMILES IDX 19 1 18 2 17 3 15 4 16 5 14 6 9 7 10 8 11 9 13 10 12 11 7 12
REMARK SMILES IDX 6 13 8 15 5 16 1 17 2 18 3 19 86 20 4 21 20 22 21 23 22 24
REMARK SMILES IDX 23 25 24 26 85 27 25 28 84 29 26 30 27 31 28 32 78 33 29 34
REMARK SMILES IDX 83 35 77 36 79 37 30 38 82 39 76 40 75 41 31 43 63 44 43 45
REMARK SMILES IDX 62 46 44 47 47 48 61 49 80 50 45 51 46 52 60 54 81 55 48 56
REMARK SMILES IDX 32 57 33 58 41 59 34 60 40 61 42 62 39 63 35 64 36 65 37 66
REMARK SMILES IDX 38 67 64 68 65 69 73 70 66 71 72 72 74 73 71 74 67 75 68 76
REMARK SMILES IDX 69 77 70 78 49 79 50 80 58 81 51 82 57 83 59 84 56 85 52 86
REMARK SMILES IDX 53 87 54 88 55 89
REMARK H PARENT 6 14 79 42 47 53
REMARK Flexibility Score: inf
ROOT
ATOM      1  C   UNL     1       2.514   3.440   4.477  1.00  0.00     0.275 C 
ENDROOT
BRANCH   1   2
ATOM      2  C   UNL     1       2.390   2.320   3.451  1.00  0.00     0.274 C 
BRANCH   2   3
ATOM      3  O   UNL     1       1.783   2.811   2.238  1.00  0.00    -0.462 OA
BRANCH   3   4
ATOM      4  C   UNL     1       0.507   2.419   2.008  1.00  0.00     0.309 C 
ATOM      5  O   UNL     1      -0.167   1.768   2.801  1.00  0.00    -0.252 OA
BRANCH   4   6
ATOM      6  C   UNL     1      -0.026   2.814   0.639  1.00  0.00     0.111 C 
ATOM      7  C   UNL     1       0.990   3.228  -0.453  1.00  0.00     0.093 C 
ATOM      8  C   UNL     1       1.246   4.752  -0.403  1.00  0.00     0.014 C 
ATOM      9  C   UNL     1      -0.042   5.564  -0.468  1.00  0.00     0.001 C 
ATOM     10  C   UNL     1      -1.264   3.720   0.705  1.00  0.00     0.016 C 
ATOM     11  C   UNL     1      -0.951   5.206   0.692  1.00  0.00     0.001 C 
BRANCH   7  12
ATOM     12  C   UNL     1       2.344   2.487  -0.442  1.00  0.00     0.229 C 
ATOM     13  N   UNL     1       2.451   1.131  -0.492  1.00  0.00    -0.309 N 
ATOM     14  H   UNL     1       3.367   0.784  -0.392  1.00  0.00     0.171 HD
ATOM     15  O   UNL     1       3.414   3.106  -0.366  1.00  0.00    -0.274 OA
BRANCH  13  16
ATOM     16  C   UNL     1       1.488   0.171  -0.658  1.00  0.00     0.154 A 
ATOM     17  C   UNL     1      -1.853  -0.720  -0.848  1.00  0.00     0.173 C 
ATOM     18  N   UNL     1      -0.409  -0.738  -0.840  1.00  0.00    -0.274 N 
ATOM     19  C   UNL     1       0.407  -1.753  -0.438  1.00  0.00     0.110 A 
ATOM     20  N   UNL     1       0.260   0.390  -1.120  1.00  0.00    -0.155 NA
ATOM     21  C   UNL     1       1.663  -1.196  -0.337  1.00  0.00     0.068 A 
ENDBRANCH  13  16
ENDBRANCH   7  12
ENDBRANCH   4   6
ENDBRANCH   3   4
ENDBRANCH   2   3
ENDBRANCH   1   2
BRANCH   1  22
ATOM     22  O   UNL     1       1.205   3.967   4.739  1.00  0.00    -0.458 OA
BRANCH  22  23
ATOM     23  C   UNL     1       1.081   5.309   4.669  1.00  0.00     0.338 C 
ATOM     24  O   UNL     1       1.998   6.122   4.599  1.00  0.00    -0.246 OA
BRANCH  23  25
ATOM     25  C   UNL     1      -0.348   5.692   4.651  1.00  0.00     0.060 A 
ATOM     26  C   UNL     1      -1.317   4.835   4.127  1.00  0.00     0.016 A 
ATOM     27  C   UNL     1      -0.717   6.976   5.054  1.00  0.00     0.016 A 
ATOM     28  C   UNL     1      -2.614   5.297   3.897  1.00  0.00     0.010 A 
ATOM     29  C   UNL     1      -2.048   7.392   4.934  1.00  0.00     0.010 A 
ATOM     30  C   UNL     1      -3.011   6.573   4.317  1.00  0.00    -0.014 A 
BRANCH  30  31
ATOM     31  C   UNL     1      -4.401   7.075   4.090  1.00  0.00     0.031 A 
ATOM     32  C   UNL     1      -4.620   8.415   3.430  1.00  0.00     0.074 A 
ATOM     33  C   UNL     1      -5.476   6.359   4.481  1.00  0.00     0.049 A 
ATOM     34  N   UNL     1      -5.684   9.178   3.432  1.00  0.00    -0.248 NA
ATOM     35  C   UNL     1      -3.479   8.983   2.697  1.00  0.00     0.031 C 
ATOM     36  C   UNL     1      -5.443   5.020   5.075  1.00  0.00     0.029 A 
ATOM     37  N   UNL     1      -6.817   6.663   4.442  1.00  0.00    -0.354 N 
ATOM     38  C   UNL     1      -5.313  10.353   2.784  1.00  0.00     0.074 A 
ATOM     39  C   UNL     1      -3.929  10.191   2.386  1.00  0.00     0.031 C 
ATOM     40  C   UNL     1      -6.697   4.604   5.302  1.00  0.00     0.029 A 
ATOM     41  C   UNL     1      -7.618   5.689   4.994  1.00  0.00     0.049 A 
ATOM     42  H   UNL     1      -7.170   7.498   4.057  1.00  0.00     0.167 HD
ATOM     43  C   UNL     1      -6.056  11.466   2.562  1.00  0.00     0.034 A 
ATOM     44  C   UNL     1      -8.932   5.686   5.293  1.00  0.00     0.034 A 
ATOM     45  C   UNL     1      -7.458  11.577   2.894  1.00  0.00     0.049 A 
ATOM     46  C   UNL     1      -9.739   6.930   5.045  1.00  0.00     0.074 A 
ATOM     47  C   UNL     1      -8.312  12.649   2.694  1.00  0.00     0.029 A 
ATOM     48  N   UNL     1      -8.219  10.570   3.474  1.00  0.00    -0.354 N 
ATOM     49  N   UNL     1      -9.348   8.082   4.553  1.00  0.00    -0.248 NA
ATOM     50  C   UNL     1     -11.158   6.881   5.419  1.00  0.00     0.031 C 
ATOM     51  C   UNL     1      -9.575  12.307   3.193  1.00  0.00     0.029 A 
ATOM     52  C   UNL     1      -9.526  11.000   3.649  1.00  0.00     0.049 A 
ATOM     53  H   UNL     1      -7.880   9.681   3.724  1.00  0.00     0.167 HD
ATOM     54  C   UNL     1     -10.473   8.899   4.567  1.00  0.00     0.074 A 
ATOM     55  C   UNL     1     -11.564   8.097   5.084  1.00  0.00     0.031 C 
ATOM     56  C   UNL     1     -10.594  10.197   4.193  1.00  0.00     0.034 A 
BRANCH  43  57
ATOM     57  C   UNL     1      -5.353  12.680   2.000  1.00  0.00     0.023 A 
ATOM     58  C   UNL     1      -4.831  12.718   0.697  1.00  0.00     0.031 A 
ATOM     59  C   UNL     1      -5.199  13.825   2.805  1.00  0.00     0.131 A 
ATOM     60  C   UNL     1      -4.132  13.854   0.257  1.00  0.00     0.055 A 
ATOM     61  C   UNL     1      -4.564  14.977   2.338  1.00  0.00     0.041 A 
ATOM     62  F   UNL     1      -5.660  13.840   4.066  1.00  0.00    -0.206 F 
ATOM     63  C   UNL     1      -4.016  14.992   1.060  1.00  0.00     0.022 A 
BRANCH  60  64
ATOM     64  S   UNL     1      -3.273  13.785  -1.339  1.00  0.00     0.124 S 
ATOM     65  O   UNL     1      -2.358  12.665  -1.135  1.00  0.00    -0.237 OA
ATOM     66  O   UNL     1      -4.367  13.555  -2.276  1.00  0.00    -0.237 OA
ATOM     67  O   UNL     1      -2.631  15.094  -1.441  1.00  0.00    -0.744 OA
ENDBRANCH  60  64
ENDBRANCH  43  57
BRANCH  44  68
ATOM     68  C   UNL     1      -9.543   4.501   5.962  1.00  0.00     0.023 A 
ATOM     69  C   UNL     1     -10.515   3.724   5.315  1.00  0.00     0.031 A 
ATOM     70  C   UNL     1      -9.164   4.138   7.267  1.00  0.00     0.131 A 
ATOM     71  C   UNL     1     -11.091   2.632   5.984  1.00  0.00     0.055 A 
ATOM     72  C   UNL     1      -9.702   3.022   7.908  1.00  0.00     0.041 A 
ATOM     73  F   UNL     1      -8.238   4.850   7.929  1.00  0.00    -0.206 F 
ATOM     74  C   UNL     1     -10.679   2.266   7.268  1.00  0.00     0.022 A 
BRANCH  71  75
ATOM     75  S   UNL     1     -12.434   1.724   5.171  1.00  0.00     0.124 S 
ATOM     76  O   UNL     1     -13.430   2.772   4.979  1.00  0.00    -0.237 OA
ATOM     77  O   UNL     1     -11.780   1.232   3.963  1.00  0.00    -0.237 OA
ATOM     78  O   UNL     1     -12.789   0.695   6.147  1.00  0.00    -0.744 OA
ENDBRANCH  71  75
ENDBRANCH  44  68
BRANCH  56  79
ATOM     79  C   UNL     1     -11.966  10.807   4.314  1.00  0.00     0.023 A 
ATOM     80  C   UNL     1     -12.541  11.076   5.568  1.00  0.00     0.031 A 
ATOM     81  C   UNL     1     -12.723  11.081   3.162  1.00  0.00     0.131 A 
ATOM     82  C   UNL     1     -13.858  11.551   5.643  1.00  0.00     0.055 A 
ATOM     83  C   UNL     1     -14.015  11.601   3.241  1.00  0.00     0.041 A 
ATOM     84  F   UNL     1     -12.220  10.837   1.941  1.00  0.00    -0.206 F 
ATOM     85  C   UNL     1     -14.595  11.826   4.487  1.00  0.00     0.022 A 
BRANCH  82  86
ATOM     86  S   UNL     1     -14.633  11.720   7.274  1.00  0.00     0.124 S 
ATOM     87  O   UNL     1     -14.546  10.359   7.794  1.00  0.00    -0.237 OA
ATOM     88  O   UNL     1     -13.778  12.707   7.926  1.00  0.00    -0.237 OA
ATOM     89  O   UNL     1     -15.986  12.180   6.966  1.00  0.00    -0.744 OA
ENDBRANCH  82  86
ENDBRANCH  56  79
ENDBRANCH  30  31
ENDBRANCH  23  25
ENDBRANCH  22  23
ENDBRANCH   1  22
TORSDOF 16
