REMARK SMILES Cc1cc(C[N@@H+]2CC[C@@H](C(=O)OCCOC(=O)c3ccc(-c4c5nc(c(-c6cc(S(=O)(=O)[O-])ccc6F)c6ccc([nH]6)c(-c6cc(S(=O)(=O)[O-])ccc6F)c6nc(c(-c7cc(S(=O)(=O)[O-])ccc7F)c7ccc4[nH]7)C=C6)C=C5)cc3)C2)ccc1Br
REMARK SMILES IDX 14 1 13 2 12 3 10 4 11 5 9 6 6 7 7 8 81 9 8 11 5 12 4 13
REMARK SMILES IDX 1 14 2 15 3 16 84 17 83 18 85 19 82 20 15 21 16 22 17 23
REMARK SMILES IDX 18 24 19 25 80 26 20 27 79 28 21 29 22 30 23 31 73 32 24 33
REMARK SMILES IDX 78 34 72 35 74 36 25 37 77 38 71 39 70 40 26 42 58 43 38 44
REMARK SMILES IDX 57 45 39 46 42 47 56 48 75 49 40 50 41 51 55 53 76 54 43 55
REMARK SMILES IDX 27 56 28 57 36 58 29 59 35 60 37 61 34 62 30 63 31 64 32 65
REMARK SMILES IDX 33 66 59 67 60 68 68 69 61 70 67 71 69 72 66 73 62 74 63 75
REMARK SMILES IDX 64 76 65 77 44 78 45 79 53 80 46 81 52 82 54 83 51 84 47 85
REMARK SMILES IDX 48 86 49 87 50 88
REMARK H PARENT 6 10 74 41 42 52
REMARK Flexibility Score: inf
ROOT
ATOM      1  C   UNL     1       5.550   2.874  -6.497  1.00  0.00     0.275 C 
ENDROOT
BRANCH   1   2
ATOM      2  C   UNL     1       4.769   3.759  -5.524  1.00  0.00     0.274 C 
BRANCH   2   3
ATOM      3  O   UNL     1       4.633   3.153  -4.225  1.00  0.00    -0.462 OA
BRANCH   3   4
ATOM      4  C   UNL     1       3.459   2.507  -3.983  1.00  0.00     0.315 C 
ATOM      5  O   UNL     1       2.544   2.400  -4.790  1.00  0.00    -0.252 OA
BRANCH   4   6
ATOM      6  C   UNL     1       3.369   1.986  -2.568  1.00  0.00     0.159 C 
ATOM      7  N   UNL     1       4.893   1.355  -0.835  1.00  0.00    -0.330 N 
ATOM      8  C   UNL     1       4.654   2.784  -0.686  1.00  0.00     0.263 C 
ATOM      9  C   UNL     1       4.478   1.007  -2.197  1.00  0.00     0.278 C 
ATOM     10  H   UNL     1       5.888   1.169  -0.711  1.00  0.00     0.348 HD
ATOM     11  C   UNL     1       3.454   3.123  -1.556  1.00  0.00     0.082 C 
BRANCH   7  12
ATOM     12  C   UNL     1       4.402   0.482   0.234  1.00  0.00     0.299 C 
BRANCH  12  13
ATOM     13  C   UNL     1       2.907   0.284   0.368  1.00  0.00     0.007 A 
ATOM     14  C   UNL     1       0.353  -2.475  -0.296  1.00  0.00     0.045 C 
ATOM     15  C   UNL     1       0.926  -1.142   0.099  1.00  0.00    -0.036 A 
ATOM     16  C   UNL     1       2.312  -0.930  -0.019  1.00  0.00     0.014 A 
ATOM     17  C   UNL     1       0.126  -0.089   0.565  1.00  0.00     0.020 A 
ATOM     18  C   UNL     1       0.708   1.111   0.978  1.00  0.00     0.016 A 
ATOM     19  Br  UNL     1      -1.765  -0.220   0.664  1.00  0.00    -0.051 Br
ATOM     20  C   UNL     1       2.090   1.282   0.910  1.00  0.00     0.011 A 
ENDBRANCH  12  13
ENDBRANCH   7  12
ENDBRANCH   4   6
ENDBRANCH   3   4
ENDBRANCH   2   3
ENDBRANCH   1   2
BRANCH   1  21
ATOM     21  O   UNL     1       4.796   1.712  -6.875  1.00  0.00    -0.458 OA
BRANCH  21  22
ATOM     22  C   UNL     1       5.010   0.615  -6.110  1.00  0.00     0.338 C 
ATOM     23  O   UNL     1       5.802   0.499  -5.192  1.00  0.00    -0.246 OA
BRANCH  22  24
ATOM     24  C   UNL     1       4.042  -0.425  -6.478  1.00  0.00     0.060 A 
ATOM     25  C   UNL     1       3.119  -0.857  -5.519  1.00  0.00     0.016 A 
ATOM     26  C   UNL     1       4.087  -1.009  -7.744  1.00  0.00     0.016 A 
ATOM     27  C   UNL     1       2.229  -1.883  -5.824  1.00  0.00     0.010 A 
ATOM     28  C   UNL     1       3.196  -2.036  -8.047  1.00  0.00     0.010 A 
ATOM     29  C   UNL     1       2.270  -2.484  -7.088  1.00  0.00    -0.014 A 
BRANCH  29  30
ATOM     30  C   UNL     1       1.398  -3.634  -7.415  1.00  0.00     0.031 A 
ATOM     31  C   UNL     1       1.996  -5.007  -7.475  1.00  0.00     0.074 A 
ATOM     32  C   UNL     1       0.101  -3.435  -7.708  1.00  0.00     0.049 A 
ATOM     33  N   UNL     1       1.489  -6.115  -7.943  1.00  0.00    -0.248 NA
ATOM     34  C   UNL     1       3.360  -5.138  -6.942  1.00  0.00     0.031 C 
ATOM     35  C   UNL     1      -0.599  -2.154  -7.614  1.00  0.00     0.029 A 
ATOM     36  N   UNL     1      -0.850  -4.308  -8.169  1.00  0.00    -0.354 N 
ATOM     37  C   UNL     1       2.479  -7.078  -7.785  1.00  0.00     0.074 A 
ATOM     38  C   UNL     1       3.624  -6.410  -7.199  1.00  0.00     0.031 C 
ATOM     39  C   UNL     1      -1.868  -2.322  -8.022  1.00  0.00     0.029 A 
ATOM     40  C   UNL     1      -2.048  -3.702  -8.465  1.00  0.00     0.049 A 
ATOM     41  H   UNL     1      -0.691  -5.273  -8.277  1.00  0.00     0.167 HD
ATOM     42  C   UNL     1       2.431  -8.396  -8.103  1.00  0.00     0.034 A 
ATOM     43  C   UNL     1      -3.144  -4.197  -9.072  1.00  0.00     0.034 A 
ATOM     44  C   UNL     1       1.281  -9.028  -8.704  1.00  0.00     0.049 A 
ATOM     45  C   UNL     1      -3.134  -5.632  -9.533  1.00  0.00     0.074 A 
ATOM     46  C   UNL     1       1.114 -10.351  -9.074  1.00  0.00     0.029 A 
ATOM     47  N   UNL     1       0.101  -8.373  -9.036  1.00  0.00    -0.354 N 
ATOM     48  N   UNL     1      -2.184  -6.532  -9.416  1.00  0.00    -0.248 NA
ATOM     49  C   UNL     1      -4.339  -6.115 -10.219  1.00  0.00     0.031 C 
ATOM     50  C   UNL     1      -0.139 -10.480  -9.687  1.00  0.00     0.029 A 
ATOM     51  C   UNL     1      -0.785  -9.255  -9.634  1.00  0.00     0.049 A 
ATOM     52  H   UNL     1      -0.080  -7.419  -8.870  1.00  0.00     0.167 HD
ATOM     53  C   UNL     1      -2.692  -7.698  -9.980  1.00  0.00     0.074 A 
ATOM     54  C   UNL     1      -4.030  -7.385 -10.442  1.00  0.00     0.031 C 
ATOM     55  C   UNL     1      -2.113  -8.920 -10.094  1.00  0.00     0.034 A 
BRANCH  42  56
ATOM     56  C   UNL     1       3.685  -9.204  -7.867  1.00  0.00     0.023 A 
ATOM     57  C   UNL     1       4.221  -9.380  -6.578  1.00  0.00     0.031 A 
ATOM     58  C   UNL     1       4.397  -9.744  -8.953  1.00  0.00     0.131 A 
ATOM     59  C   UNL     1       5.473  -9.993  -6.418  1.00  0.00     0.055 A 
ATOM     60  C   UNL     1       5.600 -10.431  -8.777  1.00  0.00     0.041 A 
ATOM     61  F   UNL     1       3.949  -9.589 -10.209  1.00  0.00    -0.206 F 
ATOM     62  C   UNL     1       6.155 -10.541  -7.506  1.00  0.00     0.022 A 
BRANCH  59  63
ATOM     63  S   UNL     1       6.277  -9.904  -4.793  1.00  0.00     0.124 S 
ATOM     64  O   UNL     1       6.303  -8.463  -4.554  1.00  0.00    -0.237 OA
ATOM     65  O   UNL     1       5.370 -10.675  -3.951  1.00  0.00    -0.237 OA
ATOM     66  O   UNL     1       7.585 -10.513  -5.025  1.00  0.00    -0.744 OA
ENDBRANCH  59  63
ENDBRANCH  42  56
BRANCH  43  67
ATOM     67  C   UNL     1      -4.323  -3.322  -9.324  1.00  0.00     0.023 A 
ATOM     68  C   UNL     1      -5.548  -3.568  -8.687  1.00  0.00     0.031 A 
ATOM     69  C   UNL     1      -4.250  -2.245 -10.226  1.00  0.00     0.131 A 
ATOM     70  C   UNL     1      -6.662  -2.768  -8.983  1.00  0.00     0.055 A 
ATOM     71  C   UNL     1      -5.348  -1.423 -10.482  1.00  0.00     0.041 A 
ATOM     72  F   UNL     1      -3.101  -1.969 -10.863  1.00  0.00    -0.206 F 
ATOM     73  C   UNL     1      -6.567  -1.689  -9.865  1.00  0.00     0.022 A 
BRANCH  70  74
ATOM     74  S   UNL     1      -8.260  -3.198  -8.242  1.00  0.00     0.124 S 
ATOM     75  O   UNL     1      -8.477  -4.543  -8.763  1.00  0.00    -0.237 OA
ATOM     76  O   UNL     1      -7.970  -3.101  -6.816  1.00  0.00    -0.237 OA
ATOM     77  O   UNL     1      -9.163  -2.173  -8.762  1.00  0.00    -0.744 OA
ENDBRANCH  70  74
ENDBRANCH  43  67
BRANCH  55  78
ATOM     78  C   UNL     1      -2.956 -10.023 -10.683  1.00  0.00     0.023 A 
ATOM     79  C   UNL     1      -3.297 -10.053 -12.046  1.00  0.00     0.031 A 
ATOM     80  C   UNL     1      -3.419 -11.064  -9.859  1.00  0.00     0.131 A 
ATOM     81  C   UNL     1      -4.114 -11.083 -12.537  1.00  0.00     0.055 A 
ATOM     82  C   UNL     1      -4.189 -12.112 -10.362  1.00  0.00     0.041 A 
ATOM     83  F   UNL     1      -3.122 -11.081  -8.549  1.00  0.00    -0.206 F 
ATOM     84  C   UNL     1      -4.549 -12.121 -11.706  1.00  0.00     0.022 A 
BRANCH  81  85
ATOM     85  S   UNL     1      -4.655 -11.023 -14.267  1.00  0.00     0.124 S 
ATOM     86  O   UNL     1      -5.422  -9.782 -14.302  1.00  0.00    -0.237 OA
ATOM     87  O   UNL     1      -3.389 -11.011 -14.992  1.00  0.00    -0.237 OA
ATOM     88  O   UNL     1      -5.444 -12.244 -14.423  1.00  0.00    -0.744 OA
ENDBRANCH  81  85
ENDBRANCH  55  78
ENDBRANCH  29  30
ENDBRANCH  22  24
ENDBRANCH  21  22
ENDBRANCH   1  21
TORSDOF 16
