REMARK SMILES Nc1c(Cl)ccc2c1C=C(C(=O)OCCOC(=O)c1ccc(-c3c4nc(c(-c5cc(S(=O)(=O)[O-])ccc5F)c5ccc([nH]5)c(-c5cc(S(=O)(=O)[O-])ccc5F)c5nc(c(-c6cc(S(=O)(=O)[O-])ccc6F)c6ccc3[nH]6)C=C5)C=C4)cc1)[C@@H](C(F)(F)F)O2
REMARK SMILES IDX 15 1 14 2 13 3 11 4 12 5 10 6 2 7 3 8 8 9 4 10 5 11 7 12
REMARK SMILES IDX 9 13 6 14 87 15 82 16 1 17 83 20 84 21 85 22 86 23 16 24
REMARK SMILES IDX 17 25 18 26 19 27 20 28 81 29 21 30 80 31 22 32 23 33 24 34
REMARK SMILES IDX 74 35 25 36 79 37 73 38 75 39 26 40 78 41 72 42 71 43 27 45
REMARK SMILES IDX 59 46 39 47 58 48 40 49 43 50 57 51 76 52 41 53 42 54 56 56
REMARK SMILES IDX 77 57 44 58 28 59 29 60 37 61 30 62 36 63 38 64 35 65 31 66
REMARK SMILES IDX 32 67 33 68 34 69 60 70 61 71 69 72 62 73 68 74 70 75 67 76
REMARK SMILES IDX 63 77 64 78 65 79 66 80 45 81 46 82 54 83 47 84 53 85 55 86
REMARK SMILES IDX 52 87 48 88 49 89 50 90 51 91
REMARK H PARENT 1 18 1 19 75 44 43 55
REMARK Flexibility Score: inf
ROOT
ATOM      1  C   UNL     1      -4.569   4.728  -1.490  1.00  0.00     0.275 C 
ENDROOT
BRANCH   1   2
ATOM      2  C   UNL     1      -4.071   4.348  -2.885  1.00  0.00     0.275 C 
BRANCH   2   3
ATOM      3  O   UNL     1      -3.663   2.964  -2.937  1.00  0.00    -0.459 OA
BRANCH   3   4
ATOM      4  C   UNL     1      -2.325   2.750  -2.898  1.00  0.00     0.338 C 
ATOM      5  O   UNL     1      -1.455   3.602  -2.884  1.00  0.00    -0.246 OA
BRANCH   4   6
ATOM      6  C   UNL     1      -2.039   1.302  -2.863  1.00  0.00     0.088 C 
ATOM      7  C   UNL     1       0.280  -1.048  -1.156  1.00  0.00     0.061 A 
ATOM      8  C   UNL     1       0.712  -2.375  -1.353  1.00  0.00     0.064 A 
ATOM      9  C   UNL     1      -0.729  -0.541  -2.010  1.00  0.00     0.042 A 
ATOM     10  Cl  UNL     1       1.999  -3.039  -0.405  1.00  0.00    -0.082 Cl
ATOM     11  C   UNL     1       0.103  -3.200  -2.299  1.00  0.00     0.026 A 
ATOM     12  C   UNL     1      -1.343  -1.379  -2.951  1.00  0.00     0.130 A 
ATOM     13  C   UNL     1      -1.128   0.862  -1.988  1.00  0.00     0.029 C 
ATOM     14  C   UNL     1      -0.937  -2.707  -3.083  1.00  0.00     0.049 A 
ATOM     15  O   UNL     1      -2.362  -0.991  -3.778  1.00  0.00    -0.475 OA
ATOM     16  C   UNL     1      -2.672   0.424  -3.896  1.00  0.00     0.316 C 
BRANCH   7  17
ATOM     17  N   UNL     1       0.911  -0.238  -0.201  1.00  0.00    -0.397 N 
ATOM     18  H   UNL     1       1.610  -0.616   0.381  1.00  0.00     0.156 HD
ATOM     19  H   UNL     1       0.656   0.709  -0.112  1.00  0.00     0.156 HD
ENDBRANCH   7  17
BRANCH  16  20
ATOM     20  C   UNL     1      -2.315   0.892  -5.316  1.00  0.00     0.430 C 
ATOM     21  F   UNL     1      -2.863   0.082  -6.255  1.00  0.00    -0.167 F 
ATOM     22  F   UNL     1      -2.786   2.138  -5.568  1.00  0.00    -0.167 F 
ATOM     23  F   UNL     1      -0.980   0.913  -5.533  1.00  0.00    -0.167 F 
ENDBRANCH  16  20
ENDBRANCH   4   6
ENDBRANCH   3   4
ENDBRANCH   2   3
ENDBRANCH   1   2
BRANCH   1  24
ATOM     24  O   UNL     1      -3.490   4.690  -0.540  1.00  0.00    -0.458 OA
BRANCH  24  25
ATOM     25  C   UNL     1      -3.437   3.570   0.213  1.00  0.00     0.338 C 
ATOM     26  O   UNL     1      -4.210   2.626   0.191  1.00  0.00    -0.246 OA
BRANCH  25  27
ATOM     27  C   UNL     1      -2.242   3.586   1.065  1.00  0.00     0.060 A 
ATOM     28  C   UNL     1      -0.991   3.430   0.476  1.00  0.00     0.016 A 
ATOM     29  C   UNL     1      -2.376   3.554   2.451  1.00  0.00     0.016 A 
ATOM     30  C   UNL     1       0.102   3.077   1.259  1.00  0.00     0.010 A 
ATOM     31  C   UNL     1      -1.246   3.336   3.244  1.00  0.00     0.010 A 
ATOM     32  C   UNL     1      -0.006   3.033   2.656  1.00  0.00    -0.014 A 
BRANCH  32  33
ATOM     33  C   UNL     1       1.169   2.662   3.494  1.00  0.00     0.031 A 
ATOM     34  C   UNL     1       1.087   1.511   4.465  1.00  0.00     0.074 A 
ATOM     35  C   UNL     1       2.314   3.365   3.390  1.00  0.00     0.049 A 
ATOM     36  N   UNL     1       1.954   1.133   5.367  1.00  0.00    -0.248 NA
ATOM     37  C   UNL     1      -0.131   0.684   4.427  1.00  0.00     0.031 C 
ATOM     38  C   UNL     1       2.533   4.483   2.471  1.00  0.00     0.029 A 
ATOM     39  N   UNL     1       3.509   3.250   4.058  1.00  0.00    -0.354 N 
ATOM     40  C   UNL     1       1.366   0.070   6.044  1.00  0.00     0.074 A 
ATOM     41  C   UNL     1       0.064  -0.138   5.450  1.00  0.00     0.031 C 
ATOM     42  C   UNL     1       3.789   4.926   2.605  1.00  0.00     0.029 A 
ATOM     43  C   UNL     1       4.435   4.197   3.691  1.00  0.00     0.049 A 
ATOM     44  H   UNL     1       3.685   2.556   4.734  1.00  0.00     0.167 HD
ATOM     45  C   UNL     1       1.869  -0.661   7.066  1.00  0.00     0.034 A 
ATOM     46  C   UNL     1       5.651   4.492   4.194  1.00  0.00     0.034 A 
ATOM     47  C   UNL     1       3.191  -0.478   7.609  1.00  0.00     0.049 A 
ATOM     48  C   UNL     1       6.188   3.673   5.332  1.00  0.00     0.074 A 
ATOM     49  C   UNL     1       3.812  -1.213   8.604  1.00  0.00     0.029 A 
ATOM     50  N   UNL     1       4.095   0.495   7.208  1.00  0.00    -0.354 N 
ATOM     51  N   UNL     1       5.625   2.661   5.948  1.00  0.00    -0.248 NA
ATOM     52  C   UNL     1       7.514   4.031   5.850  1.00  0.00     0.031 C 
ATOM     53  C   UNL     1       5.060  -0.642   8.853  1.00  0.00     0.029 A 
ATOM     54  C   UNL     1       5.253   0.401   7.961  1.00  0.00     0.049 A 
ATOM     55  H   UNL     1       3.936   1.155   6.495  1.00  0.00     0.167 HD
ATOM     56  C   UNL     1       6.533   2.250   6.916  1.00  0.00     0.074 A 
ATOM     57  C   UNL     1       7.692   3.111   6.791  1.00  0.00     0.031 C 
ATOM     58  C   UNL     1       6.411   1.252   7.826  1.00  0.00     0.034 A 
BRANCH  45  59
ATOM     59  C   UNL     1       1.008  -1.726   7.699  1.00  0.00     0.023 A 
ATOM     60  C   UNL     1       0.629  -1.593   9.049  1.00  0.00     0.031 A 
ATOM     61  C   UNL     1       0.685  -2.918   7.031  1.00  0.00     0.131 A 
ATOM     62  C   UNL     1      -0.013  -2.652   9.701  1.00  0.00     0.055 A 
ATOM     63  C   UNL     1       0.007  -3.956   7.675  1.00  0.00     0.041 A 
ATOM     64  F   UNL     1       1.021  -3.091   5.743  1.00  0.00    -0.206 F 
ATOM     65  C   UNL     1      -0.332  -3.830   9.019  1.00  0.00     0.022 A 
BRANCH  62  66
ATOM     66  S   UNL     1      -0.409  -2.559  11.468  1.00  0.00     0.124 S 
ATOM     67  O   UNL     1      -1.843  -2.844  11.471  1.00  0.00    -0.237 OA
ATOM     68  O   UNL     1       0.436  -3.611  12.025  1.00  0.00    -0.237 OA
ATOM     69  O   UNL     1      -0.050  -1.195  11.837  1.00  0.00    -0.744 OA
ENDBRANCH  62  66
ENDBRANCH  45  59
BRANCH  46  70
ATOM     70  C   UNL     1       6.416   5.619   3.588  1.00  0.00     0.023 A 
ATOM     71  C   UNL     1       5.915   6.933   3.640  1.00  0.00     0.031 A 
ATOM     72  C   UNL     1       7.564   5.375   2.818  1.00  0.00     0.131 A 
ATOM     73  C   UNL     1       6.504   7.933   2.858  1.00  0.00     0.055 A 
ATOM     74  C   UNL     1       8.192   6.393   2.097  1.00  0.00     0.041 A 
ATOM     75  F   UNL     1       8.072   4.136   2.735  1.00  0.00    -0.206 F 
ATOM     76  C   UNL     1       7.649   7.675   2.098  1.00  0.00     0.022 A 
BRANCH  73  77
ATOM     77  S   UNL     1       5.724   9.563   2.698  1.00  0.00     0.124 S 
ATOM     78  O   UNL     1       6.823  10.464   3.033  1.00  0.00    -0.237 OA
ATOM     79  O   UNL     1       5.317   9.559   1.295  1.00  0.00    -0.237 OA
ATOM     80  O   UNL     1       4.632   9.520   3.664  1.00  0.00    -0.744 OA
ENDBRANCH  73  77
ENDBRANCH  46  70
BRANCH  58  81
ATOM     81  C   UNL     1       7.554   0.996   8.774  1.00  0.00     0.023 A 
ATOM     82  C   UNL     1       8.240  -0.233   8.724  1.00  0.00     0.031 A 
ATOM     83  C   UNL     1       7.851   1.885   9.820  1.00  0.00     0.131 A 
ATOM     84  C   UNL     1       9.153  -0.561   9.731  1.00  0.00     0.055 A 
ATOM     85  C   UNL     1       8.798   1.573  10.796  1.00  0.00     0.041 A 
ATOM     86  F   UNL     1       7.218   3.065   9.912  1.00  0.00    -0.206 F 
ATOM     87  C   UNL     1       9.443   0.339  10.763  1.00  0.00     0.022 A 
BRANCH  84  88
ATOM     88  S   UNL     1       9.941  -2.194   9.781  1.00  0.00     0.124 S 
ATOM     89  O   UNL     1      11.360  -1.846   9.801  1.00  0.00    -0.237 OA
ATOM     90  O   UNL     1       9.417  -2.748  11.026  1.00  0.00    -0.237 OA
ATOM     91  O   UNL     1       9.481  -2.845   8.559  1.00  0.00    -0.744 OA
ENDBRANCH  84  88
ENDBRANCH  58  81
ENDBRANCH  32  33
ENDBRANCH  25  27
ENDBRANCH  24  25
ENDBRANCH   1  24
TORSDOF 16
