REMARK SMILES O=C(OCCOC(=O)c1cc2cnc(Cl)cc2[nH]1)c1ccc(-c2c3nc(c(-c4cc(S(=O)(=O)[O-])ccc4F)c4ccc([nH]4)c(-c4cc(S(=O)(=O)[O-])ccc4F)c4nc(c(-c5cc(S(=O)(=O)[O-])ccc5F)c5ccc2[nH]5)C=C4)C=C3)cc1
REMARK SMILES IDX 3 1 2 2 1 3 19 4 20 5 81 6 21 7 80 8 22 9 23 10 24 11 74 12
REMARK SMILES IDX 25 13 79 14 73 15 75 16 26 17 78 18 72 19 71 20 27 22 59 23
REMARK SMILES IDX 39 24 58 25 40 26 43 27 57 28 76 29 41 30 42 31 56 33 77 34
REMARK SMILES IDX 44 35 28 36 29 37 37 38 30 39 36 40 38 41 35 42 31 43 32 44
REMARK SMILES IDX 33 45 34 46 60 47 61 48 69 49 62 50 68 51 70 52 67 53 63 54
REMARK SMILES IDX 64 55 65 56 66 57 45 58 46 59 54 60 47 61 53 62 55 63 52 64
REMARK SMILES IDX 48 65 49 66 50 67 51 68 4 69 5 70 6 71 7 72 8 73 9 74 10 75
REMARK SMILES IDX 18 76 11 77 17 78 12 80 16 81 13 82 14 83 15 84
REMARK H PARENT 75 21 43 32 18 79
REMARK Flexibility Score: inf
ROOT
ATOM      1  O   UNL     1       3.083   1.293  -0.158  1.00  0.00    -0.458 OA
ENDROOT
BRANCH   1   2
ATOM      2  C   UNL     1       3.785   0.592  -1.094  1.00  0.00     0.338 C 
ATOM      3  O   UNL     1       3.576   0.700  -2.295  1.00  0.00    -0.246 OA
BRANCH   2   4
ATOM      4  C   UNL     1       4.714  -0.420  -0.574  1.00  0.00     0.060 A 
ATOM      5  C   UNL     1       4.342  -1.743  -0.759  1.00  0.00     0.016 A 
ATOM      6  C   UNL     1       5.739  -0.067   0.308  1.00  0.00     0.016 A 
ATOM      7  C   UNL     1       4.760  -2.660   0.181  1.00  0.00     0.010 A 
ATOM      8  C   UNL     1       6.173  -1.001   1.240  1.00  0.00     0.010 A 
ATOM      9  C   UNL     1       5.589  -2.266   1.248  1.00  0.00    -0.014 A 
BRANCH   9  10
ATOM     10  C   UNL     1       5.900  -3.302   2.242  1.00  0.00     0.031 A 
ATOM     11  C   UNL     1       6.394  -4.551   1.605  1.00  0.00     0.074 A 
ATOM     12  C   UNL     1       5.811  -3.172   3.582  1.00  0.00     0.049 A 
ATOM     13  N   UNL     1       5.880  -5.739   1.643  1.00  0.00    -0.248 NA
ATOM     14  C   UNL     1       7.464  -4.374   0.605  1.00  0.00     0.031 C 
ATOM     15  C   UNL     1       5.567  -1.938   4.334  1.00  0.00     0.029 A 
ATOM     16  N   UNL     1       6.040  -4.098   4.568  1.00  0.00    -0.354 N 
ATOM     17  C   UNL     1       6.706  -6.498   0.819  1.00  0.00     0.074 A 
ATOM     18  C   UNL     1       7.468  -5.570   0.027  1.00  0.00     0.031 C 
ATOM     19  C   UNL     1       5.905  -2.134   5.626  1.00  0.00     0.029 A 
ATOM     20  C   UNL     1       6.286  -3.526   5.811  1.00  0.00     0.049 A 
ATOM     21  H   UNL     1       6.031  -5.069   4.412  1.00  0.00     0.167 HD
ATOM     22  C   UNL     1       6.959  -7.814   1.051  1.00  0.00     0.034 A 
ATOM     23  C   UNL     1       6.879  -4.106   6.883  1.00  0.00     0.034 A 
ATOM     24  C   UNL     1       5.973  -8.421   1.892  1.00  0.00     0.049 A 
ATOM     25  C   UNL     1       6.857  -5.576   6.733  1.00  0.00     0.074 A 
ATOM     26  C   UNL     1       4.675  -8.847   1.740  1.00  0.00     0.029 A 
ATOM     27  N   UNL     1       6.241  -8.375   3.234  1.00  0.00    -0.354 N 
ATOM     28  N   UNL     1       5.796  -6.317   6.867  1.00  0.00    -0.248 NA
ATOM     29  C   UNL     1       8.013  -6.243   6.143  1.00  0.00     0.031 C 
ATOM     30  C   UNL     1       4.108  -8.855   3.044  1.00  0.00     0.029 A 
ATOM     31  C   UNL     1       5.078  -8.439   3.956  1.00  0.00     0.049 A 
ATOM     32  H   UNL     1       7.142  -8.305   3.625  1.00  0.00     0.167 HD
ATOM     33  C   UNL     1       6.005  -7.365   5.993  1.00  0.00     0.074 A 
ATOM     34  C   UNL     1       7.436  -7.375   5.735  1.00  0.00     0.031 C 
ATOM     35  C   UNL     1       4.967  -7.916   5.305  1.00  0.00     0.034 A 
BRANCH  22  36
ATOM     36  C   UNL     1       8.337  -8.402   0.850  1.00  0.00     0.023 A 
ATOM     37  C   UNL     1       9.484  -7.590   0.742  1.00  0.00     0.031 A 
ATOM     38  C   UNL     1       8.578  -9.778   0.983  1.00  0.00     0.131 A 
ATOM     39  C   UNL     1      10.774  -8.118   0.674  1.00  0.00     0.055 A 
ATOM     40  C   UNL     1       9.878 -10.308   1.005  1.00  0.00     0.041 A 
ATOM     41  F   UNL     1       7.564 -10.642   1.147  1.00  0.00    -0.206 F 
ATOM     42  C   UNL     1      10.985  -9.479   0.834  1.00  0.00     0.022 A 
BRANCH  39  43
ATOM     43  S   UNL     1      12.178  -7.012   0.362  1.00  0.00     0.124 S 
ATOM     44  O   UNL     1      12.968  -7.181   1.575  1.00  0.00    -0.237 OA
ATOM     45  O   UNL     1      12.743  -7.587  -0.855  1.00  0.00    -0.237 OA
ATOM     46  O   UNL     1      11.550  -5.703   0.189  1.00  0.00    -0.744 OA
ENDBRANCH  39  43
ENDBRANCH  22  36
BRANCH  23  47
ATOM     47  C   UNL     1       7.794  -3.459   7.851  1.00  0.00     0.023 A 
ATOM     48  C   UNL     1       8.588  -2.375   7.437  1.00  0.00     0.031 A 
ATOM     49  C   UNL     1       8.128  -4.075   9.070  1.00  0.00     0.131 A 
ATOM     50  C   UNL     1       9.698  -1.974   8.189  1.00  0.00     0.055 A 
ATOM     51  C   UNL     1       9.233  -3.667   9.827  1.00  0.00     0.041 A 
ATOM     52  F   UNL     1       7.432  -5.133   9.513  1.00  0.00    -0.206 F 
ATOM     53  C   UNL     1      10.033  -2.620   9.379  1.00  0.00     0.022 A 
BRANCH  50  54
ATOM     54  S   UNL     1      10.771  -0.648   7.576  1.00  0.00     0.124 S 
ATOM     55  O   UNL     1      10.989   0.155   8.776  1.00  0.00    -0.237 OA
ATOM     56  O   UNL     1      11.927  -1.400   7.101  1.00  0.00    -0.237 OA
ATOM     57  O   UNL     1       9.961  -0.006   6.544  1.00  0.00    -0.744 OA
ENDBRANCH  50  54
ENDBRANCH  23  47
BRANCH  35  58
ATOM     58  C   UNL     1       3.583  -7.787   5.881  1.00  0.00     0.023 A 
ATOM     59  C   UNL     1       2.854  -8.978   6.043  1.00  0.00     0.031 A 
ATOM     60  C   UNL     1       2.918  -6.571   6.119  1.00  0.00     0.131 A 
ATOM     61  C   UNL     1       1.499  -8.937   6.383  1.00  0.00     0.055 A 
ATOM     62  C   UNL     1       1.585  -6.538   6.540  1.00  0.00     0.041 A 
ATOM     63  F   UNL     1       3.508  -5.390   5.879  1.00  0.00    -0.206 F 
ATOM     64  C   UNL     1       0.864  -7.724   6.656  1.00  0.00     0.022 A 
BRANCH  61  65
ATOM     65  S   UNL     1       0.499 -10.445   6.309  1.00  0.00     0.124 S 
ATOM     66  O   UNL     1       0.128 -10.639   7.708  1.00  0.00    -0.237 OA
ATOM     67  O   UNL     1      -0.591 -10.049   5.419  1.00  0.00    -0.237 OA
ATOM     68  O   UNL     1       1.409 -11.445   5.758  1.00  0.00    -0.744 OA
ENDBRANCH  61  65
ENDBRANCH  35  58
ENDBRANCH   9  10
ENDBRANCH   2   4
ENDBRANCH   1   2
BRANCH   1  69
ATOM     69  C   UNL     1       3.136   1.110   1.289  1.00  0.00     0.275 C 
BRANCH  69  70
ATOM     70  C   UNL     1       2.458  -0.152   1.852  1.00  0.00     0.275 C 
BRANCH  70  71
ATOM     71  O   UNL     1       1.909  -0.949   0.804  1.00  0.00    -0.457 OA
BRANCH  71  72
ATOM     72  C   UNL     1       1.260  -2.081   1.182  1.00  0.00     0.354 C 
ATOM     73  O   UNL     1       0.922  -2.365   2.321  1.00  0.00    -0.244 OA
BRANCH  72  74
ATOM     74  C   UNL     1       1.160  -2.923   0.021  1.00  0.00     0.126 A 
ATOM     75  C   UNL     1       0.697  -2.599  -1.243  1.00  0.00     0.045 A 
ATOM     76  N   UNL     1       1.669  -4.203  -0.052  1.00  0.00    -0.349 N 
ATOM     77  C   UNL     1       1.115  -3.618  -2.137  1.00  0.00     0.019 A 
ATOM     78  C   UNL     1       1.780  -4.579  -1.376  1.00  0.00     0.051 A 
ATOM     79  H   UNL     1       1.913  -4.762   0.721  1.00  0.00     0.167 HD
ATOM     80  C   UNL     1       1.058  -3.772  -3.527  1.00  0.00     0.123 A 
ATOM     81  C   UNL     1       2.436  -5.659  -1.970  1.00  0.00     0.067 A 
ATOM     82  N   UNL     1       1.674  -4.816  -4.130  1.00  0.00    -0.244 NA
ATOM     83  C   UNL     1       2.344  -5.697  -3.355  1.00  0.00     0.131 A 
ATOM     84  Cl  UNL     1       3.140  -6.932  -4.246  1.00  0.00    -0.062 Cl
ENDBRANCH  72  74
ENDBRANCH  71  72
ENDBRANCH  70  71
ENDBRANCH  69  70
ENDBRANCH   1  69
TORSDOF 14
