REMARK SMILES CCCn1nc(C(=O)OCCOC(=O)c2ccc(-c3c4nc(c(-c5cc(S(=O)(=O)[O-])ccc5F)c5ccc([nH]5)c(-c5cc(S(=O)(=O)[O-])ccc5F)c5nc(c(-c6cc(S(=O)(=O)[O-])ccc6F)c6ccc3[nH]6)C=C5)C=C4)cc2)c2c1CC[C@@H]([NH+]1CC[NH+](Cc3ccccn3)CC1)C2
REMARK SMILES IDX 10 1 9 2 7 3 8 4 6 5 4 6 5 7 79 8 78 9 80 10 96 11 81 12
REMARK SMILES IDX 82 13 3 14 2 15 1 16 83 17 84 18 95 19 85 21 94 22 86 23
REMARK SMILES IDX 87 25 88 26 89 27 93 28 90 29 92 30 91 31 11 32 12 33 13 34
REMARK SMILES IDX 14 35 15 36 16 37 77 38 17 39 76 40 18 41 19 42 20 43 70 44
REMARK SMILES IDX 21 45 75 46 69 47 71 48 22 49 74 50 68 51 67 52 23 54 55 55
REMARK SMILES IDX 35 56 54 57 36 58 39 59 53 60 72 61 37 62 38 63 52 65 73 66
REMARK SMILES IDX 40 67 24 68 25 69 33 70 26 71 32 72 34 73 31 74 27 75 28 76
REMARK SMILES IDX 29 77 30 78 56 79 57 80 65 81 58 82 64 83 66 84 63 85 59 86
REMARK SMILES IDX 60 87 61 88 62 89 41 90 42 91 50 92 43 93 49 94 51 95 48 96
REMARK SMILES IDX 44 97 45 98 46 99 47 100
REMARK H PARENT 83 20 86 24 71 53 39 64
REMARK Flexibility Score: inf
ROOT
ATOM      1  C   UNL     1      -2.372   6.488  -0.921  1.00  0.00     0.275 C 
ENDROOT
BRANCH   1   2
ATOM      2  O   UNL     1      -1.754   5.666   0.080  1.00  0.00    -0.457 OA
BRANCH   2   3
ATOM      3  C   UNL     1      -1.947   4.306   0.093  1.00  0.00     0.359 C 
ATOM      4  O   UNL     1      -2.791   3.735  -0.589  1.00  0.00    -0.244 OA
BRANCH   3   5
ATOM      5  C   UNL     1      -1.012   3.659   1.041  1.00  0.00     0.174 A 
ATOM      6  N   UNL     1       0.013   2.170   2.268  1.00  0.00    -0.268 N 
ATOM      7  N   UNL     1      -1.023   2.348   1.392  1.00  0.00    -0.165 NA
ATOM      8  C   UNL     1       0.457   3.357   2.786  1.00  0.00     0.043 A 
ATOM      9  C   UNL     1       0.024   4.338   1.730  1.00  0.00     0.014 A 
ATOM     10  C   UNL     1       1.776   3.716   4.168  1.00  0.00     0.062 C 
ATOM     11  C   UNL     1       0.606   6.021   1.460  1.00  0.00     0.105 C 
ATOM     12  C   UNL     1       2.646   5.749   3.986  1.00  0.00     0.072 C 
ATOM     13  C   UNL     1       2.122   6.672   2.329  1.00  0.00     0.189 C 
BRANCH   6  14
ATOM     14  C   UNL     1       0.613   0.867   2.490  1.00  0.00     0.144 C 
BRANCH  14  15
ATOM     15  C   UNL     1       0.285  -0.241   1.479  1.00  0.00     0.020 C 
ATOM     16  C   UNL     1       0.965  -0.069   0.126  1.00  0.00     0.006 C 
ENDBRANCH  14  15
ENDBRANCH   6  14
BRANCH  13  17
ATOM     17  N   UNL     1       3.235   6.915   1.346  1.00  0.00    -0.323 N 
ATOM     18  C   UNL     1       3.433   6.013   0.183  1.00  0.00     0.324 C 
ATOM     19  C   UNL     1       4.519   7.274   1.952  1.00  0.00     0.324 C 
ATOM     20  H   UNL     1       2.812   7.731   0.905  1.00  0.00     0.348 HD
ATOM     21  C   UNL     1       4.455   4.835   0.298  1.00  0.00     0.324 C 
ATOM     22  C   UNL     1       5.673   6.238   1.826  1.00  0.00     0.324 C 
ATOM     23  N   UNL     1       5.328   4.862   1.468  1.00  0.00    -0.321 N 
ATOM     24  H   UNL     1       6.218   4.440   1.202  1.00  0.00     0.348 HD
BRANCH  23  25
ATOM     25  C   UNL     1       5.004   3.913   2.541  1.00  0.00     0.319 C 
BRANCH  25  26
ATOM     26  C   UNL     1       3.723   4.089   3.317  1.00  0.00     0.095 A 
ATOM     27  C   UNL     1       2.246   4.588   2.569  1.00  0.00     0.030 A 
ATOM     28  N   UNL     1       3.814   4.151   5.000  1.00  0.00    -0.255 NA
ATOM     29  C   UNL     1       0.838   5.328   3.724  1.00  0.00     0.004 A 
ATOM     30  C   UNL     1       2.567   4.753   5.967  1.00  0.00     0.111 A 
ATOM     31  C   UNL     1       1.078   5.344   5.447  1.00  0.00     0.020 A 
ENDBRANCH  25  26
ENDBRANCH  23  25
ENDBRANCH  13  17
ENDBRANCH   3   5
ENDBRANCH   2   3
ENDBRANCH   1   2
BRANCH   1  32
ATOM     32  C   UNL     1      -1.496   6.601  -2.158  1.00  0.00     0.275 C 
BRANCH  32  33
ATOM     33  O   UNL     1      -1.533   5.375  -2.872  1.00  0.00    -0.458 OA
BRANCH  33  34
ATOM     34  C   UNL     1      -0.537   4.505  -2.598  1.00  0.00     0.338 C 
ATOM     35  O   UNL     1       0.277   4.575  -1.693  1.00  0.00    -0.246 OA
BRANCH  34  36
ATOM     36  C   UNL     1      -0.472   3.541  -3.694  1.00  0.00     0.060 A 
ATOM     37  C   UNL     1       0.448   2.495  -3.587  1.00  0.00     0.016 A 
ATOM     38  C   UNL     1      -1.118   3.851  -4.900  1.00  0.00     0.016 A 
ATOM     39  C   UNL     1       0.859   1.872  -4.743  1.00  0.00     0.010 A 
ATOM     40  C   UNL     1      -0.688   3.252  -6.050  1.00  0.00     0.010 A 
ATOM     41  C   UNL     1       0.347   2.326  -5.963  1.00  0.00    -0.014 A 
BRANCH  41  42
ATOM     42  C   UNL     1       0.799   1.711  -7.187  1.00  0.00     0.031 A 
ATOM     43  C   UNL     1       0.222   0.361  -7.374  1.00  0.00     0.074 A 
ATOM     44  C   UNL     1       1.501   2.401  -8.105  1.00  0.00     0.049 A 
ATOM     45  N   UNL     1       0.846  -0.767  -7.350  1.00  0.00    -0.248 NA
ATOM     46  C   UNL     1      -1.248   0.228  -7.359  1.00  0.00     0.031 C 
ATOM     47  C   UNL     1       1.862   3.821  -8.098  1.00  0.00     0.029 A 
ATOM     48  N   UNL     1       1.941   1.991  -9.319  1.00  0.00    -0.354 N 
ATOM     49  C   UNL     1      -0.128  -1.727  -7.588  1.00  0.00     0.074 A 
ATOM     50  C   UNL     1      -1.390  -1.096  -7.324  1.00  0.00     0.031 C 
ATOM     51  C   UNL     1       2.230   4.191  -9.347  1.00  0.00     0.029 A 
ATOM     52  C   UNL     1       2.233   3.020 -10.209  1.00  0.00     0.049 A 
ATOM     53  H   UNL     1       2.046   1.041  -9.552  1.00  0.00     0.167 HD
ATOM     54  C   UNL     1       0.168  -2.863  -8.273  1.00  0.00     0.034 A 
ATOM     55  C   UNL     1       2.348   2.901 -11.562  1.00  0.00     0.034 A 
ATOM     56  C   UNL     1       1.594  -3.101  -8.291  1.00  0.00     0.049 A 
ATOM     57  C   UNL     1       2.623   1.458 -11.829  1.00  0.00     0.074 A 
ATOM     58  C   UNL     1       2.549  -3.217  -7.297  1.00  0.00     0.029 A 
ATOM     59  N   UNL     1       2.293  -2.798  -9.441  1.00  0.00    -0.354 N 
ATOM     60  N   UNL     1       3.714   0.858 -11.424  1.00  0.00    -0.248 NA
ATOM     61  C   UNL     1       1.480   0.574 -12.033  1.00  0.00     0.031 C 
ATOM     62  C   UNL     1       3.660  -2.460  -7.773  1.00  0.00     0.029 A 
ATOM     63  C   UNL     1       3.372  -2.027  -9.069  1.00  0.00     0.049 A 
ATOM     64  H   UNL     1       2.064  -3.080 -10.356  1.00  0.00     0.167 HD
ATOM     65  C   UNL     1       3.294  -0.364 -10.916  1.00  0.00     0.074 A 
ATOM     66  C   UNL     1       1.914  -0.512 -11.384  1.00  0.00     0.031 C 
ATOM     67  C   UNL     1       3.969  -1.000  -9.909  1.00  0.00     0.034 A 
BRANCH  54  68
ATOM     68  C   UNL     1      -0.790  -3.534  -9.226  1.00  0.00     0.023 A 
ATOM     69  C   UNL     1      -0.389  -4.755  -9.795  1.00  0.00     0.031 A 
ATOM     70  C   UNL     1      -1.930  -2.927  -9.809  1.00  0.00     0.131 A 
ATOM     71  C   UNL     1      -1.053  -5.275 -10.919  1.00  0.00     0.055 A 
ATOM     72  C   UNL     1      -2.631  -3.487 -10.877  1.00  0.00     0.041 A 
ATOM     73  F   UNL     1      -2.372  -1.715  -9.454  1.00  0.00    -0.206 F 
ATOM     74  C   UNL     1      -2.177  -4.655 -11.459  1.00  0.00     0.022 A 
BRANCH  71  75
ATOM     75  S   UNL     1      -0.312  -6.687 -11.774  1.00  0.00     0.124 S 
ATOM     76  O   UNL     1       1.034  -6.195 -12.044  1.00  0.00    -0.237 OA
ATOM     77  O   UNL     1      -0.424  -7.738 -10.768  1.00  0.00    -0.237 OA
ATOM     78  O   UNL     1      -1.163  -6.855 -12.949  1.00  0.00    -0.744 OA
ENDBRANCH  71  75
ENDBRANCH  54  68
BRANCH  55  79
ATOM     79  C   UNL     1       1.834   3.871 -12.585  1.00  0.00     0.023 A 
ATOM     80  C   UNL     1       2.213   3.846 -13.948  1.00  0.00     0.031 A 
ATOM     81  C   UNL     1       0.763   4.738 -12.257  1.00  0.00     0.131 A 
ATOM     82  C   UNL     1       1.547   4.670 -14.895  1.00  0.00     0.055 A 
ATOM     83  C   UNL     1       0.117   5.551 -13.191  1.00  0.00     0.041 A 
ATOM     84  F   UNL     1       0.241   4.770 -11.021  1.00  0.00    -0.206 F 
ATOM     85  C   UNL     1       0.502   5.516 -14.518  1.00  0.00     0.022 A 
BRANCH  82  86
ATOM     86  S   UNL     1       1.974   4.602 -16.670  1.00  0.00     0.124 S 
ATOM     87  O   UNL     1       3.301   5.204 -16.693  1.00  0.00    -0.237 OA
ATOM     88  O   UNL     1       1.902   3.174 -16.957  1.00  0.00    -0.237 OA
ATOM     89  O   UNL     1       0.926   5.404 -17.305  1.00  0.00    -0.744 OA
ENDBRANCH  82  86
ENDBRANCH  55  79
BRANCH  67  90
ATOM     90  C   UNL     1       5.336  -0.485  -9.483  1.00  0.00     0.023 A 
ATOM     91  C   UNL     1       5.618   0.836  -9.056  1.00  0.00     0.031 A 
ATOM     92  C   UNL     1       6.366  -1.436  -9.360  1.00  0.00     0.131 A 
ATOM     93  C   UNL     1       6.892   1.154  -8.535  1.00  0.00     0.055 A 
ATOM     94  C   UNL     1       7.613  -1.123  -8.820  1.00  0.00     0.041 A 
ATOM     95  F   UNL     1       6.160  -2.712  -9.724  1.00  0.00    -0.206 F 
ATOM     96  C   UNL     1       7.883   0.176  -8.410  1.00  0.00     0.022 A 
BRANCH  93  97
ATOM     97  S   UNL     1       7.299   2.858  -8.023  1.00  0.00     0.124 S 
ATOM     98  O   UNL     1       6.822   3.671  -9.135  1.00  0.00    -0.237 OA
ATOM     99  O   UNL     1       6.567   2.995  -6.767  1.00  0.00    -0.237 OA
ATOM    100  O   UNL     1       8.756   2.828  -7.875  1.00  0.00    -0.744 OA
ENDBRANCH  93  97
ENDBRANCH  67  90
ENDBRANCH  41  42
ENDBRANCH  34  36
ENDBRANCH  33  34
ENDBRANCH  32  33
ENDBRANCH   1  32
TORSDOF 19
