REMARK SMILES O=C(Nc1ccccc1C(=O)OCCOC(=O)c1ccc(-c2c3nc(c(-c4cc(S(=O)(=O)[O-])ccc4F)c4ccc([nH]4)c(-c4cc(S(=O)(=O)[O-])ccc4F)c4nc(c(-c5cc(S(=O)(=O)[O-])ccc5F)c5ccc2[nH]5)C=C4)C=C3)cc1)c1ccc(N2C(=O)[C@H]3CC=CC[C@H]3C2=O)cc1
REMARK SMILES IDX 13 1 12 2 10 3 11 4 9 5 4 6 5 7 6 8 8 9 7 10 3 11 1 12 2 13
REMARK SMILES IDX 81 15 82 16 97 17 83 18 96 19 84 20 85 21 86 22 94 23 87 24
REMARK SMILES IDX 88 25 93 26 95 27 89 28 92 29 90 30 91 31 14 32 15 33 16 34
REMARK SMILES IDX 17 35 18 36 19 37 80 38 20 39 79 40 21 41 22 42 23 43 73 44
REMARK SMILES IDX 24 45 78 46 72 47 74 48 25 49 77 50 71 51 70 52 26 54 58 55
REMARK SMILES IDX 38 56 57 57 39 58 42 59 56 60 75 61 40 62 41 63 55 65 76 66
REMARK SMILES IDX 43 67 27 68 28 69 36 70 29 71 35 72 37 73 34 74 30 75 31 76
REMARK SMILES IDX 32 77 33 78 59 79 60 80 68 81 61 82 67 83 69 84 66 85 62 86
REMARK SMILES IDX 63 87 64 88 65 89 44 90 45 91 53 92 46 93 52 94 54 95 51 96
REMARK SMILES IDX 47 97 48 98 49 99 50 100
REMARK H PARENT 3 14 74 53 42 64
REMARK Flexibility Score: inf
ROOT
ATOM      1  C   UNL     1       2.420   0.564   2.968  1.00  0.00     0.275 C 
ENDROOT
BRANCH   1   2
ATOM      2  O   UNL     1       3.065  -0.345   2.047  1.00  0.00    -0.458 OA
BRANCH   2   3
ATOM      3  C   UNL     1       4.218   0.114   1.498  1.00  0.00     0.340 C 
ATOM      4  O   UNL     1       4.774   1.157   1.785  1.00  0.00    -0.246 OA
BRANCH   3   5
ATOM      5  C   UNL     1       4.756  -0.782   0.448  1.00  0.00     0.083 A 
ATOM      6  C   UNL     1       4.023  -1.212  -0.668  1.00  0.00     0.056 A 
ATOM      7  C   UNL     1       4.635  -2.099  -1.573  1.00  0.00     0.027 A 
ATOM      8  C   UNL     1       5.981  -2.456  -1.443  1.00  0.00     0.002 A 
ATOM      9  C   UNL     1       6.104  -1.167   0.573  1.00  0.00     0.018 A 
ATOM     10  C   UNL     1       6.722  -1.977  -0.375  1.00  0.00     0.001 A 
BRANCH   6  11
ATOM     11  N   UNL     1       2.717  -0.802  -1.015  1.00  0.00    -0.321 N 
ATOM     12  O   UNL     1       0.859   0.490  -0.949  1.00  0.00    -0.269 OA
ATOM     13  C   UNL     1       2.083   0.414  -0.856  1.00  0.00     0.255 C 
ATOM     14  H   UNL     1       2.167  -1.500  -1.440  1.00  0.00     0.170 HD
BRANCH  13  15
ATOM     15  C   UNL     1       2.870   1.661  -0.675  1.00  0.00     0.040 A 
ATOM     16  C   UNL     1       4.071   1.873  -1.357  1.00  0.00     0.016 A 
ATOM     17  C   UNL     1       2.416   2.614   0.240  1.00  0.00     0.016 A 
ATOM     18  C   UNL     1       4.862   2.981  -1.048  1.00  0.00     0.027 A 
ATOM     19  C   UNL     1       3.233   3.698   0.580  1.00  0.00     0.027 A 
ATOM     20  C   UNL     1       4.470   3.889  -0.055  1.00  0.00     0.052 A 
BRANCH  20  21
ATOM     21  N   UNL     1       5.277   5.008   0.263  1.00  0.00    -0.250 N 
ATOM     22  C   UNL     1       5.997   5.706  -0.675  1.00  0.00     0.238 C 
ATOM     23  C   UNL     1       5.374   5.563   1.516  1.00  0.00     0.238 C 
ATOM     24  O   UNL     1       6.154   5.445  -1.862  1.00  0.00    -0.274 OA
ATOM     25  C   UNL     1       6.482   6.994  -0.061  1.00  0.00     0.096 C 
ATOM     26  C   UNL     1       6.222   6.813   1.437  1.00  0.00     0.096 C 
ATOM     27  O   UNL     1       4.904   5.148   2.569  1.00  0.00    -0.274 OA
ATOM     28  C   UNL     1       5.728   8.159  -0.724  1.00  0.00     0.041 C 
ATOM     29  C   UNL     1       5.469   7.964   2.106  1.00  0.00     0.041 C 
ATOM     30  C   UNL     1       4.415   8.469  -0.061  1.00  0.00    -0.030 C 
ATOM     31  C   UNL     1       4.297   8.396   1.272  1.00  0.00    -0.030 C 
ENDBRANCH  20  21
ENDBRANCH  13  15
ENDBRANCH   6  11
ENDBRANCH   3   5
ENDBRANCH   2   3
ENDBRANCH   1   2
BRANCH   1  32
ATOM     32  C   UNL     1       2.706   0.264   4.440  1.00  0.00     0.275 C 
BRANCH  32  33
ATOM     33  O   UNL     1       4.047   0.631   4.804  1.00  0.00    -0.458 OA
BRANCH  33  34
ATOM     34  C   UNL     1       4.946  -0.360   4.629  1.00  0.00     0.338 C 
ATOM     35  O   UNL     1       4.720  -1.504   4.265  1.00  0.00    -0.246 OA
BRANCH  34  36
ATOM     36  C   UNL     1       6.312   0.124   4.841  1.00  0.00     0.060 A 
ATOM     37  C   UNL     1       7.061   0.437   3.713  1.00  0.00     0.016 A 
ATOM     38  C   UNL     1       6.930   0.004   6.080  1.00  0.00     0.016 A 
ATOM     39  C   UNL     1       8.439   0.453   3.763  1.00  0.00     0.010 A 
ATOM     40  C   UNL     1       8.317   0.161   6.157  1.00  0.00     0.010 A 
ATOM     41  C   UNL     1       9.086   0.328   4.989  1.00  0.00    -0.014 A 
BRANCH  41  42
ATOM     42  C   UNL     1      10.566   0.296   5.024  1.00  0.00     0.031 A 
ATOM     43  C   UNL     1      11.257  -0.902   5.608  1.00  0.00     0.074 A 
ATOM     44  C   UNL     1      11.277   1.315   4.501  1.00  0.00     0.049 A 
ATOM     45  N   UNL     1      12.503  -1.043   5.972  1.00  0.00    -0.248 NA
ATOM     46  C   UNL     1      10.422  -2.092   5.838  1.00  0.00     0.031 C 
ATOM     47  C   UNL     1      10.711   2.482   3.816  1.00  0.00     0.029 A 
ATOM     48  N   UNL     1      12.628   1.536   4.464  1.00  0.00    -0.354 N 
ATOM     49  C   UNL     1      12.589  -2.313   6.532  1.00  0.00     0.074 A 
ATOM     50  C   UNL     1      11.264  -2.891   6.476  1.00  0.00     0.031 C 
ATOM     51  C   UNL     1      11.706   3.282   3.412  1.00  0.00     0.029 A 
ATOM     52  C   UNL     1      12.963   2.754   3.919  1.00  0.00     0.049 A 
ATOM     53  H   UNL     1      13.293   0.889   4.794  1.00  0.00     0.167 HD
ATOM     54  C   UNL     1      13.683  -2.926   7.048  1.00  0.00     0.034 A 
ATOM     55  C   UNL     1      14.138   3.411   3.905  1.00  0.00     0.034 A 
ATOM     56  C   UNL     1      14.991  -2.316   7.058  1.00  0.00     0.049 A 
ATOM     57  C   UNL     1      15.321   2.753   4.561  1.00  0.00     0.074 A 
ATOM     58  C   UNL     1      16.178  -2.820   7.559  1.00  0.00     0.029 A 
ATOM     59  N   UNL     1      15.284  -1.061   6.531  1.00  0.00    -0.354 N 
ATOM     60  N   UNL     1      15.385   1.590   5.169  1.00  0.00    -0.248 NA
ATOM     61  C   UNL     1      16.584   3.496   4.536  1.00  0.00     0.031 C 
ATOM     62  C   UNL     1      17.168  -1.844   7.401  1.00  0.00     0.029 A 
ATOM     63  C   UNL     1      16.625  -0.765   6.719  1.00  0.00     0.049 A 
ATOM     64  H   UNL     1      14.633  -0.470   6.089  1.00  0.00     0.167 HD
ATOM     65  C   UNL     1      16.705   1.451   5.582  1.00  0.00     0.074 A 
ATOM     66  C   UNL     1      17.402   2.642   5.132  1.00  0.00     0.031 C 
ATOM     67  C   UNL     1      17.291   0.436   6.268  1.00  0.00     0.034 A 
BRANCH  54  68
ATOM     68  C   UNL     1      13.484  -4.274   7.701  1.00  0.00     0.023 A 
ATOM     69  C   UNL     1      13.018  -5.391   6.986  1.00  0.00     0.031 A 
ATOM     70  C   UNL     1      13.712  -4.430   9.081  1.00  0.00     0.131 A 
ATOM     71  C   UNL     1      12.715  -6.582   7.665  1.00  0.00     0.055 A 
ATOM     72  C   UNL     1      13.495  -5.646   9.734  1.00  0.00     0.041 A 
ATOM     73  F   UNL     1      14.130  -3.395   9.827  1.00  0.00    -0.206 F 
ATOM     74  C   UNL     1      12.976  -6.726   9.029  1.00  0.00     0.022 A 
BRANCH  71  75
ATOM     75  S   UNL     1      11.818  -7.884   6.772  1.00  0.00     0.124 S 
ATOM     76  O   UNL     1      10.607  -7.178   6.362  1.00  0.00    -0.237 OA
ATOM     77  O   UNL     1      12.748  -8.231   5.704  1.00  0.00    -0.237 OA
ATOM     78  O   UNL     1      11.616  -8.918   7.785  1.00  0.00    -0.744 OA
ENDBRANCH  71  75
ENDBRANCH  54  68
BRANCH  55  79
ATOM     79  C   UNL     1      14.221   4.786   3.335  1.00  0.00     0.023 A 
ATOM     80  C   UNL     1      15.041   5.067   2.233  1.00  0.00     0.031 A 
ATOM     81  C   UNL     1      13.488   5.850   3.897  1.00  0.00     0.131 A 
ATOM     82  C   UNL     1      15.136   6.381   1.750  1.00  0.00     0.055 A 
ATOM     83  C   UNL     1      13.537   7.142   3.374  1.00  0.00     0.041 A 
ATOM     84  F   UNL     1      12.686   5.641   4.954  1.00  0.00    -0.206 F 
ATOM     85  C   UNL     1      14.376   7.416   2.300  1.00  0.00     0.022 A 
BRANCH  82  86
ATOM     86  S   UNL     1      16.338   6.737   0.441  1.00  0.00     0.124 S 
ATOM     87  O   UNL     1      17.584   6.291   1.054  1.00  0.00    -0.237 OA
ATOM     88  O   UNL     1      15.836   5.922  -0.660  1.00  0.00    -0.237 OA
ATOM     89  O   UNL     1      16.216   8.181   0.252  1.00  0.00    -0.744 OA
ENDBRANCH  82  86
ENDBRANCH  55  79
BRANCH  67  90
ATOM     90  C   UNL     1      18.773   0.558   6.517  1.00  0.00     0.023 A 
ATOM     91  C   UNL     1      19.303   1.555   7.353  1.00  0.00     0.031 A 
ATOM     92  C   UNL     1      19.666  -0.329   5.891  1.00  0.00     0.131 A 
ATOM     93  C   UNL     1      20.693   1.682   7.488  1.00  0.00     0.055 A 
ATOM     94  C   UNL     1      21.044  -0.244   6.089  1.00  0.00     0.041 A 
ATOM     95  F   UNL     1      19.212  -1.296   5.078  1.00  0.00    -0.206 F 
ATOM     96  C   UNL     1      21.566   0.776   6.879  1.00  0.00     0.022 A 
BRANCH  93  97
ATOM     97  S   UNL     1      21.350   3.118   8.380  1.00  0.00     0.124 S 
ATOM     98  O   UNL     1      20.791   4.229   7.616  1.00  0.00    -0.237 OA
ATOM     99  O   UNL     1      20.807   2.928   9.721  1.00  0.00    -0.237 OA
ATOM    100  O   UNL     1      22.799   2.956   8.268  1.00  0.00    -0.744 OA
ENDBRANCH  93  97
ENDBRANCH  67  90
ENDBRANCH  41  42
ENDBRANCH  34  36
ENDBRANCH  33  34
ENDBRANCH  32  33
ENDBRANCH   1  32
TORSDOF 17
