REMARK SMILES CC[NH+]1CCN(c2ccc(NC(=O)C3CCCC3)c(C(=O)OCCOC(=O)c3ccc(-c4c5nc(c(-c6cc(S(=O)(=O)[O-])ccc6F)c6ccc([nH]6)c(-c6cc(S(=O)(=O)[O-])ccc6F)c6nc(c(-c7cc(S(=O)(=O)[O-])ccc7F)c7ccc4[nH]7)C=C6)C=C5)cc3)c2)CC1
REMARK SMILES IDX 24 1 23 2 22 3 20 4 21 5 19 6 7 7 8 8 91 9 9 10 10 11 6 12
REMARK SMILES IDX 3 13 4 14 93 15 5 17 92 18 2 19 1 20 11 21 12 22 13 24 14 25
REMARK SMILES IDX 15 26 18 27 16 28 17 29 25 30 26 31 27 32 28 33 29 34 90 35
REMARK SMILES IDX 30 36 89 37 31 38 32 39 33 40 83 41 34 42 88 43 82 44 84 45
REMARK SMILES IDX 35 46 87 47 81 48 80 49 36 51 68 52 48 53 67 54 49 55 52 56
REMARK SMILES IDX 66 57 85 58 50 59 51 60 65 62 86 63 53 64 37 65 38 66 46 67
REMARK SMILES IDX 39 68 45 69 47 70 44 71 40 72 41 73 42 74 43 75 69 76 70 77
REMARK SMILES IDX 78 78 71 79 77 80 79 81 76 82 72 83 73 84 74 85 75 86 54 87
REMARK SMILES IDX 55 88 63 89 56 90 62 91 64 92 61 93 57 94 58 95 59 96 60 97
REMARK H PARENT 3 16 11 23 84 50 52 61
REMARK Flexibility Score: inf
ROOT
ATOM      1  C   UNL     1       3.003   9.322   3.452  1.00  0.00     0.275 C 
ENDROOT
BRANCH   1   2
ATOM      2  C   UNL     1       1.517   8.966   3.555  1.00  0.00     0.275 C 
BRANCH   2   3
ATOM      3  O   UNL     1       1.183   7.909   2.635  1.00  0.00    -0.458 OA
BRANCH   3   4
ATOM      4  C   UNL     1       0.324   8.184   1.615  1.00  0.00     0.340 C 
ATOM      5  O   UNL     1      -0.223   9.243   1.390  1.00  0.00    -0.246 OA
BRANCH   4   6
ATOM      6  C   UNL     1       0.253   6.994   0.721  1.00  0.00     0.085 A 
ATOM      7  C   UNL     1       0.569   4.576   0.517  1.00  0.00     0.038 A 
ATOM      8  C   UNL     1       0.677   4.762  -0.853  1.00  0.00     0.028 A 
ATOM      9  C   UNL     1       0.376   5.714   1.300  1.00  0.00     0.043 A 
ATOM     10  C   UNL     1       0.490   6.016  -1.425  1.00  0.00     0.029 A 
ATOM     11  C   UNL     1       0.178   7.134  -0.678  1.00  0.00     0.055 A 
BRANCH   7  12
ATOM     12  N   UNL     1       0.728   3.335   1.099  1.00  0.00    -0.360 N 
ATOM     13  N   UNL     1       1.012   0.671   2.275  1.00  0.00    -0.332 N 
ATOM     14  C   UNL     1       2.093   1.328   1.516  1.00  0.00     0.283 C 
ATOM     15  C   UNL     1       0.115   1.706   2.844  1.00  0.00     0.283 C 
ATOM     16  H   UNL     1       1.486   0.156   3.016  1.00  0.00     0.348 HD
ATOM     17  C   UNL     1       1.638   2.367   0.473  1.00  0.00     0.178 C 
ATOM     18  C   UNL     1      -0.404   2.751   1.829  1.00  0.00     0.178 C 
BRANCH  13  19
ATOM     19  C   UNL     1       0.277  -0.413   1.614  1.00  0.00     0.258 C 
ATOM     20  C   UNL     1       0.630  -0.816   0.184  1.00  0.00     0.071 C 
ENDBRANCH  13  19
ENDBRANCH   7  12
BRANCH  11  21
ATOM     21  N   UNL     1      -0.213   8.351  -1.271  1.00  0.00    -0.325 N 
ATOM     22  C   UNL     1      -0.486   8.803  -2.527  1.00  0.00     0.227 C 
ATOM     23  H   UNL     1      -0.316   9.063  -0.600  1.00  0.00     0.169 HD
ATOM     24  O   UNL     1      -0.947   9.955  -2.558  1.00  0.00    -0.274 OA
BRANCH  22  25
ATOM     25  C   UNL     1      -0.276   8.086  -3.870  1.00  0.00     0.079 C 
ATOM     26  C   UNL     1       1.169   7.773  -4.258  1.00  0.00     0.013 C 
ATOM     27  C   UNL     1      -1.096   6.820  -4.132  1.00  0.00     0.013 C 
ATOM     28  C   UNL     1       1.089   6.592  -5.213  1.00  0.00     0.001 C 
ATOM     29  C   UNL     1      -0.167   5.822  -4.832  1.00  0.00     0.001 C 
ENDBRANCH  22  25
ENDBRANCH  11  21
ENDBRANCH   4   6
ENDBRANCH   3   4
ENDBRANCH   2   3
ENDBRANCH   1   2
BRANCH   1  30
ATOM     30  O   UNL     1       3.251  10.079   2.253  1.00  0.00    -0.458 OA
BRANCH  30  31
ATOM     31  C   UNL     1       3.860   9.403   1.251  1.00  0.00     0.338 C 
ATOM     32  O   UNL     1       4.318   8.274   1.293  1.00  0.00    -0.246 OA
BRANCH  31  33
ATOM     33  C   UNL     1       3.687  10.167   0.003  1.00  0.00     0.060 A 
ATOM     34  C   UNL     1       2.921   9.561  -0.985  1.00  0.00     0.016 A 
ATOM     35  C   UNL     1       4.240  11.433  -0.212  1.00  0.00     0.016 A 
ATOM     36  C   UNL     1       2.661  10.239  -2.168  1.00  0.00     0.010 A 
ATOM     37  C   UNL     1       4.008  12.094  -1.433  1.00  0.00     0.010 A 
ATOM     38  C   UNL     1       3.205  11.500  -2.416  1.00  0.00    -0.014 A 
BRANCH  38  39
ATOM     39  C   UNL     1       2.969  12.096  -3.756  1.00  0.00     0.031 A 
ATOM     40  C   UNL     1       3.950  11.832  -4.862  1.00  0.00     0.074 A 
ATOM     41  C   UNL     1       1.806  12.715  -4.039  1.00  0.00     0.049 A 
ATOM     42  N   UNL     1       3.958  12.277  -6.091  1.00  0.00    -0.248 NA
ATOM     43  C   UNL     1       5.053  10.912  -4.544  1.00  0.00     0.031 C 
ATOM     44  C   UNL     1       0.681  12.852  -3.116  1.00  0.00     0.029 A 
ATOM     45  N   UNL     1       1.365  13.314  -5.195  1.00  0.00    -0.354 N 
ATOM     46  C   UNL     1       5.070  11.703  -6.696  1.00  0.00     0.074 A 
ATOM     47  C   UNL     1       5.711  10.875  -5.694  1.00  0.00     0.031 C 
ATOM     48  C   UNL     1      -0.319  13.498  -3.739  1.00  0.00     0.029 A 
ATOM     49  C   UNL     1       0.115  13.880  -5.080  1.00  0.00     0.049 A 
ATOM     50  H   UNL     1       1.892  13.336  -6.026  1.00  0.00     0.167 HD
ATOM     51  C   UNL     1       5.521  11.866  -7.964  1.00  0.00     0.034 A 
ATOM     52  C   UNL     1      -0.578  14.656  -5.941  1.00  0.00     0.034 A 
ATOM     53  C   UNL     1       4.886  12.716  -8.942  1.00  0.00     0.049 A 
ATOM     54  C   UNL     1       0.042  14.984  -7.281  1.00  0.00     0.074 A 
ATOM     55  C   UNL     1       5.304  13.017 -10.227  1.00  0.00     0.029 A 
ATOM     56  N   UNL     1       3.701  13.413  -8.740  1.00  0.00    -0.354 N 
ATOM     57  N   UNL     1       1.156  14.532  -7.811  1.00  0.00    -0.248 NA
ATOM     58  C   UNL     1      -0.680  15.941  -8.131  1.00  0.00     0.031 C 
ATOM     59  C   UNL     1       4.415  13.950 -10.773  1.00  0.00     0.029 A 
ATOM     60  C   UNL     1       3.396  14.173  -9.860  1.00  0.00     0.049 A 
ATOM     61  H   UNL     1       3.156  13.373  -7.921  1.00  0.00     0.167 HD
ATOM     62  C   UNL     1       1.255  15.136  -9.062  1.00  0.00     0.074 A 
ATOM     63  C   UNL     1       0.079  15.967  -9.217  1.00  0.00     0.031 C 
ATOM     64  C   UNL     1       2.230  15.015  -9.999  1.00  0.00     0.034 A 
BRANCH  51  65
ATOM     65  C   UNL     1       6.823  11.193  -8.317  1.00  0.00     0.023 A 
ATOM     66  C   UNL     1       6.947   9.795  -8.393  1.00  0.00     0.031 A 
ATOM     67  C   UNL     1       7.976  11.972  -8.525  1.00  0.00     0.131 A 
ATOM     68  C   UNL     1       8.209   9.218  -8.607  1.00  0.00     0.055 A 
ATOM     69  C   UNL     1       9.213  11.394  -8.810  1.00  0.00     0.041 A 
ATOM     70  F   UNL     1       7.921  13.310  -8.436  1.00  0.00    -0.206 F 
ATOM     71  C   UNL     1       9.338  10.009  -8.838  1.00  0.00     0.022 A 
BRANCH  68  72
ATOM     72  S   UNL     1       8.386   7.420  -8.435  1.00  0.00     0.124 S 
ATOM     73  O   UNL     1       7.911   7.204  -7.071  1.00  0.00    -0.237 OA
ATOM     74  O   UNL     1       7.526   6.915  -9.498  1.00  0.00    -0.237 OA
ATOM     75  O   UNL     1       9.817   7.196  -8.631  1.00  0.00    -0.744 OA
ENDBRANCH  68  72
ENDBRANCH  51  65
BRANCH  52  76
ATOM     76  C   UNL     1      -1.877  15.277  -5.540  1.00  0.00     0.023 A 
ATOM     77  C   UNL     1      -3.055  15.063  -6.276  1.00  0.00     0.031 A 
ATOM     78  C   UNL     1      -1.933  16.183  -4.464  1.00  0.00     0.131 A 
ATOM     79  C   UNL     1      -4.220  15.782  -5.958  1.00  0.00     0.055 A 
ATOM     80  C   UNL     1      -3.110  16.846  -4.112  1.00  0.00     0.041 A 
ATOM     81  F   UNL     1      -0.834  16.451  -3.741  1.00  0.00    -0.206 F 
ATOM     82  C   UNL     1      -4.259  16.659  -4.871  1.00  0.00     0.022 A 
BRANCH  79  83
ATOM     83  S   UNL     1      -5.658  15.650  -7.058  1.00  0.00     0.124 S 
ATOM     84  O   UNL     1      -5.098  16.086  -8.332  1.00  0.00    -0.237 OA
ATOM     85  O   UNL     1      -5.995  14.234  -6.956  1.00  0.00    -0.237 OA
ATOM     86  O   UNL     1      -6.631  16.563  -6.460  1.00  0.00    -0.744 OA
ENDBRANCH  79  83
ENDBRANCH  52  76
BRANCH  64  87
ATOM     87  C   UNL     1       2.046  15.779 -11.289  1.00  0.00     0.023 A 
ATOM     88  C   UNL     1       2.088  17.184 -11.330  1.00  0.00     0.031 A 
ATOM     89  C   UNL     1       1.822  15.089 -12.494  1.00  0.00     0.131 A 
ATOM     90  C   UNL     1       1.863  17.856 -12.542  1.00  0.00     0.055 A 
ATOM     91  C   UNL     1       1.655  15.761 -13.706  1.00  0.00     0.041 A 
ATOM     92  F   UNL     1       1.770  13.747 -12.514  1.00  0.00    -0.206 F 
ATOM     93  C   UNL     1       1.663  17.152 -13.733  1.00  0.00     0.022 A 
BRANCH  90  94
ATOM     94  S   UNL     1       1.758  19.667 -12.533  1.00  0.00     0.124 S 
ATOM     95  O   UNL     1       0.646  19.904 -11.619  1.00  0.00    -0.237 OA
ATOM     96  O   UNL     1       3.078  20.054 -12.044  1.00  0.00    -0.237 OA
ATOM     97  O   UNL     1       1.495  20.003 -13.931  1.00  0.00    -0.744 OA
ENDBRANCH  90  94
ENDBRANCH  64  87
ENDBRANCH  38  39
ENDBRANCH  31  33
ENDBRANCH  30  31
ENDBRANCH   1  30
TORSDOF 18
