REMARK SMILES CC[C@@]1(C)NC(=O)N(/N=C/c2ccccc2C(=O)OCCOC(=O)c2ccc(-c3c4nc(c(-c5cc(S(=O)(=O)[O-])ccc5F)c5ccc([nH]5)c(-c5cc(S(=O)(=O)[O-])ccc5F)c5nc(c(-c6cc(S(=O)(=O)[O-])ccc6F)c6ccc3[nH]6)C=C5)C=C4)cc2)C1=O
REMARK SMILES IDX 20 1 19 2 17 3 18 4 16 5 11 6 12 7 13 8 15 9 14 10 10 11
REMARK SMILES IDX 9 12 8 13 3 14 4 15 5 16 88 17 6 18 89 20 7 21 2 22 1 23
REMARK SMILES IDX 21 24 22 25 23 26 24 27 25 28 26 29 87 30 27 31 86 32 28 33
REMARK SMILES IDX 29 34 30 35 80 36 31 37 85 38 79 39 81 40 32 41 84 42 78 43
REMARK SMILES IDX 77 44 33 46 65 47 45 48 64 49 46 50 49 51 63 52 82 53 47 54
REMARK SMILES IDX 48 55 62 57 83 58 50 59 34 60 35 61 43 62 36 63 42 64 44 65
REMARK SMILES IDX 41 66 37 67 38 68 39 69 40 70 66 71 67 72 75 73 68 74 74 75
REMARK SMILES IDX 76 76 73 77 69 78 70 79 71 80 72 81 51 82 52 83 60 84 53 85
REMARK SMILES IDX 59 86 61 87 58 88 54 89 55 90 56 91 57 92
REMARK H PARENT 5 19 81 45 49 56
REMARK Flexibility Score: inf
ROOT
ATOM      1  C   UNL     1      -2.610  -4.567   4.363  1.00  0.00     0.275 C 
ENDROOT
BRANCH   1   2
ATOM      2  O   UNL     1      -1.875  -5.697   3.853  1.00  0.00    -0.458 OA
BRANCH   2   3
ATOM      3  C   UNL     1      -1.250  -6.469   4.780  1.00  0.00     0.338 C 
ATOM      4  O   UNL     1      -1.416  -6.441   5.985  1.00  0.00    -0.246 OA
BRANCH   3   5
ATOM      5  C   UNL     1      -0.414  -7.501   4.120  1.00  0.00     0.068 A 
ATOM      6  C   UNL     1       0.497  -7.234   3.092  1.00  0.00     0.009 A 
ATOM      7  C   UNL     1       1.202  -8.290   2.491  1.00  0.00     0.010 A 
ATOM      8  C   UNL     1       1.008  -9.605   2.919  1.00  0.00     0.001 A 
ATOM      9  C   UNL     1      -0.566  -8.824   4.570  1.00  0.00     0.016 A 
ATOM     10  C   UNL     1       0.125  -9.872   3.960  1.00  0.00     0.001 A 
BRANCH   6  11
ATOM     11  C   UNL     1       0.790  -5.880   2.580  1.00  0.00     0.143 C 
ATOM     12  N   UNL     1       0.647  -4.826   3.312  1.00  0.00    -0.169 NA
BRANCH  12  13
ATOM     13  N   UNL     1       0.846  -3.583   2.775  1.00  0.00    -0.146 N 
ATOM     14  C   UNL     1       1.371  -1.703   1.446  1.00  0.00     0.120 C 
ATOM     15  C   UNL     1       2.824  -1.236   1.490  1.00  0.00     0.045 C 
ATOM     16  N   UNL     1       0.704  -1.352   2.674  1.00  0.00    -0.322 N 
ATOM     17  C   UNL     1       1.364  -3.242   1.543  1.00  0.00     0.276 C 
ATOM     18  C   UNL     1       0.466  -2.454   3.473  1.00  0.00     0.346 C 
ATOM     19  H   UNL     1       0.448  -0.432   2.916  1.00  0.00     0.166 HD
ATOM     20  O   UNL     1       1.809  -3.966   0.659  1.00  0.00    -0.270 OA
ATOM     21  O   UNL     1      -0.023  -2.348   4.588  1.00  0.00    -0.246 OA
BRANCH  14  22
ATOM     22  C   UNL     1       0.588  -1.253   0.205  1.00  0.00     0.035 C 
ATOM     23  C   UNL     1       0.705   0.233  -0.104  1.00  0.00     0.007 C 
ENDBRANCH  14  22
ENDBRANCH  12  13
ENDBRANCH   6  11
ENDBRANCH   3   5
ENDBRANCH   2   3
ENDBRANCH   1   2
BRANCH   1  24
ATOM     24  C   UNL     1      -4.041  -4.567   3.838  1.00  0.00     0.275 C 
BRANCH  24  25
ATOM     25  O   UNL     1      -4.745  -5.704   4.357  1.00  0.00    -0.458 OA
BRANCH  25  26
ATOM     26  C   UNL     1      -4.803  -6.760   3.517  1.00  0.00     0.338 C 
ATOM     27  O   UNL     1      -4.466  -6.809   2.345  1.00  0.00    -0.246 OA
BRANCH  26  28
ATOM     28  C   UNL     1      -5.254  -7.926   4.278  1.00  0.00     0.060 A 
ATOM     29  C   UNL     1      -4.295  -8.667   4.965  1.00  0.00     0.016 A 
ATOM     30  C   UNL     1      -6.580  -8.342   4.231  1.00  0.00     0.016 A 
ATOM     31  C   UNL     1      -4.639  -9.881   5.550  1.00  0.00     0.010 A 
ATOM     32  C   UNL     1      -6.939  -9.524   4.883  1.00  0.00     0.010 A 
ATOM     33  C   UNL     1      -5.968 -10.323   5.520  1.00  0.00    -0.014 A 
BRANCH  33  34
ATOM     34  C   UNL     1      -6.341 -11.648   6.089  1.00  0.00     0.031 A 
ATOM     35  C   UNL     1      -6.950 -12.692   5.191  1.00  0.00     0.074 A 
ATOM     36  C   UNL     1      -6.142 -11.917   7.394  1.00  0.00     0.049 A 
ATOM     37  N   UNL     1      -7.562 -13.804   5.503  1.00  0.00    -0.248 NA
ATOM     38  C   UNL     1      -6.877 -12.432   3.744  1.00  0.00     0.031 C 
ATOM     39  C   UNL     1      -5.500 -11.021   8.357  1.00  0.00     0.029 A 
ATOM     40  N   UNL     1      -6.467 -13.024   8.139  1.00  0.00    -0.354 N 
ATOM     41  C   UNL     1      -8.003 -14.346   4.300  1.00  0.00     0.074 A 
ATOM     42  C   UNL     1      -7.593 -13.432   3.254  1.00  0.00     0.031 C 
ATOM     43  C   UNL     1      -5.459 -11.620   9.557  1.00  0.00     0.029 A 
ATOM     44  C   UNL     1      -6.159 -12.897   9.475  1.00  0.00     0.049 A 
ATOM     45  H   UNL     1      -6.880 -13.831   7.755  1.00  0.00     0.167 HD
ATOM     46  C   UNL     1      -8.691 -15.497   4.094  1.00  0.00     0.034 A 
ATOM     47  C   UNL     1      -6.459 -13.687  10.525  1.00  0.00     0.034 A 
ATOM     48  C   UNL     1      -9.048 -16.412   5.152  1.00  0.00     0.049 A 
ATOM     49  C   UNL     1      -7.267 -14.935  10.282  1.00  0.00     0.074 A 
ATOM     50  C   UNL     1      -9.729 -17.614   5.063  1.00  0.00     0.029 A 
ATOM     51  N   UNL     1      -8.743 -16.230   6.496  1.00  0.00    -0.354 N 
ATOM     52  N   UNL     1      -7.744 -15.403   9.151  1.00  0.00    -0.248 NA
ATOM     53  C   UNL     1      -7.590 -15.753  11.458  1.00  0.00     0.031 C 
ATOM     54  C   UNL     1      -9.887 -18.127   6.355  1.00  0.00     0.029 A 
ATOM     55  C   UNL     1      -9.242 -17.285   7.246  1.00  0.00     0.049 A 
ATOM     56  H   UNL     1      -8.245 -15.464   6.863  1.00  0.00     0.167 HD
ATOM     57  C   UNL     1      -8.409 -16.581   9.479  1.00  0.00     0.074 A 
ATOM     58  C   UNL     1      -8.256 -16.759  10.909  1.00  0.00     0.031 C 
ATOM     59  C   UNL     1      -9.087 -17.438   8.674  1.00  0.00     0.034 A 
BRANCH  46  60
ATOM     60  C   UNL     1      -9.157 -15.790   2.687  1.00  0.00     0.023 A 
ATOM     61  C   UNL     1      -8.259 -16.019   1.630  1.00  0.00     0.031 A 
ATOM     62  C   UNL     1     -10.533 -15.806   2.394  1.00  0.00     0.131 A 
ATOM     63  C   UNL     1      -8.744 -16.181   0.322  1.00  0.00     0.055 A 
ATOM     64  C   UNL     1     -11.012 -16.048   1.104  1.00  0.00     0.041 A 
ATOM     65  F   UNL     1     -11.440 -15.572   3.356  1.00  0.00    -0.206 F 
ATOM     66  C   UNL     1     -10.114 -16.222   0.056  1.00  0.00     0.022 A 
BRANCH  63  67
ATOM     67  S   UNL     1      -7.555 -16.194  -1.049  1.00  0.00     0.124 S 
ATOM     68  O   UNL     1      -6.902 -14.897  -0.887  1.00  0.00    -0.237 OA
ATOM     69  O   UNL     1      -6.738 -17.363  -0.747  1.00  0.00    -0.237 OA
ATOM     70  O   UNL     1      -8.401 -16.314  -2.235  1.00  0.00    -0.744 OA
ENDBRANCH  63  67
ENDBRANCH  46  60
BRANCH  47  71
ATOM     71  C   UNL     1      -6.063 -13.286  11.906  1.00  0.00     0.023 A 
ATOM     72  C   UNL     1      -5.170 -14.062  12.661  1.00  0.00     0.031 A 
ATOM     73  C   UNL     1      -6.598 -12.130  12.504  1.00  0.00     0.131 A 
ATOM     74  C   UNL     1      -4.863 -13.690  13.979  1.00  0.00     0.055 A 
ATOM     75  C   UNL     1      -6.245 -11.733  13.794  1.00  0.00     0.041 A 
ATOM     76  F   UNL     1      -7.462 -11.353  11.829  1.00  0.00    -0.206 F 
ATOM     77  C   UNL     1      -5.380 -12.522  14.544  1.00  0.00     0.022 A 
BRANCH  74  78
ATOM     78  S   UNL     1      -3.833 -14.800  14.978  1.00  0.00     0.124 S 
ATOM     79  O   UNL     1      -4.609 -16.035  14.945  1.00  0.00    -0.237 OA
ATOM     80  O   UNL     1      -2.581 -14.809  14.229  1.00  0.00    -0.237 OA
ATOM     81  O   UNL     1      -3.775 -14.134  16.277  1.00  0.00    -0.744 OA
ENDBRANCH  74  78
ENDBRANCH  47  71
BRANCH  59  82
ATOM     82  C   UNL     1      -9.666 -18.668   9.324  1.00  0.00     0.023 A 
ATOM     83  C   UNL     1     -10.745 -18.591  10.222  1.00  0.00     0.031 A 
ATOM     84  C   UNL     1      -9.118 -19.933   9.050  1.00  0.00     0.131 A 
ATOM     85  C   UNL     1     -11.209 -19.755  10.854  1.00  0.00     0.055 A 
ATOM     86  C   UNL     1      -9.621 -21.094   9.639  1.00  0.00     0.041 A 
ATOM     87  F   UNL     1      -8.085 -20.061   8.201  1.00  0.00    -0.206 F 
ATOM     88  C   UNL     1     -10.664 -21.007  10.556  1.00  0.00     0.022 A 
BRANCH  85  89
ATOM     89  S   UNL     1     -12.485 -19.602  12.134  1.00  0.00     0.124 S 
ATOM     90  O   UNL     1     -11.829 -18.741  13.114  1.00  0.00    -0.237 OA
ATOM     91  O   UNL     1     -13.595 -19.003  11.400  1.00  0.00    -0.237 OA
ATOM     92  O   UNL     1     -12.702 -20.981  12.568  1.00  0.00    -0.744 OA
ENDBRANCH  85  89
ENDBRANCH  59  82
ENDBRANCH  33  34
ENDBRANCH  26  28
ENDBRANCH  25  26
ENDBRANCH  24  25
ENDBRANCH   1  24
TORSDOF 17
