REMARK SMILES O=C(COCCNC(=O)c1cc(Cl)c2c(c1)OCCO2)OCCOC(=O)c1ccc(-c2c3nc(c(-c4cc(S(=O)(=O)[O-])ccc4F)c4ccc([nH]4)c(-c4cc(S(=O)(=O)[O-])ccc4F)c4nc(c(-c5cc(S(=O)(=O)[O-])ccc5F)c5ccc2[nH]5)C=C4)C=C3)cc1
REMARK SMILES IDX 22 1 21 2 2 3 1 4 3 5 4 6 5 7 6 8 7 9 8 10 9 12 10 13 11 14
REMARK SMILES IDX 16 15 12 16 15 17 13 18 14 19 17 20 20 21 18 22 19 23 23 24
REMARK SMILES IDX 24 25 25 26 26 27 27 28 28 29 89 30 29 31 88 32 30 33 31 34
REMARK SMILES IDX 32 35 82 36 33 37 87 38 81 39 83 40 34 41 86 42 80 43 79 44
REMARK SMILES IDX 35 46 67 47 47 48 66 49 48 50 51 51 65 52 84 53 49 54 50 55
REMARK SMILES IDX 64 57 85 58 52 59 36 60 37 61 45 62 38 63 44 64 46 65 43 66
REMARK SMILES IDX 39 67 40 68 41 69 42 70 68 71 69 72 77 73 70 74 76 75 78 76
REMARK SMILES IDX 75 77 71 78 72 79 73 80 74 81 53 82 54 83 62 84 55 85 61 86
REMARK SMILES IDX 63 87 60 88 56 89 57 90 58 91 59 92
REMARK H PARENT 7 11 83 45 51 56
REMARK Flexibility Score: inf
ROOT
ATOM      1  C   UNL     1       4.916   0.029  -1.327  1.00  0.00     0.274 C 
ENDROOT
BRANCH   1   2
ATOM      2  O   UNL     1       3.627  -0.575  -1.103  1.00  0.00    -0.460 OA
BRANCH   2   3
ATOM      3  C   UNL     1       2.986  -0.615   0.087  1.00  0.00     0.332 C 
ATOM      4  O   UNL     1       1.775  -0.827   0.113  1.00  0.00    -0.250 OA
BRANCH   3   5
ATOM      5  C   UNL     1       3.788  -0.464   1.385  1.00  0.00     0.282 C 
BRANCH   5   6
ATOM      6  O   UNL     1       3.954  -1.630   2.174  1.00  0.00    -0.368 OA
BRANCH   6   7
ATOM      7  C   UNL     1       2.753  -2.245   2.653  1.00  0.00     0.182 C 
BRANCH   7   8
ATOM      8  C   UNL     1       1.962  -1.413   3.677  1.00  0.00     0.144 C 
BRANCH   8   9
ATOM      9  N   UNL     1       0.993  -0.505   3.069  1.00  0.00    -0.350 N 
ATOM     10  C   UNL     1      -0.375  -0.511   3.049  1.00  0.00     0.251 C 
ATOM     11  H   UNL     1       1.398   0.251   2.586  1.00  0.00     0.163 HD
ATOM     12  O   UNL     1      -0.985   0.315   2.376  1.00  0.00    -0.269 OA
BRANCH  10  13
ATOM     13  C   UNL     1      -1.132  -1.531   3.792  1.00  0.00     0.045 A 
ATOM     14  C   UNL     1      -0.912  -1.756   5.153  1.00  0.00     0.038 A 
ATOM     15  C   UNL     1      -2.101  -2.259   3.097  1.00  0.00     0.064 A 
ATOM     16  C   UNL     1      -1.604  -2.780   5.798  1.00  0.00     0.087 A 
ATOM     17  C   UNL     1      -2.795  -3.275   3.748  1.00  0.00     0.163 A 
ATOM     18  Cl  UNL     1      -1.250  -3.086   7.460  1.00  0.00    -0.080 Cl
ATOM     19  C   UNL     1      -2.549  -3.545   5.102  1.00  0.00     0.179 A 
ATOM     20  O   UNL     1      -3.699  -3.972   2.987  1.00  0.00    -0.486 OA
ATOM     21  O   UNL     1      -3.195  -4.556   5.773  1.00  0.00    -0.485 OA
ATOM     22  C   UNL     1      -4.085  -5.197   3.615  1.00  0.00     0.271 C 
ATOM     23  C   UNL     1      -4.376  -4.979   5.088  1.00  0.00     0.271 C 
ENDBRANCH  10  13
ENDBRANCH   8   9
ENDBRANCH   7   8
ENDBRANCH   6   7
ENDBRANCH   5   6
ENDBRANCH   3   5
ENDBRANCH   2   3
ENDBRANCH   1   2
BRANCH   1  24
ATOM     24  C   UNL     1       4.791   1.544  -1.494  1.00  0.00     0.275 C 
BRANCH  24  25
ATOM     25  O   UNL     1       4.380   2.156  -0.257  1.00  0.00    -0.458 OA
BRANCH  25  26
ATOM     26  C   UNL     1       3.127   2.688  -0.240  1.00  0.00     0.338 C 
ATOM     27  O   UNL     1       2.337   2.716  -1.161  1.00  0.00    -0.246 OA
BRANCH  26  28
ATOM     28  C   UNL     1       2.808   3.101   1.146  1.00  0.00     0.060 A 
ATOM     29  C   UNL     1       1.556   2.762   1.671  1.00  0.00     0.016 A 
ATOM     30  C   UNL     1       3.733   3.798   1.930  1.00  0.00     0.016 A 
ATOM     31  C   UNL     1       1.238   3.100   2.990  1.00  0.00     0.010 A 
ATOM     32  C   UNL     1       3.400   4.161   3.240  1.00  0.00     0.010 A 
ATOM     33  C   UNL     1       2.150   3.816   3.779  1.00  0.00    -0.014 A 
BRANCH  33  34
ATOM     34  C   UNL     1       1.756   4.290   5.129  1.00  0.00     0.031 A 
ATOM     35  C   UNL     1       0.923   5.535   5.256  1.00  0.00     0.074 A 
ATOM     36  C   UNL     1       2.131   3.622   6.236  1.00  0.00     0.049 A 
ATOM     37  N   UNL     1       0.416   6.081   6.330  1.00  0.00    -0.248 NA
ATOM     38  C   UNL     1       0.616   6.254   4.009  1.00  0.00     0.031 C 
ATOM     39  C   UNL     1       2.924   2.394   6.254  1.00  0.00     0.029 A 
ATOM     40  N   UNL     1       1.891   3.886   7.563  1.00  0.00    -0.354 N 
ATOM     41  C   UNL     1      -0.308   7.180   5.887  1.00  0.00     0.074 A 
ATOM     42  C   UNL     1      -0.133   7.254   4.453  1.00  0.00     0.031 C 
ATOM     43  C   UNL     1       3.108   2.013   7.531  1.00  0.00     0.029 A 
ATOM     44  C   UNL     1       2.456   2.974   8.422  1.00  0.00     0.049 A 
ATOM     45  H   UNL     1       1.363   4.658   7.870  1.00  0.00     0.167 HD
ATOM     46  C   UNL     1      -1.066   8.040   6.607  1.00  0.00     0.034 A 
ATOM     47  C   UNL     1       2.445   2.917   9.771  1.00  0.00     0.034 A 
ATOM     48  C   UNL     1      -1.202   8.005   8.038  1.00  0.00     0.049 A 
ATOM     49  C   UNL     1       1.680   3.956  10.557  1.00  0.00     0.074 A 
ATOM     50  C   UNL     1      -1.943   8.850   8.846  1.00  0.00     0.029 A 
ATOM     51  N   UNL     1      -0.581   7.093   8.876  1.00  0.00    -0.354 N 
ATOM     52  N   UNL     1       0.929   4.938  10.119  1.00  0.00    -0.248 NA
ATOM     53  C   UNL     1       1.754   3.872  12.025  1.00  0.00     0.031 C 
ATOM     54  C   UNL     1      -1.733   8.478  10.176  1.00  0.00     0.029 A 
ATOM     55  C   UNL     1      -0.900   7.371  10.194  1.00  0.00     0.049 A 
ATOM     56  H   UNL     1       0.001   6.357   8.578  1.00  0.00     0.167 HD
ATOM     57  C   UNL     1       0.411   5.561  11.254  1.00  0.00     0.074 A 
ATOM     58  C   UNL     1       0.925   4.840  12.397  1.00  0.00     0.031 C 
ATOM     59  C   UNL     1      -0.414   6.635  11.335  1.00  0.00     0.034 A 
BRANCH  46  60
ATOM     60  C   UNL     1      -1.835   9.095   5.862  1.00  0.00     0.023 A 
ATOM     61  C   UNL     1      -1.488  10.451   5.985  1.00  0.00     0.031 A 
ATOM     62  C   UNL     1      -2.986   8.757   5.130  1.00  0.00     0.131 A 
ATOM     63  C   UNL     1      -2.308  11.427   5.407  1.00  0.00     0.055 A 
ATOM     64  C   UNL     1      -3.784   9.732   4.533  1.00  0.00     0.041 A 
ATOM     65  F   UNL     1      -3.348   7.471   4.985  1.00  0.00    -0.206 F 
ATOM     66  C   UNL     1      -3.450  11.075   4.678  1.00  0.00     0.022 A 
BRANCH  63  67
ATOM     67  S   UNL     1      -1.935  13.191   5.598  1.00  0.00     0.124 S 
ATOM     68  O   UNL     1      -1.983  13.664   4.216  1.00  0.00    -0.237 OA
ATOM     69  O   UNL     1      -3.029  13.642   6.452  1.00  0.00    -0.237 OA
ATOM     70  O   UNL     1      -0.609  13.203   6.207  1.00  0.00    -0.744 OA
ENDBRANCH  63  67
ENDBRANCH  46  60
BRANCH  47  71
ATOM     71  C   UNL     1       3.138   1.798  10.471  1.00  0.00     0.023 A 
ATOM     72  C   UNL     1       4.536   1.664  10.428  1.00  0.00     0.031 A 
ATOM     73  C   UNL     1       2.400   0.835  11.179  1.00  0.00     0.131 A 
ATOM     74  C   UNL     1       5.149   0.573  11.057  1.00  0.00     0.055 A 
ATOM     75  C   UNL     1       3.018  -0.222  11.849  1.00  0.00     0.041 A 
ATOM     76  F   UNL     1       1.062   0.923  11.243  1.00  0.00    -0.206 F 
ATOM     77  C   UNL     1       4.401  -0.361  11.783  1.00  0.00     0.022 A 
BRANCH  74  78
ATOM     78  S   UNL     1       6.934   0.292  10.906  1.00  0.00     0.124 S 
ATOM     79  O   UNL     1       7.354   0.219  12.302  1.00  0.00    -0.237 OA
ATOM     80  O   UNL     1       6.973  -0.969  10.169  1.00  0.00    -0.237 OA
ATOM     81  O   UNL     1       7.405   1.459  10.168  1.00  0.00    -0.744 OA
ENDBRANCH  74  78
ENDBRANCH  47  71
BRANCH  59  82
ATOM     82  C   UNL     1      -0.853   7.114  12.697  1.00  0.00     0.023 A 
ATOM     83  C   UNL     1      -2.213   7.060  13.060  1.00  0.00     0.031 A 
ATOM     84  C   UNL     1       0.043   7.751  13.572  1.00  0.00     0.131 A 
ATOM     85  C   UNL     1      -2.642   7.660  14.251  1.00  0.00     0.055 A 
ATOM     86  C   UNL     1      -0.383   8.313  14.777  1.00  0.00     0.041 A 
ATOM     87  F   UNL     1       1.348   7.838  13.266  1.00  0.00    -0.206 F 
ATOM     88  C   UNL     1      -1.733   8.280  15.115  1.00  0.00     0.022 A 
BRANCH  85  89
ATOM     89  S   UNL     1      -4.401   7.723  14.692  1.00  0.00     0.124 S 
ATOM     90  O   UNL     1      -4.415   7.032  15.980  1.00  0.00    -0.237 OA
ATOM     91  O   UNL     1      -4.651   9.160  14.754  1.00  0.00    -0.237 OA
ATOM     92  O   UNL     1      -5.064   7.016  13.601  1.00  0.00    -0.744 OA
ENDBRANCH  85  89
ENDBRANCH  59  82
ENDBRANCH  33  34
ENDBRANCH  26  28
ENDBRANCH  25  26
ENDBRANCH  24  25
ENDBRANCH   1  24
TORSDOF 19
