REMARK SMILES O=C(OCCOC(=O)c1ccc(-c2c3nc(c(-c4cc(S(=O)(=O)[O-])ccc4F)c4ccc([nH]4)c(-c4cc(S(=O)(=O)[O-])ccc4F)c4nc(c(-c5cc(S(=O)(=O)[O-])ccc5F)c5ccc2[nH]5)C=C4)C=C3)cc1)C1=Cc2cc(S(F)(F)(F)(F)F)cc(Br)c2O[C@H]1C(F)(F)F
REMARK SMILES IDX 5 1 4 2 3 3 2 4 1 5 72 6 73 7 88 8 74 9 87 10 75 11 86 12
REMARK SMILES IDX 76 13 84 14 83 15 85 16 89 17 90 18 91 19 92 20 77 21 78 22
REMARK SMILES IDX 79 23 80 24 81 25 82 26 6 27 7 28 8 29 9 30 10 31 71 32
REMARK SMILES IDX 11 33 70 34 12 35 13 36 14 37 64 38 15 39 69 40 63 41 65 42
REMARK SMILES IDX 16 43 68 44 62 45 61 46 17 48 49 49 29 50 48 51 30 52 33 53
REMARK SMILES IDX 47 54 66 55 31 56 32 57 46 59 67 60 34 61 18 62 19 63 27 64
REMARK SMILES IDX 20 65 26 66 28 67 25 68 21 69 22 70 23 71 24 72 50 73 51 74
REMARK SMILES IDX 59 75 52 76 58 77 60 78 57 79 53 80 54 81 55 82 56 83 35 84
REMARK SMILES IDX 36 85 44 86 37 87 43 88 45 89 42 90 38 91 39 92 40 93 41 94
REMARK H PARENT 65 47 33 58
REMARK Flexibility Score: inf
ROOT
ATOM      1  C   UNL     1       4.836   1.235   0.309  1.00  0.00     0.275 C 
ENDROOT
BRANCH   1   2
ATOM      2  C   UNL     1       4.329   0.664  -1.005  1.00  0.00     0.275 C 
BRANCH   2   3
ATOM      3  O   UNL     1       2.909   0.664  -1.005  1.00  0.00    -0.459 OA
BRANCH   3   4
ATOM      4  C   UNL     1       2.199  -0.068  -0.017  1.00  0.00     0.338 C 
ATOM      5  O   UNL     1       0.928  -0.068  -0.017  1.00  0.00    -0.246 OA
BRANCH   4   6
ATOM      6  C   UNL     1       2.959  -0.851   1.041  1.00  0.00     0.087 C 
ATOM      7  C   UNL     1       4.320  -0.851   1.041  1.00  0.00     0.027 C 
ATOM      8  C   UNL     1       2.199  -1.634   2.099  1.00  0.00     0.316 C 
ATOM      9  C   UNL     1       5.080  -0.068  -0.017  1.00  0.00     0.020 A 
ATOM     10  O   UNL     1       3.498   1.651   0.423  1.00  0.00    -0.474 OA
ATOM     11  C   UNL     1       6.093  -0.634  -0.772  1.00  0.00     0.036 A 
ATOM     12  C   UNL     1       4.643   1.162  -0.261  1.00  0.00     0.142 A 
ATOM     13  C   UNL     1       6.787   0.293  -1.587  1.00  0.00     0.109 A 
ATOM     14  C   UNL     1       5.287   1.965  -1.171  1.00  0.00     0.062 A 
ATOM     15  C   UNL     1       6.334   1.491  -1.910  1.00  0.00     0.044 A 
ATOM     16  Br  UNL     1       4.697   3.819  -1.411  1.00  0.00    -0.047 Br
BRANCH   8  17
ATOM     17  C   UNL     1       0.705  -1.469   1.876  1.00  0.00     0.430 C 
ATOM     18  F   UNL     1       0.350  -2.022   0.720  1.00  0.00    -0.167 F 
ATOM     19  F   UNL     1       0.074  -2.083   2.873  1.00  0.00    -0.167 F 
ATOM     20  F   UNL     1       0.377  -0.180   1.871  1.00  0.00    -0.167 F 
ENDBRANCH   8  17
BRANCH  13  21
ATOM     21  S   UNL     1       8.405  -0.199  -2.231  1.00  0.00     0.310 S 
ATOM     22  F   UNL     1       9.050  -0.254  -0.783  1.00  0.00    -0.094 F 
ATOM     23  F   UNL     1       8.825   1.319  -2.284  1.00  0.00    -0.094 F 
ATOM     24  F   UNL     1       9.788  -0.630  -2.796  1.00  0.00    -0.094 F 
ATOM     25  F   UNL     1       8.019  -1.718  -2.038  1.00  0.00    -0.094 F 
ATOM     26  F   UNL     1       7.041   0.220  -1.550  1.00  0.00    -0.094 F 
ENDBRANCH  13  21
ENDBRANCH   4   6
ENDBRANCH   3   4
ENDBRANCH   2   3
ENDBRANCH   1   2
BRANCH   1  27
ATOM     27  O   UNL     1       4.363   0.439   1.385  1.00  0.00    -0.458 OA
BRANCH  27  28
ATOM     28  C   UNL     1       2.967   0.284   1.594  1.00  0.00     0.338 C 
ATOM     29  O   UNL     1       2.141   0.859   0.817  1.00  0.00    -0.246 OA
BRANCH  28  30
ATOM     30  C   UNL     1       2.460  -0.569   2.746  1.00  0.00     0.060 A 
ATOM     31  C   UNL     1       1.326  -1.350   2.599  1.00  0.00     0.016 A 
ATOM     32  C   UNL     1       3.039  -0.410   3.930  1.00  0.00     0.016 A 
ATOM     33  C   UNL     1       0.705  -1.694   3.823  1.00  0.00     0.010 A 
ATOM     34  C   UNL     1       2.442  -0.891   5.070  1.00  0.00     0.010 A 
ATOM     35  C   UNL     1       1.288  -1.621   5.006  1.00  0.00    -0.014 A 
BRANCH  35  36
ATOM     36  C   UNL     1       0.709  -2.313   6.229  1.00  0.00     0.031 A 
ATOM     37  C   UNL     1       0.374  -1.478   7.297  1.00  0.00     0.074 A 
ATOM     38  C   UNL     1       0.418  -3.666   6.183  1.00  0.00     0.049 A 
ATOM     39  N   UNL     1      -0.288  -1.805   8.408  1.00  0.00    -0.248 NA
ATOM     40  C   UNL     1       0.712  -0.049   7.363  1.00  0.00     0.031 C 
ATOM     41  C   UNL     1       0.744  -4.512   5.105  1.00  0.00     0.029 A 
ATOM     42  N   UNL     1      -0.220  -4.426   7.138  1.00  0.00    -0.354 N 
ATOM     43  C   UNL     1      -0.435  -0.733   9.189  1.00  0.00     0.074 A 
ATOM     44  C   UNL     1       0.212   0.411   8.531  1.00  0.00     0.031 C 
ATOM     45  C   UNL     1       0.320  -5.766   5.411  1.00  0.00     0.029 A 
ATOM     46  C   UNL     1      -0.279  -5.725   6.684  1.00  0.00     0.049 A 
ATOM     47  H   UNL     1      -0.572  -4.098   7.996  1.00  0.00     0.167 HD
ATOM     48  C   UNL     1      -1.083  -0.663  10.423  1.00  0.00     0.034 A 
ATOM     49  C   UNL     1      -0.819  -6.826   7.330  1.00  0.00     0.034 A 
ATOM     50  C   UNL     1      -1.662  -1.756  11.049  1.00  0.00     0.049 A 
ATOM     51  C   UNL     1      -1.417  -6.768   8.592  1.00  0.00     0.074 A 
ATOM     52  C   UNL     1      -2.327  -1.702  12.290  1.00  0.00     0.029 A 
ATOM     53  N   UNL     1      -1.700  -3.060  10.607  1.00  0.00    -0.354 N 
ATOM     54  N   UNL     1      -1.598  -5.689   9.354  1.00  0.00    -0.248 NA
ATOM     55  C   UNL     1      -1.964  -7.933   9.300  1.00  0.00     0.031 C 
ATOM     56  C   UNL     1      -2.751  -2.957  12.595  1.00  0.00     0.029 A 
ATOM     57  C   UNL     1      -2.357  -3.816  11.552  1.00  0.00     0.049 A 
ATOM     58  H   UNL     1      -1.321  -3.394   9.761  1.00  0.00     0.167 HD
ATOM     59  C   UNL     1      -2.224  -6.024  10.484  1.00  0.00     0.074 A 
ATOM     60  C   UNL     1      -2.462  -7.474  10.469  1.00  0.00     0.031 C 
ATOM     61  C   UNL     1      -2.610  -5.179  11.526  1.00  0.00     0.034 A 
BRANCH  48  62
ATOM     62  C   UNL     1      -1.160   0.686  11.118  1.00  0.00     0.023 A 
ATOM     63  C   UNL     1      -1.764   1.773  10.509  1.00  0.00     0.031 A 
ATOM     64  C   UNL     1      -0.604   0.790  12.320  1.00  0.00     0.131 A 
ATOM     65  C   UNL     1      -1.474   3.012  11.129  1.00  0.00     0.055 A 
ATOM     66  C   UNL     1      -0.476   2.017  12.927  1.00  0.00     0.041 A 
ATOM     67  F   UNL     1      -0.168  -0.301  12.941  1.00  0.00    -0.206 F 
ATOM     68  C   UNL     1      -0.997   3.143  12.353  1.00  0.00     0.022 A 
BRANCH  65  69
ATOM     69  S   UNL     1      -1.779   4.521  10.178  1.00  0.00     0.124 S 
ATOM     70  O   UNL     1      -0.930   4.502   8.904  1.00  0.00    -0.237 OA
ATOM     71  O   UNL     1      -3.261   4.597   9.802  1.00  0.00    -0.237 OA
ATOM     72  O   UNL     1      -1.360   5.884  11.122  1.00  0.00    -0.744 OA
ENDBRANCH  65  69
ENDBRANCH  48  62
BRANCH  49  73
ATOM     73  C   UNL     1      -0.758  -8.172   6.627  1.00  0.00     0.023 A 
ATOM     74  C   UNL     1      -1.956  -8.804   6.340  1.00  0.00     0.031 A 
ATOM     75  C   UNL     1       0.406  -8.716   6.290  1.00  0.00     0.131 A 
ATOM     76  C   UNL     1      -1.812 -10.156   5.948  1.00  0.00     0.055 A 
ATOM     77  C   UNL     1       0.461  -9.992   5.785  1.00  0.00     0.041 A 
ATOM     78  F   UNL     1       1.528  -8.018   6.443  1.00  0.00    -0.206 F 
ATOM     79  C   UNL     1      -0.682 -10.698   5.532  1.00  0.00     0.022 A 
BRANCH  76  80
ATOM     80  S   UNL     1      -3.277 -11.215   6.022  1.00  0.00     0.124 S 
ATOM     81  O   UNL     1      -3.797 -11.268   7.461  1.00  0.00    -0.237 OA
ATOM     82  O   UNL     1      -4.365 -10.647   5.108  1.00  0.00    -0.237 OA
ATOM     83  O   UNL     1      -2.867 -12.793   5.506  1.00  0.00    -0.744 OA
ENDBRANCH  76  80
ENDBRANCH  49  73
BRANCH  61  84
ATOM     84  C   UNL     1      -3.353  -5.790  12.703  1.00  0.00     0.023 A 
ATOM     85  C   UNL     1      -2.814  -6.856  13.404  1.00  0.00     0.031 A 
ATOM     86  C   UNL     1      -4.572  -5.337  12.968  1.00  0.00     0.131 A 
ATOM     87  C   UNL     1      -3.760  -7.570  14.177  1.00  0.00     0.055 A 
ATOM     88  C   UNL     1      -5.395  -6.010  13.838  1.00  0.00     0.041 A 
ATOM     89  F   UNL     1      -5.002  -4.221  12.385  1.00  0.00    -0.206 F 
ATOM     90  C   UNL     1      -4.949  -7.107  14.521  1.00  0.00     0.022 A 
BRANCH  87  91
ATOM     91  S   UNL     1      -3.311  -9.233  14.733  1.00  0.00     0.124 S 
ATOM     92  O   UNL     1      -3.035 -10.120  13.516  1.00  0.00    -0.237 OA
ATOM     93  O   UNL     1      -2.055  -9.158  15.604  1.00  0.00    -0.237 OA
ATOM     94  O   UNL     1      -4.598  -9.897  15.643  1.00  0.00    -0.744 OA
ENDBRANCH  87  91
ENDBRANCH  61  84
ENDBRANCH  35  36
ENDBRANCH  28  30
ENDBRANCH  27  28
ENDBRANCH   1  27
TORSDOF 16
