REMARK SMILES C[C@@H]1Cc2ccccc2N1c1ccc(F)cc1C(=O)OCCOC(=O)c1ccc(-c2c3nc(c(-c4cc(S(=O)(=O)[O-])ccc4F)c4ccc([nH]4)c(-c4cc(S(=O)(=O)[O-])ccc4F)c4nc(c(-c5cc(S(=O)(=O)[O-])ccc5F)c5ccc2[nH]5)C=C4)C=C3)cc1
REMARK SMILES IDX 22 1 21 2 20 3 18 4 19 5 17 6 11 7 12 8 13 9 16 10 14 11
REMARK SMILES IDX 15 12 10 13 1 14 2 15 3 16 4 17 9 18 5 19 8 20 6 21 7 22
REMARK SMILES IDX 23 23 24 24 25 25 26 26 27 27 88 28 28 29 87 30 29 31 30 32
REMARK SMILES IDX 31 33 81 34 32 35 86 36 80 37 82 38 33 39 85 40 79 41 78 42
REMARK SMILES IDX 34 44 66 45 46 46 65 47 47 48 50 49 64 50 83 51 48 52 49 53
REMARK SMILES IDX 63 55 84 56 51 57 35 58 36 59 44 60 37 61 43 62 45 63 42 64
REMARK SMILES IDX 38 65 39 66 40 67 41 68 67 69 68 70 76 71 69 72 75 73 77 74
REMARK SMILES IDX 74 75 70 76 71 77 72 78 73 79 52 80 53 81 61 82 54 83 60 84
REMARK SMILES IDX 62 85 59 86 55 87 56 88 57 89 58 90
REMARK H PARENT 82 43 50 54
REMARK Flexibility Score: inf
ROOT
ATOM      1  C   UNL     1      -4.032  -1.671   1.880  1.00  0.00     0.275 C 
ENDROOT
BRANCH   1   2
ATOM      2  C   UNL     1      -2.774  -1.054   1.274  1.00  0.00     0.275 C 
BRANCH   2   3
ATOM      3  O   UNL     1      -1.592  -1.454   1.993  1.00  0.00    -0.458 OA
BRANCH   3   4
ATOM      4  C   UNL     1      -0.825  -0.474   2.530  1.00  0.00     0.340 C 
ATOM      5  O   UNL     1      -1.110   0.710   2.599  1.00  0.00    -0.246 OA
BRANCH   4   6
ATOM      6  C   UNL     1       0.439  -1.023   3.086  1.00  0.00     0.086 A 
ATOM      7  C   UNL     1       1.196  -2.020   2.438  1.00  0.00     0.056 A 
ATOM      8  C   UNL     1       2.329  -2.524   3.115  1.00  0.00     0.030 A 
ATOM      9  C   UNL     1       2.683  -2.075   4.388  1.00  0.00     0.041 A 
ATOM     10  C   UNL     1       0.855  -0.508   4.325  1.00  0.00     0.057 A 
ATOM     11  C   UNL     1       1.945  -1.063   4.978  1.00  0.00     0.124 A 
ATOM     12  F   UNL     1       2.279  -0.628   6.198  1.00  0.00    -0.207 F 
BRANCH   7  13
ATOM     13  N   UNL     1       0.853  -2.541   1.186  1.00  0.00    -0.337 N 
ATOM     14  C   UNL     1       0.636  -0.461  -0.264  1.00  0.00     0.032 C 
ATOM     15  C   UNL     1       1.240  -1.847  -0.075  1.00  0.00     0.089 C 
ATOM     16  C   UNL     1       0.797  -2.779  -1.235  1.00  0.00     0.063 C 
ATOM     17  C   UNL     1       0.791  -4.105  -0.556  1.00  0.00    -0.022 A 
ATOM     18  C   UNL     1       0.795  -3.913   0.826  1.00  0.00     0.045 A 
ATOM     19  C   UNL     1       0.730  -5.370  -1.116  1.00  0.00     0.006 A 
ATOM     20  C   UNL     1       0.733  -5.005   1.680  1.00  0.00     0.026 A 
ATOM     21  C   UNL     1       0.702  -6.470  -0.258  1.00  0.00     0.000 A 
ATOM     22  C   UNL     1       0.705  -6.290   1.133  1.00  0.00     0.002 A 
ENDBRANCH   7  13
ENDBRANCH   4   6
ENDBRANCH   3   4
ENDBRANCH   2   3
ENDBRANCH   1   2
BRANCH   1  23
ATOM     23  O   UNL     1      -4.311  -1.073   3.154  1.00  0.00    -0.458 OA
BRANCH  23  24
ATOM     24  C   UNL     1      -3.787  -1.727   4.214  1.00  0.00     0.338 C 
ATOM     25  O   UNL     1      -3.259  -2.832   4.224  1.00  0.00    -0.246 OA
BRANCH  24  26
ATOM     26  C   UNL     1      -3.751  -0.796   5.344  1.00  0.00     0.060 A 
ATOM     27  C   UNL     1      -4.906  -0.377   5.996  1.00  0.00     0.016 A 
ATOM     28  C   UNL     1      -2.496  -0.351   5.760  1.00  0.00     0.016 A 
ATOM     29  C   UNL     1      -4.786   0.513   7.066  1.00  0.00     0.010 A 
ATOM     30  C   UNL     1      -2.374   0.531   6.827  1.00  0.00     0.010 A 
ATOM     31  C   UNL     1      -3.520   0.972   7.493  1.00  0.00    -0.014 A 
BRANCH  31  32
ATOM     32  C   UNL     1      -3.401   1.794   8.722  1.00  0.00     0.031 A 
ATOM     33  C   UNL     1      -2.945   3.223   8.683  1.00  0.00     0.074 A 
ATOM     34  C   UNL     1      -3.681   1.203   9.899  1.00  0.00     0.049 A 
ATOM     35  N   UNL     1      -2.947   4.104   9.650  1.00  0.00    -0.248 NA
ATOM     36  C   UNL     1      -2.393   3.727   7.415  1.00  0.00     0.031 C 
ATOM     37  C   UNL     1      -3.986  -0.220  10.060  1.00  0.00     0.029 A 
ATOM     38  N   UNL     1      -3.768   1.709  11.171  1.00  0.00    -0.354 N 
ATOM     39  C   UNL     1      -2.412   5.267   9.110  1.00  0.00     0.074 A 
ATOM     40  C   UNL     1      -2.037   4.963   7.746  1.00  0.00     0.031 C 
ATOM     41  C   UNL     1      -4.281  -0.462  11.344  1.00  0.00     0.029 A 
ATOM     42  C   UNL     1      -4.166   0.780  12.104  1.00  0.00     0.049 A 
ATOM     43  H   UNL     1      -3.564   2.646  11.394  1.00  0.00     0.167 HD
ATOM     44  C   UNL     1      -2.281   6.481   9.698  1.00  0.00     0.034 A 
ATOM     45  C   UNL     1      -4.435   0.915  13.419  1.00  0.00     0.034 A 
ATOM     46  C   UNL     1      -2.682   6.753  11.057  1.00  0.00     0.049 A 
ATOM     47  C   UNL     1      -4.378   2.294  14.022  1.00  0.00     0.074 A 
ATOM     48  C   UNL     1      -2.690   7.969  11.716  1.00  0.00     0.029 A 
ATOM     49  N   UNL     1      -3.139   5.806  11.963  1.00  0.00    -0.354 N 
ATOM     50  N   UNL     1      -4.043   3.428  13.451  1.00  0.00    -0.248 NA
ATOM     51  C   UNL     1      -4.764   2.427  15.433  1.00  0.00     0.031 C 
ATOM     52  C   UNL     1      -3.084   7.748  13.036  1.00  0.00     0.029 A 
ATOM     53  C   UNL     1      -3.402   6.407  13.183  1.00  0.00     0.049 A 
ATOM     54  H   UNL     1      -3.257   4.848  11.768  1.00  0.00     0.167 HD
ATOM     55  C   UNL     1      -4.180   4.407  14.430  1.00  0.00     0.074 A 
ATOM     56  C   UNL     1      -4.681   3.739  15.613  1.00  0.00     0.031 C 
ATOM     57  C   UNL     1      -3.900   5.733  14.359  1.00  0.00     0.034 A 
BRANCH  44  58
ATOM     58  C   UNL     1      -1.748   7.642   8.892  1.00  0.00     0.023 A 
ATOM     59  C   UNL     1      -0.594   8.329   9.318  1.00  0.00     0.031 A 
ATOM     60  C   UNL     1      -2.489   8.186   7.828  1.00  0.00     0.131 A 
ATOM     61  C   UNL     1      -0.251   9.550   8.722  1.00  0.00     0.055 A 
ATOM     62  C   UNL     1      -2.115   9.379   7.206  1.00  0.00     0.041 A 
ATOM     63  F   UNL     1      -3.603   7.577   7.390  1.00  0.00    -0.206 F 
ATOM     64  C   UNL     1      -1.001  10.075   7.664  1.00  0.00     0.022 A 
BRANCH  61  65
ATOM     65  S   UNL     1       1.129  10.548   9.348  1.00  0.00     0.124 S 
ATOM     66  O   UNL     1       1.927  10.753   8.141  1.00  0.00    -0.237 OA
ATOM     67  O   UNL     1       0.442  11.735   9.850  1.00  0.00    -0.237 OA
ATOM     68  O   UNL     1       1.746   9.697  10.360  1.00  0.00    -0.744 OA
ENDBRANCH  61  65
ENDBRANCH  44  58
BRANCH  45  69
ATOM     69  C   UNL     1      -4.868  -0.285  14.194  1.00  0.00     0.023 A 
ATOM     70  C   UNL     1      -4.021  -1.403  14.314  1.00  0.00     0.031 A 
ATOM     71  C   UNL     1      -6.171  -0.388  14.708  1.00  0.00     0.131 A 
ATOM     72  C   UNL     1      -4.510  -2.594  14.866  1.00  0.00     0.055 A 
ATOM     73  C   UNL     1      -6.629  -1.552  15.329  1.00  0.00     0.041 A 
ATOM     74  F   UNL     1      -7.027   0.640  14.596  1.00  0.00    -0.206 F 
ATOM     75  C   UNL     1      -5.803  -2.669  15.392  1.00  0.00     0.022 A 
BRANCH  72  76
ATOM     76  S   UNL     1      -3.544  -4.127  14.765  1.00  0.00     0.124 S 
ATOM     77  O   UNL     1      -3.298  -4.423  16.173  1.00  0.00    -0.237 OA
ATOM     78  O   UNL     1      -4.474  -5.025  14.085  1.00  0.00    -0.237 OA
ATOM     79  O   UNL     1      -2.372  -3.745  13.984  1.00  0.00    -0.744 OA
ENDBRANCH  72  76
ENDBRANCH  45  69
BRANCH  57  80
ATOM     80  C   UNL     1      -4.095   6.574  15.600  1.00  0.00     0.023 A 
ATOM     81  C   UNL     1      -4.995   7.657  15.589  1.00  0.00     0.031 A 
ATOM     82  C   UNL     1      -3.284   6.396  16.735  1.00  0.00     0.131 A 
ATOM     83  C   UNL     1      -5.035   8.541  16.675  1.00  0.00     0.055 A 
ATOM     84  C   UNL     1      -3.367   7.247  17.837  1.00  0.00     0.041 A 
ATOM     85  F   UNL     1      -2.398   5.388  16.788  1.00  0.00    -0.206 F 
ATOM     86  C   UNL     1      -4.234   8.335  17.803  1.00  0.00     0.022 A 
BRANCH  83  87
ATOM     87  S   UNL     1      -6.052  10.042  16.624  1.00  0.00     0.124 S 
ATOM     88  O   UNL     1      -6.987   9.809  17.722  1.00  0.00    -0.237 OA
ATOM     89  O   UNL     1      -5.064  11.092  16.859  1.00  0.00    -0.237 OA
ATOM     90  O   UNL     1      -6.642  10.024  15.290  1.00  0.00    -0.744 OA
ENDBRANCH  83  87
ENDBRANCH  57  80
ENDBRANCH  31  32
ENDBRANCH  24  26
ENDBRANCH  23  24
ENDBRANCH   1  23
TORSDOF 15
