REMARK SMILES Cc1cc(N2CCCC[C@@H]2C)cc(C(=O)OCCOC(=O)c2ccc(-c3c4nc(c(-c5cc(S(=O)(=O)[O-])ccc5F)c5ccc([nH]5)c(-c5cc(S(=O)(=O)[O-])ccc5F)c5nc(c(-c6cc(S(=O)(=O)[O-])ccc6F)c6ccc3[nH]6)C=C5)C=C4)cc2)c1N
REMARK SMILES IDX 18 1 17 2 16 3 14 4 15 5 13 6 1 7 2 8 3 9 85 10 4 11 12 12
REMARK SMILES IDX 86 13 5 16 6 17 10 18 7 19 9 20 11 21 8 22 19 23 20 24 21 25
REMARK SMILES IDX 22 26 23 27 84 28 24 29 83 30 25 31 26 32 27 33 77 34 28 35
REMARK SMILES IDX 82 36 76 37 78 38 29 39 81 40 75 41 74 42 30 44 62 45 42 46
REMARK SMILES IDX 61 47 43 48 46 49 60 50 79 51 44 52 45 53 59 55 80 56 47 57
REMARK SMILES IDX 31 58 32 59 40 60 33 61 39 62 41 63 38 64 34 65 35 66 36 67
REMARK SMILES IDX 37 68 63 69 64 70 72 71 65 72 71 73 73 74 70 75 66 76 67 77
REMARK SMILES IDX 68 78 69 79 48 80 49 81 57 82 50 83 56 84 58 85 55 86 51 87
REMARK SMILES IDX 52 88 53 89 54 90
REMARK H PARENT 86 14 86 15 78 43 46 54
REMARK Flexibility Score: inf
ROOT
ATOM      1  C   UNL     1      -1.065  -5.182  -1.093  1.00  0.00     0.275 C 
ENDROOT
BRANCH   1   2
ATOM      2  C   UNL     1      -1.781  -4.564   0.107  1.00  0.00     0.275 C 
BRANCH   2   3
ATOM      3  O   UNL     1      -1.765  -3.123   0.023  1.00  0.00    -0.458 OA
BRANCH   3   4
ATOM      4  C   UNL     1      -0.873  -2.483   0.827  1.00  0.00     0.340 C 
ATOM      5  O   UNL     1      -0.113  -3.016   1.624  1.00  0.00    -0.246 OA
BRANCH   4   6
ATOM      6  C   UNL     1      -0.914  -1.016   0.584  1.00  0.00     0.085 A 
ATOM      7  C   UNL     1       1.412   1.980   0.191  1.00  0.00     0.047 C 
ATOM      8  C   UNL     1       0.178   1.126   0.322  1.00  0.00    -0.025 A 
ATOM      9  C   UNL     1      -1.081   1.716   0.111  1.00  0.00     0.031 A 
ATOM     10  C   UNL     1       0.257  -0.235   0.668  1.00  0.00     0.049 A 
ATOM     11  C   UNL     1      -2.262   0.974   0.151  1.00  0.00     0.038 A 
ATOM     12  C   UNL     1      -2.152  -0.408   0.340  1.00  0.00     0.043 A 
BRANCH  10  13
ATOM     13  N   UNL     1       1.490  -0.799   0.984  1.00  0.00    -0.398 N 
ATOM     14  H   UNL     1       2.292  -0.231   1.036  1.00  0.00     0.156 HD
ATOM     15  H   UNL     1       1.560  -1.766   1.156  1.00  0.00     0.156 HD
ENDBRANCH  10  13
BRANCH  11  16
ATOM     16  N   UNL     1      -3.506   1.562   0.081  1.00  0.00    -0.369 N 
ATOM     17  C   UNL     1      -4.391   1.377   1.233  1.00  0.00     0.117 C 
ATOM     18  C   UNL     1      -4.007   2.439  -0.988  1.00  0.00     0.079 C 
ATOM     19  C   UNL     1      -5.698   0.750   0.762  1.00  0.00     0.021 C 
ATOM     20  C   UNL     1      -5.336   1.834  -1.491  1.00  0.00     0.025 C 
ATOM     21  C   UNL     1      -3.072   2.639  -2.179  1.00  0.00     0.031 C 
ATOM     22  C   UNL     1      -6.327   1.586  -0.351  1.00  0.00     0.004 C 
ENDBRANCH  11  16
ENDBRANCH   4   6
ENDBRANCH   3   4
ENDBRANCH   2   3
ENDBRANCH   1   2
BRANCH   1  23
ATOM     23  O   UNL     1       0.321  -4.811  -1.050  1.00  0.00    -0.458 OA
BRANCH  23  24
ATOM     24  C   UNL     1       0.923  -4.597  -2.246  1.00  0.00     0.338 C 
ATOM     25  O   UNL     1       0.449  -4.823  -3.346  1.00  0.00    -0.246 OA
BRANCH  24  26
ATOM     26  C   UNL     1       2.277  -4.031  -2.024  1.00  0.00     0.060 A 
ATOM     27  C   UNL     1       2.526  -3.214  -0.924  1.00  0.00     0.016 A 
ATOM     28  C   UNL     1       3.293  -4.237  -2.957  1.00  0.00     0.016 A 
ATOM     29  C   UNL     1       3.742  -2.539  -0.798  1.00  0.00     0.010 A 
ATOM     30  C   UNL     1       4.551  -3.638  -2.771  1.00  0.00     0.010 A 
ATOM     31  C   UNL     1       4.787  -2.746  -1.706  1.00  0.00    -0.014 A 
BRANCH  31  32
ATOM     32  C   UNL     1       6.073  -1.978  -1.594  1.00  0.00     0.031 A 
ATOM     33  C   UNL     1       6.604  -1.226  -2.794  1.00  0.00     0.074 A 
ATOM     34  C   UNL     1       6.764  -1.899  -0.435  1.00  0.00     0.049 A 
ATOM     35  N   UNL     1       7.801  -0.739  -3.010  1.00  0.00    -0.248 NA
ATOM     36  C   UNL     1       5.667  -1.016  -3.907  1.00  0.00     0.031 C 
ATOM     37  C   UNL     1       6.363  -2.494   0.841  1.00  0.00     0.029 A 
ATOM     38  N   UNL     1       7.953  -1.270  -0.136  1.00  0.00    -0.354 N 
ATOM     39  C   UNL     1       7.786  -0.250  -4.315  1.00  0.00     0.074 A 
ATOM     40  C   UNL     1       6.456  -0.494  -4.834  1.00  0.00     0.031 C 
ATOM     41  C   UNL     1       7.246  -2.149   1.791  1.00  0.00     0.029 A 
ATOM     42  C   UNL     1       8.352  -1.426   1.175  1.00  0.00     0.049 A 
ATOM     43  H   UNL     1       8.470  -0.756  -0.797  1.00  0.00     0.167 HD
ATOM     44  C   UNL     1       8.790   0.339  -5.013  1.00  0.00     0.034 A 
ATOM     45  C   UNL     1       9.499  -1.092   1.804  1.00  0.00     0.034 A 
ATOM     46  C   UNL     1      10.084   0.654  -4.454  1.00  0.00     0.049 A 
ATOM     47  C   UNL     1      10.612  -0.461   1.006  1.00  0.00     0.074 A 
ATOM     48  C   UNL     1      11.173   1.243  -5.075  1.00  0.00     0.029 A 
ATOM     49  N   UNL     1      10.455   0.438  -3.134  1.00  0.00    -0.354 N 
ATOM     50  N   UNL     1      10.635  -0.136  -0.266  1.00  0.00    -0.248 NA
ATOM     51  C   UNL     1      11.863  -0.178   1.722  1.00  0.00     0.031 C 
ATOM     52  C   UNL     1      12.215   1.339  -4.146  1.00  0.00     0.029 A 
ATOM     53  C   UNL     1      11.756   0.872  -2.926  1.00  0.00     0.049 A 
ATOM     54  H   UNL     1       9.878   0.034  -2.445  1.00  0.00     0.167 HD
ATOM     55  C   UNL     1      11.903   0.388  -0.499  1.00  0.00     0.074 A 
ATOM     56  C   UNL     1      12.602   0.369   0.769  1.00  0.00     0.031 C 
ATOM     57  C   UNL     1      12.447   0.835  -1.660  1.00  0.00     0.034 A 
BRANCH  44  58
ATOM     58  C   UNL     1       8.554   0.615  -6.481  1.00  0.00     0.023 A 
ATOM     59  C   UNL     1       7.608   1.549  -6.933  1.00  0.00     0.031 A 
ATOM     60  C   UNL     1       9.292  -0.094  -7.448  1.00  0.00     0.131 A 
ATOM     61  C   UNL     1       7.380   1.704  -8.310  1.00  0.00     0.055 A 
ATOM     62  C   UNL     1       9.116   0.121  -8.816  1.00  0.00     0.041 A 
ATOM     63  F   UNL     1      10.197  -1.014  -7.079  1.00  0.00    -0.206 F 
ATOM     64  C   UNL     1       8.146   1.015  -9.255  1.00  0.00     0.022 A 
BRANCH  61  65
ATOM     65  S   UNL     1       5.983   2.725  -8.852  1.00  0.00     0.124 S 
ATOM     66  O   UNL     1       4.855   2.035  -8.232  1.00  0.00    -0.237 OA
ATOM     67  O   UNL     1       6.314   4.034  -8.299  1.00  0.00    -0.237 OA
ATOM     68  O   UNL     1       6.035   2.633 -10.310  1.00  0.00    -0.744 OA
ENDBRANCH  61  65
ENDBRANCH  44  58
BRANCH  45  69
ATOM     69  C   UNL     1       9.707  -1.445   3.242  1.00  0.00     0.023 A 
ATOM     70  C   UNL     1       9.936  -0.456   4.213  1.00  0.00     0.031 A 
ATOM     71  C   UNL     1       9.731  -2.789   3.659  1.00  0.00     0.131 A 
ATOM     72  C   UNL     1      10.209  -0.827   5.540  1.00  0.00     0.055 A 
ATOM     73  C   UNL     1       9.935  -3.150   4.991  1.00  0.00     0.041 A 
ATOM     74  F   UNL     1       9.536  -3.779   2.772  1.00  0.00    -0.206 F 
ATOM     75  C   UNL     1      10.188  -2.166   5.939  1.00  0.00     0.022 A 
BRANCH  72  76
ATOM     76  S   UNL     1      10.686   0.460   6.727  1.00  0.00     0.124 S 
ATOM     77  O   UNL     1      11.854   1.044   6.079  1.00  0.00    -0.237 OA
ATOM     78  O   UNL     1       9.490   1.294   6.768  1.00  0.00    -0.237 OA
ATOM     79  O   UNL     1      10.961  -0.291   7.951  1.00  0.00    -0.744 OA
ENDBRANCH  72  76
ENDBRANCH  45  69
BRANCH  57  80
ATOM     80  C   UNL     1      13.853   1.374  -1.589  1.00  0.00     0.023 A 
ATOM     81  C   UNL     1      14.953   0.535  -1.336  1.00  0.00     0.031 A 
ATOM     82  C   UNL     1      14.092   2.750  -1.746  1.00  0.00     0.131 A 
ATOM     83  C   UNL     1      16.234   1.087  -1.190  1.00  0.00     0.055 A 
ATOM     84  C   UNL     1      15.376   3.288  -1.654  1.00  0.00     0.041 A 
ATOM     85  F   UNL     1      13.077   3.596  -1.987  1.00  0.00    -0.206 F 
ATOM     86  C   UNL     1      16.454   2.457  -1.361  1.00  0.00     0.022 A 
BRANCH  83  87
ATOM     87  S   UNL     1      17.599   0.005  -0.684  1.00  0.00     0.124 S 
ATOM     88  O   UNL     1      17.119  -0.512   0.594  1.00  0.00    -0.237 OA
ATOM     89  O   UNL     1      17.658  -0.957  -1.779  1.00  0.00    -0.237 OA
ATOM     90  O   UNL     1      18.742   0.912  -0.596  1.00  0.00    -0.744 OA
ENDBRANCH  83  87
ENDBRANCH  57  80
ENDBRANCH  31  32
ENDBRANCH  24  26
ENDBRANCH  23  24
ENDBRANCH   1  23
TORSDOF 16
