REMARK SMILES COCCNC(=O)NC(=O)C[N@H+]1CC[C@H](C(=O)OCCOC(=O)c2ccc(-c3c4nc(c(-c5cc(S(=O)(=O)[O-])ccc5F)c5ccc([nH]5)c(-c5cc(S(=O)(=O)[O-])ccc5F)c5nc(c(-c6cc(S(=O)(=O)[O-])ccc6F)c6ccc3[nH]6)C=C5)C=C4)cc2)[C@@H]1C
REMARK SMILES IDX 19 1 18 2 16 3 17 4 15 5 12 6 13 7 87 8 14 10 88 11 11 12
REMARK SMILES IDX 9 13 5 14 6 15 7 17 8 18 10 20 4 21 3 22 2 23 1 24 20 25
REMARK SMILES IDX 21 26 22 27 23 28 24 29 25 30 86 31 26 32 85 33 27 34 28 35
REMARK SMILES IDX 29 36 79 37 30 38 84 39 78 40 80 41 31 42 83 43 77 44 76 45
REMARK SMILES IDX 32 47 64 48 44 49 63 50 45 51 48 52 62 53 81 54 46 55 47 56
REMARK SMILES IDX 61 58 82 59 49 60 33 61 34 62 42 63 35 64 41 65 43 66 40 67
REMARK SMILES IDX 36 68 37 69 38 70 39 71 65 72 66 73 74 74 67 75 73 76 75 77
REMARK SMILES IDX 72 78 68 79 69 80 70 81 71 82 50 83 51 84 59 85 52 86 58 87
REMARK SMILES IDX 60 88 57 89 53 90 54 91 55 92 56 93
REMARK H PARENT 12 9 5 16 8 19 80 46 48 57
REMARK Flexibility Score: inf
ROOT
ATOM      1  C   UNL     1       2.630  -4.493  -0.817  1.00  0.00     0.274 C 
ENDROOT
BRANCH   1   2
ATOM      2  O   UNL     1       2.349  -3.504  -1.828  1.00  0.00    -0.462 OA
BRANCH   2   3
ATOM      3  C   UNL     1       1.305  -2.680  -1.590  1.00  0.00     0.315 C 
ATOM      4  O   UNL     1       0.511  -2.817  -0.663  1.00  0.00    -0.252 OA
BRANCH   3   5
ATOM      5  C   UNL     1       1.282  -1.448  -2.468  1.00  0.00     0.162 C 
ATOM      6  N   UNL     1       2.178  -0.031  -4.162  1.00  0.00    -0.324 N 
ATOM      7  C   UNL     1       2.913   0.292  -2.932  1.00  0.00     0.264 C 
ATOM      8  C   UNL     1       1.709  -1.434  -3.939  1.00  0.00     0.195 C 
ATOM      9  H   UNL     1       2.756   0.064  -4.997  1.00  0.00     0.348 HD
ATOM     10  C   UNL     1       2.105  -0.342  -1.818  1.00  0.00     0.083 C 
ATOM     11  C   UNL     1       2.824  -2.398  -4.348  1.00  0.00     0.076 C 
BRANCH   6  12
ATOM     12  C   UNL     1       1.036   0.895  -4.380  1.00  0.00     0.364 C 
BRANCH  12  13
ATOM     13  C   UNL     1       1.461   2.355  -4.562  1.00  0.00     0.283 C 
ATOM     14  N   UNL     1      -0.137   2.653  -1.724  1.00  0.00    -0.335 N 
ATOM     15  C   UNL     1       1.039   3.068  -2.246  1.00  0.00     0.321 C 
ATOM     16  H   UNL     1      -0.101   2.429  -0.766  1.00  0.00     0.165 HD
ATOM     17  O   UNL     1       1.970   3.312  -1.483  1.00  0.00    -0.248 OA
ATOM     18  N   UNL     1       1.141   3.280  -3.586  1.00  0.00    -0.273 N 
ATOM     19  H   UNL     1       0.967   4.198  -3.896  1.00  0.00     0.175 HD
ATOM     20  O   UNL     1       2.094   2.725  -5.553  1.00  0.00    -0.268 OA
BRANCH  14  21
ATOM     21  C   UNL     1      -1.447   2.480  -2.332  1.00  0.00     0.146 C 
BRANCH  21  22
ATOM     22  C   UNL     1      -2.058   1.099  -2.053  1.00  0.00     0.181 C 
BRANCH  22  23
ATOM     23  O   UNL     1      -2.505   0.933  -0.708  1.00  0.00    -0.383 OA
ATOM     24  C   UNL     1      -1.532   0.384   0.172  1.00  0.00     0.194 C 
ENDBRANCH  22  23
ENDBRANCH  21  22
ENDBRANCH  14  21
ENDBRANCH  12  13
ENDBRANCH   6  12
ENDBRANCH   3   5
ENDBRANCH   2   3
ENDBRANCH   1   2
BRANCH   1  25
ATOM     25  C   UNL     1       3.902  -4.089  -0.077  1.00  0.00     0.275 C 
BRANCH  25  26
ATOM     26  O   UNL     1       3.675  -2.844   0.613  1.00  0.00    -0.458 OA
BRANCH  26  27
ATOM     27  C   UNL     1       4.721  -1.982   0.632  1.00  0.00     0.338 C 
ATOM     28  O   UNL     1       5.838  -2.207   0.181  1.00  0.00    -0.246 OA
BRANCH  27  29
ATOM     29  C   UNL     1       4.337  -0.680   1.244  1.00  0.00     0.060 A 
ATOM     30  C   UNL     1       3.002  -0.283   1.364  1.00  0.00     0.016 A 
ATOM     31  C   UNL     1       5.344   0.219   1.604  1.00  0.00     0.016 A 
ATOM     32  C   UNL     1       2.691   1.035   1.714  1.00  0.00     0.010 A 
ATOM     33  C   UNL     1       5.018   1.495   2.086  1.00  0.00     0.010 A 
ATOM     34  C   UNL     1       3.685   1.940   2.122  1.00  0.00    -0.014 A 
BRANCH  34  35
ATOM     35  C   UNL     1       3.350   3.331   2.579  1.00  0.00     0.031 A 
ATOM     36  C   UNL     1       4.100   4.527   2.030  1.00  0.00     0.074 A 
ATOM     37  C   UNL     1       2.392   3.551   3.507  1.00  0.00     0.049 A 
ATOM     38  N   UNL     1       4.198   5.740   2.516  1.00  0.00    -0.248 NA
ATOM     39  C   UNL     1       4.864   4.318   0.791  1.00  0.00     0.031 C 
ATOM     40  C   UNL     1       1.540   2.527   4.116  1.00  0.00     0.029 A 
ATOM     41  N   UNL     1       1.971   4.717   4.107  1.00  0.00    -0.354 N 
ATOM     42  C   UNL     1       5.094   6.415   1.689  1.00  0.00     0.074 A 
ATOM     43  C   UNL     1       5.508   5.471   0.670  1.00  0.00     0.031 C 
ATOM     44  C   UNL     1       0.665   3.112   4.947  1.00  0.00     0.029 A 
ATOM     45  C   UNL     1       0.978   4.531   5.043  1.00  0.00     0.049 A 
ATOM     46  H   UNL     1       2.345   5.601   3.888  1.00  0.00     0.167 HD
ATOM     47  C   UNL     1       5.533   7.698   1.777  1.00  0.00     0.034 A 
ATOM     48  C   UNL     1       0.422   5.376   5.935  1.00  0.00     0.034 A 
ATOM     49  C   UNL     1       5.049   8.658   2.744  1.00  0.00     0.049 A 
ATOM     50  C   UNL     1       0.931   6.790   6.022  1.00  0.00     0.074 A 
ATOM     51  C   UNL     1       5.428   9.980   2.913  1.00  0.00     0.029 A 
ATOM     52  N   UNL     1       4.055   8.413   3.682  1.00  0.00    -0.354 N 
ATOM     53  N   UNL     1       1.876   7.373   5.323  1.00  0.00    -0.248 NA
ATOM     54  C   UNL     1       0.313   7.652   7.039  1.00  0.00     0.031 C 
ATOM     55  C   UNL     1       4.696  10.521   3.977  1.00  0.00     0.029 A 
ATOM     56  C   UNL     1       3.815   9.556   4.433  1.00  0.00     0.049 A 
ATOM     57  H   UNL     1       3.589   7.554   3.798  1.00  0.00     0.167 HD
ATOM     58  C   UNL     1       1.964   8.671   5.818  1.00  0.00     0.074 A 
ATOM     59  C   UNL     1       0.950   8.796   6.844  1.00  0.00     0.031 C 
ATOM     60  C   UNL     1       2.816   9.666   5.467  1.00  0.00     0.034 A 
BRANCH  47  61
ATOM     61  C   UNL     1       6.634   8.134   0.838  1.00  0.00     0.023 A 
ATOM     62  C   UNL     1       6.436   8.265  -0.546  1.00  0.00     0.031 A 
ATOM     63  C   UNL     1       7.906   8.448   1.354  1.00  0.00     0.131 A 
ATOM     64  C   UNL     1       7.506   8.651  -1.372  1.00  0.00     0.055 A 
ATOM     65  C   UNL     1       8.946   8.897   0.537  1.00  0.00     0.041 A 
ATOM     66  F   UNL     1       8.159   8.329   2.667  1.00  0.00    -0.206 F 
ATOM     67  C   UNL     1       8.751   8.992  -0.837  1.00  0.00     0.022 A 
BRANCH  64  68
ATOM     68  S   UNL     1       7.278   8.614  -3.171  1.00  0.00     0.124 S 
ATOM     69  O   UNL     1       7.003   7.198  -3.403  1.00  0.00    -0.237 OA
ATOM     70  O   UNL     1       6.155   9.524  -3.367  1.00  0.00    -0.237 OA
ATOM     71  O   UNL     1       8.560   9.086  -3.689  1.00  0.00    -0.744 OA
ENDBRANCH  64  68
ENDBRANCH  47  61
BRANCH  48  72
ATOM     72  C   UNL     1      -0.614   4.891   6.894  1.00  0.00     0.023 A 
ATOM     73  C   UNL     1      -1.910   5.431   6.893  1.00  0.00     0.031 A 
ATOM     74  C   UNL     1      -0.305   3.921   7.865  1.00  0.00     0.131 A 
ATOM     75  C   UNL     1      -2.834   5.029   7.870  1.00  0.00     0.055 A 
ATOM     76  C   UNL     1      -1.249   3.476   8.791  1.00  0.00     0.041 A 
ATOM     77  F   UNL     1       0.921   3.376   7.917  1.00  0.00    -0.206 F 
ATOM     78  C   UNL     1      -2.518   4.043   8.807  1.00  0.00     0.022 A 
BRANCH  75  79
ATOM     79  S   UNL     1      -4.424   5.896   7.967  1.00  0.00     0.124 S 
ATOM     80  O   UNL     1      -3.999   7.283   8.118  1.00  0.00    -0.237 OA
ATOM     81  O   UNL     1      -5.036   5.548   6.689  1.00  0.00    -0.237 OA
ATOM     82  O   UNL     1      -5.061   5.306   9.143  1.00  0.00    -0.744 OA
ENDBRANCH  75  79
ENDBRANCH  48  72
BRANCH  60  83
ATOM     83  C   UNL     1       2.648  10.981   6.185  1.00  0.00     0.023 A 
ATOM     84  C   UNL     1       2.940  11.112   7.555  1.00  0.00     0.031 A 
ATOM     85  C   UNL     1       2.132  12.099   5.508  1.00  0.00     0.131 A 
ATOM     86  C   UNL     1       2.649  12.313   8.220  1.00  0.00     0.055 A 
ATOM     87  C   UNL     1       1.898  13.310   6.162  1.00  0.00     0.041 A 
ATOM     88  F   UNL     1       1.833  12.028   4.201  1.00  0.00    -0.206 F 
ATOM     89  C   UNL     1       2.141  13.416   7.529  1.00  0.00     0.022 A 
BRANCH  86  90
ATOM     90  S   UNL     1       2.840  12.379  10.023  1.00  0.00     0.124 S 
ATOM     91  O   UNL     1       1.972  11.291  10.462  1.00  0.00    -0.237 OA
ATOM     92  O   UNL     1       4.273  12.160  10.193  1.00  0.00    -0.237 OA
ATOM     93  O   UNL     1       2.374  13.721  10.369  1.00  0.00    -0.744 OA
ENDBRANCH  86  90
ENDBRANCH  60  83
ENDBRANCH  34  35
ENDBRANCH  27  29
ENDBRANCH  26  27
ENDBRANCH  25  26
ENDBRANCH   1  25
TORSDOF 19
