REMARK SMILES C[C@](NC(=O)Cc1csc(N)n1)(C(=O)OCCOC(=O)c1ccc(-c2c3nc(c(-c4cc(S(=O)(=O)[O-])ccc4F)c4ccc([nH]4)c(-c4cc(S(=O)(=O)[O-])ccc4F)c4nc(c(-c5cc(S(=O)(=O)[O-])ccc5F)c5ccc2[nH]5)C=C4)C=C3)cc1)C(F)(F)F
REMARK SMILES IDX 16 1 15 2 13 3 14 4 2 5 1 6 84 7 85 8 86 9 87 10 3 11 4 12
REMARK SMILES IDX 5 14 6 15 7 16 8 17 12 18 9 19 10 20 11 21 17 24 18 25 19 26
REMARK SMILES IDX 20 27 21 28 22 29 83 30 23 31 82 32 24 33 25 34 26 35 76 36
REMARK SMILES IDX 27 37 81 38 75 39 77 40 28 41 80 42 74 43 73 44 29 46 61 47
REMARK SMILES IDX 41 48 60 49 42 50 45 51 59 52 78 53 43 54 44 55 58 57 79 58
REMARK SMILES IDX 46 59 30 60 31 61 39 62 32 63 38 64 40 65 37 66 33 67 34 68
REMARK SMILES IDX 35 69 36 70 62 71 63 72 71 73 64 74 70 75 72 76 69 77 65 78
REMARK SMILES IDX 66 79 67 80 68 81 47 82 48 83 56 84 49 85 55 86 57 87 54 88
REMARK SMILES IDX 50 89 51 90 52 91 53 92
REMARK H PARENT 3 13 11 22 11 23 77 45 45 56
REMARK Flexibility Score: inf
ROOT
ATOM      1  C   UNL     1      -3.006   0.654  -0.602  1.00  0.00     0.274 C 
ENDROOT
BRANCH   1   2
ATOM      2  O   UNL     1      -1.564   0.658  -0.523  1.00  0.00    -0.460 OA
BRANCH   2   3
ATOM      3  C   UNL     1      -1.035   1.621   0.293  1.00  0.00     0.341 C 
ATOM      4  O   UNL     1      -1.719   2.348   1.005  1.00  0.00    -0.249 OA
BRANCH   3   5
ATOM      5  C   UNL     1       0.488   1.776   0.130  1.00  0.00     0.231 C 
ATOM      6  C   UNL     1       0.687   3.222  -0.331  1.00  0.00     0.058 C 
BRANCH   5   7
ATOM      7  C   UNL     1       1.054   1.566   1.540  1.00  0.00     0.422 C 
ATOM      8  F   UNL     1       0.845   0.301   1.968  1.00  0.00    -0.168 F 
ATOM      9  F   UNL     1       2.392   1.773   1.569  1.00  0.00    -0.168 F 
ATOM     10  F   UNL     1       0.529   2.411   2.451  1.00  0.00    -0.168 F 
ENDBRANCH   5   7
BRANCH   5  11
ATOM     11  N   UNL     1       0.994   0.784  -0.876  1.00  0.00    -0.333 N 
ATOM     12  C   UNL     1       2.204   0.515  -1.435  1.00  0.00     0.227 C 
ATOM     13  H   UNL     1       0.283   0.190  -1.210  1.00  0.00     0.164 HD
ATOM     14  O   UNL     1       2.252  -0.478  -2.171  1.00  0.00    -0.275 OA
BRANCH  12  15
ATOM     15  C   UNL     1       3.456   1.327  -1.163  1.00  0.00     0.157 C 
BRANCH  15  16
ATOM     16  C   UNL     1       3.456   2.674  -1.803  1.00  0.00     0.063 A 
ATOM     17  C   UNL     1       3.983   3.835  -1.262  1.00  0.00     0.093 A 
ATOM     18  N   UNL     1       2.879   2.841  -3.052  1.00  0.00    -0.225 NA
ATOM     19  S   UNL     1       3.694   5.157  -2.313  1.00  0.00    -0.106 S 
ATOM     20  C   UNL     1       2.936   4.094  -3.425  1.00  0.00     0.180 A 
BRANCH  20  21
ATOM     21  N   UNL     1       2.430   4.529  -4.582  1.00  0.00    -0.375 N 
ATOM     22  H   UNL     1       2.497   5.482  -4.821  1.00  0.00     0.159 HD
ATOM     23  H   UNL     1       1.991   3.897  -5.196  1.00  0.00     0.159 HD
ENDBRANCH  20  21
ENDBRANCH  15  16
ENDBRANCH  12  15
ENDBRANCH   5  11
ENDBRANCH   3   5
ENDBRANCH   2   3
ENDBRANCH   1   2
BRANCH   1  24
ATOM     24  C   UNL     1      -3.639  -0.352   0.355  1.00  0.00     0.275 C 
BRANCH  24  25
ATOM     25  O   UNL     1      -3.210  -0.091   1.700  1.00  0.00    -0.458 OA
BRANCH  25  26
ATOM     26  C   UNL     1      -2.803  -1.176   2.403  1.00  0.00     0.338 C 
ATOM     27  O   UNL     1      -2.834  -2.336   2.030  1.00  0.00    -0.246 OA
BRANCH  26  28
ATOM     28  C   UNL     1      -2.289  -0.766   3.727  1.00  0.00     0.060 A 
ATOM     29  C   UNL     1      -1.437   0.328   3.849  1.00  0.00     0.016 A 
ATOM     30  C   UNL     1      -2.551  -1.562   4.840  1.00  0.00     0.016 A 
ATOM     31  C   UNL     1      -0.744   0.555   5.037  1.00  0.00     0.010 A 
ATOM     32  C   UNL     1      -1.944  -1.263   6.065  1.00  0.00     0.010 A 
ATOM     33  C   UNL     1      -0.991  -0.232   6.168  1.00  0.00    -0.014 A 
BRANCH  33  34
ATOM     34  C   UNL     1      -0.209  -0.046   7.428  1.00  0.00     0.031 A 
ATOM     35  C   UNL     1       0.525  -1.223   8.023  1.00  0.00     0.074 A 
ATOM     36  C   UNL     1      -0.135   1.152   8.043  1.00  0.00     0.049 A 
ATOM     37  N   UNL     1       1.010  -1.379   9.227  1.00  0.00    -0.248 NA
ATOM     38  C   UNL     1       0.711  -2.389   7.146  1.00  0.00     0.031 C 
ATOM     39  C   UNL     1      -0.722   2.400   7.553  1.00  0.00     0.029 A 
ATOM     40  N   UNL     1       0.474   1.516   9.220  1.00  0.00    -0.354 N 
ATOM     41  C   UNL     1       1.477  -2.690   9.283  1.00  0.00     0.074 A 
ATOM     42  C   UNL     1       1.226  -3.278   7.984  1.00  0.00     0.031 C 
ATOM     43  C   UNL     1      -0.413   3.395   8.398  1.00  0.00     0.029 A 
ATOM     44  C   UNL     1       0.295   2.841   9.546  1.00  0.00     0.049 A 
ATOM     45  H   UNL     1       0.990   0.889   9.777  1.00  0.00     0.167 HD
ATOM     46  C   UNL     1       2.047  -3.341  10.328  1.00  0.00     0.034 A 
ATOM     47  C   UNL     1       0.604   3.524  10.667  1.00  0.00     0.034 A 
ATOM     48  C   UNL     1       2.357  -2.712  11.590  1.00  0.00     0.049 A 
ATOM     49  C   UNL     1       1.230   2.785  11.819  1.00  0.00     0.074 A 
ATOM     50  C   UNL     1       2.936  -3.270  12.717  1.00  0.00     0.029 A 
ATOM     51  N   UNL     1       2.136  -1.372  11.883  1.00  0.00    -0.354 N 
ATOM     52  N   UNL     1       1.547   1.514  11.910  1.00  0.00    -0.248 NA
ATOM     53  C   UNL     1       1.514   3.567  13.029  1.00  0.00     0.031 C 
ATOM     54  C   UNL     1       3.025  -2.281  13.704  1.00  0.00     0.029 A 
ATOM     55  C   UNL     1       2.556  -1.089  13.173  1.00  0.00     0.049 A 
ATOM     56  H   UNL     1       1.739  -0.718  11.264  1.00  0.00     0.167 HD
ATOM     57  C   UNL     1       2.063   1.345  13.190  1.00  0.00     0.074 A 
ATOM     58  C   UNL     1       2.044   2.648  13.823  1.00  0.00     0.031 C 
ATOM     59  C   UNL     1       2.507   0.213  13.793  1.00  0.00     0.034 A 
BRANCH  46  60
ATOM     60  C   UNL     1       2.292  -4.823  10.174  1.00  0.00     0.023 A 
ATOM     61  C   UNL     1       3.223  -5.344   9.261  1.00  0.00     0.031 A 
ATOM     62  C   UNL     1       1.539  -5.734  10.939  1.00  0.00     0.131 A 
ATOM     63  C   UNL     1       3.328  -6.734   9.086  1.00  0.00     0.055 A 
ATOM     64  C   UNL     1       1.701  -7.115  10.814  1.00  0.00     0.041 A 
ATOM     65  F   UNL     1       0.618  -5.295  11.812  1.00  0.00    -0.206 F 
ATOM     66  C   UNL     1       2.590  -7.623   9.873  1.00  0.00     0.022 A 
BRANCH  63  67
ATOM     67  S   UNL     1       4.343  -7.366   7.722  1.00  0.00     0.124 S 
ATOM     68  O   UNL     1       3.698  -6.752   6.565  1.00  0.00    -0.237 OA
ATOM     69  O   UNL     1       5.670  -6.862   8.057  1.00  0.00    -0.237 OA
ATOM     70  O   UNL     1       4.185  -8.816   7.819  1.00  0.00    -0.744 OA
ENDBRANCH  63  67
ENDBRANCH  46  60
BRANCH  47  71
ATOM     71  C   UNL     1       0.235   4.964  10.794  1.00  0.00     0.023 A 
ATOM     72  C   UNL     1       1.217   5.961  10.900  1.00  0.00     0.031 A 
ATOM     73  C   UNL     1      -1.115   5.359  10.831  1.00  0.00     0.131 A 
ATOM     74  C   UNL     1       0.834   7.302  11.061  1.00  0.00     0.055 A 
ATOM     75  C   UNL     1      -1.490   6.697  10.941  1.00  0.00     0.041 A 
ATOM     76  F   UNL     1      -2.093   4.443  10.736  1.00  0.00    -0.206 F 
ATOM     77  C   UNL     1      -0.512   7.678  11.066  1.00  0.00     0.022 A 
BRANCH  74  78
ATOM     78  S   UNL     1       2.122   8.552  11.325  1.00  0.00     0.124 S 
ATOM     79  O   UNL     1       2.757   8.072  12.547  1.00  0.00    -0.237 OA
ATOM     80  O   UNL     1       2.912   8.437  10.104  1.00  0.00    -0.237 OA
ATOM     81  O   UNL     1       1.367   9.796  11.461  1.00  0.00    -0.744 OA
ENDBRANCH  74  78
ENDBRANCH  47  71
BRANCH  59  82
ATOM     82  C   UNL     1       3.029   0.357  15.199  1.00  0.00     0.023 A 
ATOM     83  C   UNL     1       2.167   0.623  16.277  1.00  0.00     0.031 A 
ATOM     84  C   UNL     1       4.407   0.255  15.455  1.00  0.00     0.131 A 
ATOM     85  C   UNL     1       2.700   0.827  17.559  1.00  0.00     0.055 A 
ATOM     86  C   UNL     1       4.925   0.412  16.741  1.00  0.00     0.041 A 
ATOM     87  F   UNL     1       5.270   0.005  14.458  1.00  0.00    -0.206 F 
ATOM     88  C   UNL     1       4.072   0.712  17.799  1.00  0.00     0.022 A 
BRANCH  85  89
ATOM     89  S   UNL     1       1.582   1.327  18.898  1.00  0.00     0.124 S 
ATOM     90  O   UNL     1       1.026   2.573  18.381  1.00  0.00    -0.237 OA
ATOM     91  O   UNL     1       0.659   0.199  18.972  1.00  0.00    -0.237 OA
ATOM     92  O   UNL     1       2.471   1.475  20.049  1.00  0.00    -0.744 OA
ENDBRANCH  85  89
ENDBRANCH  59  82
ENDBRANCH  33  34
ENDBRANCH  26  28
ENDBRANCH  25  26
ENDBRANCH  24  25
ENDBRANCH   1  24
TORSDOF 19
