REMARK SMILES O=C(OCCOC(=O)[C@@H](Cc1ccccc1)N1C(=O)/C(=C/c2ccncc2)SC1=S)c1ccc(-c2c3nc(c(-c4cc(S(=O)(=O)[O-])ccc4F)c4ccc([nH]4)c(-c4cc(S(=O)(=O)[O-])ccc4F)c4nc(c(-c5cc(S(=O)(=O)[O-])ccc5F)c5ccc2[nH]5)C=C4)C=C3)cc1
REMARK SMILES IDX 4 1 3 2 2 3 1 4 31 5 32 6 93 7 33 8 92 9 34 10 35 11 36 12
REMARK SMILES IDX 86 13 37 14 91 15 85 16 87 17 38 18 90 19 84 20 83 21 39 23
REMARK SMILES IDX 71 24 51 25 70 26 52 27 55 28 69 29 88 30 53 31 54 32 68 34
REMARK SMILES IDX 89 35 56 36 40 37 41 38 49 39 42 40 48 41 50 42 47 43 43 44
REMARK SMILES IDX 44 45 45 46 46 47 72 48 73 49 81 50 74 51 80 52 82 53 79 54
REMARK SMILES IDX 75 55 76 56 77 57 78 58 57 59 58 60 66 61 59 62 65 63 67 64
REMARK SMILES IDX 64 65 60 66 61 67 62 68 63 69 5 70 6 71 7 72 8 73 9 74 10 75
REMARK SMILES IDX 11 76 12 77 16 78 13 79 15 80 14 81 17 82 18 83 29 84 19 85
REMARK SMILES IDX 20 86 28 87 30 88 21 89 22 90 23 91 27 92 24 93 26 94 25 95
REMARK H PARENT 87 22 55 33
REMARK Flexibility Score: inf
ROOT
ATOM      1  C   UNL     1       4.495  -0.130   1.764  1.00  0.00     0.275 C 
ENDROOT
BRANCH   1   2
ATOM      2  O   UNL     1       3.375   0.668   1.424  1.00  0.00    -0.458 OA
BRANCH   2   3
ATOM      3  C   UNL     1       2.985   0.842   0.155  1.00  0.00     0.338 C 
ATOM      4  O   UNL     1       1.989   1.520  -0.091  1.00  0.00    -0.246 OA
BRANCH   3   5
ATOM      5  C   UNL     1       3.633   0.161  -1.007  1.00  0.00     0.060 A 
ATOM      6  C   UNL     1       4.501  -1.463  -1.145  1.00  0.00     0.016 A 
ATOM      7  C   UNL     1       3.040   0.974  -2.525  1.00  0.00     0.016 A 
ATOM      8  C   UNL     1       4.574  -2.305  -2.788  1.00  0.00     0.010 A 
ATOM      9  C   UNL     1       3.255   0.208  -4.103  1.00  0.00     0.010 A 
ATOM     10  C   UNL     1       4.059  -1.368  -4.294  1.00  0.00    -0.014 A 
BRANCH  10  11
ATOM     11  C   UNL     1       4.723  -1.601  -5.634  1.00  0.00     0.031 A 
ATOM     12  C   UNL     1       5.638  -0.573  -6.268  1.00  0.00     0.074 A 
ATOM     13  C   UNL     1       4.681  -2.848  -6.115  1.00  0.00     0.049 A 
ATOM     14  N   UNL     1       6.466  -0.748  -7.267  1.00  0.00    -0.248 NA
ATOM     15  C   UNL     1       5.623   0.816  -5.783  1.00  0.00     0.031 C 
ATOM     16  C   UNL     1       3.661  -3.786  -5.727  1.00  0.00     0.029 A 
ATOM     17  N   UNL     1       5.483  -3.571  -6.947  1.00  0.00    -0.354 N 
ATOM     18  C   UNL     1       7.003   0.505  -7.550  1.00  0.00     0.074 A 
ATOM     19  C   UNL     1       6.472   1.428  -6.588  1.00  0.00     0.031 C 
ATOM     20  C   UNL     1       4.024  -5.022  -6.074  1.00  0.00     0.029 A 
ATOM     21  C   UNL     1       5.199  -4.924  -6.919  1.00  0.00     0.049 A 
ATOM     22  H   UNL     1       6.188  -3.172  -7.507  1.00  0.00     0.167 HD
ATOM     23  C   UNL     1       7.806   0.858  -8.579  1.00  0.00     0.034 A 
ATOM     24  C   UNL     1       5.773  -5.951  -7.574  1.00  0.00     0.034 A 
ATOM     25  C   UNL     1       8.242  -0.095  -9.562  1.00  0.00     0.049 A 
ATOM     26  C   UNL     1       6.719  -5.537  -8.664  1.00  0.00     0.074 A 
ATOM     27  C   UNL     1       8.977   0.123 -10.710  1.00  0.00     0.029 A 
ATOM     28  N   UNL     1       7.939  -1.452  -9.524  1.00  0.00    -0.354 N 
ATOM     29  N   UNL     1       7.183  -4.336  -8.930  1.00  0.00    -0.248 NA
ATOM     30  C   UNL     1       7.111  -6.574  -9.618  1.00  0.00     0.031 C 
ATOM     31  C   UNL     1       9.036  -1.083 -11.412  1.00  0.00     0.029 A 
ATOM     32  C   UNL     1       8.445  -2.078 -10.646  1.00  0.00     0.049 A 
ATOM     33  H   UNL     1       7.439  -1.900  -8.804  1.00  0.00     0.167 HD
ATOM     34  C   UNL     1       7.843  -4.455 -10.140  1.00  0.00     0.074 A 
ATOM     35  C   UNL     1       7.817  -5.866 -10.485  1.00  0.00     0.031 C 
ATOM     36  C   UNL     1       8.367  -3.488 -10.933  1.00  0.00     0.034 A 
BRANCH  23  37
ATOM     37  C   UNL     1       8.089   2.328  -8.775  1.00  0.00     0.023 A 
ATOM     38  C   UNL     1       8.828   3.095  -7.857  1.00  0.00     0.031 A 
ATOM     39  C   UNL     1       7.535   2.991  -9.887  1.00  0.00     0.131 A 
ATOM     40  C   UNL     1       8.947   4.483  -8.042  1.00  0.00     0.055 A 
ATOM     41  C   UNL     1       7.728   4.355 -10.109  1.00  0.00     0.041 A 
ATOM     42  F   UNL     1       6.772   2.325 -10.768  1.00  0.00    -0.206 F 
ATOM     43  C   UNL     1       8.430   5.112  -9.178  1.00  0.00     0.022 A 
BRANCH  40  44
ATOM     44  S   UNL     1       9.657   5.486  -6.706  1.00  0.00     0.124 S 
ATOM     45  O   UNL     1       8.733   5.215  -5.608  1.00  0.00    -0.237 OA
ATOM     46  O   UNL     1      10.996   4.925  -6.565  1.00  0.00    -0.237 OA
ATOM     47  O   UNL     1       9.605   6.849  -7.233  1.00  0.00    -0.744 OA
ENDBRANCH  40  44
ENDBRANCH  23  37
BRANCH  24  48
ATOM     48  C   UNL     1       5.341  -7.373  -7.409  1.00  0.00     0.023 A 
ATOM     49  C   UNL     1       6.282  -8.394  -7.189  1.00  0.00     0.031 A 
ATOM     50  C   UNL     1       3.995  -7.761  -7.561  1.00  0.00     0.131 A 
ATOM     51  C   UNL     1       5.869  -9.738  -7.170  1.00  0.00     0.055 A 
ATOM     52  C   UNL     1       3.575  -9.082  -7.423  1.00  0.00     0.041 A 
ATOM     53  F   UNL     1       3.050  -6.857  -7.863  1.00  0.00    -0.206 F 
ATOM     54  C   UNL     1       4.518 -10.085  -7.247  1.00  0.00     0.022 A 
BRANCH  51  55
ATOM     55  S   UNL     1       7.128 -11.047  -7.172  1.00  0.00     0.124 S 
ATOM     56  O   UNL     1       7.639 -10.941  -8.535  1.00  0.00    -0.237 OA
ATOM     57  O   UNL     1       8.052 -10.624  -6.124  1.00  0.00    -0.237 OA
ATOM     58  O   UNL     1       6.360 -12.259  -6.891  1.00  0.00    -0.744 OA
ENDBRANCH  51  55
ENDBRANCH  24  48
BRANCH  36  59
ATOM     59  C   UNL     1       8.969  -3.968 -12.217  1.00  0.00     0.023 A 
ATOM     60  C   UNL     1       8.173  -4.516 -13.234  1.00  0.00     0.031 A 
ATOM     61  C   UNL     1      10.360  -3.920 -12.392  1.00  0.00     0.131 A 
ATOM     62  C   UNL     1       8.790  -5.082 -14.352  1.00  0.00     0.055 A 
ATOM     63  C   UNL     1      10.959  -4.402 -13.550  1.00  0.00     0.041 A 
ATOM     64  F   UNL     1      11.153  -3.413 -11.434  1.00  0.00    -0.206 F 
ATOM     65  C   UNL     1      10.175  -5.005 -14.530  1.00  0.00     0.022 A 
BRANCH  62  66
ATOM     66  S   UNL     1       7.773  -6.057 -15.491  1.00  0.00     0.124 S 
ATOM     67  O   UNL     1       7.262  -7.103 -14.611  1.00  0.00    -0.237 OA
ATOM     68  O   UNL     1       6.795  -5.080 -15.955  1.00  0.00    -0.237 OA
ATOM     69  O   UNL     1       8.730  -6.506 -16.500  1.00  0.00    -0.744 OA
ENDBRANCH  62  66
ENDBRANCH  36  59
ENDBRANCH  10  11
ENDBRANCH   3   5
ENDBRANCH   2   3
ENDBRANCH   1   2
BRANCH   1  70
ATOM     70  C   UNL     1       4.082  -1.580   2.076  1.00  0.00     0.274 C 
BRANCH  70  71
ATOM     71  O   UNL     1       3.499  -2.338   0.978  1.00  0.00    -0.461 OA
BRANCH  71  72
ATOM     72  C   UNL     1       2.315  -1.962   0.398  1.00  0.00     0.329 C 
ATOM     73  O   UNL     1       1.452  -1.329   0.988  1.00  0.00    -0.250 OA
BRANCH  72  74
ATOM     74  C   UNL     1       2.250  -2.352  -1.144  1.00  0.00     0.206 C 
BRANCH  74  75
ATOM     75  C   UNL     1       2.999  -1.146  -2.429  1.00  0.00     0.073 C 
BRANCH  75  76
ATOM     76  C   UNL     1       4.934  -0.207  -2.698  1.00  0.00    -0.045 A 
ATOM     77  C   UNL     1       6.306  -0.908  -3.128  1.00  0.00     0.004 A 
ATOM     78  C   UNL     1       5.474   1.133  -2.289  1.00  0.00     0.004 A 
ATOM     79  C   UNL     1       7.654  -0.538  -2.976  1.00  0.00     0.000 A 
ATOM     80  C   UNL     1       6.862   1.528  -2.189  1.00  0.00     0.000 A 
ATOM     81  C   UNL     1       7.932   0.689  -2.465  1.00  0.00     0.000 A 
ENDBRANCH  75  76
ENDBRANCH  74  75
BRANCH  74  82
ATOM     82  N   UNL     1       2.578  -3.821  -1.218  1.00  0.00    -0.278 N 
ATOM     83  C   UNL     1       2.817  -4.381  -2.424  1.00  0.00     0.267 C 
ATOM     84  C   UNL     1       2.026  -4.846  -0.470  1.00  0.00     0.149 C 
ATOM     85  O   UNL     1       2.186  -4.080  -3.423  1.00  0.00    -0.268 OA
ATOM     86  C   UNL     1       3.542  -5.652  -2.261  1.00  0.00     0.081 C 
ATOM     87  S   UNL     1       2.804  -6.403  -0.913  1.00  0.00    -0.054 SA
ATOM     88  S   UNL     1       0.765  -4.805   0.621  1.00  0.00    -0.052 S 
ATOM     89  C   UNL     1       4.569  -6.025  -3.034  1.00  0.00     0.029 C 
BRANCH  89  90
ATOM     90  C   UNL     1       5.062  -7.392  -3.205  1.00  0.00    -0.021 A 
ATOM     91  C   UNL     1       4.126  -8.364  -3.563  1.00  0.00     0.028 A 
ATOM     92  C   UNL     1       6.417  -7.720  -3.227  1.00  0.00     0.028 A 
ATOM     93  C   UNL     1       4.561  -9.647  -3.804  1.00  0.00     0.111 A 
ATOM     94  C   UNL     1       6.757  -9.036  -3.502  1.00  0.00     0.111 A 
ATOM     95  N   UNL     1       5.849 -10.011  -3.726  1.00  0.00    -0.265 NA
ENDBRANCH  89  90
ENDBRANCH  74  82
ENDBRANCH  72  74
ENDBRANCH  71  72
ENDBRANCH  70  71
ENDBRANCH   1  70
TORSDOF 18
