REMARK SMILES O=C(OCCOC(=O)c1ccc(N2C(=O)/C(=C/C3=c4ccccc4=NC3)SC2=S)cc1O)c1ccc(-c2c3nc(c(-c4cc(S(=O)(=O)[O-])ccc4F)c4ccc([nH]4)c(-c4cc(S(=O)(=O)[O-])ccc4F)c4nc(c(-c5cc(S(=O)(=O)[O-])ccc5F)c5ccc2[nH]5)C=C4)C=C3)cc1
REMARK SMILES IDX 4 1 3 2 2 3 1 4 33 5 34 6 95 7 35 8 94 9 36 10 37 11 38 12
REMARK SMILES IDX 88 13 39 14 93 15 87 16 89 17 40 18 92 19 86 20 85 21 41 23
REMARK SMILES IDX 73 24 53 25 72 26 54 27 57 28 71 29 90 30 55 31 56 32 70 34
REMARK SMILES IDX 91 35 58 36 42 37 43 38 51 39 44 40 50 41 52 42 49 43 45 44
REMARK SMILES IDX 46 45 47 46 48 47 74 48 75 49 83 50 76 51 82 52 84 53 81 54
REMARK SMILES IDX 77 55 78 56 79 57 80 58 59 59 60 60 68 61 61 62 67 63 69 64
REMARK SMILES IDX 66 65 62 66 63 67 64 68 65 69 5 70 6 71 7 72 8 73 9 74 10 75
REMARK SMILES IDX 31 76 11 77 30 78 12 79 32 80 13 82 14 83 28 84 15 85 16 86
REMARK SMILES IDX 27 87 29 88 17 89 18 90 19 91 26 92 20 93 24 94 25 95 21 96
REMARK SMILES IDX 23 97 22 98
REMARK H PARENT 89 22 57 33 32 81
REMARK Flexibility Score: inf
ROOT
ATOM      1  C   UNL     1       4.156   1.360  -0.205  1.00  0.00     0.275 C 
ENDROOT
BRANCH   1   2
ATOM      2  O   UNL     1       3.088   0.614  -0.814  1.00  0.00    -0.458 OA
BRANCH   2   3
ATOM      3  C   UNL     1       3.061  -0.724  -1.042  1.00  0.00     0.338 C 
ATOM      4  O   UNL     1       2.331  -1.182  -1.917  1.00  0.00    -0.246 OA
BRANCH   3   5
ATOM      5  C   UNL     1       3.712  -1.666  -0.090  1.00  0.00     0.060 A 
ATOM      6  C   UNL     1       2.919  -2.723   0.376  1.00  0.00     0.016 A 
ATOM      7  C   UNL     1       5.044  -1.597   0.324  1.00  0.00     0.016 A 
ATOM      8  C   UNL     1       3.409  -3.612   1.335  1.00  0.00     0.010 A 
ATOM      9  C   UNL     1       5.538  -2.485   1.288  1.00  0.00     0.010 A 
ATOM     10  C   UNL     1       4.718  -3.485   1.818  1.00  0.00    -0.014 A 
BRANCH  10  11
ATOM     11  C   UNL     1       5.285  -4.539   2.686  1.00  0.00     0.031 A 
ATOM     12  C   UNL     1       5.547  -4.343   4.144  1.00  0.00     0.074 A 
ATOM     13  C   UNL     1       5.602  -5.707   2.101  1.00  0.00     0.049 A 
ATOM     14  N   UNL     1       5.801  -5.248   5.053  1.00  0.00    -0.248 NA
ATOM     15  C   UNL     1       5.516  -2.968   4.659  1.00  0.00     0.031 C 
ATOM     16  C   UNL     1       5.466  -5.975   0.670  1.00  0.00     0.029 A 
ATOM     17  N   UNL     1       6.117  -6.864   2.619  1.00  0.00    -0.354 N 
ATOM     18  C   UNL     1       5.876  -4.568   6.259  1.00  0.00     0.074 A 
ATOM     19  C   UNL     1       5.715  -3.161   5.959  1.00  0.00     0.031 C 
ATOM     20  C   UNL     1       5.897  -7.216   0.420  1.00  0.00     0.029 A 
ATOM     21  C   UNL     1       6.354  -7.823   1.667  1.00  0.00     0.049 A 
ATOM     22  H   UNL     1       6.299  -6.995   3.578  1.00  0.00     0.167 HD
ATOM     23  C   UNL     1       6.044  -5.086   7.500  1.00  0.00     0.034 A 
ATOM     24  C   UNL     1       6.885  -9.055   1.778  1.00  0.00     0.034 A 
ATOM     25  C   UNL     1       6.371  -6.469   7.748  1.00  0.00     0.049 A 
ATOM     26  C   UNL     1       7.191  -9.584   3.148  1.00  0.00     0.074 A 
ATOM     27  C   UNL     1       6.527  -7.112   8.963  1.00  0.00     0.029 A 
ATOM     28  N   UNL     1       6.668  -7.404   6.764  1.00  0.00    -0.354 N 
ATOM     29  N   UNL     1       7.026  -8.995   4.310  1.00  0.00    -0.248 NA
ATOM     30  C   UNL     1       7.725 -10.947   3.232  1.00  0.00     0.031 C 
ATOM     31  C   UNL     1       7.011  -8.401   8.714  1.00  0.00     0.029 A 
ATOM     32  C   UNL     1       7.080  -8.595   7.343  1.00  0.00     0.049 A 
ATOM     33  H   UNL     1       6.597  -7.244   5.795  1.00  0.00     0.167 HD
ATOM     34  C   UNL     1       7.448  -9.911   5.267  1.00  0.00     0.074 A 
ATOM     35  C   UNL     1       7.826 -11.111   4.546  1.00  0.00     0.031 C 
ATOM     36  C   UNL     1       7.516  -9.767   6.616  1.00  0.00     0.034 A 
BRANCH  23  37
ATOM     37  C   UNL     1       5.847  -4.175   8.686  1.00  0.00     0.023 A 
ATOM     38  C   UNL     1       6.893  -3.913   9.588  1.00  0.00     0.031 A 
ATOM     39  C   UNL     1       4.566  -3.675   8.989  1.00  0.00     0.131 A 
ATOM     40  C   UNL     1       6.633  -3.192  10.762  1.00  0.00     0.055 A 
ATOM     41  C   UNL     1       4.316  -2.943  10.150  1.00  0.00     0.041 A 
ATOM     42  F   UNL     1       3.539  -3.893   8.150  1.00  0.00    -0.206 F 
ATOM     43  C   UNL     1       5.351  -2.707  11.048  1.00  0.00     0.022 A 
BRANCH  40  44
ATOM     44  S   UNL     1       7.936  -2.884  11.986  1.00  0.00     0.124 S 
ATOM     45  O   UNL     1       7.941  -1.424  12.053  1.00  0.00    -0.237 OA
ATOM     46  O   UNL     1       7.412  -3.563  13.168  1.00  0.00    -0.237 OA
ATOM     47  O   UNL     1       9.124  -3.481  11.387  1.00  0.00    -0.744 OA
ENDBRANCH  40  44
ENDBRANCH  23  37
BRANCH  24  48
ATOM     48  C   UNL     1       7.067  -9.841   0.527  1.00  0.00     0.023 A 
ATOM     49  C   UNL     1       7.918  -9.361  -0.488  1.00  0.00     0.031 A 
ATOM     50  C   UNL     1       6.234 -10.931   0.239  1.00  0.00     0.131 A 
ATOM     51  C   UNL     1       7.832  -9.899  -1.777  1.00  0.00     0.055 A 
ATOM     52  C   UNL     1       6.208 -11.515  -1.029  1.00  0.00     0.041 A 
ATOM     53  F   UNL     1       5.395 -11.406   1.172  1.00  0.00    -0.206 F 
ATOM     54  C   UNL     1       6.989 -10.981  -2.051  1.00  0.00     0.022 A 
BRANCH  51  55
ATOM     55  S   UNL     1       8.654  -9.083  -3.176  1.00  0.00     0.124 S 
ATOM     56  O   UNL     1       9.557 -10.127  -3.648  1.00  0.00    -0.237 OA
ATOM     57  O   UNL     1       7.524  -8.781  -4.051  1.00  0.00    -0.237 OA
ATOM     58  O   UNL     1       9.294  -7.920  -2.569  1.00  0.00    -0.744 OA
ENDBRANCH  51  55
ENDBRANCH  24  48
BRANCH  36  59
ATOM     59  C   UNL     1       8.085 -10.914   7.414  1.00  0.00     0.023 A 
ATOM     60  C   UNL     1       7.291 -11.589   8.357  1.00  0.00     0.031 A 
ATOM     61  C   UNL     1       9.439 -11.281   7.305  1.00  0.00     0.131 A 
ATOM     62  C   UNL     1       7.854 -12.582   9.165  1.00  0.00     0.055 A 
ATOM     63  C   UNL     1       9.988 -12.301   8.083  1.00  0.00     0.041 A 
ATOM     64  F   UNL     1      10.243 -10.663   6.425  1.00  0.00    -0.206 F 
ATOM     65  C   UNL     1       9.196 -12.951   9.026  1.00  0.00     0.022 A 
BRANCH  62  66
ATOM     66  S   UNL     1       6.875 -13.392  10.458  1.00  0.00     0.124 S 
ATOM     67  O   UNL     1       6.923 -14.791  10.041  1.00  0.00    -0.237 OA
ATOM     68  O   UNL     1       7.634 -13.070  11.664  1.00  0.00    -0.237 OA
ATOM     69  O   UNL     1       5.564 -12.759  10.350  1.00  0.00    -0.744 OA
ENDBRANCH  62  66
ENDBRANCH  36  59
ENDBRANCH  10  11
ENDBRANCH   3   5
ENDBRANCH   2   3
ENDBRANCH   1   2
BRANCH   1  70
ATOM     70  C   UNL     1       3.957   1.667   1.279  1.00  0.00     0.275 C 
BRANCH  70  71
ATOM     71  O   UNL     1       3.521   0.538   2.045  1.00  0.00    -0.458 OA
BRANCH  71  72
ATOM     72  C   UNL     1       2.189   0.503   2.322  1.00  0.00     0.342 C 
ATOM     73  O   UNL     1       1.341   1.278   1.923  1.00  0.00    -0.246 OA
BRANCH  72  74
ATOM     74  C   UNL     1       1.867  -0.717   3.090  1.00  0.00     0.101 A 
ATOM     75  C   UNL     1       0.887  -1.575   2.574  1.00  0.00     0.022 A 
ATOM     76  C   UNL     1       2.491  -1.032   4.295  1.00  0.00     0.132 A 
ATOM     77  C   UNL     1       0.595  -2.785   3.219  1.00  0.00     0.028 A 
ATOM     78  C   UNL     1       2.165  -2.217   4.963  1.00  0.00     0.073 A 
ATOM     79  C   UNL     1       1.222  -3.110   4.428  1.00  0.00     0.054 A 
BRANCH  76  80
ATOM     80  O   UNL     1       3.414  -0.185   4.842  1.00  0.00    -0.507 OA
ATOM     81  H   UNL     1       3.638   0.611   4.401  1.00  0.00     0.293 HD
ENDBRANCH  76  80
BRANCH  79  82
ATOM     82  N   UNL     1       0.924  -4.325   5.117  1.00  0.00    -0.261 N 
ATOM     83  C   UNL     1       0.932  -5.547   4.444  1.00  0.00     0.270 C 
ATOM     84  C   UNL     1       0.577  -4.368   6.462  1.00  0.00     0.152 C 
ATOM     85  O   UNL     1       1.067  -5.731   3.240  1.00  0.00    -0.268 OA
ATOM     86  C   UNL     1       0.696  -6.663   5.409  1.00  0.00     0.081 C 
ATOM     87  S   UNL     1       0.446  -6.036   6.990  1.00  0.00    -0.054 SA
ATOM     88  S   UNL     1       0.145  -3.109   7.483  1.00  0.00    -0.051 S 
ATOM     89  C   UNL     1       0.669  -7.957   5.055  1.00  0.00     0.027 C 
BRANCH  89  90
ATOM     90  C   UNL     1       0.389  -9.053   5.955  1.00  0.00    -0.016 C 
ATOM     91  C   UNL     1       1.260  -9.890   6.514  1.00  0.00     0.005 A 
ATOM     92  C   UNL     1      -1.001  -9.337   6.449  1.00  0.00     0.179 C 
ATOM     93  C   UNL     1       2.669 -10.103   6.431  1.00  0.00     0.011 A 
ATOM     94  C   UNL     1       0.409 -10.688   7.420  1.00  0.00     0.065 A 
ATOM     95  N   UNL     1      -0.870 -10.450   7.421  1.00  0.00    -0.280 NA
ATOM     96  C   UNL     1       3.222 -11.048   7.209  1.00  0.00     0.001 A 
ATOM     97  C   UNL     1       1.100 -11.685   8.267  1.00  0.00     0.028 A 
ATOM     98  C   UNL     1       2.431 -11.825   8.149  1.00  0.00     0.002 A 
ENDBRANCH  89  90
ENDBRANCH  79  82
ENDBRANCH  72  74
ENDBRANCH  71  72
ENDBRANCH  70  71
ENDBRANCH   1  70
TORSDOF 17
