REMARK SMILES CC[C@@H]1CC[C@](C[C@@H]2CCCc3ccccc32)(C(=O)OCCOC(=O)c2ccc(-c3c4nc(c(-c5cc(S(=O)(=O)[O-])ccc5F)c5ccc([nH]5)c(-c5cc(S(=O)(=O)[O-])ccc5F)c5nc(c(-c6cc(S(=O)(=O)[O-])ccc6F)c6ccc3[nH]6)C=C5)C=C4)cc2)C1
REMARK SMILES IDX 22 1 21 2 20 3 18 4 19 5 6 6 3 7 4 8 89 9 5 10 2 11 1 12
REMARK SMILES IDX 7 13 8 14 9 15 17 16 10 17 12 18 16 19 11 20 13 21 15 22
REMARK SMILES IDX 14 23 23 24 24 25 25 26 26 27 27 28 88 29 28 30 87 31 29 32
REMARK SMILES IDX 30 33 31 34 81 35 32 36 86 37 80 38 82 39 33 40 85 41 79 42
REMARK SMILES IDX 78 43 34 45 66 46 46 47 65 48 47 49 50 50 64 51 83 52 48 53
REMARK SMILES IDX 49 54 63 56 84 57 51 58 35 59 36 60 44 61 37 62 43 63 45 64
REMARK SMILES IDX 42 65 38 66 39 67 40 68 41 69 67 70 68 71 76 72 69 73 75 74
REMARK SMILES IDX 77 75 74 76 70 77 71 78 72 79 73 80 52 81 53 82 61 83 54 84
REMARK SMILES IDX 60 85 62 86 59 87 55 88 56 89 57 90 58 91
REMARK H PARENT 82 44 50 55
REMARK Flexibility Score: inf
ROOT
ATOM      1  C   UNL     1       0.968  -7.724  -2.982  1.00  0.00     0.275 C 
ENDROOT
BRANCH   1   2
ATOM      2  C   UNL     1      -0.060  -7.470  -1.881  1.00  0.00     0.274 C 
BRANCH   2   3
ATOM      3  O   UNL     1       0.066  -6.141  -1.328  1.00  0.00    -0.462 OA
BRANCH   3   4
ATOM      4  C   UNL     1       0.802  -6.053  -0.189  1.00  0.00     0.312 C 
ATOM      5  O   UNL     1       1.361  -7.022   0.318  1.00  0.00    -0.252 OA
BRANCH   4   6
ATOM      6  C   UNL     1       0.828  -4.645   0.468  1.00  0.00     0.069 C 
ATOM      7  C   UNL     1       0.935  -2.389  -0.495  1.00  0.00    -0.010 C 
ATOM      8  C   UNL     1       2.271  -3.065  -0.747  1.00  0.00     0.005 C 
ATOM      9  C   UNL     1      -0.008  -3.582  -0.287  1.00  0.00     0.022 C 
ATOM     10  C   UNL     1       2.280  -4.123   0.351  1.00  0.00     0.019 C 
BRANCH   7  11
ATOM     11  C   UNL     1       0.488  -1.415  -1.581  1.00  0.00     0.000 C 
ATOM     12  C   UNL     1       1.001  -0.006  -1.304  1.00  0.00     0.004 C 
ENDBRANCH   7  11
BRANCH   6  13
ATOM     13  C   UNL     1       0.320  -4.942   1.922  1.00  0.00     0.027 C 
BRANCH  13  14
ATOM     14  C   UNL     1       0.360  -3.994   3.152  1.00  0.00     0.020 C 
ATOM     15  C   UNL     1      -0.764  -2.958   3.262  1.00  0.00     0.009 C 
ATOM     16  C   UNL     1       1.713  -3.451   3.535  1.00  0.00    -0.042 A 
ATOM     17  C   UNL     1      -0.432  -1.578   2.728  1.00  0.00     0.005 C 
ATOM     18  C   UNL     1       1.992  -2.078   3.474  1.00  0.00    -0.045 A 
ATOM     19  C   UNL     1       2.721  -4.340   3.961  1.00  0.00     0.004 A 
ATOM     20  C   UNL     1       0.943  -1.051   3.137  1.00  0.00     0.036 C 
ATOM     21  C   UNL     1       3.287  -1.629   3.789  1.00  0.00     0.004 A 
ATOM     22  C   UNL     1       3.994  -3.878   4.289  1.00  0.00     0.000 A 
ATOM     23  C   UNL     1       4.281  -2.523   4.190  1.00  0.00     0.000 A 
ENDBRANCH  13  14
ENDBRANCH   6  13
ENDBRANCH   4   6
ENDBRANCH   3   4
ENDBRANCH   2   3
ENDBRANCH   1   2
BRANCH   1  24
ATOM     24  O   UNL     1       2.297  -7.606  -2.450  1.00  0.00    -0.458 OA
BRANCH  24  25
ATOM     25  C   UNL     1       3.158  -6.838  -3.162  1.00  0.00     0.338 C 
ATOM     26  O   UNL     1       2.946  -6.334  -4.251  1.00  0.00    -0.246 OA
BRANCH  25  27
ATOM     27  C   UNL     1       4.430  -6.663  -2.421  1.00  0.00     0.060 A 
ATOM     28  C   UNL     1       4.451  -6.617  -1.030  1.00  0.00     0.016 A 
ATOM     29  C   UNL     1       5.611  -6.425  -3.125  1.00  0.00     0.016 A 
ATOM     30  C   UNL     1       5.595  -6.196  -0.353  1.00  0.00     0.010 A 
ATOM     31  C   UNL     1       6.798  -6.153  -2.432  1.00  0.00     0.010 A 
ATOM     32  C   UNL     1       6.802  -5.998  -1.034  1.00  0.00    -0.014 A 
BRANCH  32  33
ATOM     33  C   UNL     1       8.054  -5.634  -0.300  1.00  0.00     0.031 A 
ATOM     34  C   UNL     1       8.886  -4.457  -0.749  1.00  0.00     0.074 A 
ATOM     35  C   UNL     1       8.467  -6.359   0.763  1.00  0.00     0.049 A 
ATOM     36  N   UNL     1      10.124  -4.152  -0.451  1.00  0.00    -0.248 NA
ATOM     37  C   UNL     1       8.247  -3.512  -1.677  1.00  0.00     0.031 C 
ATOM     38  C   UNL     1       7.749  -7.491   1.355  1.00  0.00     0.029 A 
ATOM     39  N   UNL     1       9.598  -6.253   1.539  1.00  0.00    -0.354 N 
ATOM     40  C   UNL     1      10.438  -3.030  -1.213  1.00  0.00     0.074 A 
ATOM     41  C   UNL     1       9.254  -2.706  -1.982  1.00  0.00     0.031 C 
ATOM     42  C   UNL     1       8.423  -7.937   2.422  1.00  0.00     0.029 A 
ATOM     43  C   UNL     1       9.687  -7.220   2.515  1.00  0.00     0.049 A 
ATOM     44  H   UNL     1      10.278  -5.553   1.409  1.00  0.00     0.167 HD
ATOM     45  C   UNL     1      11.610  -2.347  -1.271  1.00  0.00     0.034 A 
ATOM     46  C   UNL     1      10.694  -7.555   3.345  1.00  0.00     0.034 A 
ATOM     47  C   UNL     1      12.757  -2.648  -0.446  1.00  0.00     0.049 A 
ATOM     48  C   UNL     1      11.996  -6.812   3.239  1.00  0.00     0.074 A 
ATOM     49  C   UNL     1      13.983  -2.006  -0.402  1.00  0.00     0.029 A 
ATOM     50  N   UNL     1      12.815  -3.670   0.494  1.00  0.00    -0.354 N 
ATOM     51  N   UNL     1      12.318  -5.825   2.436  1.00  0.00    -0.248 NA
ATOM     52  C   UNL     1      13.078  -7.251   4.127  1.00  0.00     0.031 C 
ATOM     53  C   UNL     1      14.798  -2.671   0.523  1.00  0.00     0.029 A 
ATOM     54  C   UNL     1      14.061  -3.690   1.104  1.00  0.00     0.049 A 
ATOM     55  H   UNL     1      12.078  -4.291   0.697  1.00  0.00     0.167 HD
ATOM     56  C   UNL     1      13.646  -5.530   2.718  1.00  0.00     0.074 A 
ATOM     57  C   UNL     1      14.053  -6.421   3.786  1.00  0.00     0.031 C 
ATOM     58  C   UNL     1      14.460  -4.610   2.141  1.00  0.00     0.034 A 
BRANCH  45  59
ATOM     59  C   UNL     1      11.734  -1.255  -2.309  1.00  0.00     0.023 A 
ATOM     60  C   UNL     1      10.977  -0.072  -2.257  1.00  0.00     0.031 A 
ATOM     61  C   UNL     1      12.626  -1.417  -3.386  1.00  0.00     0.131 A 
ATOM     62  C   UNL     1      11.080   0.871  -3.293  1.00  0.00     0.055 A 
ATOM     63  C   UNL     1      12.776  -0.444  -4.376  1.00  0.00     0.041 A 
ATOM     64  F   UNL     1      13.363  -2.534  -3.501  1.00  0.00    -0.206 F 
ATOM     65  C   UNL     1      11.991   0.704  -4.340  1.00  0.00     0.022 A 
BRANCH  62  66
ATOM     66  S   UNL     1       9.918   2.264  -3.323  1.00  0.00     0.124 S 
ATOM     67  O   UNL     1       8.630   1.574  -3.369  1.00  0.00    -0.237 OA
ATOM     68  O   UNL     1      10.227   2.959  -2.080  1.00  0.00    -0.237 OA
ATOM     69  O   UNL     1      10.274   2.983  -4.545  1.00  0.00    -0.744 OA
ENDBRANCH  62  66
ENDBRANCH  45  59
BRANCH  46  70
ATOM     70  C   UNL     1      10.546  -8.716   4.268  1.00  0.00     0.023 A 
ATOM     71  C   UNL     1      10.546  -8.543   5.660  1.00  0.00     0.031 A 
ATOM     72  C   UNL     1      10.407 -10.023   3.764  1.00  0.00     0.131 A 
ATOM     73  C   UNL     1      10.425  -9.661   6.501  1.00  0.00     0.055 A 
ATOM     74  C   UNL     1      10.235 -11.124   4.603  1.00  0.00     0.041 A 
ATOM     75  F   UNL     1      10.404 -10.244   2.439  1.00  0.00    -0.206 F 
ATOM     76  C   UNL     1      10.251 -10.947   5.982  1.00  0.00     0.022 A 
BRANCH  73  77
ATOM     77  S   UNL     1      10.554  -9.419   8.294  1.00  0.00     0.124 S 
ATOM     78  O   UNL     1      11.884  -8.833   8.421  1.00  0.00    -0.237 OA
ATOM     79  O   UNL     1       9.431  -8.527   8.562  1.00  0.00    -0.237 OA
ATOM     80  O   UNL     1      10.414 -10.771   8.831  1.00  0.00    -0.744 OA
ENDBRANCH  73  77
ENDBRANCH  46  70
BRANCH  58  81
ATOM     81  C   UNL     1      15.863  -4.528   2.681  1.00  0.00     0.023 A 
ATOM     82  C   UNL     1      16.795  -5.556   2.454  1.00  0.00     0.031 A 
ATOM     83  C   UNL     1      16.258  -3.434   3.470  1.00  0.00     0.131 A 
ATOM     84  C   UNL     1      18.059  -5.497   3.058  1.00  0.00     0.055 A 
ATOM     85  C   UNL     1      17.535  -3.356   4.026  1.00  0.00     0.041 A 
ATOM     86  F   UNL     1      15.403  -2.429   3.720  1.00  0.00    -0.206 F 
ATOM     87  C   UNL     1      18.439  -4.397   3.832  1.00  0.00     0.022 A 
BRANCH  84  88
ATOM     88  S   UNL     1      19.172  -6.919   2.892  1.00  0.00     0.124 S 
ATOM     89  O   UNL     1      18.390  -7.989   3.504  1.00  0.00    -0.237 OA
ATOM     90  O   UNL     1      19.353  -7.009   1.446  1.00  0.00    -0.237 OA
ATOM     91  O   UNL     1      20.360  -6.514   3.640  1.00  0.00    -0.744 OA
ENDBRANCH  84  88
ENDBRANCH  58  81
ENDBRANCH  32  33
ENDBRANCH  25  27
ENDBRANCH  24  25
ENDBRANCH   1  24
TORSDOF 17
