REMARK SMILES CCC[C@@]1(C(=O)OCCOC(=O)c2ccc(-c3c4nc(c(-c5cc(S(=O)(=O)[O-])ccc5F)c5ccc([nH]5)c(-c5cc(S(=O)(=O)[O-])ccc5F)c5nc(c(-c6cc(S(=O)(=O)[O-])ccc6F)c6ccc3[nH]6)C=C5)C=C4)cc2)CCCN(C(=O)C[C@H]2CCCCO2)C1
REMARK SMILES IDX 8 1 7 2 5 3 6 4 4 5 76 6 89 7 77 8 79 9 78 10 3 11 2 12 1 13
REMARK SMILES IDX 80 14 81 15 82 16 83 17 84 18 88 19 85 20 87 21 86 22 9 23
REMARK SMILES IDX 10 24 11 25 12 26 13 27 14 28 75 29 15 30 74 31 16 32 17 33
REMARK SMILES IDX 18 34 68 35 19 36 73 37 67 38 69 39 20 40 72 41 66 42 65 43
REMARK SMILES IDX 21 45 53 46 33 47 52 48 34 49 37 50 51 51 70 52 35 53 36 54
REMARK SMILES IDX 50 56 71 57 38 58 22 59 23 60 31 61 24 62 30 63 32 64 29 65
REMARK SMILES IDX 25 66 26 67 27 68 28 69 54 70 55 71 63 72 56 73 62 74 64 75
REMARK SMILES IDX 61 76 57 77 58 78 59 79 60 80 39 81 40 82 48 83 41 84 47 85
REMARK SMILES IDX 49 86 46 87 42 88 43 89 44 90 45 91
REMARK H PARENT 69 44 37 55
REMARK Flexibility Score: inf
ROOT
ATOM      1  C   UNL     1       4.826  -2.744   5.455  1.00  0.00     0.274 C 
ENDROOT
BRANCH   1   2
ATOM      2  O   UNL     1       6.202  -2.313   5.380  1.00  0.00    -0.462 OA
BRANCH   2   3
ATOM      3  C   UNL     1       6.433  -1.061   4.920  1.00  0.00     0.314 C 
ATOM      4  O   UNL     1       5.538  -0.336   4.503  1.00  0.00    -0.252 OA
BRANCH   3   5
ATOM      5  C   UNL     1       7.929  -0.679   4.887  1.00  0.00     0.086 C 
ATOM      6  C   UNL     1       8.127   0.878   5.018  1.00  0.00     0.022 C 
ATOM      7  C   UNL     1       8.425  -1.091   3.478  1.00  0.00     0.138 C 
ATOM      8  C   UNL     1       7.618   1.725   3.853  1.00  0.00     0.023 C 
ATOM      9  N   UNL     1       7.819  -0.248   2.428  1.00  0.00    -0.341 N 
ATOM     10  C   UNL     1       8.132   1.175   2.532  1.00  0.00     0.119 C 
BRANCH   5  11
ATOM     11  C   UNL     1       8.824  -1.256   6.045  1.00  0.00     0.020 C 
BRANCH  11  12
ATOM     12  C   UNL     1       8.539  -2.580   6.757  1.00  0.00    -0.002 C 
ATOM     13  C   UNL     1       8.700  -3.825   5.906  1.00  0.00     0.004 C 
ENDBRANCH  11  12
ENDBRANCH   5  11
BRANCH   9  14
ATOM     14  C   UNL     1       6.882  -0.806   1.560  1.00  0.00     0.225 C 
ATOM     15  O   UNL     1       6.665  -2.022   1.553  1.00  0.00    -0.275 OA
BRANCH  14  16
ATOM     16  C   UNL     1       6.119   0.107   0.604  1.00  0.00     0.132 C 
BRANCH  16  17
ATOM     17  C   UNL     1       4.965   0.829   1.312  1.00  0.00     0.127 C 
ATOM     18  C   UNL     1       4.881   2.310   0.921  1.00  0.00     0.033 C 
ATOM     19  O   UNL     1       3.726   0.191   0.955  1.00  0.00    -0.378 OA
ATOM     20  C   UNL     1       3.712   2.979   1.640  1.00  0.00     0.005 C 
ATOM     21  C   UNL     1       2.621   0.719   1.693  1.00  0.00     0.160 C 
ATOM     22  C   UNL     1       2.423   2.202   1.403  1.00  0.00     0.029 C 
ENDBRANCH  16  17
ENDBRANCH  14  16
ENDBRANCH   9  14
ENDBRANCH   3   5
ENDBRANCH   2   3
ENDBRANCH   1   2
BRANCH   1  23
ATOM     23  C   UNL     1       4.255  -2.465   6.846  1.00  0.00     0.275 C 
BRANCH  23  24
ATOM     24  O   UNL     1       4.154  -1.044   7.031  1.00  0.00    -0.458 OA
BRANCH  24  25
ATOM     25  C   UNL     1       4.515  -0.545   8.238  1.00  0.00     0.338 C 
ATOM     26  O   UNL     1       4.807  -1.173   9.238  1.00  0.00    -0.246 OA
BRANCH  25  27
ATOM     27  C   UNL     1       4.508   0.931   8.144  1.00  0.00     0.060 A 
ATOM     28  C   UNL     1       5.148   1.547   7.071  1.00  0.00     0.016 A 
ATOM     29  C   UNL     1       3.903   1.716   9.120  1.00  0.00     0.016 A 
ATOM     30  C   UNL     1       5.201   2.928   6.952  1.00  0.00     0.010 A 
ATOM     31  C   UNL     1       3.884   3.111   8.964  1.00  0.00     0.010 A 
ATOM     32  C   UNL     1       4.524   3.728   7.870  1.00  0.00    -0.014 A 
BRANCH  32  33
ATOM     33  C   UNL     1       4.487   5.201   7.680  1.00  0.00     0.031 A 
ATOM     34  C   UNL     1       5.087   6.098   8.721  1.00  0.00     0.074 A 
ATOM     35  C   UNL     1       3.937   5.730   6.567  1.00  0.00     0.049 A 
ATOM     36  N   UNL     1       4.941   7.386   8.885  1.00  0.00    -0.248 NA
ATOM     37  C   UNL     1       5.969   5.457   9.709  1.00  0.00     0.031 C 
ATOM     38  C   UNL     1       3.416   4.965   5.429  1.00  0.00     0.029 A 
ATOM     39  N   UNL     1       3.717   7.038   6.208  1.00  0.00    -0.354 N 
ATOM     40  C   UNL     1       5.675   7.707  10.021  1.00  0.00     0.074 A 
ATOM     41  C   UNL     1       6.269   6.477  10.502  1.00  0.00     0.031 C 
ATOM     42  C   UNL     1       2.953   5.814   4.500  1.00  0.00     0.029 A 
ATOM     43  C   UNL     1       3.033   7.173   5.020  1.00  0.00     0.049 A 
ATOM     44  H   UNL     1       4.020   7.804   6.747  1.00  0.00     0.167 HD
ATOM     45  C   UNL     1       5.823   8.919  10.608  1.00  0.00     0.034 A 
ATOM     46  C   UNL     1       2.461   8.255   4.453  1.00  0.00     0.034 A 
ATOM     47  C   UNL     1       5.230  10.131  10.098  1.00  0.00     0.049 A 
ATOM     48  C   UNL     1       2.531   9.568   5.189  1.00  0.00     0.074 A 
ATOM     49  C   UNL     1       5.282  11.409  10.624  1.00  0.00     0.029 A 
ATOM     50  N   UNL     1       4.476  10.213   8.933  1.00  0.00    -0.354 N 
ATOM     51  N   UNL     1       3.135   9.847   6.322  1.00  0.00    -0.248 NA
ATOM     52  C   UNL     1       1.818  10.703   4.589  1.00  0.00     0.031 C 
ATOM     53  C   UNL     1       4.517  12.252   9.809  1.00  0.00     0.029 A 
ATOM     54  C   UNL     1       4.036  11.512   8.740  1.00  0.00     0.049 A 
ATOM     55  H   UNL     1       4.283   9.457   8.333  1.00  0.00     0.167 HD
ATOM     56  C   UNL     1       2.870  11.190   6.570  1.00  0.00     0.074 A 
ATOM     57  C   UNL     1       2.083  11.672   5.453  1.00  0.00     0.031 C 
ATOM     58  C   UNL     1       3.233  11.957   7.628  1.00  0.00     0.034 A 
BRANCH  45  59
ATOM     59  C   UNL     1       6.591   8.975  11.903  1.00  0.00     0.023 A 
ATOM     60  C   UNL     1       7.976   8.745  11.960  1.00  0.00     0.031 A 
ATOM     61  C   UNL     1       5.915   9.247  13.107  1.00  0.00     0.131 A 
ATOM     62  C   UNL     1       8.632   8.745  13.200  1.00  0.00     0.055 A 
ATOM     63  C   UNL     1       6.585   9.308  14.329  1.00  0.00     0.041 A 
ATOM     64  F   UNL     1       4.588   9.449  13.113  1.00  0.00    -0.206 F 
ATOM     65  C   UNL     1       7.950   9.047  14.382  1.00  0.00     0.022 A 
BRANCH  62  66
ATOM     66  S   UNL     1      10.374   8.243  13.264  1.00  0.00     0.124 S 
ATOM     67  O   UNL     1      10.303   6.868  12.776  1.00  0.00    -0.237 OA
ATOM     68  O   UNL     1      11.013   9.205  12.372  1.00  0.00    -0.237 OA
ATOM     69  O   UNL     1      10.719   8.379  14.677  1.00  0.00    -0.744 OA
ENDBRANCH  62  66
ENDBRANCH  45  59
BRANCH  46  70
ATOM     70  C   UNL     1       1.665   8.127   3.196  1.00  0.00     0.023 A 
ATOM     71  C   UNL     1       2.011   8.840   2.038  1.00  0.00     0.031 A 
ATOM     72  C   UNL     1       0.502   7.333   3.154  1.00  0.00     0.131 A 
ATOM     73  C   UNL     1       1.184   8.778   0.904  1.00  0.00     0.055 A 
ATOM     74  C   UNL     1      -0.282   7.225   2.004  1.00  0.00     0.041 A 
ATOM     75  F   UNL     1       0.112   6.639   4.235  1.00  0.00    -0.206 F 
ATOM     76  C   UNL     1       0.050   7.963   0.874  1.00  0.00     0.022 A 
BRANCH  73  77
ATOM     77  S   UNL     1       1.551   9.867  -0.500  1.00  0.00     0.124 S 
ATOM     78  O   UNL     1       1.585  11.177   0.140  1.00  0.00    -0.237 OA
ATOM     79  O   UNL     1       2.834   9.344  -0.958  1.00  0.00    -0.237 OA
ATOM     80  O   UNL     1       0.428   9.643  -1.407  1.00  0.00    -0.744 OA
ENDBRANCH  73  77
ENDBRANCH  46  70
BRANCH  58  81
ATOM     81  C   UNL     1       2.786  13.395   7.600  1.00  0.00     0.023 A 
ATOM     82  C   UNL     1       1.435  13.741   7.773  1.00  0.00     0.031 A 
ATOM     83  C   UNL     1       3.716  14.423   7.375  1.00  0.00     0.131 A 
ATOM     84  C   UNL     1       1.043  15.083   7.669  1.00  0.00     0.055 A 
ATOM     85  C   UNL     1       3.327  15.762   7.324  1.00  0.00     0.041 A 
ATOM     86  F   UNL     1       5.018  14.142   7.202  1.00  0.00    -0.206 F 
ATOM     87  C   UNL     1       1.982  16.097   7.460  1.00  0.00     0.022 A 
BRANCH  84  88
ATOM     88  S   UNL     1      -0.725  15.480   7.742  1.00  0.00     0.124 S 
ATOM     89  O   UNL     1      -1.242  14.778   6.572  1.00  0.00    -0.237 OA
ATOM     90  O   UNL     1      -1.117  14.935   9.038  1.00  0.00    -0.237 OA
ATOM     91  O   UNL     1      -0.752  16.939   7.652  1.00  0.00    -0.744 OA
ENDBRANCH  84  88
ENDBRANCH  58  81
ENDBRANCH  32  33
ENDBRANCH  25  27
ENDBRANCH  24  25
ENDBRANCH  23  24
ENDBRANCH   1  23
TORSDOF 19
