REMARK SMILES CCC[C@H](CNC(=O)N1C[C@H]2CCC[N@H+]2C[C@@H]1C)C(=O)OCCOC(=O)c1ccc(-c2c3nc(c(-c4cc(S(=O)(=O)[O-])ccc4F)c4ccc([nH]4)c(-c4cc(S(=O)(=O)[O-])ccc4F)c4nc(c(-c5cc(S(=O)(=O)[O-])ccc5F)c5ccc2[nH]5)C=C4)C=C3)cc1
REMARK SMILES IDX 22 1 21 2 19 3 20 4 4 5 3 6 2 7 1 8 5 9 6 10 7 11 8 13 9 14
REMARK SMILES IDX 10 15 17 16 11 17 16 18 18 19 12 20 15 21 13 22 14 23 23 25
REMARK SMILES IDX 24 26 25 27 26 28 27 29 28 30 89 31 29 32 88 33 30 34 31 35
REMARK SMILES IDX 32 36 82 37 33 38 87 39 81 40 83 41 34 42 86 43 80 44 79 45
REMARK SMILES IDX 35 47 67 48 47 49 66 50 48 51 51 52 65 53 84 54 49 55 50 56
REMARK SMILES IDX 64 58 85 59 52 60 36 61 37 62 45 63 38 64 44 65 46 66 43 67
REMARK SMILES IDX 39 68 40 69 41 70 42 71 68 72 69 73 77 74 70 75 76 76 78 77
REMARK SMILES IDX 75 78 71 79 72 80 73 81 74 82 53 83 54 84 62 85 55 86 61 87
REMARK SMILES IDX 63 88 60 89 56 90 57 91 58 92 59 93
REMARK H PARENT 6 12 15 24 83 46 51 57
REMARK Flexibility Score: inf
ROOT
ATOM      1  C   UNL     1       1.057  -5.068   4.028  1.00  0.00     0.274 C 
ENDROOT
BRANCH   1   2
ATOM      2  O   UNL     1       0.686  -4.232   2.916  1.00  0.00    -0.462 OA
BRANCH   2   3
ATOM      3  C   UNL     1       0.081  -3.054   3.220  1.00  0.00     0.310 C 
ATOM      4  O   UNL     1      -0.266  -2.720   4.346  1.00  0.00    -0.252 OA
BRANCH   3   5
ATOM      5  C   UNL     1      -0.150  -2.179   1.995  1.00  0.00     0.118 C 
BRANCH   5   6
ATOM      6  C   UNL     1      -1.641  -2.131   1.628  1.00  0.00     0.017 C 
BRANCH   6   7
ATOM      7  C   UNL     1      -2.195  -3.209   0.693  1.00  0.00    -0.002 C 
ATOM      8  C   UNL     1      -1.978  -4.639   1.156  1.00  0.00     0.004 C 
ENDBRANCH   6   7
ENDBRANCH   5   6
BRANCH   5   9
ATOM      9  C   UNL     1       0.825  -2.499   0.857  1.00  0.00     0.133 C 
BRANCH   9  10
ATOM     10  N   UNL     1       1.073  -1.367  -0.015  1.00  0.00    -0.337 N 
ATOM     11  C   UNL     1       2.286  -0.859  -0.363  1.00  0.00     0.318 C 
ATOM     12  H   UNL     1       0.282  -0.920  -0.393  1.00  0.00     0.165 HD
ATOM     13  O   UNL     1       2.344   0.358  -0.532  1.00  0.00    -0.249 OA
BRANCH  11  14
ATOM     14  N   UNL     1       3.369  -1.693  -0.468  1.00  0.00    -0.311 N 
ATOM     15  C   UNL     1       4.706  -1.116  -0.268  1.00  0.00     0.186 C 
ATOM     16  C   UNL     1       3.336  -3.104  -0.927  1.00  0.00     0.139 C 
ATOM     17  C   UNL     1       5.749  -1.573  -1.310  1.00  0.00     0.204 C 
ATOM     18  C   UNL     1       4.741  -3.767  -0.901  1.00  0.00     0.287 C 
ATOM     19  C   UNL     1       2.711  -3.206  -2.324  1.00  0.00     0.037 C 
ATOM     20  C   UNL     1       7.176  -1.271  -0.852  1.00  0.00     0.073 C 
ATOM     21  N   UNL     1       5.742  -3.019  -1.666  1.00  0.00    -0.329 N 
ATOM     22  C   UNL     1       8.002  -2.330  -1.552  1.00  0.00     0.068 C 
ATOM     23  C   UNL     1       7.099  -3.546  -1.480  1.00  0.00     0.262 C 
ATOM     24  H   UNL     1       5.472  -3.130  -2.643  1.00  0.00     0.348 HD
ENDBRANCH  11  14
ENDBRANCH   9  10
ENDBRANCH   5   9
ENDBRANCH   3   5
ENDBRANCH   2   3
ENDBRANCH   1   2
BRANCH   1  25
ATOM     25  C   UNL     1       2.573  -5.055   4.212  1.00  0.00     0.275 C 
BRANCH  25  26
ATOM     26  O   UNL     1       3.027  -3.724   4.519  1.00  0.00    -0.458 OA
BRANCH  26  27
ATOM     27  C   UNL     1       3.722  -3.109   3.533  1.00  0.00     0.338 C 
ATOM     28  O   UNL     1       4.040  -3.576   2.454  1.00  0.00    -0.246 OA
BRANCH  27  29
ATOM     29  C   UNL     1       4.005  -1.724   3.933  1.00  0.00     0.060 A 
ATOM     30  C   UNL     1       3.152  -0.705   3.504  1.00  0.00     0.016 A 
ATOM     31  C   UNL     1       5.167  -1.426   4.645  1.00  0.00     0.016 A 
ATOM     32  C   UNL     1       3.462   0.627   3.776  1.00  0.00     0.010 A 
ATOM     33  C   UNL     1       5.470  -0.092   4.929  1.00  0.00     0.010 A 
ATOM     34  C   UNL     1       4.629   0.944   4.482  1.00  0.00    -0.014 A 
BRANCH  34  35
ATOM     35  C   UNL     1       5.028   2.361   4.671  1.00  0.00     0.031 A 
ATOM     36  C   UNL     1       6.159   2.918   3.853  1.00  0.00     0.074 A 
ATOM     37  C   UNL     1       4.389   3.137   5.565  1.00  0.00     0.049 A 
ATOM     38  N   UNL     1       6.770   4.069   3.953  1.00  0.00    -0.248 NA
ATOM     39  C   UNL     1       6.679   2.047   2.788  1.00  0.00     0.031 C 
ATOM     40  C   UNL     1       3.243   2.722   6.375  1.00  0.00     0.029 A 
ATOM     41  N   UNL     1       4.620   4.433   5.951  1.00  0.00    -0.354 N 
ATOM     42  C   UNL     1       7.764   4.056   2.979  1.00  0.00     0.074 A 
ATOM     43  C   UNL     1       7.687   2.768   2.321  1.00  0.00     0.031 C 
ATOM     44  C   UNL     1       2.877   3.743   7.168  1.00  0.00     0.029 A 
ATOM     45  C   UNL     1       3.791   4.863   6.961  1.00  0.00     0.049 A 
ATOM     46  H   UNL     1       5.313   5.002   5.543  1.00  0.00     0.167 HD
ATOM     47  C   UNL     1       8.654   5.031   2.667  1.00  0.00     0.034 A 
ATOM     48  C   UNL     1       3.795   6.014   7.662  1.00  0.00     0.034 A 
ATOM     49  C   UNL     1       8.706   6.311   3.332  1.00  0.00     0.049 A 
ATOM     50  C   UNL     1       4.833   7.061   7.340  1.00  0.00     0.074 A 
ATOM     51  C   UNL     1       9.563   7.373   3.099  1.00  0.00     0.029 A 
ATOM     52  N   UNL     1       7.863   6.704   4.365  1.00  0.00    -0.354 N 
ATOM     53  N   UNL     1       5.792   7.025   6.442  1.00  0.00    -0.248 NA
ATOM     54  C   UNL     1       4.789   8.301   8.124  1.00  0.00     0.031 C 
ATOM     55  C   UNL     1       9.277   8.382   4.027  1.00  0.00     0.029 A 
ATOM     56  C   UNL     1       8.196   7.980   4.794  1.00  0.00     0.049 A 
ATOM     57  H   UNL     1       7.135   6.156   4.737  1.00  0.00     0.167 HD
ATOM     58  C   UNL     1       6.447   8.249   6.538  1.00  0.00     0.074 A 
ATOM     59  C   UNL     1       5.767   9.004   7.572  1.00  0.00     0.031 C 
ATOM     60  C   UNL     1       7.512   8.712   5.834  1.00  0.00     0.034 A 
BRANCH  47  61
ATOM     61  C   UNL     1       9.677   4.715   1.602  1.00  0.00     0.023 A 
ATOM     62  C   UNL     1       9.310   4.465   0.268  1.00  0.00     0.031 A 
ATOM     63  C   UNL     1      11.039   4.616   1.940  1.00  0.00     0.131 A 
ATOM     64  C   UNL     1      10.281   4.053  -0.658  1.00  0.00     0.055 A 
ATOM     65  C   UNL     1      12.011   4.286   0.994  1.00  0.00     0.041 A 
ATOM     66  F   UNL     1      11.447   4.819   3.202  1.00  0.00    -0.206 F 
ATOM     67  C   UNL     1      11.632   3.986  -0.311  1.00  0.00     0.022 A 
BRANCH  64  68
ATOM     68  S   UNL     1       9.734   3.457  -2.282  1.00  0.00     0.124 S 
ATOM     69  O   UNL     1       8.873   2.337  -1.909  1.00  0.00    -0.237 OA
ATOM     70  O   UNL     1       9.063   4.626  -2.838  1.00  0.00    -0.237 OA
ATOM     71  O   UNL     1      10.980   3.079  -2.946  1.00  0.00    -0.744 OA
ENDBRANCH  64  68
ENDBRANCH  47  61
BRANCH  48  72
ATOM     72  C   UNL     1       2.824   6.224   8.774  1.00  0.00     0.023 A 
ATOM     73  C   UNL     1       1.851   7.234   8.710  1.00  0.00     0.031 A 
ATOM     74  C   UNL     1       2.890   5.444   9.943  1.00  0.00     0.131 A 
ATOM     75  C   UNL     1       1.009   7.464   9.810  1.00  0.00     0.055 A 
ATOM     76  C   UNL     1       2.017   5.643  11.013  1.00  0.00     0.041 A 
ATOM     77  F   UNL     1       3.803   4.466  10.056  1.00  0.00    -0.206 F 
ATOM     78  C   UNL     1       1.077   6.667  10.955  1.00  0.00     0.022 A 
BRANCH  75  79
ATOM     79  S   UNL     1      -0.129   8.876   9.755  1.00  0.00     0.124 S 
ATOM     80  O   UNL     1       0.789   9.991   9.553  1.00  0.00    -0.237 OA
ATOM     81  O   UNL     1      -0.982   8.533   8.622  1.00  0.00    -0.237 OA
ATOM     82  O   UNL     1      -0.785   8.835  11.060  1.00  0.00    -0.744 OA
ENDBRANCH  75  79
ENDBRANCH  48  72
BRANCH  60  83
ATOM     83  C   UNL     1       7.966  10.119   6.133  1.00  0.00     0.023 A 
ATOM     84  C   UNL     1       8.573  10.459   7.354  1.00  0.00     0.031 A 
ATOM     85  C   UNL     1       7.771  11.138   5.183  1.00  0.00     0.131 A 
ATOM     86  C   UNL     1       8.917  11.794   7.615  1.00  0.00     0.055 A 
ATOM     87  C   UNL     1       8.163  12.454   5.427  1.00  0.00     0.041 A 
ATOM     88  F   UNL     1       7.195  10.867   4.000  1.00  0.00    -0.206 F 
ATOM     89  C   UNL     1       8.728  12.791   6.654  1.00  0.00     0.022 A 
BRANCH  86  90
ATOM     90  S   UNL     1       9.540  12.229   9.262  1.00  0.00     0.124 S 
ATOM     91  O   UNL     1       8.442  11.807  10.125  1.00  0.00    -0.237 OA
ATOM     92  O   UNL     1      10.763  11.438   9.353  1.00  0.00    -0.237 OA
ATOM     93  O   UNL     1       9.744  13.675   9.181  1.00  0.00    -0.744 OA
ENDBRANCH  86  90
ENDBRANCH  60  83
ENDBRANCH  34  35
ENDBRANCH  27  29
ENDBRANCH  26  27
ENDBRANCH  25  26
ENDBRANCH   1  25
TORSDOF 19
