REMARK SMILES O=C(CNC(=O)OCc1ccccc1)NCC(=O)OCCOC(=O)c1ccc(-c2c3nc(c(-c4cc(S(=O)(=O)[O-])ccc4F)c4ccc([nH]4)c(-c4cc(S(=O)(=O)[O-])ccc4F)c4nc(c(-c5cc(S(=O)(=O)[O-])ccc5F)c5ccc2[nH]5)C=C4)C=C3)cc1
REMARK SMILES IDX 19 1 17 2 18 3 16 4 15 5 1 6 2 7 3 9 4 10 5 11 6 13 7 14
REMARK SMILES IDX 8 15 9 16 10 17 14 18 11 19 13 20 12 21 20 22 21 23 22 24
REMARK SMILES IDX 23 25 24 26 25 27 26 28 87 29 27 30 86 31 28 32 29 33 30 34
REMARK SMILES IDX 80 35 31 36 85 37 79 38 81 39 32 40 84 41 78 42 77 43 33 45
REMARK SMILES IDX 65 46 45 47 64 48 46 49 49 50 63 51 82 52 47 53 48 54 62 56
REMARK SMILES IDX 83 57 50 58 34 59 35 60 43 61 36 62 42 63 44 64 41 65 37 66
REMARK SMILES IDX 38 67 39 68 40 69 66 70 67 71 75 72 68 73 74 74 76 75 73 76
REMARK SMILES IDX 69 77 70 78 71 79 72 80 51 81 52 82 60 83 53 84 59 85 61 86
REMARK SMILES IDX 58 87 54 88 55 89 56 90 57 91
REMARK H PARENT 15 8 4 12 81 44 49 55
REMARK Flexibility Score: inf
ROOT
ATOM      1  O   UNL     1       2.384  -3.302  -1.037  1.00  0.00    -0.461 OA
ENDROOT
BRANCH   1   2
ATOM      2  C   UNL     1       1.615  -3.335   0.085  1.00  0.00     0.325 C 
ATOM      3  O   UNL     1       1.087  -4.344   0.538  1.00  0.00    -0.250 OA
BRANCH   2   4
ATOM      4  C   UNL     1       1.443  -1.958   0.721  1.00  0.00     0.238 C 
BRANCH   4   5
ATOM      5  N   UNL     1       2.349  -0.923   0.253  1.00  0.00    -0.344 N 
ATOM      6  O   UNL     1       0.735   0.434  -0.641  1.00  0.00    -0.273 OA
ATOM      7  C   UNL     1       1.909   0.240  -0.334  1.00  0.00     0.240 C 
ATOM      8  H   UNL     1       3.318  -1.060   0.359  1.00  0.00     0.164 HD
BRANCH   7   9
ATOM      9  C   UNL     1       3.017   1.228  -0.694  1.00  0.00     0.219 C 
BRANCH   9  10
ATOM     10  N   UNL     1       3.900   1.421   0.440  1.00  0.00    -0.312 N 
ATOM     11  C   UNL     1       5.256   1.522   0.414  1.00  0.00     0.407 C 
ATOM     12  H   UNL     1       3.472   1.486   1.324  1.00  0.00     0.167 HD
ATOM     13  O   UNL     1       5.894   1.674   1.441  1.00  0.00    -0.225 OA
BRANCH  11  14
ATOM     14  O   UNL     1       5.768   1.440  -0.838  1.00  0.00    -0.445 OA
BRANCH  14  15
ATOM     15  C   UNL     1       7.197   1.547  -0.904  1.00  0.00     0.270 C 
BRANCH  15  16
ATOM     16  C   UNL     1       7.664   2.983  -0.866  1.00  0.00    -0.011 A 
ATOM     17  C   UNL     1       8.869   3.305  -0.225  1.00  0.00     0.007 A 
ATOM     18  C   UNL     1       6.927   4.010  -1.475  1.00  0.00     0.007 A 
ATOM     19  C   UNL     1       9.310   4.628  -0.167  1.00  0.00     0.000 A 
ATOM     20  C   UNL     1       7.367   5.333  -1.411  1.00  0.00     0.000 A 
ATOM     21  C   UNL     1       8.557   5.642  -0.755  1.00  0.00     0.000 A 
ENDBRANCH  15  16
ENDBRANCH  14  15
ENDBRANCH  11  14
ENDBRANCH   9  10
ENDBRANCH   7   9
ENDBRANCH   4   5
ENDBRANCH   2   4
ENDBRANCH   1   2
BRANCH   1  22
ATOM     22  C   UNL     1       2.746  -4.571  -1.610  1.00  0.00     0.274 C 
BRANCH  22  23
ATOM     23  C   UNL     1       4.255  -4.800  -1.482  1.00  0.00     0.275 C 
BRANCH  23  24
ATOM     24  O   UNL     1       4.657  -5.004  -0.113  1.00  0.00    -0.458 OA
BRANCH  24  25
ATOM     25  C   UNL     1       4.885  -3.874   0.599  1.00  0.00     0.338 C 
ATOM     26  O   UNL     1       4.794  -2.721   0.204  1.00  0.00    -0.246 OA
BRANCH  25  27
ATOM     27  C   UNL     1       5.117  -4.214   2.012  1.00  0.00     0.060 A 
ATOM     28  C   UNL     1       4.317  -3.579   2.965  1.00  0.00     0.016 A 
ATOM     29  C   UNL     1       6.147  -5.071   2.408  1.00  0.00     0.016 A 
ATOM     30  C   UNL     1       4.556  -3.776   4.320  1.00  0.00     0.010 A 
ATOM     31  C   UNL     1       6.381  -5.274   3.774  1.00  0.00     0.010 A 
ATOM     32  C   UNL     1       5.598  -4.614   4.738  1.00  0.00    -0.014 A 
BRANCH  32  33
ATOM     33  C   UNL     1       5.892  -4.736   6.188  1.00  0.00     0.031 A 
ATOM     34  C   UNL     1       7.110  -4.069   6.764  1.00  0.00     0.074 A 
ATOM     35  C   UNL     1       5.037  -5.399   6.990  1.00  0.00     0.049 A 
ATOM     36  N   UNL     1       7.561  -4.082   7.992  1.00  0.00    -0.248 NA
ATOM     37  C   UNL     1       7.931  -3.287   5.829  1.00  0.00     0.031 C 
ATOM     38  C   UNL     1       3.799  -6.044   6.549  1.00  0.00     0.029 A 
ATOM     39  N   UNL     1       5.073  -5.635   8.341  1.00  0.00    -0.354 N 
ATOM     40  C   UNL     1       8.726  -3.323   7.978  1.00  0.00     0.074 A 
ATOM     41  C   UNL     1       8.927  -2.893   6.609  1.00  0.00     0.031 C 
ATOM     42  C   UNL     1       3.189  -6.593   7.612  1.00  0.00     0.029 A 
ATOM     43  C   UNL     1       4.016  -6.386   8.798  1.00  0.00     0.049 A 
ATOM     44  H   UNL     1       5.788  -5.298   8.928  1.00  0.00     0.167 HD
ATOM     45  C   UNL     1       9.546  -3.010   9.013  1.00  0.00     0.034 A 
ATOM     46  C   UNL     1       3.757  -6.877  10.027  1.00  0.00     0.034 A 
ATOM     47  C   UNL     1       9.325  -3.447  10.371  1.00  0.00     0.049 A 
ATOM     48  C   UNL     1       4.721  -6.575  11.146  1.00  0.00     0.074 A 
ATOM     49  C   UNL     1      10.083  -3.179  11.499  1.00  0.00     0.029 A 
ATOM     50  N   UNL     1       8.270  -4.250  10.789  1.00  0.00    -0.354 N 
ATOM     51  N   UNL     1       5.826  -5.866  11.117  1.00  0.00    -0.248 NA
ATOM     52  C   UNL     1       4.401  -7.137  12.464  1.00  0.00     0.031 C 
ATOM     53  C   UNL     1       9.528  -3.876  12.579  1.00  0.00     0.029 A 
ATOM     54  C   UNL     1       8.377  -4.515  12.147  1.00  0.00     0.049 A 
ATOM     55  H   UNL     1       7.550  -4.584  10.205  1.00  0.00     0.167 HD
ATOM     56  C   UNL     1       6.318  -5.877  12.420  1.00  0.00     0.074 A 
ATOM     57  C   UNL     1       5.380  -6.647  13.210  1.00  0.00     0.031 C 
ATOM     58  C   UNL     1       7.441  -5.300  12.919  1.00  0.00     0.034 A 
BRANCH  45  59
ATOM     59  C   UNL     1      10.787  -2.207   8.698  1.00  0.00     0.023 A 
ATOM     60  C   UNL     1      10.720  -0.890   8.209  1.00  0.00     0.031 A 
ATOM     61  C   UNL     1      12.060  -2.782   8.865  1.00  0.00     0.131 A 
ATOM     62  C   UNL     1      11.898  -0.221   7.837  1.00  0.00     0.055 A 
ATOM     63  C   UNL     1      13.231  -2.082   8.568  1.00  0.00     0.041 A 
ATOM     64  F   UNL     1      12.188  -4.043   9.306  1.00  0.00    -0.206 F 
ATOM     65  C   UNL     1      13.154  -0.798   8.037  1.00  0.00     0.022 A 
BRANCH  62  66
ATOM     66  S   UNL     1      11.759   1.358   6.953  1.00  0.00     0.124 S 
ATOM     67  O   UNL     1      10.989   0.968   5.775  1.00  0.00    -0.237 OA
ATOM     68  O   UNL     1      11.069   2.201   7.922  1.00  0.00    -0.237 OA
ATOM     69  O   UNL     1      13.149   1.724   6.685  1.00  0.00    -0.744 OA
ENDBRANCH  62  66
ENDBRANCH  45  59
BRANCH  46  70
ATOM     70  C   UNL     1       2.565  -7.742  10.257  1.00  0.00     0.023 A 
ATOM     71  C   UNL     1       1.537  -7.351  11.129  1.00  0.00     0.031 A 
ATOM     72  C   UNL     1       2.461  -9.002   9.639  1.00  0.00     0.131 A 
ATOM     73  C   UNL     1       0.471  -8.227  11.390  1.00  0.00     0.055 A 
ATOM     74  C   UNL     1       1.372  -9.846   9.860  1.00  0.00     0.041 A 
ATOM     75  F   UNL     1       3.418  -9.427   8.799  1.00  0.00    -0.206 F 
ATOM     76  C   UNL     1       0.375  -9.465  10.751  1.00  0.00     0.022 A 
BRANCH  73  77
ATOM     77  S   UNL     1      -0.749  -7.760  12.649  1.00  0.00     0.124 S 
ATOM     78  O   UNL     1       0.092  -7.580  13.826  1.00  0.00    -0.237 OA
ATOM     79  O   UNL     1      -1.323  -6.546  12.078  1.00  0.00    -0.237 OA
ATOM     80  O   UNL     1      -1.649  -8.911  12.693  1.00  0.00    -0.744 OA
ENDBRANCH  73  77
ENDBRANCH  46  70
BRANCH  58  81
ATOM     81  C   UNL     1       7.685  -5.451  14.401  1.00  0.00     0.023 A 
ATOM     82  C   UNL     1       7.972  -6.699  14.981  1.00  0.00     0.031 A 
ATOM     83  C   UNL     1       7.607  -4.331  15.248  1.00  0.00     0.131 A 
ATOM     84  C   UNL     1       8.112  -6.808  16.373  1.00  0.00     0.055 A 
ATOM     85  C   UNL     1       7.807  -4.435  16.625  1.00  0.00     0.041 A 
ATOM     86  F   UNL     1       7.333  -3.115  14.749  1.00  0.00    -0.206 F 
ATOM     87  C   UNL     1       8.048  -5.681  17.197  1.00  0.00     0.022 A 
BRANCH  84  88
ATOM     88  S   UNL     1       8.284  -8.458  17.106  1.00  0.00     0.124 S 
ATOM     89  O   UNL     1       7.067  -9.122  16.649  1.00  0.00    -0.237 OA
ATOM     90  O   UNL     1       9.530  -8.935  16.515  1.00  0.00    -0.237 OA
ATOM     91  O   UNL     1       8.342  -8.192  18.543  1.00  0.00    -0.744 OA
ENDBRANCH  84  88
ENDBRANCH  58  81
ENDBRANCH  32  33
ENDBRANCH  25  27
ENDBRANCH  24  25
ENDBRANCH  23  24
ENDBRANCH  22  23
ENDBRANCH   1  22
TORSDOF 20
