REMARK SMILES C[C@@H](Sc1nc(-c2ccc3c(c2)OCO3)ccc1C#N)C(=O)OCCOC(=O)c1ccc(-c2c3nc(c(-c4cc(S(=O)(=O)[O-])ccc4F)c4ccc([nH]4)c(-c4cc(S(=O)(=O)[O-])ccc4F)c4nc(c(-c5cc(S(=O)(=O)[O-])ccc5F)c5ccc2[nH]5)C=C4)C=C3)cc1
REMARK SMILES IDX 24 1 23 2 21 3 22 4 2 5 1 6 3 7 4 8 5 9 18 10 6 11 17 12
REMARK SMILES IDX 16 13 19 14 20 15 7 16 8 17 12 18 9 19 11 20 10 21 13 22
REMARK SMILES IDX 15 23 14 24 25 25 26 26 27 27 28 28 29 29 30 30 91 31 31 32
REMARK SMILES IDX 90 33 32 34 33 35 34 36 84 37 35 38 89 39 83 40 85 41 36 42
REMARK SMILES IDX 88 43 82 44 81 45 37 47 69 48 49 49 68 50 50 51 53 52 67 53
REMARK SMILES IDX 86 54 51 55 52 56 66 58 87 59 54 60 38 61 39 62 47 63 40 64
REMARK SMILES IDX 46 65 48 66 45 67 41 68 42 69 43 70 44 71 70 72 71 73 79 74
REMARK SMILES IDX 72 75 78 76 80 77 77 78 73 79 74 80 75 81 76 82 55 83 56 84
REMARK SMILES IDX 64 85 57 86 63 87 65 88 62 89 58 90 59 91 60 92 61 93
REMARK H PARENT 85 46 53 57
REMARK Flexibility Score: inf
ROOT
ATOM      1  C   UNL     1      -2.885  -1.229  -0.431  1.00  0.00     0.274 C 
ENDROOT
BRANCH   1   2
ATOM      2  O   UNL     1      -1.457  -1.203  -0.238  1.00  0.00    -0.461 OA
BRANCH   2   3
ATOM      3  C   UNL     1      -0.693  -1.191  -1.366  1.00  0.00     0.319 C 
ATOM      4  O   UNL     1      -1.149  -1.278  -2.503  1.00  0.00    -0.251 OA
BRANCH   3   5
ATOM      5  C   UNL     1       0.808  -1.117  -1.075  1.00  0.00     0.160 C 
ATOM      6  C   UNL     1       1.140  -0.422   0.239  1.00  0.00     0.032 C 
BRANCH   5   7
ATOM      7  S   UNL     1       1.418  -2.841  -1.095  1.00  0.00    -0.090 SA
BRANCH   7   8
ATOM      8  C   UNL     1       3.184  -2.651  -1.358  1.00  0.00     0.115 A 
ATOM      9  N   UNL     1       3.708  -1.394  -1.399  1.00  0.00    -0.240 NA
ATOM     10  C   UNL     1       3.975  -3.799  -1.459  1.00  0.00     0.084 A 
ATOM     11  C   UNL     1       5.056  -1.262  -1.533  1.00  0.00     0.072 A 
ATOM     12  C   UNL     1       5.356  -3.647  -1.555  1.00  0.00     0.024 A 
ATOM     13  C   UNL     1       5.901  -2.371  -1.585  1.00  0.00     0.030 A 
BRANCH  10  14
ATOM     14  C   UNL     1       3.429  -5.126  -1.456  1.00  0.00     0.102 C 
ATOM     15  N   UNL     1       3.036  -6.215  -1.456  1.00  0.00    -0.192 NA
ENDBRANCH  10  14
BRANCH  11  16
ATOM     16  C   UNL     1       5.625   0.096  -1.614  1.00  0.00     0.004 A 
ATOM     17  C   UNL     1       6.539   0.419  -2.657  1.00  0.00     0.014 A 
ATOM     18  C   UNL     1       5.370   1.066  -0.628  1.00  0.00     0.061 A 
ATOM     19  C   UNL     1       7.215   1.643  -2.697  1.00  0.00     0.051 A 
ATOM     20  C   UNL     1       6.059   2.265  -0.687  1.00  0.00     0.166 A 
ATOM     21  C   UNL     1       6.962   2.540  -1.687  1.00  0.00     0.165 A 
ATOM     22  O   UNL     1       5.976   3.280   0.217  1.00  0.00    -0.454 OA
ATOM     23  O   UNL     1       7.559   3.751  -1.540  1.00  0.00    -0.454 OA
ATOM     24  C   UNL     1       6.885   4.244  -0.363  1.00  0.00     0.468 C 
ENDBRANCH  11  16
ENDBRANCH   7   8
ENDBRANCH   5   7
ENDBRANCH   3   5
ENDBRANCH   2   3
ENDBRANCH   1   2
BRANCH   1  25
ATOM     25  C   UNL     1      -3.488   0.176  -0.346  1.00  0.00     0.275 C 
BRANCH  25  26
ATOM     26  O   UNL     1      -3.090   0.991  -1.461  1.00  0.00    -0.458 OA
BRANCH  26  27
ATOM     27  C   UNL     1      -1.971   1.726  -1.260  1.00  0.00     0.338 C 
ATOM     28  O   UNL     1      -1.307   1.796  -0.241  1.00  0.00    -0.246 OA
BRANCH  27  29
ATOM     29  C   UNL     1      -1.595   2.392  -2.512  1.00  0.00     0.060 A 
ATOM     30  C   UNL     1      -0.500   1.917  -3.240  1.00  0.00     0.016 A 
ATOM     31  C   UNL     1      -2.280   3.537  -2.913  1.00  0.00     0.016 A 
ATOM     32  C   UNL     1      -0.076   2.593  -4.379  1.00  0.00     0.010 A 
ATOM     33  C   UNL     1      -1.865   4.201  -4.066  1.00  0.00     0.010 A 
ATOM     34  C   UNL     1      -0.757   3.739  -4.800  1.00  0.00    -0.014 A 
BRANCH  34  35
ATOM     35  C   UNL     1      -0.305   4.502  -5.986  1.00  0.00     0.031 A 
ATOM     36  C   UNL     1       0.260   5.877  -5.799  1.00  0.00     0.074 A 
ATOM     37  C   UNL     1      -0.476   3.990  -7.218  1.00  0.00     0.049 A 
ATOM     38  N   UNL     1       0.490   6.809  -6.686  1.00  0.00    -0.248 NA
ATOM     39  C   UNL     1       0.584   6.258  -4.418  1.00  0.00     0.031 C 
ATOM     40  C   UNL     1      -0.974   2.645  -7.508  1.00  0.00     0.029 A 
ATOM     41  N   UNL     1      -0.288   4.555  -8.453  1.00  0.00    -0.354 N 
ATOM     42  C   UNL     1       0.951   7.905  -5.967  1.00  0.00     0.074 A 
ATOM     43  C   UNL     1       0.940   7.524  -4.569  1.00  0.00     0.031 C 
ATOM     44  C   UNL     1      -1.083   2.501  -8.838  1.00  0.00     0.029 A 
ATOM     45  C   UNL     1      -0.734   3.762  -9.484  1.00  0.00     0.049 A 
ATOM     46  H   UNL     1       0.125   5.439  -8.588  1.00  0.00     0.167 HD
ATOM     47  C   UNL     1       1.341   9.116  -6.439  1.00  0.00     0.034 A 
ATOM     48  C   UNL     1      -0.906   4.042 -10.791  1.00  0.00     0.034 A 
ATOM     49  C   UNL     1       1.325   9.461  -7.842  1.00  0.00     0.049 A 
ATOM     50  C   UNL     1      -0.547   5.417 -11.292  1.00  0.00     0.074 A 
ATOM     51  C   UNL     1       1.724  10.640  -8.446  1.00  0.00     0.029 A 
ATOM     52  N   UNL     1       0.864   8.632  -8.861  1.00  0.00    -0.354 N 
ATOM     53  N   UNL     1      -0.112   6.454 -10.613  1.00  0.00    -0.248 NA
ATOM     54  C   UNL     1      -0.698   5.659 -12.731  1.00  0.00     0.031 C 
ATOM     55  C   UNL     1       1.421  10.558  -9.809  1.00  0.00     0.029 A 
ATOM     56  C   UNL     1       0.928   9.290 -10.080  1.00  0.00     0.049 A 
ATOM     57  H   UNL     1       0.539   7.711  -8.734  1.00  0.00     0.167 HD
ATOM     58  C   UNL     1       0.095   7.463 -11.550  1.00  0.00     0.074 A 
ATOM     59  C   UNL     1      -0.266   6.908 -12.839  1.00  0.00     0.031 C 
ATOM     60  C   UNL     1       0.556   8.727 -11.360  1.00  0.00     0.034 A 
BRANCH  47  61
ATOM     61  C   UNL     1       1.731  10.163  -5.421  1.00  0.00     0.023 A 
ATOM     62  C   UNL     1       2.791   9.968  -4.517  1.00  0.00     0.031 A 
ATOM     63  C   UNL     1       0.983  11.349  -5.303  1.00  0.00     0.131 A 
ATOM     64  C   UNL     1       3.003  10.884  -3.475  1.00  0.00     0.055 A 
ATOM     65  C   UNL     1       1.264  12.306  -4.325  1.00  0.00     0.041 A 
ATOM     66  F   UNL     1      -0.057  11.587  -6.117  1.00  0.00    -0.206 F 
ATOM     67  C   UNL     1       2.264  12.066  -3.389  1.00  0.00     0.022 A 
BRANCH  64  68
ATOM     68  S   UNL     1       4.118  10.411  -2.123  1.00  0.00     0.124 S 
ATOM     69  O   UNL     1       3.543   9.139  -1.693  1.00  0.00    -0.237 OA
ATOM     70  O   UNL     1       5.411  10.332  -2.791  1.00  0.00    -0.237 OA
ATOM     71  O   UNL     1       3.976  11.504  -1.163  1.00  0.00    -0.744 OA
ENDBRANCH  64  68
ENDBRANCH  47  61
BRANCH  48  72
ATOM     72  C   UNL     1      -1.506   3.017 -11.689  1.00  0.00     0.023 A 
ATOM     73  C   UNL     1      -0.764   2.424 -12.720  1.00  0.00     0.031 A 
ATOM     74  C   UNL     1      -2.840   2.602 -11.512  1.00  0.00     0.131 A 
ATOM     75  C   UNL     1      -1.364   1.461 -13.547  1.00  0.00     0.055 A 
ATOM     76  C   UNL     1      -3.416   1.608 -12.303  1.00  0.00     0.041 A 
ATOM     77  F   UNL     1      -3.594   3.138 -10.538  1.00  0.00    -0.206 F 
ATOM     78  C   UNL     1      -2.679   1.036 -13.334  1.00  0.00     0.022 A 
BRANCH  75  79
ATOM     79  S   UNL     1      -0.417   0.805 -14.947  1.00  0.00     0.124 S 
ATOM     80  O   UNL     1      -0.155   2.014 -15.720  1.00  0.00    -0.237 OA
ATOM     81  O   UNL     1       0.735   0.206 -14.282  1.00  0.00    -0.237 OA
ATOM     82  O   UNL     1      -1.339  -0.144 -15.567  1.00  0.00    -0.744 OA
ENDBRANCH  75  79
ENDBRANCH  48  72
BRANCH  60  83
ATOM     83  C   UNL     1       0.763   9.582 -12.588  1.00  0.00     0.023 A 
ATOM     84  C   UNL     1      -0.308  10.044 -13.372  1.00  0.00     0.031 A 
ATOM     85  C   UNL     1       2.067   9.961 -12.960  1.00  0.00     0.131 A 
ATOM     86  C   UNL     1      -0.053  10.830 -14.508  1.00  0.00     0.055 A 
ATOM     87  C   UNL     1       2.309  10.793 -14.053  1.00  0.00     0.041 A 
ATOM     88  F   UNL     1       3.128   9.541 -12.252  1.00  0.00    -0.206 F 
ATOM     89  C   UNL     1       1.246  11.225 -14.839  1.00  0.00     0.022 A 
BRANCH  86  90
ATOM     90  S   UNL     1      -1.435  11.271 -15.597  1.00  0.00     0.124 S 
ATOM     91  O   UNL     1      -1.933   9.960 -16.000  1.00  0.00    -0.237 OA
ATOM     92  O   UNL     1      -2.302  12.038 -14.709  1.00  0.00    -0.237 OA
ATOM     93  O   UNL     1      -0.798  12.046 -16.662  1.00  0.00    -0.744 OA
ENDBRANCH  86  90
ENDBRANCH  60  83
ENDBRANCH  34  35
ENDBRANCH  27  29
ENDBRANCH  26  27
ENDBRANCH  25  26
ENDBRANCH   1  25
TORSDOF 18
