REMARK SMILES CC[NH2+]C[C@@H](C)C(=O)N1CCO[C@@H](CC(=O)OCCOC(=O)c2ccc(-c3c4nc(c(-c5cc(S(=O)(=O)[O-])ccc5F)c5ccc([nH]5)c(-c5cc(S(=O)(=O)[O-])ccc5F)c5nc(c(-c6cc(S(=O)(=O)[O-])ccc6F)c6ccc3[nH]6)C=C5)C=C4)cc2)C1
REMARK SMILES IDX 17 1 15 2 16 3 14 4 13 5 9 6 10 7 86 8 11 9 12 10 7 11 8 12
REMARK SMILES IDX 5 13 6 14 4 15 3 16 2 19 1 20 18 21 19 22 20 23 21 24 22 25
REMARK SMILES IDX 23 26 24 27 85 28 25 29 84 30 26 31 27 32 28 33 78 34 29 35
REMARK SMILES IDX 83 36 77 37 79 38 30 39 82 40 76 41 75 42 31 44 63 45 43 46
REMARK SMILES IDX 62 47 44 48 47 49 61 50 80 51 45 52 46 53 60 55 81 56 48 57
REMARK SMILES IDX 32 58 33 59 41 60 34 61 40 62 42 63 39 64 35 65 36 66 37 67
REMARK SMILES IDX 38 68 64 69 65 70 73 71 66 72 72 73 74 74 71 75 67 76 68 77
REMARK SMILES IDX 69 78 70 79 49 80 50 81 58 82 51 83 57 84 59 85 56 86 52 87
REMARK SMILES IDX 53 88 54 89 55 90
REMARK H PARENT 3 17 3 18 79 43 47 54
REMARK Flexibility Score: inf
ROOT
ATOM      1  O   UNL     1       2.005  -0.271  10.001  1.00  0.00    -0.462 OA
ENDROOT
BRANCH   1   2
ATOM      2  C   UNL     1       2.658   0.808  10.499  1.00  0.00     0.308 C 
ATOM      3  O   UNL     1       3.503   0.762  11.384  1.00  0.00    -0.252 OA
BRANCH   2   4
ATOM      4  C   UNL     1       2.160   2.099   9.905  1.00  0.00     0.156 C 
BRANCH   4   5
ATOM      5  C   UNL     1       2.065   2.119   8.382  1.00  0.00     0.148 C 
ATOM      6  N   UNL     1       0.674   1.623   6.396  1.00  0.00    -0.337 N 
ATOM      7  C   UNL     1       0.725   3.037   6.037  1.00  0.00     0.148 C 
ATOM      8  C   UNL     1       0.802   1.402   7.840  1.00  0.00     0.152 C 
ATOM      9  C   UNL     1       2.003   3.671   6.572  1.00  0.00     0.182 C 
ATOM     10  O   UNL     1       2.054   3.520   7.999  1.00  0.00    -0.374 OA
BRANCH   6  11
ATOM     11  C   UNL     1       0.391   0.548   5.579  1.00  0.00     0.231 C 
ATOM     12  O   UNL     1      -0.233  -0.425   6.024  1.00  0.00    -0.274 OA
BRANCH  11  13
ATOM     13  C   UNL     1       1.014   0.434   4.178  1.00  0.00     0.130 C 
ATOM     14  C   UNL     1       2.536   0.350   4.306  1.00  0.00     0.024 C 
BRANCH  13  15
ATOM     15  C   UNL     1       0.551   1.453   3.132  1.00  0.00     0.273 C 
BRANCH  15  16
ATOM     16  N   UNL     1       0.972   1.219   1.745  1.00  0.00    -0.346 N 
ATOM     17  H   UNL     1       0.683   2.020   1.184  1.00  0.00     0.346 HD
ATOM     18  H   UNL     1       1.984   1.092   1.766  1.00  0.00     0.346 HD
BRANCH  16  19
ATOM     19  C   UNL     1       0.414   0.016   1.143  1.00  0.00     0.257 C 
ATOM     20  C   UNL     1       0.847  -0.047  -0.314  1.00  0.00     0.071 C 
ENDBRANCH  16  19
ENDBRANCH  15  16
ENDBRANCH  13  15
ENDBRANCH  11  13
ENDBRANCH   6  11
ENDBRANCH   4   5
ENDBRANCH   2   4
ENDBRANCH   1   2
BRANCH   1  21
ATOM     21  C   UNL     1       2.388  -1.559  10.519  1.00  0.00     0.274 C 
BRANCH  21  22
ATOM     22  C   UNL     1       3.371  -2.272   9.587  1.00  0.00     0.275 C 
BRANCH  22  23
ATOM     23  O   UNL     1       4.674  -1.663   9.631  1.00  0.00    -0.458 OA
BRANCH  23  24
ATOM     24  C   UNL     1       4.905  -0.726   8.681  1.00  0.00     0.338 C 
ATOM     25  O   UNL     1       4.154  -0.398   7.779  1.00  0.00    -0.246 OA
BRANCH  24  26
ATOM     26  C   UNL     1       6.172  -0.035   8.968  1.00  0.00     0.060 A 
ATOM     27  C   UNL     1       6.137   1.340   9.220  1.00  0.00     0.016 A 
ATOM     28  C   UNL     1       7.389  -0.719   8.930  1.00  0.00     0.016 A 
ATOM     29  C   UNL     1       7.323   2.039   9.435  1.00  0.00     0.010 A 
ATOM     30  C   UNL     1       8.578  -0.015   9.147  1.00  0.00     0.010 A 
ATOM     31  C   UNL     1       8.553   1.369   9.392  1.00  0.00    -0.014 A 
BRANCH  31  32
ATOM     32  C   UNL     1       9.818   2.128   9.557  1.00  0.00     0.031 A 
ATOM     33  C   UNL     1      10.681   2.407   8.359  1.00  0.00     0.074 A 
ATOM     34  C   UNL     1      10.183   2.571  10.775  1.00  0.00     0.049 A 
ATOM     35  N   UNL     1      11.855   2.980   8.297  1.00  0.00    -0.248 NA
ATOM     36  C   UNL     1      10.150   1.977   7.058  1.00  0.00     0.031 C 
ATOM     37  C   UNL     1       9.405   2.396  12.002  1.00  0.00     0.029 A 
ATOM     38  N   UNL     1      11.302   3.252  11.182  1.00  0.00    -0.354 N 
ATOM     39  C   UNL     1      12.212   2.973   6.953  1.00  0.00     0.074 A 
ATOM     40  C   UNL     1      11.139   2.308   6.241  1.00  0.00     0.031 C 
ATOM     41  C   UNL     1      10.073   2.952  13.026  1.00  0.00     0.029 A 
ATOM     42  C   UNL     1      11.345   3.479  12.538  1.00  0.00     0.049 A 
ATOM     43  H   UNL     1      12.007   3.551  10.563  1.00  0.00     0.167 HD
ATOM     44  C   UNL     1      13.327   3.479   6.370  1.00  0.00     0.034 A 
ATOM     45  C   UNL     1      12.314   4.020  13.303  1.00  0.00     0.034 A 
ATOM     46  C   UNL     1      14.389   4.131   7.098  1.00  0.00     0.049 A 
ATOM     47  C   UNL     1      13.581   4.504  12.642  1.00  0.00     0.074 A 
ATOM     48  C   UNL     1      15.559   4.687   6.607  1.00  0.00     0.029 A 
ATOM     49  N   UNL     1      14.418   4.308   8.476  1.00  0.00    -0.354 N 
ATOM     50  N   UNL     1      13.909   4.485  11.371  1.00  0.00    -0.248 NA
ATOM     51  C   UNL     1      14.606   5.085  13.520  1.00  0.00     0.031 C 
ATOM     52  C   UNL     1      16.321   5.140   7.690  1.00  0.00     0.029 A 
ATOM     53  C   UNL     1      15.597   4.935   8.854  1.00  0.00     0.049 A 
ATOM     54  H   UNL     1      13.706   4.029   9.095  1.00  0.00     0.167 HD
ATOM     55  C   UNL     1      15.168   5.075  11.295  1.00  0.00     0.074 A 
ATOM     56  C   UNL     1      15.531   5.452  12.646  1.00  0.00     0.031 C 
ATOM     57  C   UNL     1      15.952   5.292  10.208  1.00  0.00     0.034 A 
BRANCH  44  58
ATOM     58  C   UNL     1      13.473   3.292   4.879  1.00  0.00     0.023 A 
ATOM     59  C   UNL     1      12.593   3.898   3.965  1.00  0.00     0.031 A 
ATOM     60  C   UNL     1      14.492   2.469   4.365  1.00  0.00     0.131 A 
ATOM     61  C   UNL     1      12.705   3.618   2.594  1.00  0.00     0.055 A 
ATOM     62  C   UNL     1      14.645   2.255   2.994  1.00  0.00     0.041 A 
ATOM     63  F   UNL     1      15.348   1.846   5.190  1.00  0.00    -0.206 F 
ATOM     64  C   UNL     1      13.739   2.820   2.100  1.00  0.00     0.022 A 
BRANCH  61  65
ATOM     65  S   UNL     1      11.397   4.199   1.480  1.00  0.00     0.124 S 
ATOM     66  O   UNL     1      10.214   3.561   2.053  1.00  0.00    -0.237 OA
ATOM     67  O   UNL     1      11.476   5.647   1.627  1.00  0.00    -0.237 OA
ATOM     68  O   UNL     1      11.803   3.681   0.174  1.00  0.00    -0.744 OA
ENDBRANCH  61  65
ENDBRANCH  44  58
BRANCH  45  69
ATOM     69  C   UNL     1      12.155   4.091  14.784  1.00  0.00     0.023 A 
ATOM     70  C   UNL     1      12.105   5.324  15.453  1.00  0.00     0.031 A 
ATOM     71  C   UNL     1      12.103   2.918  15.559  1.00  0.00     0.131 A 
ATOM     72  C   UNL     1      12.049   5.356  16.855  1.00  0.00     0.055 A 
ATOM     73  C   UNL     1      11.993   2.955  16.949  1.00  0.00     0.041 A 
ATOM     74  F   UNL     1      12.150   1.712  14.969  1.00  0.00    -0.206 F 
ATOM     75  C   UNL     1      11.979   4.181  17.607  1.00  0.00     0.022 A 
BRANCH  72  76
ATOM     76  S   UNL     1      12.156   6.962  17.692  1.00  0.00     0.124 S 
ATOM     77  O   UNL     1      13.430   7.471  17.198  1.00  0.00    -0.237 OA
ATOM     78  O   UNL     1      10.960   7.639  17.202  1.00  0.00    -0.237 OA
ATOM     79  O   UNL     1      12.133   6.609  19.110  1.00  0.00    -0.744 OA
ENDBRANCH  72  76
ENDBRANCH  45  69
BRANCH  57  80
ATOM     80  C   UNL     1      17.259   6.009  10.440  1.00  0.00     0.023 A 
ATOM     81  C   UNL     1      18.313   5.415  11.155  1.00  0.00     0.031 A 
ATOM     82  C   UNL     1      17.444   7.314   9.951  1.00  0.00     0.131 A 
ATOM     83  C   UNL     1      19.485   6.145  11.409  1.00  0.00     0.055 A 
ATOM     84  C   UNL     1      18.633   8.015  10.158  1.00  0.00     0.041 A 
ATOM     85  F   UNL     1      16.469   7.930   9.263  1.00  0.00    -0.206 F 
ATOM     86  C   UNL     1      19.657   7.436  10.901  1.00  0.00     0.022 A 
BRANCH  83  87
ATOM     87  S   UNL     1      20.751   5.418  12.485  1.00  0.00     0.124 S 
ATOM     88  O   UNL     1      20.009   5.200  13.723  1.00  0.00    -0.237 OA
ATOM     89  O   UNL     1      21.133   4.216  11.751  1.00  0.00    -0.237 OA
ATOM     90  O   UNL     1      21.780   6.454  12.553  1.00  0.00    -0.744 OA
ENDBRANCH  83  87
ENDBRANCH  57  80
ENDBRANCH  31  32
ENDBRANCH  24  26
ENDBRANCH  23  24
ENDBRANCH  22  23
ENDBRANCH  21  22
ENDBRANCH   1  21
TORSDOF 20
