REMARK SMILES C[N@H+](Cc1cc(Cl)ccc1[N+](=O)[O-])[C@H]1COC[C@@H]1C(=O)OCCOC(=O)c1ccc(-c2c3nc(c(-c4cc(S(=O)(=O)[O-])ccc4F)c4ccc([nH]4)c(-c4cc(S(=O)(=O)[O-])ccc4F)c4nc(c(-c5cc(S(=O)(=O)[O-])ccc5F)c5ccc2[nH]5)C=C4)C=C3)cc1
REMARK SMILES IDX 22 1 21 2 19 3 20 4 18 5 14 6 15 7 16 8 17 9 2 10 1 11 3 13
REMARK SMILES IDX 4 14 5 15 10 16 6 17 9 18 7 19 8 20 11 21 12 22 13 23 23 24
REMARK SMILES IDX 24 25 25 26 26 27 27 28 28 29 89 30 29 31 88 32 30 33 31 34
REMARK SMILES IDX 32 35 82 36 33 37 87 38 81 39 83 40 34 41 86 42 80 43 79 44
REMARK SMILES IDX 35 46 67 47 47 48 66 49 48 50 51 51 65 52 84 53 49 54 50 55
REMARK SMILES IDX 64 57 85 58 52 59 36 60 37 61 45 62 38 63 44 64 46 65 43 66
REMARK SMILES IDX 39 67 40 68 41 69 42 70 68 71 69 72 77 73 70 74 76 75 78 76
REMARK SMILES IDX 75 77 71 78 72 79 73 80 74 81 53 82 54 83 62 84 55 85 61 86
REMARK SMILES IDX 63 87 60 88 56 89 57 90 58 91 59 92
REMARK H PARENT 2 12 83 45 51 56
REMARK Flexibility Score: inf
ROOT
ATOM      1  C   UNL     1      -2.451   4.839   0.179  1.00  0.00     0.274 C 
ENDROOT
BRANCH   1   2
ATOM      2  O   UNL     1      -1.247   4.662   0.954  1.00  0.00    -0.462 OA
BRANCH   2   3
ATOM      3  C   UNL     1      -0.911   3.385   1.301  1.00  0.00     0.317 C 
ATOM      4  O   UNL     1      -1.589   2.395   1.069  1.00  0.00    -0.252 OA
BRANCH   3   5
ATOM      5  C   UNL     1       0.462   3.376   1.949  1.00  0.00     0.185 C 
ATOM      6  C   UNL     1       1.085   1.975   1.984  1.00  0.00     0.227 C 
ATOM      7  C   UNL     1       0.486   1.426   3.292  1.00  0.00     0.226 C 
ATOM      8  O   UNL     1       0.187   2.537   4.154  1.00  0.00    -0.374 OA
ATOM      9  C   UNL     1       0.344   3.750   3.407  1.00  0.00     0.182 C 
BRANCH   6  10
ATOM     10  N   UNL     1       2.585   1.852   2.031  1.00  0.00    -0.328 N 
ATOM     11  C   UNL     1       3.288   3.055   1.586  1.00  0.00     0.333 C 
ATOM     12  H   UNL     1       2.856   1.735   3.007  1.00  0.00     0.348 HD
BRANCH  10  13
ATOM     13  C   UNL     1       2.994   0.663   1.236  1.00  0.00     0.306 C 
BRANCH  13  14
ATOM     14  C   UNL     1       4.465   0.296   1.277  1.00  0.00     0.085 A 
ATOM     15  C   UNL     1       4.931  -0.524   2.322  1.00  0.00     0.037 A 
ATOM     16  C   UNL     1       5.413   0.714   0.317  1.00  0.00     0.278 A 
ATOM     17  C   UNL     1       6.276  -0.905   2.389  1.00  0.00     0.042 A 
ATOM     18  C   UNL     1       6.764   0.348   0.388  1.00  0.00     0.088 A 
ATOM     19  Cl  UNL     1       6.809  -1.918   3.675  1.00  0.00    -0.084 Cl
ATOM     20  C   UNL     1       7.192  -0.472   1.430  1.00  0.00     0.027 A 
BRANCH  16  21
ATOM     21  N   UNL     1       5.034   1.581  -0.786  1.00  0.00     0.063 N 
ATOM     22  O   UNL     1       5.524   2.718  -0.797  1.00  0.00    -0.258 OA
ATOM     23  O   UNL     1       4.220   1.138  -1.601  1.00  0.00    -0.258 OA
ENDBRANCH  16  21
ENDBRANCH  13  14
ENDBRANCH  10  13
ENDBRANCH   6  10
ENDBRANCH   3   5
ENDBRANCH   2   3
ENDBRANCH   1   2
BRANCH   1  24
ATOM     24  C   UNL     1      -2.106   5.266  -1.249  1.00  0.00     0.275 C 
BRANCH  24  25
ATOM     25  O   UNL     1      -1.530   4.160  -1.969  1.00  0.00    -0.458 OA
BRANCH  25  26
ATOM     26  C   UNL     1      -0.203   4.238  -2.208  1.00  0.00     0.338 C 
ATOM     27  O   UNL     1       0.549   5.161  -1.928  1.00  0.00    -0.246 OA
BRANCH  26  28
ATOM     28  C   UNL     1       0.259   2.951  -2.743  1.00  0.00     0.060 A 
ATOM     29  C   UNL     1       0.560   1.950  -1.827  1.00  0.00     0.016 A 
ATOM     30  C   UNL     1       0.494   2.752  -4.102  1.00  0.00     0.016 A 
ATOM     31  C   UNL     1       1.151   0.766  -2.253  1.00  0.00     0.010 A 
ATOM     32  C   UNL     1       1.046   1.534  -4.534  1.00  0.00     0.010 A 
ATOM     33  C   UNL     1       1.415   0.538  -3.609  1.00  0.00    -0.014 A 
BRANCH  33  34
ATOM     34  C   UNL     1       2.157  -0.694  -4.018  1.00  0.00     0.031 A 
ATOM     35  C   UNL     1       3.489  -0.578  -4.718  1.00  0.00     0.074 A 
ATOM     36  C   UNL     1       1.691  -1.921  -3.700  1.00  0.00     0.049 A 
ATOM     37  N   UNL     1       4.214  -1.510  -5.286  1.00  0.00    -0.248 NA
ATOM     38  C   UNL     1       4.080   0.766  -4.794  1.00  0.00     0.031 C 
ATOM     39  C   UNL     1       0.463  -2.193  -2.950  1.00  0.00     0.029 A 
ATOM     40  N   UNL     1       2.202  -3.172  -3.955  1.00  0.00    -0.354 N 
ATOM     41  C   UNL     1       5.321  -0.860  -5.824  1.00  0.00     0.074 A 
ATOM     42  C   UNL     1       5.167   0.548  -5.519  1.00  0.00     0.031 C 
ATOM     43  C   UNL     1       0.337  -3.517  -2.774  1.00  0.00     0.029 A 
ATOM     44  C   UNL     1       1.414  -4.199  -3.485  1.00  0.00     0.049 A 
ATOM     45  H   UNL     1       3.052  -3.320  -4.429  1.00  0.00     0.167 HD
ATOM     46  C   UNL     1       6.368  -1.385  -6.508  1.00  0.00     0.034 A 
ATOM     47  C   UNL     1       1.506  -5.534  -3.651  1.00  0.00     0.034 A 
ATOM     48  C   UNL     1       6.532  -2.794  -6.779  1.00  0.00     0.049 A 
ATOM     49  C   UNL     1       2.634  -6.091  -4.481  1.00  0.00     0.074 A 
ATOM     50  C   UNL     1       7.540  -3.426  -7.488  1.00  0.00     0.029 A 
ATOM     51  N   UNL     1       5.671  -3.793  -6.343  1.00  0.00    -0.354 N 
ATOM     52  N   UNL     1       3.615  -5.453  -5.075  1.00  0.00    -0.248 NA
ATOM     53  C   UNL     1       2.654  -7.547  -4.679  1.00  0.00     0.031 C 
ATOM     54  C   UNL     1       7.261  -4.797  -7.526  1.00  0.00     0.029 A 
ATOM     55  C   UNL     1       6.115  -5.031  -6.784  1.00  0.00     0.049 A 
ATOM     56  H   UNL     1       4.864  -3.644  -5.801  1.00  0.00     0.167 HD
ATOM     57  C   UNL     1       4.370  -6.432  -5.716  1.00  0.00     0.074 A 
ATOM     58  C   UNL     1       3.748  -7.704  -5.410  1.00  0.00     0.031 C 
ATOM     59  C   UNL     1       5.474  -6.291  -6.492  1.00  0.00     0.034 A 
BRANCH  46  60
ATOM     60  C   UNL     1       7.380  -0.419  -7.074  1.00  0.00     0.023 A 
ATOM     61  C   UNL     1       8.227   0.344  -6.251  1.00  0.00     0.031 A 
ATOM     62  C   UNL     1       7.475  -0.238  -8.466  1.00  0.00     0.131 A 
ATOM     63  C   UNL     1       9.085   1.296  -6.824  1.00  0.00     0.055 A 
ATOM     64  C   UNL     1       8.382   0.659  -9.033  1.00  0.00     0.041 A 
ATOM     65  F   UNL     1       6.678  -0.925  -9.299  1.00  0.00    -0.206 F 
ATOM     66  C   UNL     1       9.184   1.443  -8.210  1.00  0.00     0.022 A 
BRANCH  63  67
ATOM     67  S   UNL     1       9.983   2.427  -5.727  1.00  0.00     0.124 S 
ATOM     68  O   UNL     1       8.886   3.099  -5.034  1.00  0.00    -0.237 OA
ATOM     69  O   UNL     1      10.783   1.515  -4.918  1.00  0.00    -0.237 OA
ATOM     70  O   UNL     1      10.740   3.272  -6.649  1.00  0.00    -0.744 OA
ENDBRANCH  63  67
ENDBRANCH  46  60
BRANCH  47  71
ATOM     71  C   UNL     1       0.447  -6.435  -3.109  1.00  0.00     0.023 A 
ATOM     72  C   UNL     1       0.738  -7.411  -2.143  1.00  0.00     0.031 A 
ATOM     73  C   UNL     1      -0.873  -6.360  -3.592  1.00  0.00     0.131 A 
ATOM     74  C   UNL     1      -0.269  -8.291  -1.714  1.00  0.00     0.055 A 
ATOM     75  C   UNL     1      -1.883  -7.199  -3.120  1.00  0.00     0.041 A 
ATOM     76  F   UNL     1      -1.205  -5.452  -4.524  1.00  0.00    -0.206 F 
ATOM     77  C   UNL     1      -1.580  -8.180  -2.183  1.00  0.00     0.022 A 
BRANCH  74  78
ATOM     78  S   UNL     1       0.176  -9.643  -0.589  1.00  0.00     0.124 S 
ATOM     79  O   UNL     1       1.191 -10.350  -1.361  1.00  0.00    -0.237 OA
ATOM     80  O   UNL     1       0.652  -8.917   0.584  1.00  0.00    -0.237 OA
ATOM     81  O   UNL     1      -1.083 -10.362  -0.406  1.00  0.00    -0.744 OA
ENDBRANCH  74  78
ENDBRANCH  47  71
BRANCH  59  82
ATOM     82  C   UNL     1       6.090  -7.555  -7.036  1.00  0.00     0.023 A 
ATOM     83  C   UNL     1       5.442  -8.325  -8.018  1.00  0.00     0.031 A 
ATOM     84  C   UNL     1       7.329  -8.005  -6.550  1.00  0.00     0.131 A 
ATOM     85  C   UNL     1       6.014  -9.533  -8.447  1.00  0.00     0.055 A 
ATOM     86  C   UNL     1       7.918  -9.181  -7.018  1.00  0.00     0.041 A 
ATOM     87  F   UNL     1       7.988  -7.308  -5.611  1.00  0.00    -0.206 F 
ATOM     88  C   UNL     1       7.254  -9.958  -7.963  1.00  0.00     0.022 A 
BRANCH  85  89
ATOM     89  S   UNL     1       5.077 -10.585  -9.591  1.00  0.00     0.124 S 
ATOM     90  O   UNL     1       3.858 -10.847  -8.833  1.00  0.00    -0.237 OA
ATOM     91  O   UNL     1       4.929  -9.723 -10.759  1.00  0.00    -0.237 OA
ATOM     92  O   UNL     1       5.948 -11.743  -9.783  1.00  0.00    -0.744 OA
ENDBRANCH  85  89
ENDBRANCH  59  82
ENDBRANCH  33  34
ENDBRANCH  26  28
ENDBRANCH  25  26
ENDBRANCH  24  25
ENDBRANCH   1  24
TORSDOF 18
