REMARK SMILES Cc1sc(NC(=O)[C@@H]2[C@@H](C(=O)OCCOC(=O)c3ccc(-c4c5nc(c(-c6cc(S(=O)(=O)[O-])ccc6F)c6ccc([nH]6)c(-c6cc(S(=O)(=O)[O-])ccc6F)c6nc(c(-c7cc(S(=O)(=O)[O-])ccc7F)c7ccc4[nH]7)C=C6)C=C5)cc3)[C@@H]3C=C[C@H]2C3)c(C#N)c1C
REMARK SMILES IDX 13 1 12 2 10 3 11 4 9 5 8 6 84 7 81 8 83 9 85 10 82 11 6 12
REMARK SMILES IDX 5 13 7 15 4 16 1 17 2 18 3 19 89 20 86 21 90 22 87 23 88 24
REMARK SMILES IDX 14 25 15 26 16 27 17 28 18 29 19 30 80 31 20 32 79 33 21 34
REMARK SMILES IDX 22 35 23 36 73 37 24 38 78 39 72 40 74 41 25 42 77 43 71 44
REMARK SMILES IDX 70 45 26 47 58 48 38 49 57 50 39 51 42 52 56 53 75 54 40 55
REMARK SMILES IDX 41 56 55 58 76 59 43 60 27 61 28 62 36 63 29 64 35 65 37 66
REMARK SMILES IDX 34 67 30 68 31 69 32 70 33 71 59 72 60 73 68 74 61 75 67 76
REMARK SMILES IDX 69 77 66 78 62 79 63 80 64 81 65 82 44 83 45 84 53 85 46 86
REMARK SMILES IDX 52 87 54 88 51 89 47 90 48 91 49 92 50 93
REMARK H PARENT 5 14 74 46 42 57
REMARK Flexibility Score: inf
ROOT
ATOM      1  C   UNL     1      -1.613  -5.357  -1.123  1.00  0.00     0.274 C 
ENDROOT
BRANCH   1   2
ATOM      2  O   UNL     1      -1.388  -5.764   0.246  1.00  0.00    -0.462 OA
BRANCH   2   3
ATOM      3  C   UNL     1      -0.166  -6.318   0.484  1.00  0.00     0.310 C 
ATOM      4  O   UNL     1       0.618  -6.610  -0.418  1.00  0.00    -0.252 OA
BRANCH   3   5
ATOM      5  C   UNL     1       0.096  -6.591   1.976  1.00  0.00     0.119 C 
ATOM      6  C   UNL     1       0.631  -5.424   2.897  1.00  0.00     0.100 C 
ATOM      7  C   UNL     1       2.100  -5.915   3.220  1.00  0.00     0.025 C 
ATOM      8  C   UNL     1       1.299  -7.585   1.978  1.00  0.00     0.027 C 
ATOM      9  C   UNL     1       2.068  -7.147   4.091  1.00  0.00    -0.027 C 
ATOM     10  C   UNL     1       2.491  -6.615   1.916  1.00  0.00     0.017 C 
ATOM     11  C   UNL     1       1.524  -8.132   3.363  1.00  0.00    -0.027 C 
BRANCH   6  12
ATOM     12  C   UNL     1      -0.194  -5.176   4.171  1.00  0.00     0.229 C 
ATOM     13  N   UNL     1      -0.719  -3.959   4.495  1.00  0.00    -0.316 N 
ATOM     14  H   UNL     1      -0.595  -3.735   5.446  1.00  0.00     0.170 HD
ATOM     15  O   UNL     1      -0.256  -6.021   5.072  1.00  0.00    -0.274 OA
BRANCH  13  16
ATOM     16  C   UNL     1      -1.383  -2.970   3.798  1.00  0.00     0.113 A 
ATOM     17  C   UNL     1      -2.821  -1.012   0.742  1.00  0.00     0.057 C 
ATOM     18  C   UNL     1      -2.504  -1.564   2.105  1.00  0.00     0.008 A 
ATOM     19  S   UNL     1      -2.121  -3.239   2.302  1.00  0.00    -0.122 S 
ATOM     20  C   UNL     1      -2.374  -0.897   3.322  1.00  0.00    -0.017 A 
ATOM     21  C   UNL     1      -1.676  -1.708   4.277  1.00  0.00     0.090 A 
ATOM     22  C   UNL     1      -2.698   0.533   3.589  1.00  0.00     0.047 C 
BRANCH  21  23
ATOM     23  C   UNL     1      -1.191  -1.224   5.527  1.00  0.00     0.103 C 
ATOM     24  N   UNL     1      -0.704  -0.876   6.540  1.00  0.00    -0.192 NA
ENDBRANCH  21  23
ENDBRANCH  13  16
ENDBRANCH   6  12
ENDBRANCH   3   5
ENDBRANCH   2   3
ENDBRANCH   1   2
BRANCH   1  25
ATOM     25  C   UNL     1      -1.707  -3.832  -1.268  1.00  0.00     0.275 C 
BRANCH  25  26
ATOM     26  O   UNL     1      -0.512  -3.005  -1.259  1.00  0.00    -0.458 OA
BRANCH  26  27
ATOM     27  C   UNL     1       0.281  -2.995  -0.159  1.00  0.00     0.338 C 
ATOM     28  O   UNL     1       0.529  -3.956   0.529  1.00  0.00    -0.246 OA
BRANCH  27  29
ATOM     29  C   UNL     1       0.639  -1.636   0.294  1.00  0.00     0.060 A 
ATOM     30  C   UNL     1       0.734  -1.324   1.657  1.00  0.00     0.016 A 
ATOM     31  C   UNL     1       0.656  -0.609  -0.620  1.00  0.00     0.016 A 
ATOM     32  C   UNL     1       0.427  -0.018   2.085  1.00  0.00     0.010 A 
ATOM     33  C   UNL     1       0.386   0.681  -0.175  1.00  0.00     0.010 A 
ATOM     34  C   UNL     1       0.033   0.964   1.157  1.00  0.00    -0.014 A 
BRANCH  34  35
ATOM     35  C   UNL     1      -0.247   2.391   1.575  1.00  0.00     0.031 A 
ATOM     36  C   UNL     1       1.097   2.960   1.827  1.00  0.00     0.074 A 
ATOM     37  C   UNL     1      -1.366   3.193   1.614  1.00  0.00     0.049 A 
ATOM     38  N   UNL     1       1.769   2.923   2.936  1.00  0.00    -0.248 NA
ATOM     39  C   UNL     1       1.941   3.170   0.635  1.00  0.00     0.031 C 
ATOM     40  C   UNL     1      -2.758   2.874   1.249  1.00  0.00     0.029 A 
ATOM     41  N   UNL     1      -1.521   4.527   2.012  1.00  0.00    -0.354 N 
ATOM     42  C   UNL     1       3.000   3.446   2.557  1.00  0.00     0.074 A 
ATOM     43  C   UNL     1       3.154   3.083   1.185  1.00  0.00     0.031 C 
ATOM     44  C   UNL     1      -3.559   3.954   1.342  1.00  0.00     0.029 A 
ATOM     45  C   UNL     1      -2.785   5.105   1.722  1.00  0.00     0.049 A 
ATOM     46  H   UNL     1      -0.803   5.029   2.461  1.00  0.00     0.167 HD
ATOM     47  C   UNL     1       3.435   4.606   3.126  1.00  0.00     0.034 A 
ATOM     48  C   UNL     1      -3.266   6.393   1.783  1.00  0.00     0.034 A 
ATOM     49  C   UNL     1       2.780   4.799   4.407  1.00  0.00     0.049 A 
ATOM     50  C   UNL     1      -2.391   7.117   2.721  1.00  0.00     0.074 A 
ATOM     51  C   UNL     1       2.634   4.047   5.557  1.00  0.00     0.029 A 
ATOM     52  N   UNL     1       1.779   5.739   4.427  1.00  0.00    -0.354 N 
ATOM     53  N   UNL     1      -2.359   6.857   3.999  1.00  0.00    -0.248 NA
ATOM     54  C   UNL     1      -1.195   7.726   2.171  1.00  0.00     0.031 C 
ATOM     55  C   UNL     1       1.345   4.368   6.073  1.00  0.00     0.029 A 
ATOM     56  C   UNL     1       0.787   5.391   5.306  1.00  0.00     0.049 A 
ATOM     57  H   UNL     1       1.775   6.557   3.880  1.00  0.00     0.167 HD
ATOM     58  C   UNL     1      -1.008   6.803   4.299  1.00  0.00     0.074 A 
ATOM     59  C   UNL     1      -0.346   7.450   3.164  1.00  0.00     0.031 C 
ATOM     60  C   UNL     1      -0.550   5.967   5.278  1.00  0.00     0.034 A 
BRANCH  47  61
ATOM     61  C   UNL     1       4.005   5.773   2.305  1.00  0.00     0.023 A 
ATOM     62  C   UNL     1       4.448   6.885   3.035  1.00  0.00     0.031 A 
ATOM     63  C   UNL     1       3.928   5.984   0.896  1.00  0.00     0.131 A 
ATOM     64  C   UNL     1       4.701   8.116   2.400  1.00  0.00     0.055 A 
ATOM     65  C   UNL     1       4.220   7.195   0.269  1.00  0.00     0.041 A 
ATOM     66  F   UNL     1       3.513   5.075   0.012  1.00  0.00    -0.206 F 
ATOM     67  C   UNL     1       4.590   8.281   1.023  1.00  0.00     0.022 A 
BRANCH  64  68
ATOM     68  S   UNL     1       5.050   9.554   3.431  1.00  0.00     0.124 S 
ATOM     69  O   UNL     1       3.833   9.631   4.229  1.00  0.00    -0.237 OA
ATOM     70  O   UNL     1       6.261   9.132   4.127  1.00  0.00    -0.237 OA
ATOM     71  O   UNL     1       5.234  10.628   2.457  1.00  0.00    -0.744 OA
ENDBRANCH  64  68
ENDBRANCH  47  61
BRANCH  48  72
ATOM     72  C   UNL     1      -4.311   7.075   0.909  1.00  0.00     0.023 A 
ATOM     73  C   UNL     1      -4.839   8.386   1.119  1.00  0.00     0.031 A 
ATOM     74  C   UNL     1      -4.652   6.492  -0.335  1.00  0.00     0.131 A 
ATOM     75  C   UNL     1      -5.638   9.025   0.118  1.00  0.00     0.055 A 
ATOM     76  C   UNL     1      -5.438   7.120  -1.306  1.00  0.00     0.041 A 
ATOM     77  F   UNL     1      -4.166   5.302  -0.710  1.00  0.00    -0.206 F 
ATOM     78  C   UNL     1      -5.920   8.394  -1.093  1.00  0.00     0.022 A 
BRANCH  75  79
ATOM     79  S   UNL     1      -6.270  10.741   0.295  1.00  0.00     0.124 S 
ATOM     80  O   UNL     1      -7.356  10.578   1.254  1.00  0.00    -0.237 OA
ATOM     81  O   UNL     1      -5.096  11.471   0.756  1.00  0.00    -0.237 OA
ATOM     82  O   UNL     1      -6.704  11.089  -1.061  1.00  0.00    -0.744 OA
ENDBRANCH  75  79
ENDBRANCH  48  72
BRANCH  60  83
ATOM     83  C   UNL     1      -1.507   5.550   6.383  1.00  0.00     0.023 A 
ATOM     84  C   UNL     1      -2.705   4.812   6.240  1.00  0.00     0.031 A 
ATOM     85  C   UNL     1      -1.099   5.875   7.692  1.00  0.00     0.131 A 
ATOM     86  C   UNL     1      -3.431   4.425   7.391  1.00  0.00     0.055 A 
ATOM     87  C   UNL     1      -1.802   5.469   8.822  1.00  0.00     0.041 A 
ATOM     88  F   UNL     1       0.029   6.577   7.895  1.00  0.00    -0.206 F 
ATOM     89  C   UNL     1      -2.975   4.743   8.676  1.00  0.00     0.022 A 
BRANCH  86  90
ATOM     90  S   UNL     1      -5.011   3.519   7.249  1.00  0.00     0.124 S 
ATOM     91  O   UNL     1      -5.751   4.287   6.255  1.00  0.00    -0.237 OA
ATOM     92  O   UNL     1      -4.577   2.189   6.828  1.00  0.00    -0.237 OA
ATOM     93  O   UNL     1      -5.565   3.581   8.603  1.00  0.00    -0.744 OA
ENDBRANCH  86  90
ENDBRANCH  60  83
ENDBRANCH  34  35
ENDBRANCH  27  29
ENDBRANCH  26  27
ENDBRANCH  25  26
ENDBRANCH   1  25
TORSDOF 17
