REMARK SMILES C[C@@](O)(c1ccc(Cl)cc1Cl)[C@@H](F)C(=O)OCCOC(=O)c1ccc(-c2c3nc(c(-c4cc(S(=O)(=O)[O-])ccc4F)c4ccc([nH]4)c(-c4cc(S(=O)(=O)[O-])ccc4F)c4nc(c(-c5cc(S(=O)(=O)[O-])ccc5F)c5ccc2[nH]5)C=C4)C=C3)cc1
REMARK SMILES IDX 18 1 17 2 16 3 14 4 15 5 12 6 13 7 2 8 1 9 3 10 4 12 5 13
REMARK SMILES IDX 10 14 6 15 9 16 11 17 7 18 8 19 19 20 20 21 21 22 22 23
REMARK SMILES IDX 23 24 84 25 24 26 83 27 25 28 26 29 27 30 77 31 28 32 82 33
REMARK SMILES IDX 76 34 78 35 29 36 81 37 75 38 74 39 30 41 62 42 42 43 61 44
REMARK SMILES IDX 43 45 46 46 60 47 79 48 44 49 45 50 59 52 80 53 47 54 31 55
REMARK SMILES IDX 32 56 40 57 33 58 39 59 41 60 38 61 34 62 35 63 36 64 37 65
REMARK SMILES IDX 63 66 64 67 72 68 65 69 71 70 73 71 70 72 66 73 67 74 68 75
REMARK SMILES IDX 69 76 48 77 49 78 57 79 50 80 56 81 58 82 55 83 51 84 52 85
REMARK SMILES IDX 53 86 54 87
REMARK H PARENT 3 11 78 40 46 51
REMARK Flexibility Score: inf
ROOT
ATOM      1  C   UNL     1       5.328  -0.461   1.942  1.00  0.00     0.275 C 
ENDROOT
BRANCH   1   2
ATOM      2  C   UNL     1       4.702  -1.502   1.010  1.00  0.00     0.274 C 
BRANCH   2   3
ATOM      3  O   UNL     1       3.290  -1.284   0.805  1.00  0.00    -0.460 OA
BRANCH   3   4
ATOM      4  C   UNL     1       2.449  -2.046   1.554  1.00  0.00     0.344 C 
ATOM      5  O   UNL     1       2.836  -2.873   2.376  1.00  0.00    -0.249 OA
BRANCH   4   6
ATOM      6  C   UNL     1       0.977  -1.876   1.198  1.00  0.00     0.311 C 
ATOM      7  F   UNL     1       0.674  -2.589   0.067  1.00  0.00    -0.231 F 
BRANCH   6   8
ATOM      8  C   UNL     1       0.431  -0.421   1.059  1.00  0.00     0.130 C 
ATOM      9  C   UNL     1       0.942   0.207  -0.251  1.00  0.00     0.051 C 
BRANCH   8  10
ATOM     10  O   UNL     1       0.864   0.307   2.206  1.00  0.00    -0.382 OA
ATOM     11  H   UNL     1       0.540   1.220   2.151  1.00  0.00     0.212 HD
ENDBRANCH   8  10
BRANCH   8  12
ATOM     12  C   UNL     1      -1.114  -0.320   1.127  1.00  0.00     0.006 A 
ATOM     13  C   UNL     1      -1.922  -1.479   1.101  1.00  0.00     0.010 A 
ATOM     14  C   UNL     1      -1.794   0.919   1.274  1.00  0.00     0.048 A 
ATOM     15  C   UNL     1      -3.314  -1.414   1.231  1.00  0.00     0.021 A 
ATOM     16  C   UNL     1      -3.191   0.980   1.387  1.00  0.00     0.041 A 
ATOM     17  Cl  UNL     1      -0.992   2.458   1.335  1.00  0.00    -0.084 Cl
ATOM     18  C   UNL     1      -3.942  -0.185   1.369  1.00  0.00     0.042 A 
ATOM     19  Cl  UNL     1      -5.655  -0.107   1.506  1.00  0.00    -0.084 Cl
ENDBRANCH   8  12
ENDBRANCH   6   8
ENDBRANCH   4   6
ENDBRANCH   3   4
ENDBRANCH   2   3
ENDBRANCH   1   2
BRANCH   1  20
ATOM     20  O   UNL     1       4.832  -0.578   3.287  1.00  0.00    -0.458 OA
BRANCH  20  21
ATOM     21  C   UNL     1       3.781   0.228   3.574  1.00  0.00     0.338 C 
ATOM     22  O   UNL     1       3.267   1.038   2.819  1.00  0.00    -0.246 OA
BRANCH  21  23
ATOM     23  C   UNL     1       3.250  -0.110   4.907  1.00  0.00     0.060 A 
ATOM     24  C   UNL     1       2.016  -0.759   4.993  1.00  0.00     0.016 A 
ATOM     25  C   UNL     1       3.926   0.272   6.066  1.00  0.00     0.016 A 
ATOM     26  C   UNL     1       1.439  -1.013   6.235  1.00  0.00     0.010 A 
ATOM     27  C   UNL     1       3.353   0.002   7.315  1.00  0.00     0.010 A 
ATOM     28  C   UNL     1       2.100  -0.631   7.407  1.00  0.00    -0.014 A 
BRANCH  28  29
ATOM     29  C   UNL     1       1.455  -0.858   8.724  1.00  0.00     0.031 A 
ATOM     30  C   UNL     1       0.888   0.304   9.488  1.00  0.00     0.074 A 
ATOM     31  C   UNL     1       1.367  -2.106   9.223  1.00  0.00     0.049 A 
ATOM     32  N   UNL     1       0.377   0.335  10.692  1.00  0.00    -0.248 NA
ATOM     33  C   UNL     1       0.905   1.606   8.805  1.00  0.00     0.031 C 
ATOM     34  C   UNL     1       1.836  -3.317   8.550  1.00  0.00     0.029 A 
ATOM     35  N   UNL     1       0.858  -2.560  10.413  1.00  0.00    -0.354 N 
ATOM     36  C   UNL     1       0.028   1.661  10.922  1.00  0.00     0.074 A 
ATOM     37  C   UNL     1       0.409   2.405   9.739  1.00  0.00     0.031 C 
ATOM     38  C   UNL     1       1.601  -4.376   9.341  1.00  0.00     0.029 A 
ATOM     39  C   UNL     1       1.012  -3.915  10.595  1.00  0.00     0.049 A 
ATOM     40  H   UNL     1       0.424  -1.973  11.074  1.00  0.00     0.167 HD
ATOM     41  C   UNL     1      -0.556   2.204  12.020  1.00  0.00     0.034 A 
ATOM     42  C   UNL     1       0.745  -4.689  11.665  1.00  0.00     0.034 A 
ATOM     43  C   UNL     1      -0.933   1.446  13.190  1.00  0.00     0.049 A 
ATOM     44  C   UNL     1       0.156  -4.053  12.899  1.00  0.00     0.074 A 
ATOM     45  C   UNL     1      -1.541   1.893  14.350  1.00  0.00     0.029 A 
ATOM     46  N   UNL     1      -0.732   0.080  13.352  1.00  0.00    -0.354 N 
ATOM     47  N   UNL     1      -0.149  -2.794  13.114  1.00  0.00    -0.248 NA
ATOM     48  C   UNL     1      -0.125  -4.944  14.032  1.00  0.00     0.031 C 
ATOM     49  C   UNL     1      -1.651   0.815  15.235  1.00  0.00     0.029 A 
ATOM     50  C   UNL     1      -1.176  -0.323  14.603  1.00  0.00     0.049 A 
ATOM     51  H   UNL     1      -0.331  -0.515  12.678  1.00  0.00     0.167 HD
ATOM     52  C   UNL     1      -0.679  -2.747  14.400  1.00  0.00     0.074 A 
ATOM     53  C   UNL     1      -0.666  -4.105  14.905  1.00  0.00     0.031 C 
ATOM     54  C   UNL     1      -1.140  -1.679  15.100  1.00  0.00     0.034 A 
BRANCH  41  55
ATOM     55  C   UNL     1      -0.764   3.699  12.025  1.00  0.00     0.023 A 
ATOM     56  C   UNL     1      -1.648   4.332  11.134  1.00  0.00     0.031 A 
ATOM     57  C   UNL     1      -0.041   4.507  12.922  1.00  0.00     0.131 A 
ATOM     58  C   UNL     1      -1.738   5.733  11.115  1.00  0.00     0.055 A 
ATOM     59  C   UNL     1      -0.190   5.895  12.947  1.00  0.00     0.041 A 
ATOM     60  F   UNL     1       0.833   3.960  13.781  1.00  0.00    -0.206 F 
ATOM     61  C   UNL     1      -1.032   6.517  12.031  1.00  0.00     0.022 A 
BRANCH  58  62
ATOM     62  S   UNL     1      -2.690   6.526   9.790  1.00  0.00     0.124 S 
ATOM     63  O   UNL     1      -2.002   6.037   8.598  1.00  0.00    -0.237 OA
ATOM     64  O   UNL     1      -4.034   6.006  10.013  1.00  0.00    -0.237 OA
ATOM     65  O   UNL     1      -2.522   7.954  10.055  1.00  0.00    -0.744 OA
ENDBRANCH  58  62
ENDBRANCH  41  55
BRANCH  42  66
ATOM     66  C   UNL     1       1.083  -6.141  11.646  1.00  0.00     0.023 A 
ATOM     67  C   UNL     1       0.084  -7.123  11.717  1.00  0.00     0.031 A 
ATOM     68  C   UNL     1       2.424  -6.563  11.597  1.00  0.00     0.131 A 
ATOM     69  C   UNL     1       0.443  -8.479  11.777  1.00  0.00     0.055 A 
ATOM     70  C   UNL     1       2.773  -7.914  11.608  1.00  0.00     0.041 A 
ATOM     71  F   UNL     1       3.418  -5.662  11.529  1.00  0.00    -0.206 F 
ATOM     72  C   UNL     1       1.779  -8.881  11.710  1.00  0.00     0.022 A 
BRANCH  69  73
ATOM     73  S   UNL     1      -0.864  -9.714  12.020  1.00  0.00     0.124 S 
ATOM     74  O   UNL     1      -1.453  -9.280  13.282  1.00  0.00    -0.237 OA
ATOM     75  O   UNL     1      -1.686  -9.524  10.829  1.00  0.00    -0.237 OA
ATOM     76  O   UNL     1      -0.132 -10.978  12.074  1.00  0.00    -0.744 OA
ENDBRANCH  69  73
ENDBRANCH  42  66
BRANCH  54  77
ATOM     77  C   UNL     1      -1.704  -1.955  16.472  1.00  0.00     0.023 A 
ATOM     78  C   UNL     1      -0.888  -2.371  17.538  1.00  0.00     0.031 A 
ATOM     79  C   UNL     1      -3.084  -1.819  16.707  1.00  0.00     0.131 A 
ATOM     80  C   UNL     1      -1.465  -2.687  18.777  1.00  0.00     0.055 A 
ATOM     81  C   UNL     1      -3.645  -2.082  17.958  1.00  0.00     0.041 A 
ATOM     82  F   UNL     1      -3.909  -1.427  15.724  1.00  0.00    -0.206 F 
ATOM     83  C   UNL     1      -2.836  -2.531  18.998  1.00  0.00     0.022 A 
BRANCH  80  84
ATOM     84  S   UNL     1      -0.412  -3.389  20.077  1.00  0.00     0.124 S 
ATOM     85  O   UNL     1       0.111  -4.588  19.430  1.00  0.00    -0.237 OA
ATOM     86  O   UNL     1       0.552  -2.319  20.311  1.00  0.00    -0.237 OA
ATOM     87  O   UNL     1      -1.342  -3.635  21.178  1.00  0.00    -0.744 OA
ENDBRANCH  80  84
ENDBRANCH  54  77
ENDBRANCH  28  29
ENDBRANCH  21  23
ENDBRANCH  20  21
ENDBRANCH   1  20
TORSDOF 17
