REMARK SMILES COc1cc(C)cc2c1O[C@H](C(F)(F)F)C(C(=O)OCCOC(=O)c1ccc(-c3c4nc(c(-c5cc(S(=O)(=O)[O-])ccc5F)c5ccc([nH]5)c(-c5cc(S(=O)(=O)[O-])ccc5F)c5nc(c(-c6cc(S(=O)(=O)[O-])ccc6F)c6ccc3[nH]6)C=C5)C=C4)cc1)=C2
REMARK SMILES IDX 21 1 20 2 19 3 17 4 18 5 16 6 3 7 4 8 9 9 5 10 8 11 10 12
REMARK SMILES IDX 6 13 7 14 88 15 11 16 2 17 1 18 12 19 13 20 14 21 15 22
REMARK SMILES IDX 22 23 23 24 24 25 25 26 26 27 87 28 27 29 86 30 28 31 29 32
REMARK SMILES IDX 30 33 80 34 31 35 85 36 79 37 81 38 32 39 84 40 78 41 77 42
REMARK SMILES IDX 33 44 65 45 45 46 64 47 46 48 49 49 63 50 82 51 47 52 48 53
REMARK SMILES IDX 62 55 83 56 50 57 34 58 35 59 43 60 36 61 42 62 44 63 41 64
REMARK SMILES IDX 37 65 38 66 39 67 40 68 66 69 67 70 75 71 68 72 74 73 76 74
REMARK SMILES IDX 73 75 69 76 70 77 71 78 72 79 51 80 52 81 60 82 53 83 59 84
REMARK SMILES IDX 61 85 58 86 54 87 55 88 56 89 57 90
REMARK H PARENT 81 43 49 54
REMARK Flexibility Score: inf
ROOT
ATOM      1  C   UNL     1      -5.708   4.829   5.540  1.00  0.00     0.275 C 
ENDROOT
BRANCH   1   2
ATOM      2  C   UNL     1      -5.489   5.240   4.082  1.00  0.00     0.275 C 
BRANCH   2   3
ATOM      3  O   UNL     1      -4.427   4.480   3.464  1.00  0.00    -0.459 OA
BRANCH   3   4
ATOM      4  C   UNL     1      -3.264   5.147   3.274  1.00  0.00     0.338 C 
ATOM      5  O   UNL     1      -3.040   6.310   3.573  1.00  0.00    -0.246 OA
BRANCH   4   6
ATOM      6  C   UNL     1      -2.245   4.262   2.677  1.00  0.00     0.087 C 
ATOM      7  C   UNL     1       0.784   1.997   0.879  1.00  0.00     0.161 A 
ATOM      8  C   UNL     1       2.088   2.068   1.394  1.00  0.00     0.054 A 
ATOM      9  C   UNL     1      -0.254   2.724   1.473  1.00  0.00     0.169 A 
ATOM     10  C   UNL     1       2.359   2.819   2.542  1.00  0.00    -0.047 A 
ATOM     11  C   UNL     1       0.025   3.492   2.599  1.00  0.00     0.021 A 
ATOM     12  O   UNL     1      -1.512   2.619   0.938  1.00  0.00    -0.471 OA
ATOM     13  C   UNL     1       3.737   2.896   3.132  1.00  0.00     0.044 C 
ATOM     14  C   UNL     1       1.315   3.522   3.146  1.00  0.00     0.015 A 
ATOM     15  C   UNL     1      -1.016   4.293   3.202  1.00  0.00     0.027 C 
ATOM     16  C   UNL     1      -2.575   3.476   1.441  1.00  0.00     0.316 C 
BRANCH   7  17
ATOM     17  O   UNL     1       0.504   1.283  -0.260  1.00  0.00    -0.493 OA
ATOM     18  C   UNL     1       0.904  -0.080  -0.146  1.00  0.00     0.278 C 
ENDBRANCH   7  17
BRANCH  16  19
ATOM     19  C   UNL     1      -3.030   4.411   0.308  1.00  0.00     0.430 C 
ATOM     20  F   UNL     1      -3.321   3.723  -0.822  1.00  0.00    -0.167 F 
ATOM     21  F   UNL     1      -4.161   5.082   0.643  1.00  0.00    -0.167 F 
ATOM     22  F   UNL     1      -2.095   5.335  -0.007  1.00  0.00    -0.167 F 
ENDBRANCH  16  19
ENDBRANCH   4   6
ENDBRANCH   3   4
ENDBRANCH   2   3
ENDBRANCH   1   2
BRANCH   1  23
ATOM     23  O   UNL     1      -4.593   5.233   6.353  1.00  0.00    -0.458 OA
BRANCH  23  24
ATOM     24  C   UNL     1      -3.754   4.237   6.719  1.00  0.00     0.338 C 
ATOM     25  O   UNL     1      -3.862   3.049   6.470  1.00  0.00    -0.246 OA
BRANCH  24  26
ATOM     26  C   UNL     1      -2.578   4.815   7.384  1.00  0.00     0.060 A 
ATOM     27  C   UNL     1      -2.374   4.711   8.752  1.00  0.00     0.016 A 
ATOM     28  C   UNL     1      -1.587   5.356   6.575  1.00  0.00     0.016 A 
ATOM     29  C   UNL     1      -1.167   5.177   9.294  1.00  0.00     0.010 A 
ATOM     30  C   UNL     1      -0.335   5.669   7.090  1.00  0.00     0.010 A 
ATOM     31  C   UNL     1      -0.114   5.630   8.468  1.00  0.00    -0.014 A 
BRANCH  31  32
ATOM     32  C   UNL     1       1.201   6.057   9.034  1.00  0.00     0.031 A 
ATOM     33  C   UNL     1       1.790   7.417   8.722  1.00  0.00     0.074 A 
ATOM     34  C   UNL     1       1.897   5.200   9.812  1.00  0.00     0.049 A 
ATOM     35  N   UNL     1       2.888   7.962   9.182  1.00  0.00    -0.248 NA
ATOM     36  C   UNL     1       1.089   8.258   7.736  1.00  0.00     0.031 C 
ATOM     37  C   UNL     1       1.509   3.816  10.088  1.00  0.00     0.029 A 
ATOM     38  N   UNL     1       3.058   5.364  10.530  1.00  0.00    -0.354 N 
ATOM     39  C   UNL     1       3.015   9.185   8.527  1.00  0.00     0.074 A 
ATOM     40  C   UNL     1       1.934   9.265   7.576  1.00  0.00     0.031 C 
ATOM     41  C   UNL     1       2.354   3.291  10.987  1.00  0.00     0.029 A 
ATOM     42  C   UNL     1       3.377   4.279  11.318  1.00  0.00     0.049 A 
ATOM     43  H   UNL     1       3.608   6.179  10.486  1.00  0.00     0.167 HD
ATOM     44  C   UNL     1       3.917  10.175   8.735  1.00  0.00     0.034 A 
ATOM     45  C   UNL     1       4.359   4.106  12.228  1.00  0.00     0.034 A 
ATOM     46  C   UNL     1       4.944  10.113   9.742  1.00  0.00     0.049 A 
ATOM     47  C   UNL     1       5.300   5.252  12.508  1.00  0.00     0.074 A 
ATOM     48  C   UNL     1       5.838  11.102  10.109  1.00  0.00     0.029 A 
ATOM     49  N   UNL     1       5.203   9.017  10.551  1.00  0.00    -0.354 N 
ATOM     50  N   UNL     1       5.320   6.450  11.974  1.00  0.00    -0.248 NA
ATOM     51  C   UNL     1       6.340   5.034  13.523  1.00  0.00     0.031 C 
ATOM     52  C   UNL     1       6.678  10.585  11.094  1.00  0.00     0.029 A 
ATOM     53  C   UNL     1       6.258   9.300  11.401  1.00  0.00     0.049 A 
ATOM     54  H   UNL     1       4.711   8.165  10.524  1.00  0.00     0.167 HD
ATOM     55  C   UNL     1       6.352   7.137  12.608  1.00  0.00     0.074 A 
ATOM     56  C   UNL     1       6.916   6.228  13.584  1.00  0.00     0.031 C 
ATOM     57  C   UNL     1       6.795   8.401  12.395  1.00  0.00     0.034 A 
BRANCH  44  58
ATOM     58  C   UNL     1       3.817  11.446   7.921  1.00  0.00     0.023 A 
ATOM     59  C   UNL     1       4.905  11.866   7.131  1.00  0.00     0.031 A 
ATOM     60  C   UNL     1       2.716  12.313   8.044  1.00  0.00     0.131 A 
ATOM     61  C   UNL     1       4.883  13.132   6.529  1.00  0.00     0.055 A 
ATOM     62  C   UNL     1       2.676  13.550   7.398  1.00  0.00     0.041 A 
ATOM     63  F   UNL     1       1.656  11.969   8.794  1.00  0.00    -0.206 F 
ATOM     64  C   UNL     1       3.770  13.970   6.649  1.00  0.00     0.022 A 
BRANCH  61  65
ATOM     65  S   UNL     1       6.326  13.773   5.636  1.00  0.00     0.124 S 
ATOM     66  O   UNL     1       5.761  14.058   4.319  1.00  0.00    -0.237 OA
ATOM     67  O   UNL     1       6.677  14.947   6.430  1.00  0.00    -0.237 OA
ATOM     68  O   UNL     1       7.282  12.673   5.676  1.00  0.00    -0.744 OA
ENDBRANCH  61  65
ENDBRANCH  44  58
BRANCH  45  69
ATOM     69  C   UNL     1       4.409   2.837  13.016  1.00  0.00     0.023 A 
ATOM     70  C   UNL     1       4.604   1.593  12.389  1.00  0.00     0.031 A 
ATOM     71  C   UNL     1       4.146   2.844  14.397  1.00  0.00     0.131 A 
ATOM     72  C   UNL     1       4.463   0.410  13.127  1.00  0.00     0.055 A 
ATOM     73  C   UNL     1       4.081   1.666  15.144  1.00  0.00     0.041 A 
ATOM     74  F   UNL     1       3.935   4.003  15.040  1.00  0.00    -0.206 F 
ATOM     75  C   UNL     1       4.221   0.439  14.504  1.00  0.00     0.022 A 
BRANCH  72  76
ATOM     76  S   UNL     1       4.443  -1.206  12.301  1.00  0.00     0.124 S 
ATOM     77  O   UNL     1       5.585  -1.875  12.913  1.00  0.00    -0.237 OA
ATOM     78  O   UNL     1       3.130  -1.721  12.684  1.00  0.00    -0.237 OA
ATOM     79  O   UNL     1       4.588  -0.871  10.888  1.00  0.00    -0.744 OA
ENDBRANCH  72  76
ENDBRANCH  45  69
BRANCH  57  80
ATOM     80  C   UNL     1       7.939   8.926  13.228  1.00  0.00     0.023 A 
ATOM     81  C   UNL     1       7.747  10.058  14.044  1.00  0.00     0.031 A 
ATOM     82  C   UNL     1       9.245   8.429  13.077  1.00  0.00     0.131 A 
ATOM     83  C   UNL     1       8.849  10.687  14.636  1.00  0.00     0.055 A 
ATOM     84  C   UNL     1      10.333   9.027  13.713  1.00  0.00     0.041 A 
ATOM     85  F   UNL     1       9.482   7.362  12.296  1.00  0.00    -0.206 F 
ATOM     86  C   UNL     1      10.140  10.172  14.482  1.00  0.00     0.022 A 
BRANCH  83  87
ATOM     87  S   UNL     1       8.663  12.253  15.533  1.00  0.00     0.124 S 
ATOM     88  O   UNL     1       9.115  11.888  16.873  1.00  0.00    -0.237 OA
ATOM     89  O   UNL     1       9.557  13.139  14.793  1.00  0.00    -0.237 OA
ATOM     90  O   UNL     1       7.240  12.558  15.419  1.00  0.00    -0.744 OA
ENDBRANCH  83  87
ENDBRANCH  57  80
ENDBRANCH  31  32
ENDBRANCH  24  26
ENDBRANCH  23  24
ENDBRANCH   1  23
TORSDOF 16
