REMARK SMILES C[C@H](c1ccc(C(=O)OCCOC(=O)c2ccc(-c3c4nc(c(-c5cc(S(=O)(=O)[O-])ccc5F)c5ccc([nH]5)c(-c5cc(S(=O)(=O)[O-])ccc5F)c5nc(c(-c6cc(S(=O)(=O)[O-])ccc6F)c6ccc3[nH]6)C=C5)C=C4)cc2)o1)[NH+]1Cc2ccccc2C1
REMARK SMILES IDX 11 1 10 2 9 3 7 4 8 5 6 6 3 7 4 8 78 9 5 10 2 11 1 12 79 13
REMARK SMILES IDX 80 14 87 15 81 17 86 18 82 19 85 20 83 21 84 22 12 23 13 24
REMARK SMILES IDX 14 25 15 26 16 27 77 28 17 29 76 30 18 31 19 32 20 33 70 34
REMARK SMILES IDX 21 35 75 36 69 37 71 38 22 39 74 40 68 41 67 42 23 44 55 45
REMARK SMILES IDX 35 46 54 47 36 48 39 49 53 50 72 51 37 52 38 53 52 55 73 56
REMARK SMILES IDX 40 57 24 58 25 59 33 60 26 61 32 62 34 63 31 64 27 65 28 66
REMARK SMILES IDX 29 67 30 68 56 69 57 70 65 71 58 72 64 73 66 74 63 75 59 76
REMARK SMILES IDX 60 77 61 78 62 79 41 80 42 81 50 82 43 83 49 84 51 85 48 86
REMARK SMILES IDX 44 87 45 88 46 89 47 90
REMARK H PARENT 79 16 71 43 39 54
REMARK Flexibility Score: inf
ROOT
ATOM      1  C   UNL     1       4.893  -1.589  -4.661  1.00  0.00     0.275 C 
ENDROOT
BRANCH   1   2
ATOM      2  C   UNL     1       3.463  -1.565  -5.212  1.00  0.00     0.275 C 
BRANCH   2   3
ATOM      3  O   UNL     1       2.626  -0.761  -4.369  1.00  0.00    -0.456 OA
BRANCH   3   4
ATOM      4  C   UNL     1       1.800  -1.422  -3.495  1.00  0.00     0.374 C 
ATOM      5  O   UNL     1       1.523  -2.603  -3.565  1.00  0.00    -0.242 OA
BRANCH   4   6
ATOM      6  C   UNL     1       1.450  -0.503  -2.432  1.00  0.00     0.212 A 
ATOM      7  C   UNL     1       0.761   0.051  -0.409  1.00  0.00     0.162 A 
ATOM      8  C   UNL     1       1.524   1.104  -0.889  1.00  0.00     0.053 A 
ATOM      9  O   UNL     1       0.720  -0.944  -1.349  1.00  0.00    -0.448 OA
ATOM     10  C   UNL     1       1.851   0.800  -2.219  1.00  0.00     0.059 A 
BRANCH   7  11
ATOM     11  C   UNL     1       0.019  -0.145   0.913  1.00  0.00     0.248 C 
ATOM     12  C   UNL     1       1.014   0.154   2.058  1.00  0.00     0.084 C 
BRANCH  11  13
ATOM     13  N   UNL     1      -1.296   0.569   0.887  1.00  0.00    -0.319 N 
ATOM     14  C   UNL     1      -1.174   1.966   0.445  1.00  0.00     0.300 C 
ATOM     15  C   UNL     1      -2.024   0.690   2.204  1.00  0.00     0.300 C 
ATOM     16  H   UNL     1      -1.817  -0.032   0.247  1.00  0.00     0.349 HD
ATOM     17  C   UNL     1      -1.050   2.742   1.698  1.00  0.00     0.015 A 
ATOM     18  C   UNL     1      -1.900   2.143   2.611  1.00  0.00     0.015 A 
ATOM     19  C   UNL     1      -0.182   3.729   2.101  1.00  0.00     0.010 A 
ATOM     20  C   UNL     1      -2.285   2.817   3.750  1.00  0.00     0.010 A 
ATOM     21  C   UNL     1      -0.404   4.303   3.350  1.00  0.00     0.001 A 
ATOM     22  C   UNL     1      -1.530   3.936   4.108  1.00  0.00     0.001 A 
ENDBRANCH  11  13
ENDBRANCH   7  11
ENDBRANCH   4   6
ENDBRANCH   3   4
ENDBRANCH   2   3
ENDBRANCH   1   2
BRANCH   1  23
ATOM     23  O   UNL     1       4.976  -2.362  -3.447  1.00  0.00    -0.458 OA
BRANCH  23  24
ATOM     24  C   UNL     1       4.920  -1.648  -2.295  1.00  0.00     0.338 C 
ATOM     25  O   UNL     1       4.838  -0.436  -2.191  1.00  0.00    -0.246 OA
BRANCH  24  26
ATOM     26  C   UNL     1       4.848  -2.569  -1.147  1.00  0.00     0.060 A 
ATOM     27  C   UNL     1       3.694  -2.558  -0.365  1.00  0.00     0.016 A 
ATOM     28  C   UNL     1       5.924  -3.386  -0.800  1.00  0.00     0.016 A 
ATOM     29  C   UNL     1       3.602  -3.358   0.770  1.00  0.00     0.010 A 
ATOM     30  C   UNL     1       5.827  -4.202   0.335  1.00  0.00     0.010 A 
ATOM     31  C   UNL     1       4.668  -4.189   1.132  1.00  0.00    -0.014 A 
BRANCH  31  32
ATOM     32  C   UNL     1       4.567  -5.016   2.362  1.00  0.00     0.031 A 
ATOM     33  C   UNL     1       5.403  -4.678   3.564  1.00  0.00     0.074 A 
ATOM     34  C   UNL     1       3.704  -6.049   2.405  1.00  0.00     0.049 A 
ATOM     35  N   UNL     1       5.517  -5.316   4.701  1.00  0.00    -0.248 NA
ATOM     36  C   UNL     1       6.221  -3.461   3.471  1.00  0.00     0.031 C 
ATOM     37  C   UNL     1       2.801  -6.437   1.320  1.00  0.00     0.029 A 
ATOM     38  N   UNL     1       3.440  -6.960   3.398  1.00  0.00    -0.354 N 
ATOM     39  C   UNL     1       6.433  -4.590   5.455  1.00  0.00     0.074 A 
ATOM     40  C   UNL     1       6.865  -3.480   4.629  1.00  0.00     0.031 C 
ATOM     41  C   UNL     1       2.079  -7.500   1.709  1.00  0.00     0.029 A 
ATOM     42  C   UNL     1       2.512  -7.910   3.041  1.00  0.00     0.049 A 
ATOM     43  H   UNL     1       3.875  -6.936   4.281  1.00  0.00     0.167 HD
ATOM     44  C   UNL     1       6.866  -4.827   6.718  1.00  0.00     0.034 A 
ATOM     45  C   UNL     1       2.084  -9.008   3.696  1.00  0.00     0.034 A 
ATOM     46  C   UNL     1       6.422  -5.943   7.521  1.00  0.00     0.049 A 
ATOM     47  C   UNL     1       2.650  -9.303   5.064  1.00  0.00     0.074 A 
ATOM     48  C   UNL     1       6.788  -6.274   8.815  1.00  0.00     0.029 A 
ATOM     49  N   UNL     1       5.521  -6.918   7.106  1.00  0.00    -0.354 N 
ATOM     50  N   UNL     1       3.527  -8.617   5.761  1.00  0.00    -0.248 NA
ATOM     51  C   UNL     1       2.166 -10.517   5.733  1.00  0.00     0.031 C 
ATOM     52  C   UNL     1       6.175  -7.486   9.150  1.00  0.00     0.029 A 
ATOM     53  C   UNL     1       5.351  -7.868   8.104  1.00  0.00     0.049 A 
ATOM     54  H   UNL     1       5.070  -6.933   6.231  1.00  0.00     0.167 HD
ATOM     55  C   UNL     1       3.675  -9.302   6.964  1.00  0.00     0.074 A 
ATOM     56  C   UNL     1       2.785 -10.444   6.902  1.00  0.00     0.031 C 
ATOM     57  C   UNL     1       4.469  -9.010   8.026  1.00  0.00     0.034 A 
BRANCH  44  58
ATOM     58  C   UNL     1       7.916  -3.898   7.281  1.00  0.00     0.023 A 
ATOM     59  C   UNL     1       7.666  -2.531   7.493  1.00  0.00     0.031 A 
ATOM     60  C   UNL     1       9.200  -4.385   7.588  1.00  0.00     0.131 A 
ATOM     61  C   UNL     1       8.702  -1.688   7.926  1.00  0.00     0.055 A 
ATOM     62  C   UNL     1      10.202  -3.557   8.098  1.00  0.00     0.041 A 
ATOM     63  F   UNL     1       9.508  -5.676   7.385  1.00  0.00    -0.206 F 
ATOM     64  C   UNL     1       9.961  -2.196   8.255  1.00  0.00     0.022 A 
BRANCH  61  65
ATOM     65  S   UNL     1       8.427   0.105   7.910  1.00  0.00     0.124 S 
ATOM     66  O   UNL     1       8.082   0.340   6.510  1.00  0.00    -0.237 OA
ATOM     67  O   UNL     1       7.341   0.267   8.870  1.00  0.00    -0.237 OA
ATOM     68  O   UNL     1       9.716   0.655   8.326  1.00  0.00    -0.744 OA
ENDBRANCH  61  65
ENDBRANCH  44  58
BRANCH  45  69
ATOM     69  C   UNL     1       1.112  -9.940   3.055  1.00  0.00     0.023 A 
ATOM     70  C   UNL     1      -0.151 -10.179   3.619  1.00  0.00     0.031 A 
ATOM     71  C   UNL     1       1.454 -10.647   1.887  1.00  0.00     0.131 A 
ATOM     72  C   UNL     1      -1.006 -11.131   3.043  1.00  0.00     0.055 A 
ATOM     73  C   UNL     1       0.575 -11.547   1.282  1.00  0.00     0.041 A 
ATOM     74  F   UNL     1       2.652 -10.465   1.308  1.00  0.00    -0.206 F 
ATOM     75  C   UNL     1      -0.659 -11.803   1.869  1.00  0.00     0.022 A 
BRANCH  72  76
ATOM     76  S   UNL     1      -2.545 -11.553   3.907  1.00  0.00     0.124 S 
ATOM     77  O   UNL     1      -2.044 -11.997   5.203  1.00  0.00    -0.237 OA
ATOM     78  O   UNL     1      -3.258 -10.280   3.897  1.00  0.00    -0.237 OA
ATOM     79  O   UNL     1      -3.128 -12.600   3.071  1.00  0.00    -0.744 OA
ENDBRANCH  72  76
ENDBRANCH  45  69
BRANCH  57  80
ATOM     80  C   UNL     1       4.366  -9.917   9.231  1.00  0.00     0.023 A 
ATOM     81  C   UNL     1       4.768 -11.263   9.187  1.00  0.00     0.031 A 
ATOM     82  C   UNL     1       3.842  -9.424  10.440  1.00  0.00     0.131 A 
ATOM     83  C   UNL     1       4.587 -12.084  10.310  1.00  0.00     0.055 A 
ATOM     84  C   UNL     1       3.727 -10.228  11.575  1.00  0.00     0.041 A 
ATOM     85  F   UNL     1       3.437  -8.147  10.540  1.00  0.00    -0.206 F 
ATOM     86  C   UNL     1       4.087 -11.570  11.510  1.00  0.00     0.022 A 
BRANCH  83  87
ATOM     87  S   UNL     1       4.920 -13.861  10.156  1.00  0.00     0.124 S 
ATOM     88  O   UNL     1       4.018 -14.245   9.075  1.00  0.00    -0.237 OA
ATOM     89  O   UNL     1       6.344 -13.886   9.838  1.00  0.00    -0.237 OA
ATOM     90  O   UNL     1       4.570 -14.392  11.472  1.00  0.00    -0.744 OA
ENDBRANCH  83  87
ENDBRANCH  57  80
ENDBRANCH  31  32
ENDBRANCH  24  26
ENDBRANCH  23  24
ENDBRANCH   1  23
TORSDOF 16
