REMARK SMILES O=C(OCCOC(=O)[C@H]1[C@@H](c2ccccc2)[C@@H](C(=O)N2CCCCC2)[C@@H]1c1ccccc1)c1ccc(-c2c3nc(c(-c4cc(S(=O)(=O)[O-])ccc4F)c4ccc([nH]4)c(-c4cc(S(=O)(=O)[O-])ccc4F)c4nc(c(-c5cc(S(=O)(=O)[O-])ccc5F)c5ccc2[nH]5)C=C4)C=C3)cc1
REMARK SMILES IDX 4 1 3 2 2 3 1 4 33 5 34 6 95 7 35 8 94 9 36 10 37 11 38 12
REMARK SMILES IDX 88 13 39 14 93 15 87 16 89 17 40 18 92 19 86 20 85 21 41 23
REMARK SMILES IDX 73 24 53 25 72 26 54 27 57 28 71 29 90 30 55 31 56 32 70 34
REMARK SMILES IDX 91 35 58 36 42 37 43 38 51 39 44 40 50 41 52 42 49 43 45 44
REMARK SMILES IDX 46 45 47 46 48 47 74 48 75 49 83 50 76 51 82 52 84 53 81 54
REMARK SMILES IDX 77 55 78 56 79 57 80 58 59 59 60 60 68 61 61 62 67 63 69 64
REMARK SMILES IDX 66 65 62 66 63 67 64 68 65 69 5 70 6 71 7 72 8 73 9 74 10 75
REMARK SMILES IDX 26 76 17 77 11 78 12 79 16 80 13 81 15 82 14 83 27 84 28 85
REMARK SMILES IDX 32 86 29 87 31 88 30 89 18 90 19 91 20 92 21 93 25 94 22 95
REMARK SMILES IDX 24 96 23 97
REMARK H PARENT 89 22 57 33
REMARK Flexibility Score: inf
ROOT
ATOM      1  C   UNL     1       3.890  -1.045  -0.936  1.00  0.00     0.275 C 
ENDROOT
BRANCH   1   2
ATOM      2  O   UNL     1       2.597  -1.215  -0.298  1.00  0.00    -0.458 OA
BRANCH   2   3
ATOM      3  C   UNL     1       2.068  -0.795   0.879  1.00  0.00     0.338 C 
ATOM      4  O   UNL     1       0.848  -0.903   1.017  1.00  0.00    -0.246 OA
BRANCH   3   5
ATOM      5  C   UNL     1       2.821  -0.181   2.033  1.00  0.00     0.060 A 
ATOM      6  C   UNL     1       4.188  -0.273   2.247  1.00  0.00     0.016 A 
ATOM      7  C   UNL     1       2.074   0.511   3.021  1.00  0.00     0.016 A 
ATOM      8  C   UNL     1       4.786   0.389   3.340  1.00  0.00     0.010 A 
ATOM      9  C   UNL     1       2.679   1.182   4.116  1.00  0.00     0.010 A 
ATOM     10  C   UNL     1       4.064   1.181   4.265  1.00  0.00    -0.014 A 
BRANCH  10  11
ATOM     11  C   UNL     1       4.842   1.893   5.355  1.00  0.00     0.031 A 
ATOM     12  C   UNL     1       5.666   1.035   6.264  1.00  0.00     0.074 A 
ATOM     13  C   UNL     1       4.956   3.238   5.498  1.00  0.00     0.049 A 
ATOM     14  N   UNL     1       6.662   1.356   7.044  1.00  0.00    -0.248 NA
ATOM     15  C   UNL     1       5.288  -0.384   6.293  1.00  0.00     0.031 C 
ATOM     16  C   UNL     1       4.130   4.219   4.823  1.00  0.00     0.029 A 
ATOM     17  N   UNL     1       5.853   4.032   6.203  1.00  0.00    -0.354 N 
ATOM     18  C   UNL     1       7.012   0.181   7.691  1.00  0.00     0.074 A 
ATOM     19  C   UNL     1       6.171  -0.868   7.147  1.00  0.00     0.031 C 
ATOM     20  C   UNL     1       4.650   5.450   4.985  1.00  0.00     0.029 A 
ATOM     21  C   UNL     1       5.823   5.383   5.851  1.00  0.00     0.049 A 
ATOM     22  H   UNL     1       6.458   3.672   6.892  1.00  0.00     0.167 HD
ATOM     23  C   UNL     1       7.887  -0.000   8.709  1.00  0.00     0.034 A 
ATOM     24  C   UNL     1       6.649   6.417   6.177  1.00  0.00     0.034 A 
ATOM     25  C   UNL     1       8.614   1.061   9.354  1.00  0.00     0.049 A 
ATOM     26  C   UNL     1       7.695   6.153   7.242  1.00  0.00     0.074 A 
ATOM     27  C   UNL     1       9.405   0.996  10.487  1.00  0.00     0.029 A 
ATOM     28  N   UNL     1       8.601   2.390   8.954  1.00  0.00    -0.354 N 
ATOM     29  N   UNL     1       8.062   5.014   7.784  1.00  0.00    -0.248 NA
ATOM     30  C   UNL     1       8.409   7.325   7.776  1.00  0.00     0.031 C 
ATOM     31  C   UNL     1       9.813   2.295  10.812  1.00  0.00     0.029 A 
ATOM     32  C   UNL     1       9.351   3.157   9.832  1.00  0.00     0.049 A 
ATOM     33  H   UNL     1       8.128   2.737   8.163  1.00  0.00     0.167 HD
ATOM     34  C   UNL     1       9.021   5.349   8.737  1.00  0.00     0.074 A 
ATOM     35  C   UNL     1       9.273   6.765   8.604  1.00  0.00     0.031 C 
ATOM     36  C   UNL     1       9.591   4.571   9.692  1.00  0.00     0.034 A 
BRANCH  23  37
ATOM     37  C   UNL     1       7.910  -1.388   9.288  1.00  0.00     0.023 A 
ATOM     38  C   UNL     1       8.363  -2.485   8.537  1.00  0.00     0.031 A 
ATOM     39  C   UNL     1       7.274  -1.631  10.518  1.00  0.00     0.131 A 
ATOM     40  C   UNL     1       8.053  -3.782   8.966  1.00  0.00     0.055 A 
ATOM     41  C   UNL     1       7.066  -2.926  10.988  1.00  0.00     0.041 A 
ATOM     42  F   UNL     1       6.782  -0.617  11.246  1.00  0.00    -0.206 F 
ATOM     43  C   UNL     1       7.432  -4.012  10.198  1.00  0.00     0.022 A 
BRANCH  40  44
ATOM     44  S   UNL     1       8.245  -5.143   7.781  1.00  0.00     0.124 S 
ATOM     45  O   UNL     1       7.301  -4.752   6.736  1.00  0.00    -0.237 OA
ATOM     46  O   UNL     1       9.657  -5.059   7.427  1.00  0.00    -0.237 OA
ATOM     47  O   UNL     1       7.861  -6.323   8.551  1.00  0.00    -0.744 OA
ENDBRANCH  40  44
ENDBRANCH  23  37
BRANCH  24  48
ATOM     48  C   UNL     1       6.609   7.803   5.552  1.00  0.00     0.023 A 
ATOM     49  C   UNL     1       7.805   8.412   5.077  1.00  0.00     0.031 A 
ATOM     50  C   UNL     1       5.446   8.582   5.452  1.00  0.00     0.131 A 
ATOM     51  C   UNL     1       7.808   9.710   4.527  1.00  0.00     0.055 A 
ATOM     52  C   UNL     1       5.438   9.846   4.841  1.00  0.00     0.041 A 
ATOM     53  F   UNL     1       4.286   8.148   5.970  1.00  0.00    -0.206 F 
ATOM     54  C   UNL     1       6.620  10.418   4.377  1.00  0.00     0.022 A 
BRANCH  51  55
ATOM     55  S   UNL     1       9.392  10.484   4.066  1.00  0.00     0.124 S 
ATOM     56  O   UNL     1      10.120  10.452   5.329  1.00  0.00    -0.237 OA
ATOM     57  O   UNL     1       9.892   9.592   3.026  1.00  0.00    -0.237 OA
ATOM     58  O   UNL     1       9.001  11.814   3.604  1.00  0.00    -0.744 OA
ENDBRANCH  51  55
ENDBRANCH  24  48
BRANCH  36  59
ATOM     59  C   UNL     1      10.524   5.254  10.663  1.00  0.00     0.023 A 
ATOM     60  C   UNL     1      10.074   6.278  11.519  1.00  0.00     0.031 A 
ATOM     61  C   UNL     1      11.882   4.900  10.716  1.00  0.00     0.131 A 
ATOM     62  C   UNL     1      10.987   6.965  12.332  1.00  0.00     0.055 A 
ATOM     63  C   UNL     1      12.772   5.538  11.582  1.00  0.00     0.041 A 
ATOM     64  F   UNL     1      12.369   3.933   9.922  1.00  0.00    -0.206 F 
ATOM     65  C   UNL     1      12.331   6.588  12.383  1.00  0.00     0.022 A 
BRANCH  62  66
ATOM     66  S   UNL     1      10.417   8.430  13.238  1.00  0.00     0.124 S 
ATOM     67  O   UNL     1       9.945   9.290  12.158  1.00  0.00    -0.237 OA
ATOM     68  O   UNL     1       9.386   7.878  14.110  1.00  0.00    -0.237 OA
ATOM     69  O   UNL     1      11.621   8.898  13.923  1.00  0.00    -0.744 OA
ENDBRANCH  62  66
ENDBRANCH  36  59
ENDBRANCH  10  11
ENDBRANCH   3   5
ENDBRANCH   2   3
ENDBRANCH   1   2
BRANCH   1  70
ATOM     70  C   UNL     1       4.057   0.327  -1.569  1.00  0.00     0.274 C 
BRANCH  70  71
ATOM     71  O   UNL     1       3.859   1.291  -0.541  1.00  0.00    -0.462 OA
BRANCH  71  72
ATOM     72  C   UNL     1       2.920   2.253  -0.713  1.00  0.00     0.310 C 
ATOM     73  O   UNL     1       2.248   2.379  -1.737  1.00  0.00    -0.252 OA
BRANCH  72  74
ATOM     74  C   UNL     1       2.797   3.107   0.551  1.00  0.00     0.116 C 
ATOM     75  C   UNL     1       4.052   3.426   1.409  1.00  0.00     0.047 C 
ATOM     76  C   UNL     1       2.536   4.631   0.401  1.00  0.00     0.047 C 
ATOM     77  C   UNL     1       3.486   4.845   1.620  1.00  0.00     0.095 C 
BRANCH  75  78
ATOM     78  C   UNL     1       5.550   3.072   0.935  1.00  0.00    -0.043 A 
ATOM     79  C   UNL     1       6.039   3.212  -0.375  1.00  0.00     0.004 A 
ATOM     80  C   UNL     1       6.492   2.578   1.870  1.00  0.00     0.004 A 
ATOM     81  C   UNL     1       7.340   2.822  -0.731  1.00  0.00     0.000 A 
ATOM     82  C   UNL     1       7.781   2.163   1.530  1.00  0.00     0.000 A 
ATOM     83  C   UNL     1       8.203   2.279   0.217  1.00  0.00     0.000 A 
ENDBRANCH  75  78
BRANCH  76  84
ATOM     84  C   UNL     1       1.023   5.155   0.594  1.00  0.00    -0.043 A 
ATOM     85  C   UNL     1       0.759   6.463   1.050  1.00  0.00     0.004 A 
ATOM     86  C   UNL     1      -0.108   4.342   0.376  1.00  0.00     0.004 A 
ATOM     87  C   UNL     1      -0.536   6.921   1.308  1.00  0.00     0.000 A 
ATOM     88  C   UNL     1      -1.409   4.792   0.631  1.00  0.00     0.000 A 
ATOM     89  C   UNL     1      -1.622   6.082   1.103  1.00  0.00     0.000 A 
ENDBRANCH  76  84
BRANCH  77  90
ATOM     90  C   UNL     1       4.318   6.127   1.657  1.00  0.00     0.226 C 
ATOM     91  O   UNL     1       3.871   7.203   2.070  1.00  0.00    -0.275 OA
ATOM     92  N   UNL     1       5.564   6.049   1.078  1.00  0.00    -0.342 N 
ATOM     93  C   UNL     1       6.724   5.723   1.905  1.00  0.00     0.119 C 
ATOM     94  C   UNL     1       5.817   6.884  -0.075  1.00  0.00     0.119 C 
ATOM     95  C   UNL     1       7.494   6.965   2.286  1.00  0.00     0.022 C 
ATOM     96  C   UNL     1       6.579   8.144   0.302  1.00  0.00     0.022 C 
ATOM     97  C   UNL     1       7.854   7.775   1.051  1.00  0.00     0.004 C 
ENDBRANCH  77  90
ENDBRANCH  72  74
ENDBRANCH  71  72
ENDBRANCH  70  71
ENDBRANCH   1  70
TORSDOF 17
