REMARK SMILES Cc1c(C(=O)OCCOC(=O)c2ccc(-c3c4nc(c(-c5cc(S(=O)(=O)[O-])ccc5F)c5ccc([nH]5)c(-c5cc(S(=O)(=O)[O-])ccc5F)c5nc(c(-c6cc(S(=O)(=O)[O-])ccc6F)c6ccc3[nH]6)C=C5)C=C4)cc2)sc2c1=C(CSc1nncn1-c1ccccc1)CC(=O)N=2
REMARK SMILES IDX 7 1 6 2 4 3 5 4 3 5 1 6 2 7 77 8 75 9 76 10 78 11 95 12
REMARK SMILES IDX 92 13 93 14 94 15 79 16 80 17 81 18 82 19 85 20 83 21 84 22
REMARK SMILES IDX 86 23 87 24 91 25 88 26 90 27 89 28 8 29 9 30 10 31 11 32
REMARK SMILES IDX 12 33 13 34 74 35 14 36 73 37 15 38 16 39 17 40 67 41 18 42
REMARK SMILES IDX 72 43 66 44 68 45 19 46 71 47 65 48 64 49 20 51 52 52 32 53
REMARK SMILES IDX 51 54 33 55 36 56 50 57 69 58 34 59 35 60 49 62 70 63 37 64
REMARK SMILES IDX 21 65 22 66 30 67 23 68 29 69 31 70 28 71 24 72 25 73 26 74
REMARK SMILES IDX 27 75 53 76 54 77 62 78 55 79 61 80 63 81 60 82 56 83 57 84
REMARK SMILES IDX 58 85 59 86 38 87 39 88 47 89 40 90 46 91 48 92 45 93 41 94
REMARK SMILES IDX 42 95 43 96 44 97
REMARK H PARENT 68 50 36 61
REMARK Flexibility Score: inf
ROOT
ATOM      1  C   UNL     1       1.317  -3.989  -0.931  1.00  0.00     0.275 C 
ENDROOT
BRANCH   1   2
ATOM      2  O   UNL     1       0.850  -2.806  -0.254  1.00  0.00    -0.458 OA
BRANCH   2   3
ATOM      3  C   UNL     1      -0.052  -2.987   0.747  1.00  0.00     0.348 C 
ATOM      4  O   UNL     1      -0.622  -4.047   0.977  1.00  0.00    -0.245 OA
BRANCH   3   5
ATOM      5  C   UNL     1      -0.226  -1.757   1.579  1.00  0.00     0.118 A 
ATOM      6  C   UNL     1       0.934   0.109   0.237  1.00  0.00     0.047 C 
ATOM      7  C   UNL     1       0.110  -0.471   1.341  1.00  0.00    -0.016 A 
ATOM      8  C   UNL     1      -0.183   0.416   2.453  1.00  0.00     0.016 A 
ATOM      9  S   UNL     1      -0.830  -2.010   3.220  1.00  0.00    -0.108 S 
ATOM     10  C   UNL     1      -0.620  -0.330   3.671  1.00  0.00     0.128 A 
ATOM     11  C   UNL     1      -0.738   1.642   2.530  1.00  0.00    -0.040 C 
ATOM     12  N   UNL     1      -0.926   0.130   4.834  1.00  0.00    -0.202 NA
ATOM     13  C   UNL     1      -0.397   2.353   3.826  1.00  0.00     0.135 C 
ATOM     14  C   UNL     1      -0.845   1.498   5.009  1.00  0.00     0.251 C 
ATOM     15  O   UNL     1      -1.128   2.046   6.073  1.00  0.00    -0.272 OA
BRANCH  11  16
ATOM     16  C   UNL     1      -2.113   2.056   2.019  1.00  0.00     0.110 C 
BRANCH  16  17
ATOM     17  S   UNL     1      -2.860   1.054   0.728  1.00  0.00    -0.081 SA
BRANCH  17  18
ATOM     18  C   UNL     1      -2.451   1.987  -0.671  1.00  0.00     0.195 A 
ATOM     19  N   UNL     1      -2.506   3.300  -0.717  1.00  0.00    -0.123 NA
ATOM     20  N   UNL     1      -1.824   1.494  -1.800  1.00  0.00    -0.277 N 
ATOM     21  N   UNL     1      -1.849   3.710  -1.845  1.00  0.00    -0.138 NA
ATOM     22  C   UNL     1      -1.418   2.633  -2.459  1.00  0.00     0.231 A 
BRANCH  20  23
ATOM     23  C   UNL     1      -1.563   0.157  -2.203  1.00  0.00     0.049 A 
ATOM     24  C   UNL     1      -2.416  -0.890  -1.832  1.00  0.00     0.027 A 
ATOM     25  C   UNL     1      -0.409  -0.124  -2.949  1.00  0.00     0.027 A 
ATOM     26  C   UNL     1      -2.097  -2.207  -2.162  1.00  0.00     0.002 A 
ATOM     27  C   UNL     1      -0.091  -1.445  -3.267  1.00  0.00     0.002 A 
ATOM     28  C   UNL     1      -0.938  -2.482  -2.880  1.00  0.00     0.000 A 
ENDBRANCH  20  23
ENDBRANCH  17  18
ENDBRANCH  16  17
ENDBRANCH  11  16
ENDBRANCH   3   5
ENDBRANCH   2   3
ENDBRANCH   1   2
BRANCH   1  29
ATOM     29  C   UNL     1       2.621  -4.487  -0.336  1.00  0.00     0.275 C 
BRANCH  29  30
ATOM     30  O   UNL     1       2.418  -4.966   0.988  1.00  0.00    -0.458 OA
BRANCH  30  31
ATOM     31  C   UNL     1       2.588  -4.029   1.949  1.00  0.00     0.338 C 
ATOM     32  O   UNL     1       2.579  -2.817   1.806  1.00  0.00    -0.246 OA
BRANCH  31  33
ATOM     33  C   UNL     1       3.042  -4.681   3.175  1.00  0.00     0.060 A 
ATOM     34  C   UNL     1       3.314  -3.841   4.259  1.00  0.00     0.016 A 
ATOM     35  C   UNL     1       3.506  -6.002   3.113  1.00  0.00     0.016 A 
ATOM     36  C   UNL     1       4.222  -4.263   5.201  1.00  0.00     0.010 A 
ATOM     37  C   UNL     1       4.433  -6.410   4.037  1.00  0.00     0.010 A 
ATOM     38  C   UNL     1       4.828  -5.508   5.025  1.00  0.00    -0.014 A 
BRANCH  38  39
ATOM     39  C   UNL     1       5.877  -5.887   5.942  1.00  0.00     0.031 A 
ATOM     40  C   UNL     1       5.385  -6.425   7.226  1.00  0.00     0.074 A 
ATOM     41  C   UNL     1       7.163  -5.919   5.556  1.00  0.00     0.049 A 
ATOM     42  N   UNL     1       5.574  -5.958   8.414  1.00  0.00    -0.248 NA
ATOM     43  C   UNL     1       4.421  -7.536   7.163  1.00  0.00     0.031 C 
ATOM     44  C   UNL     1       7.692  -5.739   4.201  1.00  0.00     0.029 A 
ATOM     45  N   UNL     1       8.253  -6.295   6.272  1.00  0.00    -0.354 N 
ATOM     46  C   UNL     1       4.929  -6.847   9.268  1.00  0.00     0.074 A 
ATOM     47  C   UNL     1       4.061  -7.633   8.440  1.00  0.00     0.031 C 
ATOM     48  C   UNL     1       8.936  -6.264   4.150  1.00  0.00     0.029 A 
ATOM     49  C   UNL     1       9.312  -6.716   5.482  1.00  0.00     0.049 A 
ATOM     50  H   UNL     1       8.288  -6.272   7.255  1.00  0.00     0.167 HD
ATOM     51  C   UNL     1       5.354  -7.038  10.546  1.00  0.00     0.034 A 
ATOM     52  C   UNL     1      10.340  -7.512   5.877  1.00  0.00     0.034 A 
ATOM     53  C   UNL     1       6.193  -5.939  10.979  1.00  0.00     0.049 A 
ATOM     54  C   UNL     1      10.409  -7.431   7.364  1.00  0.00     0.074 A 
ATOM     55  C   UNL     1       6.018  -4.567  11.041  1.00  0.00     0.029 A 
ATOM     56  N   UNL     1       7.555  -6.136  11.071  1.00  0.00    -0.354 N 
ATOM     57  N   UNL     1      10.690  -6.334   8.017  1.00  0.00    -0.248 NA
ATOM     58  C   UNL     1       9.697  -8.438   8.141  1.00  0.00     0.031 C 
ATOM     59  C   UNL     1       7.272  -4.018  10.646  1.00  0.00     0.029 A 
ATOM     60  C   UNL     1       8.158  -5.077  10.437  1.00  0.00     0.049 A 
ATOM     61  H   UNL     1       8.009  -6.892  11.508  1.00  0.00     0.167 HD
ATOM     62  C   UNL     1       9.841  -6.335   9.116  1.00  0.00     0.074 A 
ATOM     63  C   UNL     1       9.332  -7.702   9.197  1.00  0.00     0.031 C 
ATOM     64  C   UNL     1       9.396  -5.172   9.684  1.00  0.00     0.034 A 
BRANCH  51  65
ATOM     65  C   UNL     1       5.330  -8.379  11.255  1.00  0.00     0.023 A 
ATOM     66  C   UNL     1       5.920  -8.419  12.531  1.00  0.00     0.031 A 
ATOM     67  C   UNL     1       5.052  -9.641  10.678  1.00  0.00     0.131 A 
ATOM     68  C   UNL     1       6.348  -9.631  13.094  1.00  0.00     0.055 A 
ATOM     69  C   UNL     1       5.409 -10.851  11.280  1.00  0.00     0.041 A 
ATOM     70  F   UNL     1       4.497  -9.795   9.472  1.00  0.00    -0.206 F 
ATOM     71  C   UNL     1       6.103 -10.851  12.475  1.00  0.00     0.022 A 
BRANCH  68  72
ATOM     72  S   UNL     1       7.427  -9.552  14.543  1.00  0.00     0.124 S 
ATOM     73  O   UNL     1       8.435  -8.595  14.100  1.00  0.00    -0.237 OA
ATOM     74  O   UNL     1       6.505  -9.089  15.574  1.00  0.00    -0.237 OA
ATOM     75  O   UNL     1       7.893 -10.928  14.691  1.00  0.00    -0.744 OA
ENDBRANCH  68  72
ENDBRANCH  51  65
BRANCH  52  76
ATOM     76  C   UNL     1      10.965  -8.581   5.048  1.00  0.00     0.023 A 
ATOM     77  C   UNL     1      12.237  -9.117   5.327  1.00  0.00     0.031 A 
ATOM     78  C   UNL     1      10.215  -9.234   4.038  1.00  0.00     0.131 A 
ATOM     79  C   UNL     1      12.718 -10.226   4.588  1.00  0.00     0.055 A 
ATOM     80  C   UNL     1      10.706 -10.307   3.294  1.00  0.00     0.041 A 
ATOM     81  F   UNL     1       8.939  -8.901   3.788  1.00  0.00    -0.206 F 
ATOM     82  C   UNL     1      11.963 -10.811   3.569  1.00  0.00     0.022 A 
BRANCH  79  83
ATOM     83  S   UNL     1      14.313 -10.992   5.016  1.00  0.00     0.124 S 
ATOM     84  O   UNL     1      15.267  -9.967   4.612  1.00  0.00    -0.237 OA
ATOM     85  O   UNL     1      14.174 -11.223   6.449  1.00  0.00    -0.237 OA
ATOM     86  O   UNL     1      14.336 -12.209   4.202  1.00  0.00    -0.744 OA
ENDBRANCH  79  83
ENDBRANCH  52  76
BRANCH  64  87
ATOM     87  C   UNL     1      10.056  -3.861   9.308  1.00  0.00     0.023 A 
ATOM     88  C   UNL     1      10.158  -3.365   7.990  1.00  0.00     0.031 A 
ATOM     89  C   UNL     1      10.446  -3.006  10.357  1.00  0.00     0.131 A 
ATOM     90  C   UNL     1      10.637  -2.060   7.761  1.00  0.00     0.055 A 
ATOM     91  C   UNL     1      10.903  -1.708  10.128  1.00  0.00     0.041 A 
ATOM     92  F   UNL     1      10.341  -3.404  11.636  1.00  0.00    -0.206 F 
ATOM     93  C   UNL     1      11.004  -1.231   8.827  1.00  0.00     0.022 A 
BRANCH  90  94
ATOM     94  S   UNL     1      10.793  -1.413   6.066  1.00  0.00     0.124 S 
ATOM     95  O   UNL     1      11.459  -2.493   5.347  1.00  0.00    -0.237 OA
ATOM     96  O   UNL     1       9.403  -1.158   5.695  1.00  0.00    -0.237 OA
ATOM     97  O   UNL     1      11.605  -0.206   6.236  1.00  0.00    -0.744 OA
ENDBRANCH  90  94
ENDBRANCH  64  87
ENDBRANCH  38  39
ENDBRANCH  31  33
ENDBRANCH  30  31
ENDBRANCH  29  30
ENDBRANCH   1  29
TORSDOF 18
