REMARK SMILES CC[C@@H]1CCC[C@](CCCCCO)(C(=O)OCCOC(=O)c2ccc(-c3c4nc(c(-c5cc(S(=O)(=O)[O-])ccc5F)c5ccc([nH]5)c(-c5cc(S(=O)(=O)[O-])ccc5F)c5nc(c(-c6cc(S(=O)(=O)[O-])ccc6F)c6ccc3[nH]6)C=C5)C=C4)cc2)C1
REMARK SMILES IDX 16 1 14 2 15 3 7 4 3 5 4 6 85 7 5 8 6 9 2 10 1 11 8 12 9 13
REMARK SMILES IDX 10 14 11 15 12 16 13 17 17 19 18 20 19 21 20 22 21 23 22 24
REMARK SMILES IDX 23 25 84 26 24 27 83 28 25 29 26 30 27 31 77 32 28 33 82 34
REMARK SMILES IDX 76 35 78 36 29 37 81 38 75 39 74 40 30 42 62 43 42 44 61 45
REMARK SMILES IDX 43 46 46 47 60 48 79 49 44 50 45 51 59 53 80 54 47 55 31 56
REMARK SMILES IDX 32 57 40 58 33 59 39 60 41 61 38 62 34 63 35 64 36 65 37 66
REMARK SMILES IDX 63 67 64 68 72 69 65 70 71 71 73 72 70 73 66 74 67 75 68 76
REMARK SMILES IDX 69 77 48 78 49 79 57 80 50 81 56 82 58 83 55 84 51 85 52 86
REMARK SMILES IDX 53 87 54 88
REMARK H PARENT 13 18 78 41 46 52
REMARK Flexibility Score: inf
ROOT
ATOM      1  O   UNL     1       4.111   4.125  -4.374  1.00  0.00    -0.462 OA
ENDROOT
BRANCH   1   2
ATOM      2  C   UNL     1       3.279   3.918  -3.317  1.00  0.00     0.312 C 
ATOM      3  O   UNL     1       3.214   4.673  -2.354  1.00  0.00    -0.252 OA
BRANCH   2   4
ATOM      4  C   UNL     1       2.484   2.597  -3.432  1.00  0.00     0.068 C 
ATOM      5  C   UNL     1       1.135   1.057  -1.757  1.00  0.00    -0.010 C 
ATOM      6  C   UNL     1       2.213  -0.019  -1.911  1.00  0.00     0.003 C 
ATOM      7  C   UNL     1       1.729   2.443  -2.066  1.00  0.00     0.022 C 
ATOM      8  C   UNL     1       2.874   0.053  -3.280  1.00  0.00     0.001 C 
ATOM      9  C   UNL     1       3.488   1.427  -3.541  1.00  0.00     0.019 C 
BRANCH   5  10
ATOM     10  C   UNL     1       0.477   1.102  -0.355  1.00  0.00     0.000 C 
ATOM     11  C   UNL     1       0.428  -0.213   0.406  1.00  0.00     0.004 C 
ENDBRANCH   5  10
BRANCH   4  12
ATOM     12  C   UNL     1       1.426   2.638  -4.578  1.00  0.00     0.019 C 
BRANCH  12  13
ATOM     13  C   UNL     1       1.801   3.137  -5.986  1.00  0.00     0.001 C 
BRANCH  13  14
ATOM     14  C   UNL     1       2.783   2.321  -6.826  1.00  0.00     0.002 C 
BRANCH  14  15
ATOM     15  C   UNL     1       2.369   0.876  -7.111  1.00  0.00     0.028 C 
BRANCH  15  16
ATOM     16  C   UNL     1       1.138   0.730  -7.999  1.00  0.00     0.156 C 
BRANCH  16  17
ATOM     17  O   UNL     1       1.397   1.234  -9.302  1.00  0.00    -0.396 OA
ATOM     18  H   UNL     1       1.625   2.175  -9.245  1.00  0.00     0.210 HD
ENDBRANCH  16  17
ENDBRANCH  15  16
ENDBRANCH  14  15
ENDBRANCH  13  14
ENDBRANCH  12  13
ENDBRANCH   4  12
ENDBRANCH   2   4
ENDBRANCH   1   2
BRANCH   1  19
ATOM     19  C   UNL     1       4.982   5.270  -4.266  1.00  0.00     0.274 C 
BRANCH  19  20
ATOM     20  C   UNL     1       4.360   6.552  -4.827  1.00  0.00     0.275 C 
BRANCH  20  21
ATOM     21  O   UNL     1       3.333   7.062  -3.959  1.00  0.00    -0.458 OA
BRANCH  21  22
ATOM     22  C   UNL     1       2.066   6.959  -4.424  1.00  0.00     0.338 C 
ATOM     23  O   UNL     1       1.712   6.562  -5.520  1.00  0.00    -0.246 OA
BRANCH  22  24
ATOM     24  C   UNL     1       1.116   7.317  -3.360  1.00  0.00     0.060 A 
ATOM     25  C   UNL     1       0.373   6.294  -2.766  1.00  0.00     0.016 A 
ATOM     26  C   UNL     1       0.883   8.650  -3.024  1.00  0.00     0.016 A 
ATOM     27  C   UNL     1      -0.618   6.598  -1.835  1.00  0.00     0.010 A 
ATOM     28  C   UNL     1      -0.112   8.955  -2.089  1.00  0.00     0.010 A 
ATOM     29  C   UNL     1      -0.879   7.932  -1.502  1.00  0.00    -0.014 A 
BRANCH  29  30
ATOM     30  C   UNL     1      -2.007   8.265  -0.597  1.00  0.00     0.031 A 
ATOM     31  C   UNL     1      -3.276   8.826  -1.174  1.00  0.00     0.074 A 
ATOM     32  C   UNL     1      -1.893   8.063   0.728  1.00  0.00     0.049 A 
ATOM     33  N   UNL     1      -4.335   9.287  -0.560  1.00  0.00    -0.248 NA
ATOM     34  C   UNL     1      -3.357   8.878  -2.641  1.00  0.00     0.031 C 
ATOM     35  C   UNL     1      -0.728   7.481   1.395  1.00  0.00     0.029 A 
ATOM     36  N   UNL     1      -2.764   8.338   1.752  1.00  0.00    -0.354 N 
ATOM     37  C   UNL     1      -5.204   9.702  -1.563  1.00  0.00     0.074 A 
ATOM     38  C   UNL     1      -4.535   9.456  -2.825  1.00  0.00     0.031 C 
ATOM     39  C   UNL     1      -0.952   7.455   2.719  1.00  0.00     0.029 A 
ATOM     40  C   UNL     1      -2.251   8.061   2.998  1.00  0.00     0.049 A 
ATOM     41  H   UNL     1      -3.669   8.698   1.609  1.00  0.00     0.167 HD
ATOM     42  C   UNL     1      -6.444  10.238  -1.440  1.00  0.00     0.034 A 
ATOM     43  C   UNL     1      -2.756   8.304   4.224  1.00  0.00     0.034 A 
ATOM     44  C   UNL     1      -7.093  10.479  -0.173  1.00  0.00     0.049 A 
ATOM     45  C   UNL     1      -4.108   8.961   4.339  1.00  0.00     0.074 A 
ATOM     46  C   UNL     1      -8.348  11.011   0.068  1.00  0.00     0.029 A 
ATOM     47  N   UNL     1      -6.532  10.211   1.070  1.00  0.00    -0.354 N 
ATOM     48  N   UNL     1      -4.913   9.369   3.384  1.00  0.00    -0.248 NA
ATOM     49  C   UNL     1      -4.619   9.190   5.696  1.00  0.00     0.031 C 
ATOM     50  C   UNL     1      -8.522  11.118   1.453  1.00  0.00     0.029 A 
ATOM     51  C   UNL     1      -7.404  10.591   2.079  1.00  0.00     0.049 A 
ATOM     52  H   UNL     1      -5.645   9.809   1.213  1.00  0.00     0.167 HD
ATOM     53  C   UNL     1      -6.035   9.884   4.028  1.00  0.00     0.074 A 
ATOM     54  C   UNL     1      -5.808   9.721   5.450  1.00  0.00     0.031 C 
ATOM     55  C   UNL     1      -7.154  10.437   3.494  1.00  0.00     0.034 A 
BRANCH  42  56
ATOM     56  C   UNL     1      -7.144  10.655  -2.711  1.00  0.00     0.023 A 
ATOM     57  C   UNL     1      -7.545   9.720  -3.680  1.00  0.00     0.031 A 
ATOM     58  C   UNL     1      -7.381  12.017  -2.971  1.00  0.00     0.131 A 
ATOM     59  C   UNL     1      -8.099  10.162  -4.892  1.00  0.00     0.055 A 
ATOM     60  C   UNL     1      -7.999  12.445  -4.148  1.00  0.00     0.041 A 
ATOM     61  F   UNL     1      -7.000  12.957  -2.092  1.00  0.00    -0.206 F 
ATOM     62  C   UNL     1      -8.349  11.517  -5.123  1.00  0.00     0.022 A 
BRANCH  59  63
ATOM     63  S   UNL     1      -8.365   8.953  -6.219  1.00  0.00     0.124 S 
ATOM     64  O   UNL     1      -7.014   8.434  -6.422  1.00  0.00    -0.237 OA
ATOM     65  O   UNL     1      -9.320   8.030  -5.618  1.00  0.00    -0.237 OA
ATOM     66  O   UNL     1      -8.886   9.761  -7.320  1.00  0.00    -0.744 OA
ENDBRANCH  59  63
ENDBRANCH  42  56
BRANCH  43  67
ATOM     67  C   UNL     1      -1.961   7.979   5.441  1.00  0.00     0.023 A 
ATOM     68  C   UNL     1      -2.387   6.999   6.350  1.00  0.00     0.031 A 
ATOM     69  C   UNL     1      -0.777   8.681   5.731  1.00  0.00     0.131 A 
ATOM     70  C   UNL     1      -1.653   6.770   7.524  1.00  0.00     0.055 A 
ATOM     71  C   UNL     1      -0.025   8.417   6.877  1.00  0.00     0.041 A 
ATOM     72  F   UNL     1      -0.327   9.629   4.894  1.00  0.00    -0.206 F 
ATOM     73  C   UNL     1      -0.469   7.464   7.787  1.00  0.00     0.022 A 
BRANCH  70  74
ATOM     74  S   UNL     1      -2.306   5.597   8.744  1.00  0.00     0.124 S 
ATOM     75  O   UNL     1      -3.605   6.182   9.056  1.00  0.00    -0.237 OA
ATOM     76  O   UNL     1      -2.329   4.351   7.984  1.00  0.00    -0.237 OA
ATOM     77  O   UNL     1      -1.323   5.646   9.824  1.00  0.00    -0.744 OA
ENDBRANCH  70  74
ENDBRANCH  43  67
BRANCH  55  78
ATOM     78  C   UNL     1      -8.229  10.865   4.461  1.00  0.00     0.023 A 
ATOM     79  C   UNL     1      -8.049  11.955   5.330  1.00  0.00     0.031 A 
ATOM     80  C   UNL     1      -9.442  10.157   4.526  1.00  0.00     0.131 A 
ATOM     81  C   UNL     1      -9.045  12.274   6.266  1.00  0.00     0.055 A 
ATOM     82  C   UNL     1     -10.451  10.511   5.422  1.00  0.00     0.041 A 
ATOM     83  F   UNL     1      -9.664   9.107   3.719  1.00  0.00    -0.206 F 
ATOM     84  C   UNL     1     -10.251  11.567   6.308  1.00  0.00     0.022 A 
BRANCH  81  85
ATOM     85  S   UNL     1      -8.712  13.572   7.488  1.00  0.00     0.124 S 
ATOM     86  O   UNL     1      -7.521  13.060   8.158  1.00  0.00    -0.237 OA
ATOM     87  O   UNL     1      -8.515  14.749   6.648  1.00  0.00    -0.237 OA
ATOM     88  O   UNL     1      -9.924  13.592   8.306  1.00  0.00    -0.744 OA
ENDBRANCH  81  85
ENDBRANCH  55  78
ENDBRANCH  29  30
ENDBRANCH  22  24
ENDBRANCH  21  22
ENDBRANCH  20  21
ENDBRANCH  19  20
ENDBRANCH   1  19
TORSDOF 21
