REMARK SMILES CCOC(=O)c1cc(C[NH2+]CC(=O)OCCOC(=O)c2ccc(-c3c4nc(c(-c5cc(S(=O)(=O)[O-])ccc5F)c5ccc([nH]5)c(-c5cc(S(=O)(=O)[O-])ccc5F)c5nc(c(-c6cc(S(=O)(=O)[O-])ccc6F)c6ccc3[nH]6)C=C5)C=C4)cc2)c(C)o1
REMARK SMILES IDX 14 1 12 2 13 3 11 4 10 5 9 8 8 9 6 10 7 11 85 12 83 13 84 14
REMARK SMILES IDX 4 15 5 16 3 17 2 18 1 19 15 20 16 21 17 22 18 23 19 24 20 25
REMARK SMILES IDX 21 26 82 27 22 28 81 29 23 30 24 31 25 32 75 33 26 34 80 35
REMARK SMILES IDX 74 36 76 37 27 38 79 39 73 40 72 41 28 43 60 44 40 45 59 46
REMARK SMILES IDX 41 47 44 48 58 49 77 50 42 51 43 52 57 54 78 55 45 56 29 57
REMARK SMILES IDX 30 58 38 59 31 60 37 61 39 62 36 63 32 64 33 65 34 66 35 67
REMARK SMILES IDX 61 68 62 69 70 70 63 71 69 72 71 73 68 74 64 75 65 76 66 77
REMARK SMILES IDX 67 78 46 79 47 80 55 81 48 82 54 83 56 84 53 85 49 86 50 87
REMARK SMILES IDX 51 88 52 89
REMARK H PARENT 10 6 10 7 76 42 44 53
REMARK Flexibility Score: inf
ROOT
ATOM      1  O   UNL     1       3.646  -0.645   4.674  1.00  0.00    -0.458 OA
ENDROOT
BRANCH   1   2
ATOM      2  C   UNL     1       4.792  -1.205   5.147  1.00  0.00     0.361 C 
ATOM      3  O   UNL     1       4.940  -1.602   6.297  1.00  0.00    -0.245 OA
BRANCH   2   4
ATOM      4  C   UNL     1       5.905  -1.254   4.099  1.00  0.00     0.385 C 
BRANCH   4   5
ATOM      5  N   UNL     1       5.473  -1.665   2.747  1.00  0.00    -0.333 N 
ATOM      6  H   UNL     1       6.269  -2.065   2.252  1.00  0.00     0.347 HD
ATOM      7  H   UNL     1       4.724  -2.351   2.845  1.00  0.00     0.347 HD
BRANCH   5   8
ATOM      8  C   UNL     1       4.963  -0.539   1.989  1.00  0.00     0.301 C 
BRANCH   8   9
ATOM      9  C   UNL     1       4.651  -0.956   0.598  1.00  0.00     0.048 A 
ATOM     10  C   UNL     1       3.461  -1.153  -1.298  1.00  0.00     0.212 A 
ATOM     11  C   UNL     1       3.355  -1.210   0.080  1.00  0.00     0.068 A 
ATOM     12  O   UNL     1       4.785  -1.144  -1.644  1.00  0.00    -0.454 OA
ATOM     13  C   UNL     1       5.503  -1.071  -0.484  1.00  0.00     0.110 A 
ATOM     14  C   UNL     1       6.972  -1.044  -0.624  1.00  0.00     0.088 C 
BRANCH  10  15
ATOM     15  C   UNL     1       2.446  -0.962  -2.302  1.00  0.00     0.374 C 
ATOM     16  O   UNL     1       2.611  -0.656  -3.484  1.00  0.00    -0.242 OA
BRANCH  15  17
ATOM     17  O   UNL     1       1.219  -0.995  -1.708  1.00  0.00    -0.460 OA
BRANCH  17  18
ATOM     18  C   UNL     1       0.538   0.266  -1.700  1.00  0.00     0.230 C 
ATOM     19  C   UNL     1       0.418   0.714  -0.250  1.00  0.00     0.049 C 
ENDBRANCH  17  18
ENDBRANCH  15  17
ENDBRANCH  10  15
ENDBRANCH   8   9
ENDBRANCH   5   8
ENDBRANCH   4   5
ENDBRANCH   2   4
ENDBRANCH   1   2
BRANCH   1  20
ATOM     20  C   UNL     1       2.498  -0.680   5.542  1.00  0.00     0.274 C 
BRANCH  20  21
ATOM     21  C   UNL     1       1.539  -1.804   5.136  1.00  0.00     0.275 C 
BRANCH  21  22
ATOM     22  O   UNL     1       2.079  -3.106   5.435  1.00  0.00    -0.458 OA
BRANCH  22  23
ATOM     23  C   UNL     1       2.826  -3.658   4.448  1.00  0.00     0.338 C 
ATOM     24  O   UNL     1       3.040  -3.181   3.345  1.00  0.00    -0.246 OA
BRANCH  23  25
ATOM     25  C   UNL     1       3.515  -4.862   4.946  1.00  0.00     0.060 A 
ATOM     26  C   UNL     1       4.906  -4.912   4.819  1.00  0.00     0.016 A 
ATOM     27  C   UNL     1       2.815  -5.947   5.477  1.00  0.00     0.016 A 
ATOM     28  C   UNL     1       5.606  -6.043   5.224  1.00  0.00     0.010 A 
ATOM     29  C   UNL     1       3.522  -7.086   5.886  1.00  0.00     0.010 A 
ATOM     30  C   UNL     1       4.922  -7.142   5.759  1.00  0.00    -0.014 A 
BRANCH  30  31
ATOM     31  C   UNL     1       5.691  -8.348   6.158  1.00  0.00     0.031 A 
ATOM     32  C   UNL     1       5.636  -9.589   5.312  1.00  0.00     0.074 A 
ATOM     33  C   UNL     1       6.468  -8.305   7.258  1.00  0.00     0.049 A 
ATOM     34  N   UNL     1       6.213 -10.747   5.507  1.00  0.00    -0.248 NA
ATOM     35  C   UNL     1       4.826  -9.519   4.086  1.00  0.00     0.031 C 
ATOM     36  C   UNL     1       6.626  -7.139   8.130  1.00  0.00     0.029 A 
ATOM     37  N   UNL     1       7.271  -9.258   7.830  1.00  0.00    -0.354 N 
ATOM     38  C   UNL     1       5.825 -11.551   4.440  1.00  0.00     0.074 A 
ATOM     39  C   UNL     1       4.947 -10.752   3.611  1.00  0.00     0.031 C 
ATOM     40  C   UNL     1       7.475  -7.447   9.124  1.00  0.00     0.029 A 
ATOM     41  C   UNL     1       7.881  -8.842   8.992  1.00  0.00     0.049 A 
ATOM     42  H   UNL     1       7.400 -10.156   7.446  1.00  0.00     0.167 HD
ATOM     43  C   UNL     1       6.173 -12.835   4.182  1.00  0.00     0.034 A 
ATOM     44  C   UNL     1       8.653  -9.519   9.867  1.00  0.00     0.034 A 
ATOM     45  C   UNL     1       7.060 -13.612   5.015  1.00  0.00     0.049 A 
ATOM     46  C   UNL     1       8.976 -10.966   9.579  1.00  0.00     0.074 A 
ATOM     47  C   UNL     1       7.506 -14.908   4.820  1.00  0.00     0.029 A 
ATOM     48  N   UNL     1       7.630 -13.172   6.203  1.00  0.00    -0.354 N 
ATOM     49  N   UNL     1       8.617 -11.705   8.554  1.00  0.00    -0.248 NA
ATOM     50  C   UNL     1       9.814 -11.666  10.561  1.00  0.00     0.031 C 
ATOM     51  C   UNL     1       8.280 -15.278   5.925  1.00  0.00     0.029 A 
ATOM     52  C   UNL     1       8.388 -14.186   6.771  1.00  0.00     0.049 A 
ATOM     53  H   UNL     1       7.512 -12.273   6.586  1.00  0.00     0.167 HD
ATOM     54  C   UNL     1       9.209 -12.949   8.759  1.00  0.00     0.074 A 
ATOM     55  C   UNL     1       9.970 -12.849   9.987  1.00  0.00     0.031 C 
ATOM     56  C   UNL     1       9.132 -14.074   8.003  1.00  0.00     0.034 A 
BRANCH  43  57
ATOM     57  C   UNL     1       5.551 -13.507   2.982  1.00  0.00     0.023 A 
ATOM     58  C   UNL     1       5.851 -13.118   1.666  1.00  0.00     0.031 A 
ATOM     59  C   UNL     1       4.657 -14.578   3.167  1.00  0.00     0.131 A 
ATOM     60  C   UNL     1       5.232 -13.770   0.587  1.00  0.00     0.055 A 
ATOM     61  C   UNL     1       4.096 -15.264   2.090  1.00  0.00     0.041 A 
ATOM     62  F   UNL     1       4.317 -14.977   4.403  1.00  0.00    -0.206 F 
ATOM     63  C   UNL     1       4.377 -14.857   0.790  1.00  0.00     0.022 A 
BRANCH  60  64
ATOM     64  S   UNL     1       5.487 -13.122  -1.088  1.00  0.00     0.124 S 
ATOM     65  O   UNL     1       4.939 -11.773  -0.968  1.00  0.00    -0.237 OA
ATOM     66  O   UNL     1       6.933 -13.213  -1.246  1.00  0.00    -0.237 OA
ATOM     67  O   UNL     1       4.709 -14.030  -1.929  1.00  0.00    -0.744 OA
ENDBRANCH  60  64
ENDBRANCH  43  57
BRANCH  44  68
ATOM     68  C   UNL     1       9.127  -8.873  11.127  1.00  0.00     0.023 A 
ATOM     69  C   UNL     1      10.496  -8.751  11.415  1.00  0.00     0.031 A 
ATOM     70  C   UNL     1       8.210  -8.446  12.105  1.00  0.00     0.131 A 
ATOM     71  C   UNL     1      10.908  -8.280  12.672  1.00  0.00     0.055 A 
ATOM     72  C   UNL     1       8.626  -7.914  13.327  1.00  0.00     0.041 A 
ATOM     73  F   UNL     1       6.889  -8.543  11.889  1.00  0.00    -0.206 F 
ATOM     74  C   UNL     1       9.982  -7.847  13.624  1.00  0.00     0.022 A 
BRANCH  71  75
ATOM     75  S   UNL     1      12.670  -8.365  13.096  1.00  0.00     0.124 S 
ATOM     76  O   UNL     1      12.965  -9.773  12.858  1.00  0.00    -0.237 OA
ATOM     77  O   UNL     1      13.254  -7.418  12.152  1.00  0.00    -0.237 OA
ATOM     78  O   UNL     1      12.703  -7.948  14.497  1.00  0.00    -0.744 OA
ENDBRANCH  71  75
ENDBRANCH  44  68
BRANCH  56  79
ATOM     79  C   UNL     1       9.928 -15.268   8.474  1.00  0.00     0.023 A 
ATOM     80  C   UNL     1       9.625 -15.930   9.678  1.00  0.00     0.031 A 
ATOM     81  C   UNL     1      11.022 -15.732   7.723  1.00  0.00     0.131 A 
ATOM     82  C   UNL     1      10.449 -16.973  10.128  1.00  0.00     0.055 A 
ATOM     83  C   UNL     1      11.797 -16.814   8.142  1.00  0.00     0.041 A 
ATOM     84  F   UNL     1      11.359 -15.137   6.567  1.00  0.00    -0.206 F 
ATOM     85  C   UNL     1      11.522 -17.430   9.360  1.00  0.00     0.022 A 
BRANCH  82  86
ATOM     86  S   UNL     1      10.163 -17.652  11.786  1.00  0.00     0.124 S 
ATOM     87  O   UNL     1      10.293 -16.467  12.626  1.00  0.00    -0.237 OA
ATOM     88  O   UNL     1       8.818 -18.206  11.668  1.00  0.00    -0.237 OA
ATOM     89  O   UNL     1      11.229 -18.642  11.939  1.00  0.00    -0.744 OA
ENDBRANCH  82  86
ENDBRANCH  56  79
ENDBRANCH  30  31
ENDBRANCH  23  25
ENDBRANCH  22  23
ENDBRANCH  21  22
ENDBRANCH  20  21
ENDBRANCH   1  20
TORSDOF 20
