REMARK SMILES Cc1ccc(C(N)=O)c(NCc2ccc(C(=O)OCCOC(=O)c3ccc(-c4c5nc(c(-c6cc(S(=O)(=O)[O-])ccc6F)c6ccc([nH]6)c(-c6cc(S(=O)(=O)[O-])ccc6F)c6nc(c(-c7cc(S(=O)(=O)[O-])ccc7F)c7ccc4[nH]7)C=C6)C=C5)cc3)o2)n1
REMARK SMILES IDX 19 1 18 2 16 3 17 4 15 5 12 6 13 7 87 8 14 9 11 10 10 11
REMARK SMILES IDX 9 13 1 14 2 15 3 16 88 17 4 18 5 19 6 20 7 21 8 22 20 25
REMARK SMILES IDX 21 26 22 27 23 28 24 29 25 30 86 31 26 32 85 33 27 34 28 35
REMARK SMILES IDX 29 36 79 37 30 38 84 39 78 40 80 41 31 42 83 43 77 44 76 45
REMARK SMILES IDX 32 47 64 48 44 49 63 50 45 51 48 52 62 53 81 54 46 55 47 56
REMARK SMILES IDX 61 58 82 59 49 60 33 61 34 62 42 63 35 64 41 65 43 66 40 67
REMARK SMILES IDX 36 68 37 69 38 70 39 71 65 72 66 73 74 74 67 75 73 76 75 77
REMARK SMILES IDX 72 78 68 79 69 80 70 81 71 82 50 83 51 84 59 85 52 86 58 87
REMARK SMILES IDX 60 88 57 89 53 90 54 91 55 92 56 93
REMARK H PARENT 10 12 7 23 7 24 80 46 48 57
REMARK Flexibility Score: inf
ROOT
ATOM      1  C   UNL     1      -0.970   9.136  -4.755  1.00  0.00     0.275 C 
ENDROOT
BRANCH   1   2
ATOM      2  O   UNL     1      -1.072   7.727  -4.476  1.00  0.00    -0.456 OA
BRANCH   2   3
ATOM      3  C   UNL     1      -0.269   7.268  -3.466  1.00  0.00     0.374 C 
ATOM      4  O   UNL     1       0.589   7.940  -2.914  1.00  0.00    -0.242 OA
BRANCH   3   5
ATOM      5  C   UNL     1      -0.651   5.922  -3.099  1.00  0.00     0.211 A 
ATOM      6  C   UNL     1      -0.845   4.268  -1.643  1.00  0.00     0.124 A 
ATOM      7  C   UNL     1      -1.551   3.886  -2.765  1.00  0.00     0.048 A 
ATOM      8  O   UNL     1      -0.238   5.467  -1.874  1.00  0.00    -0.452 OA
ATOM      9  C   UNL     1      -1.441   4.955  -3.693  1.00  0.00     0.058 A 
BRANCH   6  10
ATOM     10  C   UNL     1      -0.669   3.709  -0.268  1.00  0.00     0.190 C 
BRANCH  10  11
ATOM     11  N   UNL     1      -1.531   2.575   0.048  1.00  0.00    -0.362 N 
ATOM     12  H   UNL     1      -2.465   2.721   0.324  1.00  0.00     0.162 HD
BRANCH  11  13
ATOM     13  C   UNL     1      -1.018   1.284  -0.043  1.00  0.00     0.139 A 
ATOM     14  C   UNL     1       2.395  -0.102  -0.101  1.00  0.00     0.067 C 
ATOM     15  C   UNL     1       0.898  -0.066  -0.101  1.00  0.00     0.040 A 
ATOM     16  C   UNL     1       0.148  -1.227  -0.030  1.00  0.00     0.024 A 
ATOM     17  N   UNL     1       0.328   1.161  -0.130  1.00  0.00    -0.236 NA
ATOM     18  C   UNL     1      -1.236  -1.114   0.006  1.00  0.00     0.019 A 
ATOM     19  C   UNL     1      -1.843   0.151  -0.004  1.00  0.00     0.081 A 
BRANCH  19  20
ATOM     20  C   UNL     1      -3.333   0.177   0.013  1.00  0.00     0.252 C 
ATOM     21  N   UNL     1      -3.967   1.348  -0.290  1.00  0.00    -0.365 N 
ATOM     22  O   UNL     1      -3.987  -0.833   0.253  1.00  0.00    -0.269 OA
ATOM     23  H   UNL     1      -3.440   2.157  -0.482  1.00  0.00     0.159 HD
ATOM     24  H   UNL     1      -4.950   1.383  -0.317  1.00  0.00     0.159 HD
ENDBRANCH  19  20
ENDBRANCH  11  13
ENDBRANCH  10  11
ENDBRANCH   6  10
ENDBRANCH   3   5
ENDBRANCH   2   3
ENDBRANCH   1   2
BRANCH   1  25
ATOM     25  C   UNL     1      -2.076   9.936  -4.056  1.00  0.00     0.275 C 
BRANCH  25  26
ATOM     26  O   UNL     1      -1.886  10.004  -2.629  1.00  0.00    -0.458 OA
BRANCH  26  27
ATOM     27  C   UNL     1      -2.515   9.038  -1.916  1.00  0.00     0.338 C 
ATOM     28  O   UNL     1      -3.221   8.149  -2.365  1.00  0.00    -0.246 OA
BRANCH  27  29
ATOM     29  C   UNL     1      -2.116   9.114  -0.498  1.00  0.00     0.060 A 
ATOM     30  C   UNL     1      -1.556   7.973   0.078  1.00  0.00     0.016 A 
ATOM     31  C   UNL     1      -2.342  10.253   0.277  1.00  0.00     0.016 A 
ATOM     32  C   UNL     1      -1.212   7.958   1.426  1.00  0.00     0.010 A 
ATOM     33  C   UNL     1      -2.001  10.238   1.637  1.00  0.00     0.010 A 
ATOM     34  C   UNL     1      -1.440   9.087   2.221  1.00  0.00    -0.014 A 
BRANCH  34  35
ATOM     35  C   UNL     1      -1.136   9.025   3.673  1.00  0.00     0.031 A 
ATOM     36  C   UNL     1      -2.254   8.875   4.665  1.00  0.00     0.074 A 
ATOM     37  C   UNL     1       0.143   9.054   4.093  1.00  0.00     0.049 A 
ATOM     38  N   UNL     1      -2.204   8.831   5.971  1.00  0.00    -0.248 NA
ATOM     39  C   UNL     1      -3.610   8.759   4.108  1.00  0.00     0.031 C 
ATOM     40  C   UNL     1       1.313   9.145   3.218  1.00  0.00     0.029 A 
ATOM     41  N   UNL     1       0.673   9.005   5.357  1.00  0.00    -0.354 N 
ATOM     42  C   UNL     1      -3.520   8.690   6.398  1.00  0.00     0.074 A 
ATOM     43  C   UNL     1      -4.346   8.687   5.207  1.00  0.00     0.031 C 
ATOM     44  C   UNL     1       2.424   9.144   3.974  1.00  0.00     0.029 A 
ATOM     45  C   UNL     1       2.045   9.099   5.384  1.00  0.00     0.049 A 
ATOM     46  H   UNL     1       0.124   8.912   6.169  1.00  0.00     0.167 HD
ATOM     47  C   UNL     1      -3.992   8.569   7.664  1.00  0.00     0.034 A 
ATOM     48  C   UNL     1       2.897   9.169   6.426  1.00  0.00     0.034 A 
ATOM     49  C   UNL     1      -3.155   8.582   8.840  1.00  0.00     0.049 A 
ATOM     50  C   UNL     1       2.342   9.115   7.827  1.00  0.00     0.074 A 
ATOM     51  C   UNL     1      -3.528   8.463  10.168  1.00  0.00     0.029 A 
ATOM     52  N   UNL     1      -1.773   8.734   8.832  1.00  0.00    -0.354 N 
ATOM     53  N   UNL     1       1.093   8.993   8.217  1.00  0.00    -0.248 NA
ATOM     54  C   UNL     1       3.310   9.205   8.928  1.00  0.00     0.031 C 
ATOM     55  C   UNL     1      -2.385   8.606  10.963  1.00  0.00     0.029 A 
ATOM     56  C   UNL     1      -1.285   8.743  10.131  1.00  0.00     0.049 A 
ATOM     57  H   UNL     1      -1.221   8.822   8.022  1.00  0.00     0.167 HD
ATOM     58  C   UNL     1       1.132   8.969   9.609  1.00  0.00     0.074 A 
ATOM     59  C   UNL     1       2.526   9.073   9.988  1.00  0.00     0.031 C 
ATOM     60  C   UNL     1       0.107   8.865  10.494  1.00  0.00     0.034 A 
BRANCH  47  61
ATOM     61  C   UNL     1      -5.489   8.472   7.836  1.00  0.00     0.023 A 
ATOM     62  C   UNL     1      -6.222   7.376   7.348  1.00  0.00     0.031 A 
ATOM     63  C   UNL     1      -6.197   9.511   8.466  1.00  0.00     0.131 A 
ATOM     64  C   UNL     1      -7.623   7.377   7.435  1.00  0.00     0.055 A 
ATOM     65  C   UNL     1      -7.585   9.470   8.617  1.00  0.00     0.041 A 
ATOM     66  F   UNL     1      -5.554  10.593   8.931  1.00  0.00    -0.206 F 
ATOM     67  C   UNL     1      -8.307   8.405   8.086  1.00  0.00     0.022 A 
BRANCH  64  68
ATOM     68  S   UNL     1      -8.547   6.085   6.558  1.00  0.00     0.124 S 
ATOM     69  O   UNL     1      -8.090   6.276   5.184  1.00  0.00    -0.237 OA
ATOM     70  O   UNL     1      -8.092   4.868   7.220  1.00  0.00    -0.237 OA
ATOM     71  O   UNL     1      -9.944   6.442   6.797  1.00  0.00    -0.744 OA
ENDBRANCH  64  68
ENDBRANCH  47  61
BRANCH  48  72
ATOM     72  C   UNL     1       4.359   9.350   6.194  1.00  0.00     0.023 A 
ATOM     73  C   UNL     1       5.287   8.370   6.580  1.00  0.00     0.031 A 
ATOM     74  C   UNL     1       4.852  10.536   5.620  1.00  0.00     0.131 A 
ATOM     75  C   UNL     1       6.661   8.610   6.424  1.00  0.00     0.055 A 
ATOM     76  C   UNL     1       6.216  10.748   5.420  1.00  0.00     0.041 A 
ATOM     77  F   UNL     1       4.007  11.507   5.236  1.00  0.00    -0.206 F 
ATOM     78  C   UNL     1       7.131   9.786   5.835  1.00  0.00     0.022 A 
BRANCH  75  79
ATOM     79  S   UNL     1       7.837   7.392   7.078  1.00  0.00     0.124 S 
ATOM     80  O   UNL     1       7.470   7.352   8.489  1.00  0.00    -0.237 OA
ATOM     81  O   UNL     1       7.510   6.205   6.295  1.00  0.00    -0.237 OA
ATOM     82  O   UNL     1       9.140   7.988   6.788  1.00  0.00    -0.744 OA
ENDBRANCH  75  79
ENDBRANCH  48  72
BRANCH  60  83
ATOM     83  C   UNL     1       0.473   8.820  11.957  1.00  0.00     0.023 A 
ATOM     84  C   UNL     1       1.008   9.939  12.621  1.00  0.00     0.031 A 
ATOM     85  C   UNL     1       0.299   7.635  12.693  1.00  0.00     0.131 A 
ATOM     86  C   UNL     1       1.399   9.832  13.964  1.00  0.00     0.055 A 
ATOM     87  C   UNL     1       0.639   7.551  14.043  1.00  0.00     0.041 A 
ATOM     88  F   UNL     1      -0.206   6.536  12.108  1.00  0.00    -0.206 F 
ATOM     89  C   UNL     1       1.204   8.650  14.684  1.00  0.00     0.022 A 
BRANCH  86  90
ATOM     90  S   UNL     1       2.246  11.236  14.741  1.00  0.00     0.124 S 
ATOM     91  O   UNL     1       3.416  11.398  13.883  1.00  0.00    -0.237 OA
ATOM     92  O   UNL     1       1.242  12.292  14.656  1.00  0.00    -0.237 OA
ATOM     93  O   UNL     1       2.531  10.761  16.094  1.00  0.00    -0.744 OA
ENDBRANCH  86  90
ENDBRANCH  60  83
ENDBRANCH  34  35
ENDBRANCH  27  29
ENDBRANCH  26  27
ENDBRANCH  25  26
ENDBRANCH   1  25
TORSDOF 18
