REMARK SMILES O=C(CCCN1C(=O)/C(=C/c2cc(Br)ccc2O)SC1=S)OCCOC(=O)c1ccc(-c2c3nc(c(-c4cc(S(=O)(=O)[O-])ccc4F)c4ccc([nH]4)c(-c4cc(S(=O)(=O)[O-])ccc4F)c4nc(c(-c5cc(S(=O)(=O)[O-])ccc5F)c5ccc2[nH]5)C=C4)C=C3)cc1
REMARK SMILES IDX 23 1 22 2 2 3 1 4 3 5 4 6 5 7 6 8 7 9 20 10 8 11 9 12 19 13
REMARK SMILES IDX 21 14 10 15 11 16 12 17 17 18 13 19 16 20 14 21 15 22 18 23
REMARK SMILES IDX 24 25 25 26 26 27 27 28 28 29 29 30 90 31 30 32 89 33 31 34
REMARK SMILES IDX 32 35 33 36 83 37 34 38 88 39 82 40 84 41 35 42 87 43 81 44
REMARK SMILES IDX 80 45 36 47 68 48 48 49 67 50 49 51 52 52 66 53 85 54 50 55
REMARK SMILES IDX 51 56 65 58 86 59 53 60 37 61 38 62 46 63 39 64 45 65 47 66
REMARK SMILES IDX 44 67 40 68 41 69 42 70 43 71 69 72 70 73 78 74 71 75 77 76
REMARK SMILES IDX 79 77 76 78 72 79 73 80 74 81 75 82 54 83 55 84 63 85 56 86
REMARK SMILES IDX 62 87 64 88 61 89 57 90 58 91 59 92 60 93
REMARK H PARENT 18 24 84 46 52 57
REMARK Flexibility Score: inf
ROOT
ATOM      1  C   UNL     1       3.681  -1.016  -1.113  1.00  0.00     0.274 C 
ENDROOT
BRANCH   1   2
ATOM      2  O   UNL     1       2.466  -0.881  -0.355  1.00  0.00    -0.462 OA
BRANCH   2   3
ATOM      3  C   UNL     1       2.517  -0.398   0.913  1.00  0.00     0.305 C 
ATOM      4  O   UNL     1       1.912  -0.951   1.826  1.00  0.00    -0.252 OA
BRANCH   3   5
ATOM      5  C   UNL     1       3.242   0.915   1.113  1.00  0.00     0.124 C 
BRANCH   5   6
ATOM      6  C   UNL     1       4.259   0.903   2.251  1.00  0.00     0.034 C 
BRANCH   6   7
ATOM      7  C   UNL     1       5.569   0.156   1.964  1.00  0.00     0.128 C 
BRANCH   7   8
ATOM      8  N   UNL     1       6.343   0.498   0.755  1.00  0.00    -0.293 N 
ATOM      9  C   UNL     1       6.336   1.772   0.208  1.00  0.00     0.266 C 
ATOM     10  C   UNL     1       7.226  -0.394   0.165  1.00  0.00     0.148 C 
ATOM     11  O   UNL     1       5.790   2.764   0.666  1.00  0.00    -0.268 OA
ATOM     12  C   UNL     1       7.115   1.799  -1.060  1.00  0.00     0.081 C 
ATOM     13  S   UNL     1       7.959   0.322  -1.263  1.00  0.00    -0.054 SA
ATOM     14  S   UNL     1       7.597  -1.954   0.635  1.00  0.00    -0.052 S 
ATOM     15  C   UNL     1       7.097   2.852  -1.887  1.00  0.00     0.033 C 
BRANCH  15  16
ATOM     16  C   UNL     1       7.823   2.938  -3.161  1.00  0.00     0.019 A 
ATOM     17  C   UNL     1       9.014   3.674  -3.205  1.00  0.00     0.027 A 
ATOM     18  C   UNL     1       7.364   2.314  -4.331  1.00  0.00     0.122 A 
ATOM     19  C   UNL     1       9.734   3.763  -4.397  1.00  0.00     0.018 A 
ATOM     20  C   UNL     1       8.087   2.404  -5.522  1.00  0.00     0.048 A 
ATOM     21  Br  UNL     1      11.347   4.749  -4.445  1.00  0.00    -0.051 Br
ATOM     22  C   UNL     1       9.279   3.130  -5.553  1.00  0.00     0.019 A 
BRANCH  18  23
ATOM     23  O   UNL     1       6.191   1.610  -4.302  1.00  0.00    -0.507 OA
ATOM     24  H   UNL     1       5.702   1.547  -3.505  1.00  0.00     0.293 HD
ENDBRANCH  18  23
ENDBRANCH  15  16
ENDBRANCH   7   8
ENDBRANCH   6   7
ENDBRANCH   5   6
ENDBRANCH   3   5
ENDBRANCH   2   3
ENDBRANCH   1   2
BRANCH   1  25
ATOM     25  C   UNL     1       3.688  -0.191  -2.401  1.00  0.00     0.275 C 
BRANCH  25  26
ATOM     26  O   UNL     1       3.430   1.194  -2.126  1.00  0.00    -0.458 OA
BRANCH  26  27
ATOM     27  C   UNL     1       2.121   1.546  -2.234  1.00  0.00     0.338 C 
ATOM     28  O   UNL     1       1.228   0.849  -2.676  1.00  0.00    -0.246 OA
BRANCH  27  29
ATOM     29  C   UNL     1       1.882   2.853  -1.578  1.00  0.00     0.060 A 
ATOM     30  C   UNL     1       0.656   3.021  -0.922  1.00  0.00     0.016 A 
ATOM     31  C   UNL     1       2.811   3.898  -1.602  1.00  0.00     0.016 A 
ATOM     32  C   UNL     1       0.337   4.244  -0.334  1.00  0.00     0.010 A 
ATOM     33  C   UNL     1       2.489   5.127  -1.008  1.00  0.00     0.010 A 
ATOM     34  C   UNL     1       1.236   5.316  -0.400  1.00  0.00    -0.014 A 
BRANCH  34  35
ATOM     35  C   UNL     1       0.785   6.660   0.046  1.00  0.00     0.031 A 
ATOM     36  C   UNL     1       0.274   7.636  -0.980  1.00  0.00     0.074 A 
ATOM     37  C   UNL     1       0.761   6.982   1.353  1.00  0.00     0.049 A 
ATOM     38  N   UNL     1      -0.245   8.825  -0.810  1.00  0.00    -0.248 NA
ATOM     39  C   UNL     1       0.358   7.211  -2.385  1.00  0.00     0.031 C 
ATOM     40  C   UNL     1       1.206   6.117   2.444  1.00  0.00     0.029 A 
ATOM     41  N   UNL     1       0.336   8.126   1.984  1.00  0.00    -0.354 N 
ATOM     42  C   UNL     1      -0.571   9.282  -2.082  1.00  0.00     0.074 A 
ATOM     43  C   UNL     1      -0.139   8.264  -3.017  1.00  0.00     0.031 C 
ATOM     44  C   UNL     1       1.029   6.761   3.612  1.00  0.00     0.029 A 
ATOM     45  C   UNL     1       0.477   8.089   3.352  1.00  0.00     0.049 A 
ATOM     46  H   UNL     1      -0.036   8.899   1.502  1.00  0.00     0.167 HD
ATOM     47  C   UNL     1      -1.191  10.434  -2.440  1.00  0.00     0.034 A 
ATOM     48  C   UNL     1       0.201   9.024   4.285  1.00  0.00     0.034 A 
ATOM     49  C   UNL     1      -1.596  11.455  -1.506  1.00  0.00     0.049 A 
ATOM     50  C   UNL     1      -0.408  10.338   3.852  1.00  0.00     0.074 A 
ATOM     51  C   UNL     1      -2.238  12.655  -1.764  1.00  0.00     0.029 A 
ATOM     52  N   UNL     1      -1.385  11.408  -0.134  1.00  0.00    -0.354 N 
ATOM     53  N   UNL     1      -0.746  10.739   2.648  1.00  0.00    -0.248 NA
ATOM     54  C   UNL     1      -0.687  11.319   4.910  1.00  0.00     0.031 C 
ATOM     55  C   UNL     1      -2.354  13.361  -0.561  1.00  0.00     0.029 A 
ATOM     56  C   UNL     1      -1.851  12.572   0.461  1.00  0.00     0.049 A 
ATOM     57  H   UNL     1      -0.966  10.659   0.346  1.00  0.00     0.167 HD
ATOM     58  C   UNL     1      -1.307  12.005   2.812  1.00  0.00     0.074 A 
ATOM     59  C   UNL     1      -1.277  12.291   4.231  1.00  0.00     0.031 C 
ATOM     60  C   UNL     1      -1.806  12.852   1.876  1.00  0.00     0.034 A 
BRANCH  47  61
ATOM     61  C   UNL     1      -1.429  10.660  -3.912  1.00  0.00     0.023 A 
ATOM     62  C   UNL     1      -2.307   9.847  -4.650  1.00  0.00     0.031 A 
ATOM     63  C   UNL     1      -0.755  11.690  -4.591  1.00  0.00     0.131 A 
ATOM     64  C   UNL     1      -2.442  10.039  -6.033  1.00  0.00     0.055 A 
ATOM     65  C   UNL     1      -0.949  11.921  -5.954  1.00  0.00     0.041 A 
ATOM     66  F   UNL     1       0.113  12.483  -3.942  1.00  0.00    -0.206 F 
ATOM     67  C   UNL     1      -1.787  11.086  -6.686  1.00  0.00     0.022 A 
BRANCH  64  68
ATOM     68  S   UNL     1      -3.391   8.825  -6.991  1.00  0.00     0.124 S 
ATOM     69  O   UNL     1      -2.646   7.596  -6.731  1.00  0.00    -0.237 OA
ATOM     70  O   UNL     1      -4.715   8.910  -6.386  1.00  0.00    -0.237 OA
ATOM     71  O   UNL     1      -3.298   9.322  -8.362  1.00  0.00    -0.744 OA
ENDBRANCH  64  68
ENDBRANCH  47  61
BRANCH  48  72
ATOM     72  C   UNL     1       0.521   8.784   5.722  1.00  0.00     0.023 A 
ATOM     73  C   UNL     1      -0.486   8.756   6.700  1.00  0.00     0.031 A 
ATOM     74  C   UNL     1       1.857   8.668   6.148  1.00  0.00     0.131 A 
ATOM     75  C   UNL     1      -0.140   8.676   8.059  1.00  0.00     0.055 A 
ATOM     76  C   UNL     1       2.192   8.532   7.496  1.00  0.00     0.041 A 
ATOM     77  F   UNL     1       2.859   8.693   5.256  1.00  0.00    -0.206 F 
ATOM     78  C   UNL     1       1.191   8.552   8.462  1.00  0.00     0.022 A 
BRANCH  75  79
ATOM     79  S   UNL     1      -1.451   8.846   9.302  1.00  0.00     0.124 S 
ATOM     80  O   UNL     1      -2.030  10.137   8.949  1.00  0.00    -0.237 OA
ATOM     81  O   UNL     1      -2.279   7.676   9.030  1.00  0.00    -0.237 OA
ATOM     82  O   UNL     1      -0.724   8.813  10.569  1.00  0.00    -0.744 OA
ENDBRANCH  75  79
ENDBRANCH  48  72
BRANCH  60  83
ATOM     83  C   UNL     1      -2.396  14.152   2.370  1.00  0.00     0.023 A 
ATOM     84  C   UNL     1      -1.601  15.147   2.967  1.00  0.00     0.031 A 
ATOM     85  C   UNL     1      -3.778  14.389   2.260  1.00  0.00     0.131 A 
ATOM     86  C   UNL     1      -2.201  16.306   3.484  1.00  0.00     0.055 A 
ATOM     87  C   UNL     1      -4.361  15.570   2.723  1.00  0.00     0.041 A 
ATOM     88  F   UNL     1      -4.585  13.475   1.699  1.00  0.00    -0.206 F 
ATOM     89  C   UNL     1      -3.574  16.530   3.352  1.00  0.00     0.022 A 
BRANCH  86  90
ATOM     90  S   UNL     1      -1.176  17.477   4.417  1.00  0.00     0.124 S 
ATOM     91  O   UNL     1      -0.642  16.634   5.481  1.00  0.00    -0.237 OA
ATOM     92  O   UNL     1      -0.215  17.920   3.411  1.00  0.00    -0.237 OA
ATOM     93  O   UNL     1      -2.129  18.496   4.853  1.00  0.00    -0.744 OA
ENDBRANCH  86  90
ENDBRANCH  60  83
ENDBRANCH  34  35
ENDBRANCH  27  29
ENDBRANCH  26  27
ENDBRANCH  25  26
ENDBRANCH   1  25
TORSDOF 19
