REMARK SMILES [NH3+][C@]1(C(=O)OCCOC(=O)c2ccc(-c3c4nc(c(-c5cc(S(=O)(=O)[O-])ccc5F)c5ccc([nH]5)c(-c5cc(S(=O)(=O)[O-])ccc5F)c5nc(c(-c6cc(S(=O)(=O)[O-])ccc6F)c6ccc3[nH]6)C=C5)C=C4)cc2)CC[C@@H](Sc2ccc(Cl)c(Cl)c2)C1
REMARK SMILES IDX 7 1 6 2 5 3 3 4 4 5 2 6 74 7 86 8 75 9 76 10 1 11 77 15
REMARK SMILES IDX 78 16 79 17 85 18 80 19 83 20 81 21 84 22 82 23 8 24 9 25
REMARK SMILES IDX 10 26 11 27 12 28 73 29 13 30 72 31 14 32 15 33 16 34 66 35
REMARK SMILES IDX 17 36 71 37 65 38 67 39 18 40 70 41 64 42 63 43 19 45 51 46
REMARK SMILES IDX 31 47 50 48 32 49 35 50 49 51 68 52 33 53 34 54 48 56 69 57
REMARK SMILES IDX 36 58 20 59 21 60 29 61 22 62 28 63 30 64 27 65 23 66 24 67
REMARK SMILES IDX 25 68 26 69 52 70 53 71 61 72 54 73 60 74 62 75 59 76 55 77
REMARK SMILES IDX 56 78 57 79 58 80 37 81 38 82 46 83 39 84 45 85 47 86 44 87
REMARK SMILES IDX 40 88 41 89 42 90 43 91
REMARK H PARENT 1 12 1 13 1 14 67 44 35 55
REMARK Flexibility Score: inf
ROOT
ATOM      1  C   UNL     1       2.394   1.093  -2.343  1.00  0.00     0.275 C 
ENDROOT
BRANCH   1   2
ATOM      2  C   UNL     1       2.191   1.716  -0.965  1.00  0.00     0.274 C 
BRANCH   2   3
ATOM      3  O   UNL     1       2.022   0.710   0.054  1.00  0.00    -0.457 OA
BRANCH   3   4
ATOM      4  C   UNL     1       0.754   0.545   0.521  1.00  0.00     0.368 C 
ATOM      5  O   UNL     1      -0.226   1.159   0.110  1.00  0.00    -0.245 OA
BRANCH   4   6
ATOM      6  C   UNL     1       0.665  -0.501   1.658  1.00  0.00     0.193 C 
ATOM      7  C   UNL     1       0.973  -1.928   1.192  1.00  0.00     0.082 C 
ATOM      8  C   UNL     1       1.697  -0.260   2.772  1.00  0.00     0.095 C 
ATOM      9  C   UNL     1       1.300  -2.676   2.475  1.00  0.00     0.022 C 
ATOM     10  C   UNL     1       2.027  -1.650   3.344  1.00  0.00     0.059 C 
BRANCH   6  11
ATOM     11  N   UNL     1      -0.700  -0.472   2.255  1.00  0.00    -0.343 N 
ATOM     12  H   UNL     1      -0.758  -1.162   3.005  1.00  0.00     0.345 HD
ATOM     13  H   UNL     1      -1.390  -0.692   1.537  1.00  0.00     0.345 HD
ATOM     14  H   UNL     1      -0.886   0.457   2.633  1.00  0.00     0.345 HD
ENDBRANCH   6  11
BRANCH  10  15
ATOM     15  S   UNL     1       3.834  -1.950   3.542  1.00  0.00    -0.122 SA
BRANCH  15  16
ATOM     16  C   UNL     1       4.407  -2.141   1.863  1.00  0.00     0.009 A 
ATOM     17  C   UNL     1       4.515  -3.415   1.295  1.00  0.00     0.017 A 
ATOM     18  C   UNL     1       4.860  -1.033   1.141  1.00  0.00     0.037 A 
ATOM     19  C   UNL     1       5.043  -3.577   0.010  1.00  0.00     0.023 A 
ATOM     20  C   UNL     1       5.399  -1.192  -0.141  1.00  0.00     0.060 A 
ATOM     21  C   UNL     1       5.491  -2.467  -0.710  1.00  0.00     0.059 A 
ATOM     22  Cl  UNL     1       5.976   0.228  -0.944  1.00  0.00    -0.083 Cl
ATOM     23  Cl  UNL     1       6.185  -2.737  -2.269  1.00  0.00    -0.083 Cl
ENDBRANCH  15  16
ENDBRANCH  10  15
ENDBRANCH   4   6
ENDBRANCH   3   4
ENDBRANCH   2   3
ENDBRANCH   1   2
BRANCH   1  24
ATOM     24  O   UNL     1       1.304   0.219  -2.667  1.00  0.00    -0.458 OA
BRANCH  24  25
ATOM     25  C   UNL     1       1.579  -1.098  -2.528  1.00  0.00     0.338 C 
ATOM     26  O   UNL     1       2.631  -1.611  -2.191  1.00  0.00    -0.246 OA
BRANCH  25  27
ATOM     27  C   UNL     1       0.371  -1.872  -2.827  1.00  0.00     0.060 A 
ATOM     28  C   UNL     1      -0.690  -1.867  -1.921  1.00  0.00     0.016 A 
ATOM     29  C   UNL     1       0.345  -2.685  -3.957  1.00  0.00     0.016 A 
ATOM     30  C   UNL     1      -1.759  -2.739  -2.104  1.00  0.00     0.010 A 
ATOM     31  C   UNL     1      -0.772  -3.486  -4.187  1.00  0.00     0.010 A 
ATOM     32  C   UNL     1      -1.823  -3.538  -3.252  1.00  0.00    -0.014 A 
BRANCH  32  33
ATOM     33  C   UNL     1      -2.981  -4.432  -3.506  1.00  0.00     0.031 A 
ATOM     34  C   UNL     1      -2.755  -5.908  -3.664  1.00  0.00     0.074 A 
ATOM     35  C   UNL     1      -4.209  -3.907  -3.674  1.00  0.00     0.049 A 
ATOM     36  N   UNL     1      -3.538  -6.817  -4.182  1.00  0.00    -0.248 NA
ATOM     37  C   UNL     1      -1.457  -6.420  -3.199  1.00  0.00     0.031 C 
ATOM     38  C   UNL     1      -4.559  -2.495  -3.501  1.00  0.00     0.029 A 
ATOM     39  N   UNL     1      -5.386  -4.496  -4.064  1.00  0.00    -0.354 N 
ATOM     40  C   UNL     1      -2.806  -8.001  -4.164  1.00  0.00     0.074 A 
ATOM     41  C   UNL     1      -1.516  -7.686  -3.584  1.00  0.00     0.031 C 
ATOM     42  C   UNL     1      -5.855  -2.324  -3.798  1.00  0.00     0.029 A 
ATOM     43  C   UNL     1      -6.401  -3.591  -4.270  1.00  0.00     0.049 A 
ATOM     44  H   UNL     1      -5.492  -5.467  -4.185  1.00  0.00     0.167 HD
ATOM     45  C   UNL     1      -3.181  -9.227  -4.606  1.00  0.00     0.034 A 
ATOM     46  C   UNL     1      -7.609  -3.743  -4.846  1.00  0.00     0.034 A 
ATOM     47  C   UNL     1      -4.486  -9.508  -5.156  1.00  0.00     0.049 A 
ATOM     48  C   UNL     1      -7.994  -5.098  -5.367  1.00  0.00     0.074 A 
ATOM     49  C   UNL     1      -4.996 -10.713  -5.606  1.00  0.00     0.029 A 
ATOM     50  N   UNL     1      -5.491  -8.563  -5.334  1.00  0.00    -0.354 N 
ATOM     51  N   UNL     1      -7.286  -6.204  -5.388  1.00  0.00    -0.248 NA
ATOM     52  C   UNL     1      -9.335  -5.227  -5.949  1.00  0.00     0.031 C 
ATOM     53  C   UNL     1      -6.283 -10.486  -6.107  1.00  0.00     0.029 A 
ATOM     54  C   UNL     1      -6.606  -9.153  -5.909  1.00  0.00     0.049 A 
ATOM     55  H   UNL     1      -5.421  -7.612  -5.087  1.00  0.00     0.167 HD
ATOM     56  C   UNL     1      -8.103  -7.166  -5.970  1.00  0.00     0.074 A 
ATOM     57  C   UNL     1      -9.359  -6.511  -6.280  1.00  0.00     0.031 C 
ATOM     58  C   UNL     1      -7.843  -8.475  -6.218  1.00  0.00     0.034 A 
BRANCH  45  59
ATOM     59  C   UNL     1      -2.142 -10.323  -4.579  1.00  0.00     0.023 A 
ATOM     60  C   UNL     1      -1.580 -10.794  -3.380  1.00  0.00     0.031 A 
ATOM     61  C   UNL     1      -1.665 -10.870  -5.785  1.00  0.00     0.131 A 
ATOM     62  C   UNL     1      -0.521 -11.715  -3.417  1.00  0.00     0.055 A 
ATOM     63  C   UNL     1      -0.668 -11.847  -5.811  1.00  0.00     0.041 A 
ATOM     64  F   UNL     1      -2.146 -10.445  -6.965  1.00  0.00    -0.206 F 
ATOM     65  C   UNL     1      -0.076 -12.262  -4.623  1.00  0.00     0.022 A 
BRANCH  62  66
ATOM     66  S   UNL     1       0.377 -12.065  -1.879  1.00  0.00     0.124 S 
ATOM     67  O   UNL     1       0.799 -10.727  -1.471  1.00  0.00    -0.237 OA
ATOM     68  O   UNL     1      -0.648 -12.691  -1.052  1.00  0.00    -0.237 OA
ATOM     69  O   UNL     1       1.460 -12.948  -2.306  1.00  0.00    -0.744 OA
ENDBRANCH  62  66
ENDBRANCH  45  59
BRANCH  46  70
ATOM     70  C   UNL     1      -8.491  -2.558  -5.030  1.00  0.00     0.023 A 
ATOM     71  C   UNL     1      -9.688  -2.424  -4.313  1.00  0.00     0.031 A 
ATOM     72  C   UNL     1      -8.129  -1.526  -5.917  1.00  0.00     0.131 A 
ATOM     73  C   UNL     1     -10.491  -1.290  -4.506  1.00  0.00     0.055 A 
ATOM     74  C   UNL     1      -8.910  -0.381  -6.073  1.00  0.00     0.041 A 
ATOM     75  F   UNL     1      -6.987  -1.603  -6.619  1.00  0.00    -0.206 F 
ATOM     76  C   UNL     1     -10.104  -0.261  -5.369  1.00  0.00     0.022 A 
BRANCH  73  77
ATOM     77  S   UNL     1     -12.078  -1.191  -3.634  1.00  0.00     0.124 S 
ATOM     78  O   UNL     1     -12.776  -2.362  -4.153  1.00  0.00    -0.237 OA
ATOM     79  O   UNL     1     -11.662  -1.259  -2.237  1.00  0.00    -0.237 OA
ATOM     80  O   UNL     1     -12.620   0.098  -4.059  1.00  0.00    -0.744 OA
ENDBRANCH  73  77
ENDBRANCH  46  70
BRANCH  58  81
ATOM     81  C   UNL     1      -8.965  -9.289  -6.806  1.00  0.00     0.023 A 
ATOM     82  C   UNL     1      -9.374  -9.129  -8.141  1.00  0.00     0.031 A 
ATOM     83  C   UNL     1      -9.628 -10.241  -6.013  1.00  0.00     0.131 A 
ATOM     84  C   UNL     1     -10.446  -9.888  -8.634  1.00  0.00     0.055 A 
ATOM     85  C   UNL     1     -10.662 -11.025  -6.522  1.00  0.00     0.041 A 
ATOM     86  F   UNL     1      -9.274 -10.428  -4.732  1.00  0.00    -0.206 F 
ATOM     87  C   UNL     1     -11.082 -10.845  -7.837  1.00  0.00     0.022 A 
BRANCH  84  88
ATOM     88  S   UNL     1     -11.039  -9.571 -10.318  1.00  0.00     0.124 S 
ATOM     89  O   UNL     1     -11.490  -8.186 -10.224  1.00  0.00    -0.237 OA
ATOM     90  O   UNL     1      -9.843  -9.800 -11.121  1.00  0.00    -0.237 OA
ATOM     91  O   UNL     1     -12.102 -10.558 -10.498  1.00  0.00    -0.744 OA
ENDBRANCH  84  88
ENDBRANCH  58  81
ENDBRANCH  32  33
ENDBRANCH  25  27
ENDBRANCH  24  25
ENDBRANCH   1  24
TORSDOF 17
