REMARK SMILES O=C(Cc1ccc(O)cc1)N[C@H]1C=C[C@H](C(=O)OCCOC(=O)c2ccc(-c3c4nc(c(-c5cc(S(=O)(=O)[O-])ccc5F)c5ccc([nH]5)c(-c5cc(S(=O)(=O)[O-])ccc5F)c5nc(c(-c6cc(S(=O)(=O)[O-])ccc6F)c6ccc3[nH]6)C=C5)C=C4)cc2)C1
REMARK SMILES IDX 19 1 18 2 16 3 17 4 15 5 12 6 13 7 87 8 14 9 11 10 1 11 2 12
REMARK SMILES IDX 3 14 4 15 5 16 10 17 6 18 9 19 7 20 8 21 20 23 21 24 22 25
REMARK SMILES IDX 23 26 24 27 25 28 86 29 26 30 85 31 27 32 28 33 29 34 79 35
REMARK SMILES IDX 30 36 84 37 78 38 80 39 31 40 83 41 77 42 76 43 32 45 64 46
REMARK SMILES IDX 44 47 63 48 45 49 48 50 62 51 81 52 46 53 47 54 61 56 82 57
REMARK SMILES IDX 49 58 33 59 34 60 42 61 35 62 41 63 43 64 40 65 36 66 37 67
REMARK SMILES IDX 38 68 39 69 65 70 66 71 74 72 67 73 73 74 75 75 72 76 68 77
REMARK SMILES IDX 69 78 70 79 71 80 50 81 51 82 59 83 52 84 58 85 60 86 57 87
REMARK SMILES IDX 53 88 54 89 55 90 56 91
REMARK H PARENT 11 13 8 22 80 44 48 55
REMARK Flexibility Score: inf
ROOT
ATOM      1  C   UNL     1      -0.098   3.199  -6.511  1.00  0.00     0.274 C 
ENDROOT
BRANCH   1   2
ATOM      2  O   UNL     1      -0.132   2.465  -5.275  1.00  0.00    -0.462 OA
BRANCH   2   3
ATOM      3  C   UNL     1       0.907   2.681  -4.420  1.00  0.00     0.312 C 
ATOM      4  O   UNL     1       1.907   3.331  -4.699  1.00  0.00    -0.252 OA
BRANCH   3   5
ATOM      5  C   UNL     1       0.614   2.109  -3.034  1.00  0.00     0.124 C 
ATOM      6  C   UNL     1       2.319   0.546  -2.292  1.00  0.00     0.106 C 
ATOM      7  C   UNL     1       1.060  -0.170  -2.644  1.00  0.00    -0.006 C 
ATOM      8  C   UNL     1       1.886   2.007  -2.177  1.00  0.00     0.048 C 
ATOM      9  C   UNL     1       0.125   0.690  -3.064  1.00  0.00    -0.014 C 
BRANCH   6  10
ATOM     10  N   UNL     1       2.949   0.014  -1.111  1.00  0.00    -0.350 N 
ATOM     11  O   UNL     1       1.204   0.196   0.384  1.00  0.00    -0.275 OA
ATOM     12  C   UNL     1       2.369  -0.102   0.135  1.00  0.00     0.224 C 
ATOM     13  H   UNL     1       3.879  -0.296  -1.202  1.00  0.00     0.164 HD
BRANCH  12  14
ATOM     14  C   UNL     1       3.319  -0.569   1.231  1.00  0.00     0.135 C 
BRANCH  14  15
ATOM     15  C   UNL     1       4.116  -1.798   0.857  1.00  0.00    -0.038 A 
ATOM     16  C   UNL     1       3.527  -3.069   0.929  1.00  0.00     0.008 A 
ATOM     17  C   UNL     1       5.427  -1.678   0.371  1.00  0.00     0.008 A 
ATOM     18  C   UNL     1       4.233  -4.200   0.513  1.00  0.00     0.046 A 
ATOM     19  C   UNL     1       6.125  -2.806  -0.059  1.00  0.00     0.046 A 
ATOM     20  C   UNL     1       5.524  -4.056   0.013  1.00  0.00     0.115 A 
BRANCH  20  21
ATOM     21  O   UNL     1       6.239  -5.132  -0.424  1.00  0.00    -0.508 OA
ATOM     22  H   UNL     1       5.863  -5.990  -0.389  1.00  0.00     0.293 HD
ENDBRANCH  20  21
ENDBRANCH  14  15
ENDBRANCH  12  14
ENDBRANCH   6  10
ENDBRANCH   3   5
ENDBRANCH   2   3
ENDBRANCH   1   2
BRANCH   1  23
ATOM     23  C   UNL     1      -1.031   4.412  -6.444  1.00  0.00     0.275 C 
BRANCH  23  24
ATOM     24  O   UNL     1      -0.528   5.434  -5.561  1.00  0.00    -0.458 OA
BRANCH  24  25
ATOM     25  C   UNL     1      -0.923   5.326  -4.269  1.00  0.00     0.338 C 
ATOM     26  O   UNL     1      -1.658   4.477  -3.797  1.00  0.00    -0.246 OA
BRANCH  25  27
ATOM     27  C   UNL     1      -0.231   6.337  -3.451  1.00  0.00     0.060 A 
ATOM     28  C   UNL     1       0.552   5.904  -2.376  1.00  0.00     0.016 A 
ATOM     29  C   UNL     1      -0.411   7.700  -3.693  1.00  0.00     0.016 A 
ATOM     30  C   UNL     1       1.157   6.833  -1.534  1.00  0.00     0.010 A 
ATOM     31  C   UNL     1       0.201   8.631  -2.848  1.00  0.00     0.010 A 
ATOM     32  C   UNL     1       0.982   8.204  -1.760  1.00  0.00    -0.014 A 
BRANCH  32  33
ATOM     33  C   UNL     1       1.587   9.192  -0.834  1.00  0.00     0.031 A 
ATOM     34  C   UNL     1       0.716   9.933   0.138  1.00  0.00     0.074 A 
ATOM     35  C   UNL     1       2.914   9.414  -0.869  1.00  0.00     0.049 A 
ATOM     36  N   UNL     1       1.026  10.911   0.950  1.00  0.00    -0.248 NA
ATOM     37  C   UNL     1      -0.694   9.520   0.200  1.00  0.00     0.031 C 
ATOM     38  C   UNL     1       3.862   8.712  -1.735  1.00  0.00     0.029 A 
ATOM     39  N   UNL     1       3.692  10.299  -0.167  1.00  0.00    -0.354 N 
ATOM     40  C   UNL     1      -0.152  11.242   1.611  1.00  0.00     0.074 A 
ATOM     41  C   UNL     1      -1.186  10.375   1.084  1.00  0.00     0.031 C 
ATOM     42  C   UNL     1       5.095   9.199  -1.517  1.00  0.00     0.029 A 
ATOM     43  C   UNL     1       5.016  10.283  -0.543  1.00  0.00     0.049 A 
ATOM     44  H   UNL     1       3.338  10.888   0.538  1.00  0.00     0.167 HD
ATOM     45  C   UNL     1      -0.346  12.181   2.571  1.00  0.00     0.034 A 
ATOM     46  C   UNL     1       6.038  11.081  -0.174  1.00  0.00     0.034 A 
ATOM     47  C   UNL     1       0.701  13.036   3.079  1.00  0.00     0.049 A 
ATOM     48  C   UNL     1       5.776  12.184   0.820  1.00  0.00     0.074 A 
ATOM     49  C   UNL     1       0.621  14.008   4.061  1.00  0.00     0.029 A 
ATOM     50  N   UNL     1       2.017  13.031   2.634  1.00  0.00    -0.354 N 
ATOM     51  N   UNL     1       4.656  12.498   1.430  1.00  0.00    -0.248 NA
ATOM     52  C   UNL     1       6.915  13.043   1.171  1.00  0.00     0.031 C 
ATOM     53  C   UNL     1       1.868  14.635   4.161  1.00  0.00     0.029 A 
ATOM     54  C   UNL     1       2.748  14.008   3.293  1.00  0.00     0.049 A 
ATOM     55  H   UNL     1       2.379  12.423   1.950  1.00  0.00     0.167 HD
ATOM     56  C   UNL     1       4.962  13.579   2.251  1.00  0.00     0.074 A 
ATOM     57  C   UNL     1       6.373  13.852   2.070  1.00  0.00     0.031 C 
ATOM     58  C   UNL     1       4.151  14.281   3.084  1.00  0.00     0.034 A 
BRANCH  45  59
ATOM     59  C   UNL     1      -1.753  12.367   3.083  1.00  0.00     0.023 A 
ATOM     60  C   UNL     1      -2.424  11.361   3.799  1.00  0.00     0.031 A 
ATOM     61  C   UNL     1      -2.445  13.565   2.826  1.00  0.00     0.131 A 
ATOM     62  C   UNL     1      -3.765  11.543   4.173  1.00  0.00     0.055 A 
ATOM     63  C   UNL     1      -3.754  13.769   3.264  1.00  0.00     0.041 A 
ATOM     64  F   UNL     1      -1.863  14.553   2.128  1.00  0.00    -0.206 F 
ATOM     65  C   UNL     1      -4.427  12.749   3.930  1.00  0.00     0.022 A 
BRANCH  62  66
ATOM     66  S   UNL     1      -4.676  10.133   4.861  1.00  0.00     0.124 S 
ATOM     67  O   UNL     1      -4.555   9.150   3.787  1.00  0.00    -0.237 OA
ATOM     68  O   UNL     1      -3.932   9.842   6.081  1.00  0.00    -0.237 OA
ATOM     69  O   UNL     1      -6.024  10.661   5.063  1.00  0.00    -0.744 OA
ENDBRANCH  62  66
ENDBRANCH  45  59
BRANCH  46  70
ATOM     70  C   UNL     1       7.383  10.914  -0.792  1.00  0.00     0.023 A 
ATOM     71  C   UNL     1       8.496  10.543  -0.023  1.00  0.00     0.031 A 
ATOM     72  C   UNL     1       7.582  11.165  -2.163  1.00  0.00     0.131 A 
ATOM     73  C   UNL     1       9.765  10.470  -0.620  1.00  0.00     0.055 A 
ATOM     74  C   UNL     1       8.835  11.041  -2.762  1.00  0.00     0.041 A 
ATOM     75  F   UNL     1       6.551  11.526  -2.943  1.00  0.00    -0.206 F 
ATOM     76  C   UNL     1       9.939  10.703  -1.987  1.00  0.00     0.022 A 
BRANCH  73  77
ATOM     77  S   UNL     1      11.204  10.138   0.433  1.00  0.00     0.124 S 
ATOM     78  O   UNL     1      11.137  11.241   1.385  1.00  0.00    -0.237 OA
ATOM     79  O   UNL     1      10.893   8.814   0.962  1.00  0.00    -0.237 OA
ATOM     80  O   UNL     1      12.327  10.186  -0.500  1.00  0.00    -0.744 OA
ENDBRANCH  73  77
ENDBRANCH  46  70
BRANCH  58  81
ATOM     81  C   UNL     1       4.789  15.389   3.882  1.00  0.00     0.023 A 
ATOM     82  C   UNL     1       5.249  16.569   3.271  1.00  0.00     0.031 A 
ATOM     83  C   UNL     1       4.945  15.259   5.274  1.00  0.00     0.131 A 
ATOM     84  C   UNL     1       5.885  17.553   4.043  1.00  0.00     0.055 A 
ATOM     85  C   UNL     1       5.530  16.264   6.044  1.00  0.00     0.041 A 
ATOM     86  F   UNL     1       4.526  14.152   5.907  1.00  0.00    -0.206 F 
ATOM     87  C   UNL     1       6.014  17.415   5.428  1.00  0.00     0.022 A 
BRANCH  84  88
ATOM     88  S   UNL     1       6.608  18.989   3.203  1.00  0.00     0.124 S 
ATOM     89  O   UNL     1       7.599  18.364   2.333  1.00  0.00    -0.237 OA
ATOM     90  O   UNL     1       5.452  19.576   2.534  1.00  0.00    -0.237 OA
ATOM     91  O   UNL     1       7.159  19.785   4.298  1.00  0.00    -0.744 OA
ENDBRANCH  84  88
ENDBRANCH  58  81
ENDBRANCH  32  33
ENDBRANCH  25  27
ENDBRANCH  24  25
ENDBRANCH  23  24
ENDBRANCH   1  23
TORSDOF 18
