REMARK SMILES O=C(OCCOC(=O)[C@@]1(C(F)(F)F)CCN(C(=O)Cc2ccn[nH]2)C1)c1ccc(-c2c3nc(c(-c4cc(S(=O)(=O)[O-])ccc4F)c4ccc([nH]4)c(-c4cc(S(=O)(=O)[O-])ccc4F)c4nc(c(-c5cc(S(=O)(=O)[O-])ccc5F)c5ccc2[nH]5)C=C4)C=C3)cc1
REMARK SMILES IDX 4 1 3 2 2 3 1 4 26 5 27 6 88 7 28 8 87 9 29 10 30 11 31 12
REMARK SMILES IDX 81 13 32 14 86 15 80 16 82 17 33 18 85 19 79 20 78 21 34 23
REMARK SMILES IDX 66 24 46 25 65 26 47 27 50 28 64 29 83 30 48 31 49 32 63 34
REMARK SMILES IDX 84 35 51 36 35 37 36 38 44 39 37 40 43 41 45 42 42 43 38 44
REMARK SMILES IDX 39 45 40 46 41 47 67 48 68 49 76 50 69 51 75 52 77 53 74 54
REMARK SMILES IDX 70 55 71 56 72 57 73 58 52 59 53 60 61 61 54 62 60 63 62 64
REMARK SMILES IDX 59 65 55 66 56 67 57 68 58 69 5 70 6 71 7 72 8 73 9 74 14 75
REMARK SMILES IDX 25 76 15 77 16 78 10 79 11 80 12 81 13 82 17 83 18 84 19 85
REMARK SMILES IDX 20 86 21 87 24 88 22 89 23 90
REMARK H PARENT 82 22 50 33 24 91
REMARK Flexibility Score: inf
ROOT
ATOM      1  C   UNL     1       5.671   2.400   5.247  1.00  0.00     0.275 C 
ENDROOT
BRANCH   1   2
ATOM      2  O   UNL     1       5.608   0.969   5.289  1.00  0.00    -0.458 OA
BRANCH   2   3
ATOM      3  C   UNL     1       4.575   0.176   5.657  1.00  0.00     0.338 C 
ATOM      4  O   UNL     1       4.767  -1.035   5.754  1.00  0.00    -0.246 OA
BRANCH   3   5
ATOM      5  C   UNL     1       3.170   0.678   5.759  1.00  0.00     0.060 A 
ATOM      6  C   UNL     1       2.759   1.961   6.142  1.00  0.00     0.016 A 
ATOM      7  C   UNL     1       2.179  -0.244   5.406  1.00  0.00     0.016 A 
ATOM      8  C   UNL     1       1.418   2.360   6.040  1.00  0.00     0.010 A 
ATOM      9  C   UNL     1       0.848   0.150   5.304  1.00  0.00     0.010 A 
ATOM     10  C   UNL     1       0.452   1.466   5.591  1.00  0.00    -0.014 A 
BRANCH  10  11
ATOM     11  C   UNL     1      -0.994   1.812   5.561  1.00  0.00     0.031 A 
ATOM     12  C   UNL     1      -1.904   1.014   6.450  1.00  0.00     0.074 A 
ATOM     13  C   UNL     1      -1.503   2.728   4.709  1.00  0.00     0.049 A 
ATOM     14  N   UNL     1      -3.206   0.942   6.463  1.00  0.00    -0.248 NA
ATOM     15  C   UNL     1      -1.240   0.135   7.430  1.00  0.00     0.031 C 
ATOM     16  C   UNL     1      -0.736   3.579   3.797  1.00  0.00     0.029 A 
ATOM     17  N   UNL     1      -2.811   3.035   4.412  1.00  0.00    -0.354 N 
ATOM     18  C   UNL     1      -3.508   0.047   7.481  1.00  0.00     0.074 A 
ATOM     19  C   UNL     1      -2.263  -0.548   7.909  1.00  0.00     0.031 C 
ATOM     20  C   UNL     1      -1.581   4.211   2.961  1.00  0.00     0.029 A 
ATOM     21  C   UNL     1      -2.947   3.831   3.292  1.00  0.00     0.049 A 
ATOM     22  H   UNL     1      -3.575   2.717   4.945  1.00  0.00     0.167 HD
ATOM     23  C   UNL     1      -4.697  -0.169   8.092  1.00  0.00     0.034 A 
ATOM     24  C   UNL     1      -4.052   4.184   2.602  1.00  0.00     0.034 A 
ATOM     25  C   UNL     1      -5.917   0.460   7.671  1.00  0.00     0.049 A 
ATOM     26  C   UNL     1      -5.394   3.798   3.169  1.00  0.00     0.074 A 
ATOM     27  C   UNL     1      -7.173   0.384   8.241  1.00  0.00     0.029 A 
ATOM     28  N   UNL     1      -6.029   1.284   6.558  1.00  0.00    -0.354 N 
ATOM     29  N   UNL     1      -5.666   3.037   4.205  1.00  0.00    -0.248 NA
ATOM     30  C   UNL     1      -6.577   4.382   2.524  1.00  0.00     0.031 C 
ATOM     31  C   UNL     1      -8.056   1.117   7.439  1.00  0.00     0.029 A 
ATOM     32  C   UNL     1      -7.337   1.706   6.409  1.00  0.00     0.049 A 
ATOM     33  H   UNL     1      -5.285   1.532   5.962  1.00  0.00     0.167 HD
ATOM     34  C   UNL     1      -7.042   3.131   4.392  1.00  0.00     0.074 A 
ATOM     35  C   UNL     1      -7.544   3.991   3.340  1.00  0.00     0.031 C 
ATOM     36  C   UNL     1      -7.812   2.587   5.368  1.00  0.00     0.034 A 
BRANCH  23  37
ATOM     37  C   UNL     1      -4.679  -1.081   9.293  1.00  0.00     0.023 A 
ATOM     38  C   UNL     1      -3.870  -0.782  10.408  1.00  0.00     0.031 A 
ATOM     39  C   UNL     1      -5.375  -2.298   9.294  1.00  0.00     0.131 A 
ATOM     40  C   UNL     1      -3.670  -1.742  11.407  1.00  0.00     0.055 A 
ATOM     41  C   UNL     1      -5.256  -3.206  10.350  1.00  0.00     0.041 A 
ATOM     42  F   UNL     1      -6.145  -2.647   8.252  1.00  0.00    -0.206 F 
ATOM     43  C   UNL     1      -4.380  -2.943  11.401  1.00  0.00     0.022 A 
BRANCH  40  44
ATOM     44  S   UNL     1      -2.317  -1.480  12.586  1.00  0.00     0.124 S 
ATOM     45  O   UNL     1      -1.158  -1.440  11.696  1.00  0.00    -0.237 OA
ATOM     46  O   UNL     1      -2.681  -0.215  13.213  1.00  0.00    -0.237 OA
ATOM     47  O   UNL     1      -2.387  -2.653  13.454  1.00  0.00    -0.744 OA
ENDBRANCH  40  44
ENDBRANCH  23  37
BRANCH  24  48
ATOM     48  C   UNL     1      -3.969   4.962   1.330  1.00  0.00     0.023 A 
ATOM     49  C   UNL     1      -4.384   6.303   1.270  1.00  0.00     0.031 A 
ATOM     50  C   UNL     1      -3.571   4.344   0.132  1.00  0.00     0.131 A 
ATOM     51  C   UNL     1      -4.447   6.965   0.031  1.00  0.00     0.055 A 
ATOM     52  C   UNL     1      -3.589   5.023  -1.091  1.00  0.00     0.041 A 
ATOM     53  F   UNL     1      -3.198   3.056   0.122  1.00  0.00    -0.206 F 
ATOM     54  C   UNL     1      -4.043   6.337  -1.149  1.00  0.00     0.022 A 
BRANCH  51  55
ATOM     55  S   UNL     1      -5.165   8.631  -0.027  1.00  0.00     0.124 S 
ATOM     56  O   UNL     1      -6.497   8.401   0.520  1.00  0.00    -0.237 OA
ATOM     57  O   UNL     1      -4.246   9.386   0.819  1.00  0.00    -0.237 OA
ATOM     58  O   UNL     1      -5.123   8.973  -1.447  1.00  0.00    -0.744 OA
ENDBRANCH  51  55
ENDBRANCH  24  48
BRANCH  36  59
ATOM     59  C   UNL     1      -9.259   2.999   5.410  1.00  0.00     0.023 A 
ATOM     60  C   UNL     1     -10.169   2.632   4.407  1.00  0.00     0.031 A 
ATOM     61  C   UNL     1      -9.730   3.773   6.487  1.00  0.00     0.131 A 
ATOM     62  C   UNL     1     -11.495   3.083   4.476  1.00  0.00     0.055 A 
ATOM     63  C   UNL     1     -11.066   4.157   6.586  1.00  0.00     0.041 A 
ATOM     64  F   UNL     1      -8.898   4.156   7.469  1.00  0.00    -0.206 F 
ATOM     65  C   UNL     1     -11.955   3.823   5.569  1.00  0.00     0.022 A 
BRANCH  62  66
ATOM     66  S   UNL     1     -12.591   2.767   3.067  1.00  0.00     0.124 S 
ATOM     67  O   UNL     1     -11.885   3.438   1.980  1.00  0.00    -0.237 OA
ATOM     68  O   UNL     1     -12.612   1.309   3.009  1.00  0.00    -0.237 OA
ATOM     69  O   UNL     1     -13.851   3.389   3.468  1.00  0.00    -0.744 OA
ENDBRANCH  62  66
ENDBRANCH  36  59
ENDBRANCH  10  11
ENDBRANCH   3   5
ENDBRANCH   2   3
ENDBRANCH   1   2
BRANCH   1  70
ATOM     70  C   UNL     1       5.112   3.057   3.979  1.00  0.00     0.274 C 
BRANCH  70  71
ATOM     71  O   UNL     1       3.983   2.402   3.369  1.00  0.00    -0.461 OA
BRANCH  71  72
ATOM     72  C   UNL     1       4.277   1.486   2.406  1.00  0.00     0.323 C 
ATOM     73  O   UNL     1       5.428   1.130   2.163  1.00  0.00    -0.251 OA
BRANCH  72  74
ATOM     74  C   UNL     1       3.075   0.914   1.687  1.00  0.00     0.182 C 
ATOM     75  C   UNL     1       2.941  -0.586   2.001  1.00  0.00     0.052 C 
ATOM     76  C   UNL     1       1.719   1.496   2.059  1.00  0.00     0.148 C 
ATOM     77  C   UNL     1       1.454  -0.894   1.916  1.00  0.00     0.121 C 
ATOM     78  N   UNL     1       0.794   0.371   2.134  1.00  0.00    -0.341 N 
BRANCH  74  79
ATOM     79  C   UNL     1       3.320   1.189   0.225  1.00  0.00     0.406 C 
ATOM     80  F   UNL     1       2.311   0.720  -0.544  1.00  0.00    -0.170 F 
ATOM     81  F   UNL     1       3.423   2.517  -0.015  1.00  0.00    -0.170 F 
ATOM     82  F   UNL     1       4.447   0.606  -0.237  1.00  0.00    -0.170 F 
ENDBRANCH  74  79
BRANCH  78  83
ATOM     83  C   UNL     1      -0.571   0.569   2.014  1.00  0.00     0.228 C 
ATOM     84  O   UNL     1      -1.004   1.602   1.508  1.00  0.00    -0.274 OA
BRANCH  83  85
ATOM     85  C   UNL     1      -1.504  -0.527   2.527  1.00  0.00     0.155 C 
BRANCH  85  86
ATOM     86  C   UNL     1      -2.037  -1.322   1.395  1.00  0.00     0.044 A 
ATOM     87  C   UNL     1      -2.619  -0.935   0.208  1.00  0.00     0.045 A 
ATOM     88  N   UNL     1      -2.064  -2.688   1.391  1.00  0.00    -0.282 N 
ATOM     89  C   UNL     1      -2.839  -2.135  -0.485  1.00  0.00     0.135 A 
ATOM     90  N   UNL     1      -2.467  -3.208   0.220  1.00  0.00    -0.184 NA
ATOM     91  H   UNL     1      -1.812  -3.236   2.169  1.00  0.00     0.190 HD
ENDBRANCH  85  86
ENDBRANCH  83  85
ENDBRANCH  78  83
ENDBRANCH  72  74
ENDBRANCH  71  72
ENDBRANCH  70  71
ENDBRANCH   1  70
TORSDOF 18
