REMARK SMILES Cc1noc2c1-c1c(c(C(=O)OCCOC(=O)c3ccc(-c4c5nc(c(-c6cc(S(=O)(=O)[O-])ccc6F)c6ccc([nH]6)c(-c6cc(S(=O)(=O)[O-])ccc6F)c6nc(c(-c7cc(S(=O)(=O)[O-])ccc7F)c7ccc4[nH]7)C=C6)C=C5)cc3)nn1C)CC2
REMARK SMILES IDX 15 1 14 2 13 3 12 4 10 5 11 6 9 7 1 8 2 9 3 10 6 11 4 12
REMARK SMILES IDX 5 13 7 14 85 15 8 16 82 17 84 18 81 19 83 20 16 21 17 22
REMARK SMILES IDX 18 23 19 24 80 25 20 26 79 27 21 28 22 29 23 30 73 31 24 32
REMARK SMILES IDX 78 33 72 34 74 35 25 36 77 37 71 38 70 39 26 41 58 42 38 43
REMARK SMILES IDX 57 44 39 45 42 46 56 47 75 48 40 49 41 50 55 52 76 53 43 54
REMARK SMILES IDX 27 55 28 56 36 57 29 58 35 59 37 60 34 61 30 62 31 63 32 64
REMARK SMILES IDX 33 65 59 66 60 67 68 68 61 69 67 70 69 71 66 72 62 73 63 74
REMARK SMILES IDX 64 75 65 76 44 77 45 78 53 79 46 80 52 81 54 82 51 83 47 84
REMARK SMILES IDX 48 85 49 86 50 87
REMARK H PARENT 74 40 42 51
REMARK Flexibility Score: inf
ROOT
ATOM      1  O   UNL     1      -0.037   6.804   5.637  1.00  0.00    -0.458 OA
ENDROOT
BRANCH   1   2
ATOM      2  C   UNL     1      -0.247   6.003   6.797  1.00  0.00     0.275 C 
BRANCH   2   3
ATOM      3  C   UNL     1      -1.516   5.177   6.660  1.00  0.00     0.275 C 
BRANCH   3   4
ATOM      4  O   UNL     1      -1.341   4.143   5.682  1.00  0.00    -0.457 OA
BRANCH   4   5
ATOM      5  C   UNL     1      -1.632   4.480   4.380  1.00  0.00     0.359 C 
ATOM      6  O   UNL     1      -2.238   5.488   4.066  1.00  0.00    -0.244 OA
BRANCH   5   7
ATOM      7  C   UNL     1      -1.095   3.489   3.423  1.00  0.00     0.174 A 
ATOM      8  C   UNL     1       1.103  -0.525   0.016  1.00  0.00     0.071 C 
ATOM      9  C   UNL     1       0.629  -0.690   1.405  1.00  0.00     0.090 A 
ATOM     10  N   UNL     1       0.687  -1.925   1.944  1.00  0.00    -0.084 NA
ATOM     11  C   UNL     1       0.133   0.238   2.341  1.00  0.00     0.066 A 
ATOM     12  O   UNL     1       0.237  -1.805   3.248  1.00  0.00    -0.360 OA
ATOM     13  C   UNL     1      -0.074  -0.514   3.474  1.00  0.00     0.146 A 
ATOM     14  C   UNL     1      -0.247   1.666   2.442  1.00  0.00     0.077 A 
ATOM     15  C   UNL     1      -0.637  -0.096   4.781  1.00  0.00     0.084 C 
ATOM     16  C   UNL     1      -0.595   2.182   3.684  1.00  0.00     0.014 A 
ATOM     17  N   UNL     1      -0.392   2.692   1.561  1.00  0.00    -0.267 N 
ATOM     18  C   UNL     1      -0.429   1.422   4.974  1.00  0.00     0.048 C 
ATOM     19  N   UNL     1      -1.019   3.757   2.102  1.00  0.00    -0.165 NA
ATOM     20  C   UNL     1      -0.042   2.747   0.165  1.00  0.00     0.174 C 
ENDBRANCH   5   7
ENDBRANCH   4   5
ENDBRANCH   3   4
ENDBRANCH   2   3
ENDBRANCH   1   2
BRANCH   1  21
ATOM     21  C   UNL     1       0.844   6.301   4.740  1.00  0.00     0.338 C 
ATOM     22  O   UNL     1       1.175   5.133   4.619  1.00  0.00    -0.246 OA
BRANCH  21  23
ATOM     23  C   UNL     1       1.539   7.423   4.098  1.00  0.00     0.060 A 
ATOM     24  C   UNL     1       2.447   7.139   3.075  1.00  0.00     0.016 A 
ATOM     25  C   UNL     1       1.481   8.688   4.702  1.00  0.00     0.016 A 
ATOM     26  C   UNL     1       3.403   8.087   2.761  1.00  0.00     0.010 A 
ATOM     27  C   UNL     1       2.450   9.616   4.411  1.00  0.00     0.010 A 
ATOM     28  C   UNL     1       3.438   9.284   3.489  1.00  0.00    -0.014 A 
BRANCH  28  29
ATOM     29  C   UNL     1       4.424  10.291   3.146  1.00  0.00     0.031 A 
ATOM     30  C   UNL     1       4.108  10.951   1.858  1.00  0.00     0.074 A 
ATOM     31  C   UNL     1       5.395  10.689   3.991  1.00  0.00     0.049 A 
ATOM     32  N   UNL     1       4.746  10.849   0.741  1.00  0.00    -0.248 NA
ATOM     33  C   UNL     1       2.804  11.630   1.736  1.00  0.00     0.031 C 
ATOM     34  C   UNL     1       5.589  10.285   5.387  1.00  0.00     0.029 A 
ATOM     35  N   UNL     1       6.365  11.628   3.813  1.00  0.00    -0.354 N 
ATOM     36  C   UNL     1       4.071  11.683  -0.142  1.00  0.00     0.074 A 
ATOM     37  C   UNL     1       2.777  11.909   0.434  1.00  0.00     0.031 C 
ATOM     38  C   UNL     1       6.463  11.130   5.983  1.00  0.00     0.029 A 
ATOM     39  C   UNL     1       6.989  12.050   4.987  1.00  0.00     0.049 A 
ATOM     40  H   UNL     1       6.607  11.980   2.926  1.00  0.00     0.167 HD
ATOM     41  C   UNL     1       4.752  12.373  -1.095  1.00  0.00     0.034 A 
ATOM     42  C   UNL     1       7.831  13.112   5.138  1.00  0.00     0.034 A 
ATOM     43  C   UNL     1       6.047  11.771  -1.334  1.00  0.00     0.049 A 
ATOM     44  C   UNL     1       8.352  13.443   3.789  1.00  0.00     0.074 A 
ATOM     45  C   UNL     1       6.471  10.511  -1.714  1.00  0.00     0.029 A 
ATOM     46  N   UNL     1       7.152  12.384  -0.786  1.00  0.00    -0.354 N 
ATOM     47  N   UNL     1       9.129  12.646   3.108  1.00  0.00    -0.248 NA
ATOM     48  C   UNL     1       7.618  14.416   2.992  1.00  0.00     0.031 C 
ATOM     49  C   UNL     1       7.644  10.267  -0.940  1.00  0.00     0.029 A 
ATOM     50  C   UNL     1       7.932  11.416  -0.201  1.00  0.00     0.049 A 
ATOM     51  H   UNL     1       7.349  13.348  -0.809  1.00  0.00     0.167 HD
ATOM     52  C   UNL     1       8.654  12.707   1.806  1.00  0.00     0.074 A 
ATOM     53  C   UNL     1       7.794  13.889   1.776  1.00  0.00     0.031 C 
ATOM     54  C   UNL     1       8.773  11.638   0.963  1.00  0.00     0.034 A 
BRANCH  41  55
ATOM     55  C   UNL     1       4.437  13.805  -1.482  1.00  0.00     0.023 A 
ATOM     56  C   UNL     1       5.263  14.396  -2.454  1.00  0.00     0.031 A 
ATOM     57  C   UNL     1       3.600  14.698  -0.768  1.00  0.00     0.131 A 
ATOM     58  C   UNL     1       5.325  15.793  -2.597  1.00  0.00     0.055 A 
ATOM     59  C   UNL     1       3.617  16.081  -0.963  1.00  0.00     0.041 A 
ATOM     60  F   UNL     1       2.783  14.313   0.218  1.00  0.00    -0.206 F 
ATOM     61  C   UNL     1       4.509  16.641  -1.856  1.00  0.00     0.022 A 
BRANCH  58  62
ATOM     62  S   UNL     1       6.631  16.487  -3.638  1.00  0.00     0.124 S 
ATOM     63  O   UNL     1       7.822  15.880  -3.053  1.00  0.00    -0.237 OA
ATOM     64  O   UNL     1       6.245  16.007  -4.960  1.00  0.00    -0.237 OA
ATOM     65  O   UNL     1       6.497  17.927  -3.432  1.00  0.00    -0.744 OA
ENDBRANCH  58  62
ENDBRANCH  41  55
BRANCH  42  66
ATOM     66  C   UNL     1       7.917  14.050   6.298  1.00  0.00     0.023 A 
ATOM     67  C   UNL     1       9.049  14.850   6.580  1.00  0.00     0.031 A 
ATOM     68  C   UNL     1       6.740  14.347   7.023  1.00  0.00     0.131 A 
ATOM     69  C   UNL     1       8.971  15.884   7.548  1.00  0.00     0.055 A 
ATOM     70  C   UNL     1       6.670  15.367   7.975  1.00  0.00     0.041 A 
ATOM     71  F   UNL     1       5.588  13.707   6.766  1.00  0.00    -0.206 F 
ATOM     72  C   UNL     1       7.784  16.145   8.237  1.00  0.00     0.022 A 
BRANCH  69  73
ATOM     73  S   UNL     1      10.404  16.963   7.891  1.00  0.00     0.124 S 
ATOM     74  O   UNL     1      11.399  16.019   8.384  1.00  0.00    -0.237 OA
ATOM     75  O   UNL     1      10.665  17.561   6.586  1.00  0.00    -0.237 OA
ATOM     76  O   UNL     1       9.898  17.898   8.899  1.00  0.00    -0.744 OA
ENDBRANCH  69  73
ENDBRANCH  42  66
BRANCH  54  77
ATOM     77  C   UNL     1       9.718  10.517   1.355  1.00  0.00     0.023 A 
ATOM     78  C   UNL     1       9.638   9.750   2.542  1.00  0.00     0.031 A 
ATOM     79  C   UNL     1      10.693  10.150   0.410  1.00  0.00     0.131 A 
ATOM     80  C   UNL     1      10.525   8.672   2.746  1.00  0.00     0.055 A 
ATOM     81  C   UNL     1      11.551   9.070   0.604  1.00  0.00     0.041 A 
ATOM     82  F   UNL     1      10.806  10.824  -0.747  1.00  0.00    -0.206 F 
ATOM     83  C   UNL     1      11.475   8.330   1.777  1.00  0.00     0.022 A 
BRANCH  80  84
ATOM     84  S   UNL     1      10.483   7.700   4.289  1.00  0.00     0.124 S 
ATOM     85  O   UNL     1      10.442   8.716   5.333  1.00  0.00    -0.237 OA
ATOM     86  O   UNL     1       9.272   6.900   4.125  1.00  0.00    -0.237 OA
ATOM     87  O   UNL     1      11.728   6.929   4.239  1.00  0.00    -0.744 OA
ENDBRANCH  80  84
ENDBRANCH  54  77
ENDBRANCH  28  29
ENDBRANCH  21  23
ENDBRANCH   1  21
TORSDOF 14
