REMARK SMILES C[C@@](NC(=O)C[C@@H]1CCC[NH2+]C1)(C(=O)OCCOC(=O)c1ccc(-c2c3nc(c(-c4cc(S(=O)(=O)[O-])ccc4F)c4ccc([nH]4)c(-c4cc(S(=O)(=O)[O-])ccc4F)c4nc(c(-c5cc(S(=O)(=O)[O-])ccc5F)c5ccc2[nH]5)C=C4)C=C3)cc1)C(F)(F)F
REMARK SMILES IDX 16 1 15 2 13 3 14 4 2 5 1 6 3 7 4 8 5 10 6 11 7 12 8 13
REMARK SMILES IDX 12 14 9 15 11 16 10 17 84 20 85 21 86 22 87 23 17 24 18 25
REMARK SMILES IDX 19 26 20 27 21 28 22 29 83 30 23 31 82 32 24 33 25 34 26 35
REMARK SMILES IDX 76 36 27 37 81 38 75 39 77 40 28 41 80 42 74 43 73 44 29 46
REMARK SMILES IDX 61 47 41 48 60 49 42 50 45 51 59 52 78 53 43 54 44 55 58 57
REMARK SMILES IDX 79 58 46 59 30 60 31 61 39 62 32 63 38 64 40 65 37 66 33 67
REMARK SMILES IDX 34 68 35 69 36 70 62 71 63 72 71 73 64 74 70 75 72 76 69 77
REMARK SMILES IDX 65 78 66 79 67 80 68 81 47 82 48 83 56 84 49 85 55 86 57 87
REMARK SMILES IDX 54 88 50 89 51 90 52 91 53 92
REMARK H PARENT 3 9 11 18 11 19 77 45 45 56
REMARK Flexibility Score: inf
ROOT
ATOM      1  C   UNL     1      -2.895   0.062  -0.668  1.00  0.00     0.274 C 
ENDROOT
BRANCH   1   2
ATOM      2  O   UNL     1      -1.448   0.169  -0.612  1.00  0.00    -0.460 OA
BRANCH   2   3
ATOM      3  C   UNL     1      -0.784   0.346  -1.797  1.00  0.00     0.341 C 
ATOM      4  O   UNL     1      -1.365   0.566  -2.853  1.00  0.00    -0.249 OA
BRANCH   3   5
ATOM      5  C   UNL     1       0.730   0.089  -1.690  1.00  0.00     0.231 C 
ATOM      6  C   UNL     1       1.272   0.088  -0.245  1.00  0.00     0.058 C 
BRANCH   5   7
ATOM      7  N   UNL     1       1.213  -1.149  -2.409  1.00  0.00    -0.333 N 
ATOM      8  C   UNL     1       0.692  -2.301  -2.888  1.00  0.00     0.221 C 
ATOM      9  H   UNL     1       2.182  -1.105  -2.575  1.00  0.00     0.164 HD
ATOM     10  O   UNL     1       1.506  -3.110  -3.347  1.00  0.00    -0.275 OA
BRANCH   8  11
ATOM     11  C   UNL     1      -0.789  -2.597  -2.963  1.00  0.00     0.109 C 
BRANCH  11  12
ATOM     12  C   UNL     1      -1.535  -3.119  -1.719  1.00  0.00     0.054 C 
ATOM     13  C   UNL     1      -0.789  -3.059  -0.386  1.00  0.00     0.016 C 
ATOM     14  C   UNL     1      -2.074  -4.548  -1.906  1.00  0.00     0.264 C 
ATOM     15  C   UNL     1       0.272  -4.144  -0.254  1.00  0.00     0.062 C 
ATOM     16  N   UNL     1      -1.020  -5.553  -1.826  1.00  0.00    -0.346 N 
ATOM     17  C   UNL     1      -0.326  -5.516  -0.538  1.00  0.00     0.260 C 
ATOM     18  H   UNL     1      -1.435  -6.477  -1.950  1.00  0.00     0.346 HD
ATOM     19  H   UNL     1      -0.338  -5.355  -2.558  1.00  0.00     0.346 HD
ENDBRANCH  11  12
ENDBRANCH   8  11
ENDBRANCH   5   7
BRANCH   5  20
ATOM     20  C   UNL     1       1.401   1.314  -2.369  1.00  0.00     0.422 C 
ATOM     21  F   UNL     1       1.305   2.433  -1.624  1.00  0.00    -0.168 F 
ATOM     22  F   UNL     1       2.735   1.071  -2.517  1.00  0.00    -0.168 F 
ATOM     23  F   UNL     1       0.927   1.584  -3.600  1.00  0.00    -0.168 F 
ENDBRANCH   5  20
ENDBRANCH   3   5
ENDBRANCH   2   3
ENDBRANCH   1   2
BRANCH   1  24
ATOM     24  C   UNL     1      -3.609   0.999   0.304  1.00  0.00     0.275 C 
BRANCH  24  25
ATOM     25  O   UNL     1      -3.465   2.350  -0.139  1.00  0.00    -0.458 OA
BRANCH  25  26
ATOM     26  C   UNL     1      -2.406   2.986   0.397  1.00  0.00     0.338 C 
ATOM     27  O   UNL     1      -1.680   2.596   1.305  1.00  0.00    -0.246 OA
BRANCH  26  28
ATOM     28  C   UNL     1      -2.085   4.122  -0.457  1.00  0.00     0.060 A 
ATOM     29  C   UNL     1      -1.159   3.891  -1.470  1.00  0.00     0.016 A 
ATOM     30  C   UNL     1      -2.566   5.398  -0.200  1.00  0.00     0.016 A 
ATOM     31  C   UNL     1      -0.593   4.946  -2.161  1.00  0.00     0.010 A 
ATOM     32  C   UNL     1      -2.051   6.458  -0.945  1.00  0.00     0.010 A 
ATOM     33  C   UNL     1      -1.023   6.242  -1.888  1.00  0.00    -0.014 A 
BRANCH  33  34
ATOM     34  C   UNL     1      -0.299   7.400  -2.452  1.00  0.00     0.031 A 
ATOM     35  C   UNL     1       0.401   8.313  -1.493  1.00  0.00     0.074 A 
ATOM     36  C   UNL     1      -0.267   7.628  -3.775  1.00  0.00     0.049 A 
ATOM     37  N   UNL     1       0.747   9.561  -1.634  1.00  0.00    -0.248 NA
ATOM     38  C   UNL     1       0.713   7.739  -0.174  1.00  0.00     0.031 C 
ATOM     39  C   UNL     1      -0.783   6.729  -4.809  1.00  0.00     0.029 A 
ATOM     40  N   UNL     1       0.205   8.708  -4.473  1.00  0.00    -0.354 N 
ATOM     41  C   UNL     1       1.235   9.954  -0.392  1.00  0.00     0.074 A 
ATOM     42  C   UNL     1       1.152   8.802   0.481  1.00  0.00     0.031 C 
ATOM     43  C   UNL     1      -0.618   7.306  -6.009  1.00  0.00     0.029 A 
ATOM     44  C   UNL     1      -0.087   8.649  -5.814  1.00  0.00     0.049 A 
ATOM     45  H   UNL     1       0.702   9.449  -4.056  1.00  0.00     0.167 HD
ATOM     46  C   UNL     1       1.678  11.182  -0.028  1.00  0.00     0.034 A 
ATOM     47  C   UNL     1      -0.018   9.608  -6.757  1.00  0.00     0.034 A 
ATOM     48  C   UNL     1       1.771  12.278  -0.962  1.00  0.00     0.049 A 
ATOM     49  C   UNL     1       0.435  10.981  -6.335  1.00  0.00     0.074 A 
ATOM     50  C   UNL     1       2.166  13.584  -0.740  1.00  0.00     0.029 A 
ATOM     51  N   UNL     1       1.472  12.179  -2.319  1.00  0.00    -0.354 N 
ATOM     52  N   UNL     1       0.760  11.410  -5.135  1.00  0.00    -0.248 NA
ATOM     53  C   UNL     1       0.513  12.002  -7.385  1.00  0.00     0.031 C 
ATOM     54  C   UNL     1       2.064  14.282  -1.951  1.00  0.00     0.029 A 
ATOM     55  C   UNL     1       1.668  13.398  -2.944  1.00  0.00     0.049 A 
ATOM     56  H   UNL     1       1.166  11.358  -2.769  1.00  0.00     0.167 HD
ATOM     57  C   UNL     1       1.099  12.749  -5.289  1.00  0.00     0.074 A 
ATOM     58  C   UNL     1       0.946  13.051  -6.700  1.00  0.00     0.031 C 
ATOM     59  C   UNL     1       1.500  13.652  -4.356  1.00  0.00     0.034 A 
BRANCH  46  60
ATOM     60  C   UNL     1       1.978  11.402   1.437  1.00  0.00     0.023 A 
ATOM     61  C   UNL     1       2.980  10.688   2.117  1.00  0.00     0.031 A 
ATOM     62  C   UNL     1       1.176  12.280   2.190  1.00  0.00     0.131 A 
ATOM     63  C   UNL     1       3.090  10.790   3.514  1.00  0.00     0.055 A 
ATOM     64  C   UNL     1       1.349  12.445   3.566  1.00  0.00     0.041 A 
ATOM     65  F   UNL     1       0.182  12.969   1.607  1.00  0.00    -0.206 F 
ATOM     66  C   UNL     1       2.298  11.682   4.240  1.00  0.00     0.022 A 
BRANCH  63  67
ATOM     67  S   UNL     1       4.158   9.613   4.390  1.00  0.00     0.124 S 
ATOM     68  O   UNL     1       3.572   8.334   3.996  1.00  0.00    -0.237 OA
ATOM     69  O   UNL     1       5.474   9.910   3.838  1.00  0.00    -0.237 OA
ATOM     70  O   UNL     1       3.976   9.965   5.797  1.00  0.00    -0.744 OA
ENDBRANCH  63  67
ENDBRANCH  46  60
BRANCH  47  71
ATOM     71  C   UNL     1      -0.481   9.325  -8.144  1.00  0.00     0.023 A 
ATOM     72  C   UNL     1       0.415   9.319  -9.222  1.00  0.00     0.031 A 
ATOM     73  C   UNL     1      -1.835   9.041  -8.409  1.00  0.00     0.131 A 
ATOM     74  C   UNL     1      -0.054   9.049 -10.518  1.00  0.00     0.055 A 
ATOM     75  C   UNL     1      -2.288   8.728  -9.691  1.00  0.00     0.041 A 
ATOM     76  F   UNL     1      -2.735   9.031  -7.412  1.00  0.00    -0.206 F 
ATOM     77  C   UNL     1      -1.395   8.738 -10.757  1.00  0.00     0.022 A 
BRANCH  74  78
ATOM     78  S   UNL     1       1.112   9.154 -11.904  1.00  0.00     0.124 S 
ATOM     79  O   UNL     1       1.553  10.541 -11.817  1.00  0.00    -0.237 OA
ATOM     80  O   UNL     1       2.100   8.142 -11.546  1.00  0.00    -0.237 OA
ATOM     81  O   UNL     1       0.287   8.833 -13.067  1.00  0.00    -0.744 OA
ENDBRANCH  74  78
ENDBRANCH  47  71
BRANCH  59  82
ATOM     82  C   UNL     1       1.855  15.024  -4.862  1.00  0.00     0.023 A 
ATOM     83  C   UNL     1       0.873  15.922  -5.311  1.00  0.00     0.031 A 
ATOM     84  C   UNL     1       3.201  15.428  -4.897  1.00  0.00     0.131 A 
ATOM     85  C   UNL     1       1.258  17.169  -5.822  1.00  0.00     0.055 A 
ATOM     86  C   UNL     1       3.573  16.688  -5.361  1.00  0.00     0.041 A 
ATOM     87  F   UNL     1       4.172  14.601  -4.478  1.00  0.00    -0.206 F 
ATOM     88  C   UNL     1       2.600  17.563  -5.837  1.00  0.00     0.022 A 
BRANCH  85  89
ATOM     89  S   UNL     1      -0.012  18.247  -6.537  1.00  0.00     0.124 S 
ATOM     90  O   UNL     1      -0.532  17.423  -7.623  1.00  0.00    -0.237 OA
ATOM     91  O   UNL     1      -0.914  18.459  -5.409  1.00  0.00    -0.237 OA
ATOM     92  O   UNL     1       0.738  19.428  -6.959  1.00  0.00    -0.744 OA
ENDBRANCH  85  89
ENDBRANCH  59  82
ENDBRANCH  33  34
ENDBRANCH  26  28
ENDBRANCH  25  26
ENDBRANCH  24  25
ENDBRANCH   1  24
TORSDOF 18
