REMARK SMILES CC(C)CN(C)C(=O)N1CCC(C(=O)OCCOC(=O)c2ccc(-c3c4nc(c(-c5cc(S(=O)(=O)[O-])ccc5F)c5ccc([nH]5)c(-c5cc(S(=O)(=O)[O-])ccc5F)c5nc(c(-c6cc(S(=O)(=O)[O-])ccc6F)c6ccc3[nH]6)C=C5)C=C4)cc2)CC1
REMARK SMILES IDX 16 1 15 2 13 3 14 4 12 5 7 6 8 7 9 8 10 9 85 10 11 11 84 12
REMARK SMILES IDX 5 13 6 14 4 15 2 16 1 17 3 18 17 19 18 20 19 21 20 22 21 23
REMARK SMILES IDX 22 24 83 25 23 26 82 27 24 28 25 29 26 30 76 31 27 32 81 33
REMARK SMILES IDX 75 34 77 35 28 36 80 37 74 38 73 39 29 41 61 42 41 43 60 44
REMARK SMILES IDX 42 45 45 46 59 47 78 48 43 49 44 50 58 52 79 53 46 54 30 55
REMARK SMILES IDX 31 56 39 57 32 58 38 59 40 60 37 61 33 62 34 63 35 64 36 65
REMARK SMILES IDX 62 66 63 67 71 68 64 69 70 70 72 71 69 72 65 73 66 74 67 75
REMARK SMILES IDX 68 76 47 77 48 78 56 79 49 80 55 81 57 82 54 83 50 84 51 85
REMARK SMILES IDX 52 86 53 87
REMARK H PARENT 77 40 45 51
REMARK Flexibility Score: inf
ROOT
ATOM      1  C   UNL     1      -3.916  -4.524   5.817  1.00  0.00     0.274 C 
ENDROOT
BRANCH   1   2
ATOM      2  O   UNL     1      -3.322  -3.388   5.164  1.00  0.00    -0.462 OA
BRANCH   2   3
ATOM      3  C   UNL     1      -3.976  -2.207   5.294  1.00  0.00     0.309 C 
ATOM      4  O   UNL     1      -5.063  -2.067   5.842  1.00  0.00    -0.252 OA
BRANCH   3   5
ATOM      5  C   UNL     1      -3.225  -1.039   4.685  1.00  0.00     0.103 C 
ATOM      6  C   UNL     1      -1.452   0.133   1.392  1.00  0.00     0.319 C 
ATOM      7  O   UNL     1      -1.011  -0.989   1.142  1.00  0.00    -0.248 OA
ATOM      8  N   UNL     1      -1.864   0.468   2.664  1.00  0.00    -0.325 N 
ATOM      9  C   UNL     1      -1.105  -0.066   3.786  1.00  0.00     0.122 C 
ATOM     10  C   UNL     1      -3.269   0.753   2.927  1.00  0.00     0.122 C 
ATOM     11  C   UNL     1      -1.759  -1.323   4.341  1.00  0.00     0.037 C 
ATOM     12  C   UNL     1      -3.973  -0.495   3.464  1.00  0.00     0.037 C 
BRANCH   6  13
ATOM     13  N   UNL     1      -1.488   1.151   0.451  1.00  0.00    -0.327 N 
ATOM     14  C   UNL     1      -1.845   2.534   0.744  1.00  0.00     0.148 C 
BRANCH  13  15
ATOM     15  C   UNL     1      -0.991   0.867  -0.892  1.00  0.00     0.124 C 
BRANCH  15  16
ATOM     16  C   UNL     1       0.517   1.169  -1.049  1.00  0.00     0.002 C 
ATOM     17  C   UNL     1       1.402   0.182  -0.283  1.00  0.00     0.009 C 
ATOM     18  C   UNL     1       0.899   1.152  -2.529  1.00  0.00     0.009 C 
ENDBRANCH  15  16
ENDBRANCH  13  15
ENDBRANCH   6  13
ENDBRANCH   3   5
ENDBRANCH   2   3
ENDBRANCH   1   2
BRANCH   1  19
ATOM     19  C   UNL     1      -3.154  -4.889   7.093  1.00  0.00     0.275 C 
BRANCH  19  20
ATOM     20  O   UNL     1      -3.246  -3.850   8.086  1.00  0.00    -0.458 OA
BRANCH  20  21
ATOM     21  C   UNL     1      -2.208  -2.979   8.094  1.00  0.00     0.338 C 
ATOM     22  O   UNL     1      -1.221  -3.005   7.381  1.00  0.00    -0.246 OA
BRANCH  21  23
ATOM     23  C   UNL     1      -2.481  -1.879   9.032  1.00  0.00     0.060 A 
ATOM     24  C   UNL     1      -2.597  -0.588   8.512  1.00  0.00     0.016 A 
ATOM     25  C   UNL     1      -2.514  -2.092  10.411  1.00  0.00     0.016 A 
ATOM     26  C   UNL     1      -2.747   0.502   9.365  1.00  0.00     0.010 A 
ATOM     27  C   UNL     1      -2.658  -0.996  11.269  1.00  0.00     0.010 A 
ATOM     28  C   UNL     1      -2.762   0.308  10.751  1.00  0.00    -0.014 A 
BRANCH  28  29
ATOM     29  C   UNL     1      -2.803   1.485  11.653  1.00  0.00     0.031 A 
ATOM     30  C   UNL     1      -1.551   1.919  12.362  1.00  0.00     0.074 A 
ATOM     31  C   UNL     1      -3.947   2.178  11.808  1.00  0.00     0.049 A 
ATOM     32  N   UNL     1      -1.386   2.860  13.254  1.00  0.00    -0.248 NA
ATOM     33  C   UNL     1      -0.322   1.190  12.018  1.00  0.00     0.031 C 
ATOM     34  C   UNL     1      -5.207   1.885  11.124  1.00  0.00     0.029 A 
ATOM     35  N   UNL     1      -4.234   3.267  12.590  1.00  0.00    -0.354 N 
ATOM     36  C   UNL     1      -0.038   2.828  13.595  1.00  0.00     0.074 A 
ATOM     37  C   UNL     1       0.562   1.756  12.827  1.00  0.00     0.031 C 
ATOM     38  C   UNL     1      -6.135   2.772  11.522  1.00  0.00     0.029 A 
ATOM     39  C   UNL     1      -5.550   3.660  12.523  1.00  0.00     0.049 A 
ATOM     40  H   UNL     1      -3.563   3.724  13.146  1.00  0.00     0.167 HD
ATOM     41  C   UNL     1       0.633   3.620  14.468  1.00  0.00     0.034 A 
ATOM     42  C   UNL     1      -6.215   4.605  13.216  1.00  0.00     0.034 A 
ATOM     43  C   UNL     1       0.017   4.683  15.226  1.00  0.00     0.049 A 
ATOM     44  C   UNL     1      -5.465   5.424  14.236  1.00  0.00     0.074 A 
ATOM     45  C   UNL     1       0.600   5.546  16.138  1.00  0.00     0.029 A 
ATOM     46  N   UNL     1      -1.329   5.025  15.164  1.00  0.00    -0.354 N 
ATOM     47  N   UNL     1      -4.197   5.364  14.573  1.00  0.00    -0.248 NA
ATOM     48  C   UNL     1      -6.236   6.437  14.968  1.00  0.00     0.031 C 
ATOM     49  C   UNL     1      -0.401   6.368  16.668  1.00  0.00     0.029 A 
ATOM     50  C   UNL     1      -1.598   6.067  16.039  1.00  0.00     0.049 A 
ATOM     51  H   UNL     1      -1.994   4.591  14.582  1.00  0.00     0.167 HD
ATOM     52  C   UNL     1      -4.016   6.347  15.542  1.00  0.00     0.074 A 
ATOM     53  C   UNL     1      -5.300   6.992  15.723  1.00  0.00     0.031 C 
ATOM     54  C   UNL     1      -2.889   6.688  16.218  1.00  0.00     0.034 A 
BRANCH  41  55
ATOM     55  C   UNL     1       2.095   3.317  14.690  1.00  0.00     0.023 A 
ATOM     56  C   UNL     1       3.049   3.472  13.670  1.00  0.00     0.031 A 
ATOM     57  C   UNL     1       2.532   2.825  15.933  1.00  0.00     0.131 A 
ATOM     58  C   UNL     1       4.377   3.073  13.888  1.00  0.00     0.055 A 
ATOM     59  C   UNL     1       3.870   2.499  16.167  1.00  0.00     0.041 A 
ATOM     60  F   UNL     1       1.662   2.635  16.937  1.00  0.00    -0.206 F 
ATOM     61  C   UNL     1       4.799   2.609  15.137  1.00  0.00     0.022 A 
BRANCH  58  62
ATOM     62  S   UNL     1       5.517   3.038  12.477  1.00  0.00     0.124 S 
ATOM     63  O   UNL     1       4.834   2.120  11.568  1.00  0.00    -0.237 OA
ATOM     64  O   UNL     1       5.552   4.437  12.065  1.00  0.00    -0.237 OA
ATOM     65  O   UNL     1       6.759   2.525  13.051  1.00  0.00    -0.744 OA
ENDBRANCH  58  62
ENDBRANCH  41  55
BRANCH  42  66
ATOM     66  C   UNL     1      -7.680   4.793  13.016  1.00  0.00     0.023 A 
ATOM     67  C   UNL     1      -8.196   5.987  12.489  1.00  0.00     0.031 A 
ATOM     68  C   UNL     1      -8.590   3.788  13.391  1.00  0.00     0.131 A 
ATOM     69  C   UNL     1      -9.585   6.161  12.384  1.00  0.00     0.055 A 
ATOM     70  C   UNL     1      -9.968   3.947  13.240  1.00  0.00     0.041 A 
ATOM     71  F   UNL     1      -8.148   2.628  13.901  1.00  0.00    -0.206 F 
ATOM     72  C   UNL     1     -10.473   5.145  12.744  1.00  0.00     0.022 A 
BRANCH  69  73
ATOM     73  S   UNL     1     -10.221   7.768  11.834  1.00  0.00     0.124 S 
ATOM     74  O   UNL     1      -9.659   8.669  12.834  1.00  0.00    -0.237 OA
ATOM     75  O   UNL     1      -9.661   7.871  10.490  1.00  0.00    -0.237 OA
ATOM     76  O   UNL     1     -11.671   7.598  11.890  1.00  0.00    -0.744 OA
ENDBRANCH  69  73
ENDBRANCH  42  66
BRANCH  54  77
ATOM     77  C   UNL     1      -2.999   7.842  17.183  1.00  0.00     0.023 A 
ATOM     78  C   UNL     1      -3.735   7.740  18.376  1.00  0.00     0.031 A 
ATOM     79  C   UNL     1      -2.372   9.066  16.892  1.00  0.00     0.131 A 
ATOM     80  C   UNL     1      -3.868   8.860  19.211  1.00  0.00     0.055 A 
ATOM     81  C   UNL     1      -2.464  10.161  17.752  1.00  0.00     0.041 A 
ATOM     82  F   UNL     1      -1.658   9.217  15.764  1.00  0.00    -0.206 F 
ATOM     83  C   UNL     1      -3.226  10.065  18.913  1.00  0.00     0.022 A 
BRANCH  80  84
ATOM     84  S   UNL     1      -4.960   8.747  20.655  1.00  0.00     0.124 S 
ATOM     85  O   UNL     1      -6.243   8.420  20.040  1.00  0.00    -0.237 OA
ATOM     86  O   UNL     1      -4.338   7.683  21.436  1.00  0.00    -0.237 OA
ATOM     87  O   UNL     1      -4.880  10.079  21.251  1.00  0.00    -0.744 OA
ENDBRANCH  80  84
ENDBRANCH  54  77
ENDBRANCH  28  29
ENDBRANCH  21  23
ENDBRANCH  20  21
ENDBRANCH  19  20
ENDBRANCH   1  19
TORSDOF 17
