REMARK SMILES O=C(CSc1nc2ccc(Cl)cc2c(=O)n1CC1CCCCC1)OCCOC(=O)c1ccc(-c2c3nc(c(-c4cc(S(=O)(=O)[O-])ccc4F)c4ccc([nH]4)c(-c4cc(S(=O)(=O)[O-])ccc4F)c4nc(c(-c5cc(S(=O)(=O)[O-])ccc5F)c5ccc2[nH]5)C=C4)C=C3)cc1
REMARK SMILES IDX 25 1 24 2 2 3 1 4 3 5 4 6 5 7 6 8 16 9 7 10 14 11 8 12 13 13
REMARK SMILES IDX 15 14 9 15 12 16 10 17 11 18 17 19 18 20 19 21 23 22 20 23
REMARK SMILES IDX 22 24 21 25 26 26 27 27 28 28 29 29 30 30 31 31 92 32 32 33
REMARK SMILES IDX 91 34 33 35 34 36 35 37 85 38 36 39 90 40 84 41 86 42 37 43
REMARK SMILES IDX 89 44 83 45 82 46 38 48 70 49 50 50 69 51 51 52 54 53 68 54
REMARK SMILES IDX 87 55 52 56 53 57 67 59 88 60 55 61 39 62 40 63 48 64 41 65
REMARK SMILES IDX 47 66 49 67 46 68 42 69 43 70 44 71 45 72 71 73 72 74 80 75
REMARK SMILES IDX 73 76 79 77 81 78 78 79 74 80 75 81 76 82 77 83 56 84 57 85
REMARK SMILES IDX 65 86 58 87 64 88 66 89 63 90 59 91 60 92 61 93 62 94
REMARK H PARENT 86 47 54 58
REMARK Flexibility Score: inf
ROOT
ATOM      1  C   UNL     1       4.668  -1.101  -0.362  1.00  0.00     0.274 C 
ENDROOT
BRANCH   1   2
ATOM      2  O   UNL     1       3.295  -0.764  -0.063  1.00  0.00    -0.461 OA
BRANCH   2   3
ATOM      3  C   UNL     1       2.708   0.423  -0.359  1.00  0.00     0.316 C 
ATOM      4  O   UNL     1       1.481   0.498  -0.414  1.00  0.00    -0.251 OA
BRANCH   3   5
ATOM      5  C   UNL     1       3.564   1.662  -0.477  1.00  0.00     0.200 C 
BRANCH   5   6
ATOM      6  S   UNL     1       4.293   2.083   1.124  1.00  0.00    -0.076 SA
BRANCH   6   7
ATOM      7  C   UNL     1       3.076   3.161   1.781  1.00  0.00     0.171 A 
ATOM      8  N   UNL     1       3.322   4.418   1.601  1.00  0.00    -0.224 NA
ATOM      9  N   UNL     1       2.001   2.663   2.505  1.00  0.00    -0.287 N 
ATOM     10  C   UNL     1       2.499   5.360   2.224  1.00  0.00     0.079 A 
ATOM     11  C   UNL     1       1.063   3.552   3.035  1.00  0.00     0.262 A 
ATOM     12  C   UNL     1       2.835   6.715   2.160  1.00  0.00     0.031 A 
ATOM     13  C   UNL     1       1.387   4.984   2.968  1.00  0.00     0.067 A 
ATOM     14  O   UNL     1       0.004   3.213   3.558  1.00  0.00    -0.269 OA
ATOM     15  C   UNL     1       2.086   7.669   2.860  1.00  0.00     0.023 A 
ATOM     16  C   UNL     1       0.626   5.924   3.672  1.00  0.00     0.036 A 
ATOM     17  C   UNL     1       0.993   7.265   3.625  1.00  0.00     0.042 A 
ATOM     18  Cl  UNL     1       0.113   8.415   4.553  1.00  0.00    -0.084 Cl
BRANCH   9  19
ATOM     19  C   UNL     1       1.686   1.239   2.678  1.00  0.00     0.131 C 
BRANCH  19  20
ATOM     20  C   UNL     1       2.133   0.572   3.993  1.00  0.00     0.009 C 
ATOM     21  C   UNL     1       3.640   0.701   4.251  1.00  0.00     0.005 C 
ATOM     22  C   UNL     1       1.319   1.021   5.209  1.00  0.00     0.005 C 
ATOM     23  C   UNL     1       4.064  -0.021   5.525  1.00  0.00     0.000 C 
ATOM     24  C   UNL     1       1.741   0.257   6.460  1.00  0.00     0.000 C 
ATOM     25  C   UNL     1       3.234   0.421   6.724  1.00  0.00     0.000 C 
ENDBRANCH  19  20
ENDBRANCH   9  19
ENDBRANCH   6   7
ENDBRANCH   5   6
ENDBRANCH   3   5
ENDBRANCH   2   3
ENDBRANCH   1   2
BRANCH   1  26
ATOM     26  C   UNL     1       4.742  -1.817  -1.710  1.00  0.00     0.275 C 
BRANCH  26  27
ATOM     27  O   UNL     1       4.431  -0.866  -2.741  1.00  0.00    -0.458 OA
BRANCH  27  28
ATOM     28  C   UNL     1       3.157  -0.890  -3.214  1.00  0.00     0.338 C 
ATOM     29  O   UNL     1       2.328  -1.763  -3.028  1.00  0.00    -0.246 OA
BRANCH  28  30
ATOM     30  C   UNL     1       2.875   0.458  -3.760  1.00  0.00     0.060 A 
ATOM     31  C   UNL     1       3.868   1.188  -4.422  1.00  0.00     0.016 A 
ATOM     32  C   UNL     1       1.629   1.039  -3.498  1.00  0.00     0.016 A 
ATOM     33  C   UNL     1       3.616   2.501  -4.813  1.00  0.00     0.010 A 
ATOM     34  C   UNL     1       1.383   2.360  -3.875  1.00  0.00     0.010 A 
ATOM     35  C   UNL     1       2.372   3.093  -4.545  1.00  0.00    -0.014 A 
BRANCH  35  36
ATOM     36  C   UNL     1       2.044   4.394  -5.166  1.00  0.00     0.031 A 
ATOM     37  C   UNL     1       2.245   5.694  -4.460  1.00  0.00     0.074 A 
ATOM     38  C   UNL     1       1.561   4.364  -6.421  1.00  0.00     0.049 A 
ATOM     39  N   UNL     1       2.151   6.903  -4.946  1.00  0.00    -0.248 NA
ATOM     40  C   UNL     1       2.595   5.640  -3.034  1.00  0.00     0.031 C 
ATOM     41  C   UNL     1       1.304   3.138  -7.177  1.00  0.00     0.029 A 
ATOM     42  N   UNL     1       1.198   5.372  -7.274  1.00  0.00    -0.354 N 
ATOM     43  C   UNL     1       2.453   7.761  -3.899  1.00  0.00     0.074 A 
ATOM     44  C   UNL     1       2.692   6.931  -2.735  1.00  0.00     0.031 C 
ATOM     45  C   UNL     1       0.823   3.465  -8.383  1.00  0.00     0.029 A 
ATOM     46  C   UNL     1       0.725   4.919  -8.481  1.00  0.00     0.049 A 
ATOM     47  H   UNL     1       1.270   6.327  -7.045  1.00  0.00     0.167 HD
ATOM     48  C   UNL     1       2.536   9.113  -3.926  1.00  0.00     0.034 A 
ATOM     49  C   UNL     1       0.267   5.593  -9.554  1.00  0.00     0.034 A 
ATOM     50  C   UNL     1       2.267   9.910  -5.099  1.00  0.00     0.049 A 
ATOM     51  C   UNL     1       0.332   7.095  -9.548  1.00  0.00     0.074 A 
ATOM     52  C   UNL     1       2.424  11.276  -5.257  1.00  0.00     0.029 A 
ATOM     53  N   UNL     1       1.755   9.429  -6.298  1.00  0.00    -0.354 N 
ATOM     54  N   UNL     1       0.780   7.891  -8.606  1.00  0.00    -0.248 NA
ATOM     55  C   UNL     1      -0.142   7.793 -10.749  1.00  0.00     0.031 C 
ATOM     56  C   UNL     1       1.934  11.631  -6.515  1.00  0.00     0.029 A 
ATOM     57  C   UNL     1       1.540  10.479  -7.178  1.00  0.00     0.049 A 
ATOM     58  H   UNL     1       1.571   8.482  -6.493  1.00  0.00     0.167 HD
ATOM     59  C   UNL     1       0.662   9.183  -9.105  1.00  0.00     0.074 A 
ATOM     60  C   UNL     1       0.113   9.059 -10.441  1.00  0.00     0.031 C 
ATOM     61  C   UNL     1       0.985  10.358  -8.508  1.00  0.00     0.034 A 
BRANCH  48  62
ATOM     62  C   UNL     1       2.958   9.842  -2.675  1.00  0.00     0.023 A 
ATOM     63  C   UNL     1       2.086  10.764  -2.065  1.00  0.00     0.031 A 
ATOM     64  C   UNL     1       4.270   9.740  -2.180  1.00  0.00     0.131 A 
ATOM     65  C   UNL     1       2.548  11.568  -1.015  1.00  0.00     0.055 A 
ATOM     66  C   UNL     1       4.716  10.522  -1.114  1.00  0.00     0.041 A 
ATOM     67  F   UNL     1       5.143   8.882  -2.734  1.00  0.00    -0.206 F 
ATOM     68  C   UNL     1       3.857  11.451  -0.535  1.00  0.00     0.022 A 
BRANCH  65  69
ATOM     69  S   UNL     1       1.495  12.845  -0.274  1.00  0.00     0.124 S 
ATOM     70  O   UNL     1       1.379  12.364   1.102  1.00  0.00    -0.237 OA
ATOM     71  O   UNL     1       2.304  14.049  -0.447  1.00  0.00    -0.237 OA
ATOM     72  O   UNL     1       0.269  12.790  -1.060  1.00  0.00    -0.744 OA
ENDBRANCH  65  69
ENDBRANCH  48  62
BRANCH  49  73
ATOM     73  C   UNL     1      -0.198   4.805 -10.728  1.00  0.00     0.023 A 
ATOM     74  C   UNL     1      -1.305   3.943 -10.613  1.00  0.00     0.031 A 
ATOM     75  C   UNL     1       0.567   4.754 -11.903  1.00  0.00     0.131 A 
ATOM     76  C   UNL     1      -1.558   3.002 -11.618  1.00  0.00     0.055 A 
ATOM     77  C   UNL     1       0.267   3.863 -12.934  1.00  0.00     0.041 A 
ATOM     78  F   UNL     1       1.644   5.542 -12.044  1.00  0.00    -0.206 F 
ATOM     79  C   UNL     1      -0.788   2.966 -12.785  1.00  0.00     0.022 A 
BRANCH  76  80
ATOM     80  S   UNL     1      -2.792   1.694 -11.375  1.00  0.00     0.124 S 
ATOM     81  O   UNL     1      -3.655   1.867 -12.539  1.00  0.00    -0.237 OA
ATOM     82  O   UNL     1      -1.955   0.496 -11.383  1.00  0.00    -0.237 OA
ATOM     83  O   UNL     1      -3.395   2.023 -10.088  1.00  0.00    -0.744 OA
ENDBRANCH  76  80
ENDBRANCH  49  73
BRANCH  61  84
ATOM     84  C   UNL     1       0.747  11.642  -9.267  1.00  0.00     0.023 A 
ATOM     85  C   UNL     1       1.833  12.474  -9.603  1.00  0.00     0.031 A 
ATOM     86  C   UNL     1      -0.553  12.117  -9.505  1.00  0.00     0.131 A 
ATOM     87  C   UNL     1       1.597  13.759 -10.108  1.00  0.00     0.055 A 
ATOM     88  C   UNL     1      -0.782  13.380 -10.055  1.00  0.00     0.041 A 
ATOM     89  F   UNL     1      -1.621  11.364  -9.198  1.00  0.00    -0.206 F 
ATOM     90  C   UNL     1       0.295  14.213 -10.343  1.00  0.00     0.022 A 
BRANCH  87  91
ATOM     91  S   UNL     1       2.963  14.917 -10.396  1.00  0.00     0.124 S 
ATOM     92  O   UNL     1       2.800  15.233 -11.813  1.00  0.00    -0.237 OA
ATOM     93  O   UNL     1       2.644  16.004  -9.474  1.00  0.00    -0.237 OA
ATOM     94  O   UNL     1       4.156  14.144 -10.067  1.00  0.00    -0.744 OA
ENDBRANCH  87  91
ENDBRANCH  61  84
ENDBRANCH  35  36
ENDBRANCH  28  30
ENDBRANCH  27  28
ENDBRANCH  26  27
ENDBRANCH   1  26
TORSDOF 18
