REMARK SMILES O=C(OCCOC(=O)c1cc(Br)ccc1OCc1ccc(O)cc1)c1ccc(-c2c3nc(c(-c4cc(S(=O)(=O)[O-])ccc4F)c4ccc([nH]4)c(-c4cc(S(=O)(=O)[O-])ccc4F)c4nc(c(-c5cc(S(=O)(=O)[O-])ccc5F)c5ccc2[nH]5)C=C4)C=C3)cc1
REMARK SMILES IDX 5 1 4 2 3 3 2 4 1 5 25 6 26 7 87 8 27 9 86 10 28 11 29 12
REMARK SMILES IDX 30 13 80 14 31 15 85 16 79 17 81 18 32 19 84 20 78 21 77 22
REMARK SMILES IDX 33 24 65 25 45 26 64 27 46 28 49 29 63 30 82 31 47 32 48 33
REMARK SMILES IDX 62 35 83 36 50 37 34 38 35 39 43 40 36 41 42 42 44 43 41 44
REMARK SMILES IDX 37 45 38 46 39 47 40 48 66 49 67 50 75 51 68 52 74 53 76 54
REMARK SMILES IDX 73 55 69 56 70 57 71 58 72 59 51 60 52 61 60 62 53 63 59 64
REMARK SMILES IDX 61 65 58 66 54 67 55 68 56 69 57 70 6 71 7 72 8 73 9 74
REMARK SMILES IDX 10 75 15 76 11 77 14 78 12 79 13 80 16 81 17 82 18 83 19 84
REMARK SMILES IDX 24 85 20 86 23 87 21 88 22 89
REMARK H PARENT 81 23 49 34 22 90
REMARK Flexibility Score: inf
ROOT
ATOM      1  C   UNL     1       3.998  -1.898  -0.139  1.00  0.00     0.275 C 
ENDROOT
BRANCH   1   2
ATOM      2  C   UNL     1       4.721  -1.067   0.918  1.00  0.00     0.275 C 
BRANCH   2   3
ATOM      3  O   UNL     1       3.999   0.078   1.400  1.00  0.00    -0.458 OA
BRANCH   3   4
ATOM      4  C   UNL     1       3.931   1.299   0.806  1.00  0.00     0.338 C 
ATOM      5  O   UNL     1       3.380   2.230   1.388  1.00  0.00    -0.246 OA
BRANCH   4   6
ATOM      6  C   UNL     1       4.345   1.481  -0.609  1.00  0.00     0.060 A 
ATOM      7  C   UNL     1       5.588   1.099  -1.122  1.00  0.00     0.016 A 
ATOM      8  C   UNL     1       3.422   2.108  -1.457  1.00  0.00     0.016 A 
ATOM      9  C   UNL     1       5.873   1.262  -2.482  1.00  0.00     0.010 A 
ATOM     10  C   UNL     1       3.703   2.279  -2.812  1.00  0.00     0.010 A 
ATOM     11  C   UNL     1       4.940   1.871  -3.328  1.00  0.00    -0.014 A 
BRANCH  11  12
ATOM     12  C   UNL     1       5.370   2.360  -4.657  1.00  0.00     0.031 A 
ATOM     13  C   UNL     1       5.825   3.789  -4.747  1.00  0.00     0.074 A 
ATOM     14  C   UNL     1       5.364   1.576  -5.749  1.00  0.00     0.049 A 
ATOM     15  N   UNL     1       6.297   4.450  -5.769  1.00  0.00    -0.248 NA
ATOM     16  C   UNL     1       5.730   4.577  -3.506  1.00  0.00     0.031 C 
ATOM     17  C   UNL     1       4.943   0.178  -5.791  1.00  0.00     0.029 A 
ATOM     18  N   UNL     1       5.699   1.864  -7.048  1.00  0.00    -0.354 N 
ATOM     19  C   UNL     1       6.611   5.711  -5.279  1.00  0.00     0.074 A 
ATOM     20  C   UNL     1       6.165   5.758  -3.905  1.00  0.00     0.031 C 
ATOM     21  C   UNL     1       4.979  -0.251  -7.066  1.00  0.00     0.029 A 
ATOM     22  C   UNL     1       5.434   0.840  -7.925  1.00  0.00     0.049 A 
ATOM     23  H   UNL     1       6.091   2.723  -7.325  1.00  0.00     0.167 HD
ATOM     24  C   UNL     1       7.267   6.721  -5.898  1.00  0.00     0.034 A 
ATOM     25  C   UNL     1       5.528   0.803  -9.269  1.00  0.00     0.034 A 
ATOM     26  C   UNL     1       7.645   6.683  -7.285  1.00  0.00     0.049 A 
ATOM     27  C   UNL     1       6.107   1.992  -9.991  1.00  0.00     0.074 A 
ATOM     28  C   UNL     1       8.326   7.629  -8.027  1.00  0.00     0.029 A 
ATOM     29  N   UNL     1       7.331   5.643  -8.152  1.00  0.00    -0.354 N 
ATOM     30  N   UNL     1       6.500   3.145  -9.499  1.00  0.00    -0.248 NA
ATOM     31  C   UNL     1       6.293   1.861 -11.442  1.00  0.00     0.031 C 
ATOM     32  C   UNL     1       8.369   7.188  -9.356  1.00  0.00     0.029 A 
ATOM     33  C   UNL     1       7.769   5.940  -9.430  1.00  0.00     0.049 A 
ATOM     34  H   UNL     1       6.864   4.815  -7.893  1.00  0.00     0.167 HD
ATOM     35  C   UNL     1       7.026   3.857 -10.572  1.00  0.00     0.074 A 
ATOM     36  C   UNL     1       6.878   3.013 -11.742  1.00  0.00     0.031 C 
ATOM     37  C   UNL     1       7.607   5.084 -10.583  1.00  0.00     0.034 A 
BRANCH  24  38
ATOM     38  C   UNL     1       7.571   7.931  -5.051  1.00  0.00     0.023 A 
ATOM     39  C   UNL     1       8.386   7.819  -3.907  1.00  0.00     0.031 A 
ATOM     40  C   UNL     1       6.947   9.162  -5.300  1.00  0.00     0.131 A 
ATOM     41  C   UNL     1       8.457   8.879  -2.993  1.00  0.00     0.055 A 
ATOM     42  C   UNL     1       7.097  10.245  -4.430  1.00  0.00     0.041 A 
ATOM     43  F   UNL     1       6.142   9.319  -6.361  1.00  0.00    -0.206 F 
ATOM     44  C   UNL     1       7.834  10.100  -3.256  1.00  0.00     0.022 A 
BRANCH  41  45
ATOM     45  S   UNL     1       9.200   8.564  -1.367  1.00  0.00     0.124 S 
ATOM     46  O   UNL     1       8.397   7.442  -0.886  1.00  0.00    -0.237 OA
ATOM     47  O   UNL     1      10.585   8.257  -1.707  1.00  0.00    -0.237 OA
ATOM     48  O   UNL     1       8.996   9.820  -0.648  1.00  0.00    -0.744 OA
ENDBRANCH  41  45
ENDBRANCH  24  38
BRANCH  25  49
ATOM     49  C   UNL     1       5.012  -0.370 -10.023  1.00  0.00     0.023 A 
ATOM     50  C   UNL     1       5.863  -1.303 -10.634  1.00  0.00     0.031 A 
ATOM     51  C   UNL     1       3.623  -0.545 -10.164  1.00  0.00     0.131 A 
ATOM     52  C   UNL     1       5.314  -2.363 -11.376  1.00  0.00     0.055 A 
ATOM     53  C   UNL     1       3.083  -1.620 -10.871  1.00  0.00     0.041 A 
ATOM     54  F   UNL     1       2.773   0.337  -9.616  1.00  0.00    -0.206 F 
ATOM     55  C   UNL     1       3.931  -2.534 -11.487  1.00  0.00     0.022 A 
BRANCH  52  56
ATOM     56  S   UNL     1       6.435  -3.501 -12.238  1.00  0.00     0.124 S 
ATOM     57  O   UNL     1       7.113  -2.604 -13.167  1.00  0.00    -0.237 OA
ATOM     58  O   UNL     1       7.244  -4.020 -11.141  1.00  0.00    -0.237 OA
ATOM     59  O   UNL     1       5.531  -4.470 -12.854  1.00  0.00    -0.744 OA
ENDBRANCH  52  56
ENDBRANCH  25  49
BRANCH  37  60
ATOM     60  C   UNL     1       8.190   5.555 -11.887  1.00  0.00     0.023 A 
ATOM     61  C   UNL     1       7.380   5.963 -12.959  1.00  0.00     0.031 A 
ATOM     62  C   UNL     1       9.586   5.620 -12.041  1.00  0.00     0.131 A 
ATOM     63  C   UNL     1       7.977   6.390 -14.155  1.00  0.00     0.055 A 
ATOM     64  C   UNL     1      10.173   6.090 -13.215  1.00  0.00     0.041 A 
ATOM     65  F   UNL     1      10.401   5.241 -11.043  1.00  0.00    -0.206 F 
ATOM     66  C   UNL     1       9.367   6.473 -14.283  1.00  0.00     0.022 A 
BRANCH  63  67
ATOM     67  S   UNL     1       6.913   6.801 -15.565  1.00  0.00     0.124 S 
ATOM     68  O   UNL     1       6.292   5.513 -15.859  1.00  0.00    -0.237 OA
ATOM     69  O   UNL     1       6.032   7.822 -15.008  1.00  0.00    -0.237 OA
ATOM     70  O   UNL     1       7.853   7.282 -16.575  1.00  0.00    -0.744 OA
ENDBRANCH  63  67
ENDBRANCH  37  60
ENDBRANCH  11  12
ENDBRANCH   4   6
ENDBRANCH   3   4
ENDBRANCH   2   3
ENDBRANCH   1   2
BRANCH   1  71
ATOM     71  O   UNL     1       3.199  -1.109  -1.030  1.00  0.00    -0.458 OA
BRANCH  71  72
ATOM     72  C   UNL     1       2.590  -1.853  -1.989  1.00  0.00     0.342 C 
ATOM     73  O   UNL     1       2.730  -3.056  -2.133  1.00  0.00    -0.246 OA
BRANCH  72  74
ATOM     74  C   UNL     1       1.831  -1.018  -2.954  1.00  0.00     0.103 A 
ATOM     75  C   UNL     1       1.943  -1.471  -4.286  1.00  0.00     0.035 A 
ATOM     76  C   UNL     1       1.038   0.106  -2.685  1.00  0.00     0.134 A 
ATOM     77  C   UNL     1       1.343  -0.779  -5.335  1.00  0.00     0.019 A 
ATOM     78  C   UNL     1       0.517   0.836  -3.774  1.00  0.00     0.048 A 
ATOM     79  Br  UNL     1       1.411  -1.481  -7.085  1.00  0.00    -0.051 Br
ATOM     80  C   UNL     1       0.669   0.404  -5.090  1.00  0.00     0.019 A 
BRANCH  76  81
ATOM     81  O   UNL     1       0.614   0.656  -1.512  1.00  0.00    -0.488 OA
BRANCH  81  82
ATOM     82  C   UNL     1       0.454  -0.046  -0.279  1.00  0.00     0.265 C 
BRANCH  82  83
ATOM     83  C   UNL     1       0.015  -1.490  -0.316  1.00  0.00    -0.010 A 
ATOM     84  C   UNL     1      -0.876  -1.975  -1.282  1.00  0.00     0.011 A 
ATOM     85  C   UNL     1       0.561  -2.384   0.619  1.00  0.00     0.011 A 
ATOM     86  C   UNL     1      -1.080  -3.348  -1.417  1.00  0.00     0.046 A 
ATOM     87  C   UNL     1       0.347  -3.753   0.493  1.00  0.00     0.046 A 
ATOM     88  C   UNL     1      -0.438  -4.225  -0.549  1.00  0.00     0.115 A 
BRANCH  88  89
ATOM     89  O   UNL     1      -0.541  -5.574  -0.713  1.00  0.00    -0.508 OA
ATOM     90  H   UNL     1      -1.064  -5.923  -1.408  1.00  0.00     0.293 HD
ENDBRANCH  88  89
ENDBRANCH  82  83
ENDBRANCH  81  82
ENDBRANCH  76  81
ENDBRANCH  72  74
ENDBRANCH  71  72
ENDBRANCH   1  71
TORSDOF 18
