REMARK SMILES Cc1ccc2oc(CCCC(=O)OCCOC(=O)c3ccc(-c4c5nc(c(-c6cc(S(=O)(=O)[O-])ccc6F)c6ccc([nH]6)c(-c6cc(S(=O)(=O)[O-])ccc6F)c6nc(c(-c7cc(S(=O)(=O)[O-])ccc7F)c7ccc4[nH]7)C=C6)C=C5)cc3)cc(=O)c2c1
REMARK SMILES IDX 14 1 13 2 11 3 12 4 10 5 9 6 8 7 7 8 1 9 2 10 3 11 86 12
REMARK SMILES IDX 4 13 85 14 5 15 83 16 6 17 82 18 84 19 15 20 16 21 17 22
REMARK SMILES IDX 18 23 19 24 20 25 81 26 21 27 80 28 22 29 23 30 24 31 74 32
REMARK SMILES IDX 25 33 79 34 73 35 75 36 26 37 78 38 72 39 71 40 27 42 59 43
REMARK SMILES IDX 39 44 58 45 40 46 43 47 57 48 76 49 41 50 42 51 56 53 77 54
REMARK SMILES IDX 44 55 28 56 29 57 37 58 30 59 36 60 38 61 35 62 31 63 32 64
REMARK SMILES IDX 33 65 34 66 60 67 61 68 69 69 62 70 68 71 70 72 67 73 63 74
REMARK SMILES IDX 64 75 65 76 66 77 45 78 46 79 54 80 47 81 53 82 55 83 52 84
REMARK SMILES IDX 48 85 49 86 50 87 51 88
REMARK H PARENT 75 41 43 52
REMARK Flexibility Score: inf
ROOT
ATOM      1  C   UNL     1       2.739  -4.954  -2.074  1.00  0.00     0.274 C 
ENDROOT
BRANCH   1   2
ATOM      2  O   UNL     1       2.884  -4.027  -0.981  1.00  0.00    -0.462 OA
BRANCH   2   3
ATOM      3  C   UNL     1       2.081  -4.199   0.095  1.00  0.00     0.305 C 
ATOM      4  O   UNL     1       1.201  -5.049   0.177  1.00  0.00    -0.252 OA
BRANCH   3   5
ATOM      5  C   UNL     1       2.354  -3.215   1.216  1.00  0.00     0.123 C 
BRANCH   5   6
ATOM      6  C   UNL     1       3.613  -2.346   1.117  1.00  0.00     0.020 C 
BRANCH   6   7
ATOM      7  C   UNL     1       3.697  -1.339  -0.044  1.00  0.00     0.076 C 
BRANCH   7   8
ATOM      8  C   UNL     1       2.466  -0.491  -0.218  1.00  0.00     0.108 A 
ATOM      9  C   UNL     1      -3.800   1.042   0.079  1.00  0.00     0.044 C 
ATOM     10  C   UNL     1      -2.433   0.454  -0.103  1.00  0.00    -0.050 A 
ATOM     11  C   UNL     1      -2.265  -0.927  -0.285  1.00  0.00     0.007 A 
ATOM     12  C   UNL     1      -1.306   1.289  -0.096  1.00  0.00     0.019 A 
ATOM     13  C   UNL     1      -0.991  -1.468  -0.466  1.00  0.00     0.048 A 
ATOM     14  C   UNL     1      -0.032   0.738  -0.252  1.00  0.00     0.065 A 
ATOM     15  C   UNL     1       0.121  -0.630  -0.448  1.00  0.00     0.138 A 
ATOM     16  C   UNL     1       1.181   1.567  -0.162  1.00  0.00     0.192 A 
ATOM     17  O   UNL     1       1.349  -1.211  -0.615  1.00  0.00    -0.461 OA
ATOM     18  C   UNL     1       2.456   0.836  -0.031  1.00  0.00     0.095 A 
ATOM     19  O   UNL     1       1.143   2.791  -0.145  1.00  0.00    -0.289 OA
ENDBRANCH   7   8
ENDBRANCH   6   7
ENDBRANCH   5   6
ENDBRANCH   3   5
ENDBRANCH   2   3
ENDBRANCH   1   2
BRANCH   1  20
ATOM     20  C   UNL     1       3.996  -5.814  -2.211  1.00  0.00     0.275 C 
BRANCH  20  21
ATOM     21  O   UNL     1       4.145  -6.685  -1.075  1.00  0.00    -0.458 OA
BRANCH  21  22
ATOM     22  C   UNL     1       4.907  -6.186  -0.073  1.00  0.00     0.338 C 
ATOM     23  O   UNL     1       5.528  -5.138  -0.067  1.00  0.00    -0.246 OA
BRANCH  22  24
ATOM     24  C   UNL     1       4.762  -7.045   1.111  1.00  0.00     0.060 A 
ATOM     25  C   UNL     1       4.039  -6.545   2.195  1.00  0.00     0.016 A 
ATOM     26  C   UNL     1       5.389  -8.287   1.187  1.00  0.00     0.016 A 
ATOM     27  C   UNL     1       3.946  -7.278   3.373  1.00  0.00     0.010 A 
ATOM     28  C   UNL     1       5.288  -9.029   2.369  1.00  0.00     0.010 A 
ATOM     29  C   UNL     1       4.577  -8.522   3.473  1.00  0.00    -0.014 A 
BRANCH  29  30
ATOM     30  C   UNL     1       4.546  -9.253   4.763  1.00  0.00     0.031 A 
ATOM     31  C   UNL     1       5.788  -9.324   5.604  1.00  0.00     0.074 A 
ATOM     32  C   UNL     1       3.400  -9.815   5.189  1.00  0.00     0.049 A 
ATOM     33  N   UNL     1       6.001  -9.979   6.715  1.00  0.00    -0.248 NA
ATOM     34  C   UNL     1       6.947  -8.557   5.122  1.00  0.00     0.031 C 
ATOM     35  C   UNL     1       2.119  -9.758   4.481  1.00  0.00     0.029 A 
ATOM     36  N   UNL     1       3.124 -10.542   6.319  1.00  0.00    -0.354 N 
ATOM     37  C   UNL     1       7.325  -9.723   7.058  1.00  0.00     0.074 A 
ATOM     38  C   UNL     1       7.869  -8.873   6.019  1.00  0.00     0.031 C 
ATOM     39  C   UNL     1       1.195 -10.420   5.196  1.00  0.00     0.029 A 
ATOM     40  C   UNL     1       1.827 -10.993   6.381  1.00  0.00     0.049 A 
ATOM     41  H   UNL     1       3.792 -10.724   7.019  1.00  0.00     0.167 HD
ATOM     42  C   UNL     1       8.017 -10.159   8.140  1.00  0.00     0.034 A 
ATOM     43  C   UNL     1       1.226 -11.803   7.275  1.00  0.00     0.034 A 
ATOM     44  C   UNL     1       7.452 -11.003   9.165  1.00  0.00     0.049 A 
ATOM     45  C   UNL     1       2.032 -12.325   8.436  1.00  0.00     0.074 A 
ATOM     46  C   UNL     1       8.059 -11.509  10.302  1.00  0.00     0.029 A 
ATOM     47  N   UNL     1       6.142 -11.469   9.178  1.00  0.00    -0.354 N 
ATOM     48  N   UNL     1       3.293 -12.106   8.731  1.00  0.00    -0.248 NA
ATOM     49  C   UNL     1       1.334 -13.202   9.384  1.00  0.00     0.031 C 
ATOM     50  C   UNL     1       7.138 -12.325  10.968  1.00  0.00     0.029 A 
ATOM     51  C   UNL     1       5.931 -12.274  10.288  1.00  0.00     0.049 A 
ATOM     52  H   UNL     1       5.463 -11.258   8.498  1.00  0.00     0.167 HD
ATOM     53  C   UNL     1       3.532 -12.800   9.914  1.00  0.00     0.074 A 
ATOM     54  C   UNL     1       2.281 -13.432  10.283  1.00  0.00     0.031 C 
ATOM     55  C   UNL     1       4.679 -12.904  10.633  1.00  0.00     0.034 A 
BRANCH  42  56
ATOM     56  C   UNL     1       9.475  -9.778   8.225  1.00  0.00     0.023 A 
ATOM     57  C   UNL     1       9.889  -8.442   8.370  1.00  0.00     0.031 A 
ATOM     58  C   UNL     1      10.470 -10.766   8.114  1.00  0.00     0.131 A 
ATOM     59  C   UNL     1      11.255  -8.123   8.326  1.00  0.00     0.055 A 
ATOM     60  C   UNL     1      11.830 -10.451   8.150  1.00  0.00     0.041 A 
ATOM     61  F   UNL     1      10.136 -12.056   7.950  1.00  0.00    -0.206 F 
ATOM     62  C   UNL     1      12.229  -9.121   8.241  1.00  0.00     0.022 A 
BRANCH  59  63
ATOM     63  S   UNL     1      11.738  -6.377   8.238  1.00  0.00     0.124 S 
ATOM     64  O   UNL     1      11.058  -5.944   7.018  1.00  0.00    -0.237 OA
ATOM     65  O   UNL     1      11.212  -5.840   9.487  1.00  0.00    -0.237 OA
ATOM     66  O   UNL     1      13.195  -6.428   8.145  1.00  0.00    -0.744 OA
ENDBRANCH  59  63
ENDBRANCH  42  56
BRANCH  43  67
ATOM     67  C   UNL     1      -0.195 -12.211   7.084  1.00  0.00     0.023 A 
ATOM     68  C   UNL     1      -1.190 -11.838   8.001  1.00  0.00     0.031 A 
ATOM     69  C   UNL     1      -0.570 -13.018   5.994  1.00  0.00     0.131 A 
ATOM     70  C   UNL     1      -2.504 -12.302   7.832  1.00  0.00     0.055 A 
ATOM     71  C   UNL     1      -1.888 -13.435   5.804  1.00  0.00     0.041 A 
ATOM     72  F   UNL     1       0.343 -13.404   5.088  1.00  0.00    -0.206 F 
ATOM     73  C   UNL     1      -2.862 -13.087   6.733  1.00  0.00     0.022 A 
BRANCH  70  74
ATOM     74  S   UNL     1      -3.730 -11.927   9.116  1.00  0.00     0.124 S 
ATOM     75  O   UNL     1      -3.112 -12.514  10.299  1.00  0.00    -0.237 OA
ATOM     76  O   UNL     1      -3.777 -10.469   9.072  1.00  0.00    -0.237 OA
ATOM     77  O   UNL     1      -4.937 -12.601   8.641  1.00  0.00    -0.744 OA
ENDBRANCH  70  74
ENDBRANCH  43  67
BRANCH  55  78
ATOM     78  C   UNL     1       4.607 -13.694  11.915  1.00  0.00     0.023 A 
ATOM     79  C   UNL     1       4.421 -15.087  11.917  1.00  0.00     0.031 A 
ATOM     80  C   UNL     1       4.709 -13.036  13.154  1.00  0.00     0.131 A 
ATOM     81  C   UNL     1       4.288 -15.772  13.134  1.00  0.00     0.055 A 
ATOM     82  C   UNL     1       4.630 -13.730  14.362  1.00  0.00     0.041 A 
ATOM     83  F   UNL     1       4.886 -11.707  13.208  1.00  0.00    -0.206 F 
ATOM     84  C   UNL     1       4.406 -15.104  14.357  1.00  0.00     0.022 A 
BRANCH  81  85
ATOM     85  S   UNL     1       3.872 -17.537  13.102  1.00  0.00     0.124 S 
ATOM     86  O   UNL     1       2.610 -17.538  12.369  1.00  0.00    -0.237 OA
ATOM     87  O   UNL     1       5.015 -18.115  12.403  1.00  0.00    -0.237 OA
ATOM     88  O   UNL     1       3.767 -17.891  14.516  1.00  0.00    -0.744 OA
ENDBRANCH  81  85
ENDBRANCH  55  78
ENDBRANCH  29  30
ENDBRANCH  22  24
ENDBRANCH  21  22
ENDBRANCH  20  21
ENDBRANCH   1  20
TORSDOF 17
