REMARK SMILES CCCCc1nc(C[N@H+]2CC[NH2+][C@H](C(=O)OCCOC(=O)c3ccc(-c4c5nc(c(-c6cc(S(=O)(=O)[O-])ccc6F)c6ccc([nH]6)c(-c6cc(S(=O)(=O)[O-])ccc6F)c6nc(c(-c7cc(S(=O)(=O)[O-])ccc7F)c7ccc4[nH]7)C=C6)C=C5)cc3)C2)c(Cl)[nH]1
REMARK SMILES IDX 17 1 16 2 14 3 15 4 13 5 9 6 10 7 85 8 11 10 12 11 8 14 7 15
REMARK SMILES IDX 5 16 6 17 88 18 86 19 87 21 4 22 3 23 2 24 1 25 18 26 19 27
REMARK SMILES IDX 20 28 21 29 22 30 23 31 84 32 24 33 83 34 25 35 26 36 27 37
REMARK SMILES IDX 77 38 28 39 82 40 76 41 78 42 29 43 81 44 75 45 74 46 30 48
REMARK SMILES IDX 62 49 42 50 61 51 43 52 46 53 60 54 79 55 44 56 45 57 59 59
REMARK SMILES IDX 80 60 47 61 31 62 32 63 40 64 33 65 39 66 41 67 38 68 34 69
REMARK SMILES IDX 35 70 36 71 37 72 63 73 64 74 72 75 65 76 71 77 73 78 70 79
REMARK SMILES IDX 66 80 67 81 68 82 69 83 48 84 49 85 57 86 50 87 56 88 58 89
REMARK SMILES IDX 55 90 51 91 52 92 53 93 54 94
REMARK H PARENT 9 9 12 12 12 13 88 20 78 47 46 58
REMARK Flexibility Score: inf
ROOT
ATOM      1  C   UNL     1       1.409  -3.865   0.486  1.00  0.00     0.274 C 
ENDROOT
BRANCH   1   2
ATOM      2  O   UNL     1       0.279  -3.002   0.306  1.00  0.00    -0.457 OA
BRANCH   2   3
ATOM      3  C   UNL     1      -0.977  -3.518   0.469  1.00  0.00     0.371 C 
ATOM      4  O   UNL     1      -1.257  -4.709   0.420  1.00  0.00    -0.245 OA
BRANCH   3   5
ATOM      5  C   UNL     1      -1.957  -2.360   0.721  1.00  0.00     0.348 C 
ATOM      6  N   UNL     1      -4.256  -1.792   1.678  1.00  0.00    -0.320 N 
ATOM      7  C   UNL     1      -4.460  -0.977   0.476  1.00  0.00     0.324 C 
ATOM      8  C   UNL     1      -3.221  -2.828   1.475  1.00  0.00     0.341 C 
ATOM      9  H   UNL     1      -5.137  -2.287   1.811  1.00  0.00     0.348 HD
ATOM     10  C   UNL     1      -3.175  -0.546  -0.266  1.00  0.00     0.323 C 
ATOM     11  N   UNL     1      -2.278  -1.675  -0.570  1.00  0.00    -0.325 N 
ATOM     12  H   UNL     1      -1.421  -1.331  -1.004  1.00  0.00     0.347 HD
ATOM     13  H   UNL     1      -2.725  -2.323  -1.218  1.00  0.00     0.347 HD
BRANCH   6  14
ATOM     14  C   UNL     1      -4.143  -1.048   2.948  1.00  0.00     0.323 C 
BRANCH  14  15
ATOM     15  C   UNL     1      -3.167   0.089   2.998  1.00  0.00     0.132 A 
ATOM     16  C   UNL     1      -1.254   1.104   3.192  1.00  0.00     0.107 A 
ATOM     17  N   UNL     1      -1.806  -0.099   3.192  1.00  0.00    -0.231 NA
ATOM     18  N   UNL     1      -2.223   2.073   3.099  1.00  0.00    -0.333 N 
ATOM     19  C   UNL     1      -3.412   1.439   2.935  1.00  0.00     0.135 A 
ATOM     20  H   UNL     1      -2.082   3.047   3.144  1.00  0.00     0.169 HD
ATOM     21  Cl  UNL     1      -4.803   2.376   2.708  1.00  0.00    -0.062 Cl
BRANCH  16  22
ATOM     22  C   UNL     1       0.199   1.471   3.226  1.00  0.00     0.075 C 
BRANCH  22  23
ATOM     23  C   UNL     1       1.112   0.477   2.505  1.00  0.00     0.008 C 
BRANCH  23  24
ATOM     24  C   UNL     1       0.705   0.128   1.074  1.00  0.00    -0.003 C 
ATOM     25  C   UNL     1       1.280   1.004  -0.015  1.00  0.00     0.004 C 
ENDBRANCH  23  24
ENDBRANCH  22  23
ENDBRANCH  16  22
ENDBRANCH  14  15
ENDBRANCH   6  14
ENDBRANCH   3   5
ENDBRANCH   2   3
ENDBRANCH   1   2
BRANCH   1  26
ATOM     26  C   UNL     1       2.159  -3.454   1.756  1.00  0.00     0.275 C 
BRANCH  26  27
ATOM     27  O   UNL     1       1.607  -4.036   2.949  1.00  0.00    -0.458 OA
BRANCH  27  28
ATOM     28  C   UNL     1       0.565  -3.358   3.497  1.00  0.00     0.338 C 
ATOM     29  O   UNL     1      -0.566  -3.372   3.076  1.00  0.00    -0.246 OA
BRANCH  28  30
ATOM     30  C   UNL     1       0.955  -2.646   4.731  1.00  0.00     0.060 A 
ATOM     31  C   UNL     1      -0.017  -1.873   5.385  1.00  0.00     0.016 A 
ATOM     32  C   UNL     1       2.264  -2.711   5.214  1.00  0.00     0.016 A 
ATOM     33  C   UNL     1       0.327  -1.150   6.516  1.00  0.00     0.010 A 
ATOM     34  C   UNL     1       2.610  -1.987   6.337  1.00  0.00     0.010 A 
ATOM     35  C   UNL     1       1.644  -1.207   6.981  1.00  0.00    -0.014 A 
BRANCH  35  36
ATOM     36  C   UNL     1       1.939  -0.732   8.332  1.00  0.00     0.031 A 
ATOM     37  C   UNL     1       1.298  -1.619   9.355  1.00  0.00     0.074 A 
ATOM     38  C   UNL     1       2.877   0.211   8.572  1.00  0.00     0.049 A 
ATOM     39  N   UNL     1       0.345  -1.339  10.183  1.00  0.00    -0.248 NA
ATOM     40  C   UNL     1       1.581  -3.071   9.278  1.00  0.00     0.031 C 
ATOM     41  C   UNL     1       3.718   0.874   7.568  1.00  0.00     0.029 A 
ATOM     42  N   UNL     1       3.382   0.698   9.742  1.00  0.00    -0.354 N 
ATOM     43  C   UNL     1       0.151  -2.508  10.924  1.00  0.00     0.074 A 
ATOM     44  C   UNL     1       0.686  -3.570  10.130  1.00  0.00     0.031 C 
ATOM     45  C   UNL     1       4.772   1.466   8.176  1.00  0.00     0.029 A 
ATOM     46  C   UNL     1       4.618   1.344   9.616  1.00  0.00     0.049 A 
ATOM     47  H   UNL     1       2.915   0.604  10.604  1.00  0.00     0.167 HD
ATOM     48  C   UNL     1      -0.039  -2.446  12.273  1.00  0.00     0.034 A 
ATOM     49  C   UNL     1       5.475   1.703  10.617  1.00  0.00     0.034 A 
ATOM     50  C   UNL     1      -0.411  -1.104  12.648  1.00  0.00     0.049 A 
ATOM     51  C   UNL     1       4.677   1.712  11.865  1.00  0.00     0.074 A 
ATOM     52  C   UNL     1      -1.515  -0.295  12.503  1.00  0.00     0.029 A 
ATOM     53  N   UNL     1       0.666  -0.292  12.906  1.00  0.00    -0.354 N 
ATOM     54  N   UNL     1       3.689   2.542  12.066  1.00  0.00    -0.248 NA
ATOM     55  C   UNL     1       4.670   0.525  12.714  1.00  0.00     0.031 C 
ATOM     56  C   UNL     1      -1.015   1.042  12.471  1.00  0.00     0.029 A 
ATOM     57  C   UNL     1       0.364   1.023  12.682  1.00  0.00     0.049 A 
ATOM     58  H   UNL     1       1.543  -0.615  13.213  1.00  0.00     0.167 HD
ATOM     59  C   UNL     1       2.734   1.797  12.733  1.00  0.00     0.074 A 
ATOM     60  C   UNL     1       3.449   0.632  13.247  1.00  0.00     0.031 C 
ATOM     61  C   UNL     1       1.403   2.027  12.526  1.00  0.00     0.034 A 
BRANCH  48  62
ATOM     62  C   UNL     1       0.628  -3.375  13.289  1.00  0.00     0.023 A 
ATOM     63  C   UNL     1       0.416  -3.087  14.656  1.00  0.00     0.031 A 
ATOM     64  C   UNL     1       1.669  -4.299  13.026  1.00  0.00     0.131 A 
ATOM     65  C   UNL     1       1.257  -3.618  15.654  1.00  0.00     0.055 A 
ATOM     66  C   UNL     1       2.472  -4.858  14.026  1.00  0.00     0.041 A 
ATOM     67  F   UNL     1       2.039  -4.660  11.795  1.00  0.00    -0.206 F 
ATOM     68  C   UNL     1       2.288  -4.498  15.346  1.00  0.00     0.022 A 
BRANCH  65  69
ATOM     69  S   UNL     1       1.080  -3.024  17.357  1.00  0.00     0.124 S 
ATOM     70  O   UNL     1       1.243  -1.585  17.190  1.00  0.00    -0.237 OA
ATOM     71  O   UNL     1      -0.260  -3.490  17.699  1.00  0.00    -0.237 OA
ATOM     72  O   UNL     1       2.169  -3.696  18.064  1.00  0.00    -0.744 OA
ENDBRANCH  65  69
ENDBRANCH  48  62
BRANCH  49  73
ATOM     73  C   UNL     1       6.974   1.670  10.605  1.00  0.00     0.023 A 
ATOM     74  C   UNL     1       7.801   2.441  11.460  1.00  0.00     0.031 A 
ATOM     75  C   UNL     1       7.616   0.646   9.873  1.00  0.00     0.131 A 
ATOM     76  C   UNL     1       9.195   2.171  11.547  1.00  0.00     0.055 A 
ATOM     77  C   UNL     1       8.985   0.380   9.969  1.00  0.00     0.041 A 
ATOM     78  F   UNL     1       6.912  -0.191   9.094  1.00  0.00    -0.206 F 
ATOM     79  C   UNL     1       9.779   1.136  10.813  1.00  0.00     0.022 A 
BRANCH  76  80
ATOM     80  S   UNL     1      10.287   3.131  12.659  1.00  0.00     0.124 S 
ATOM     81  O   UNL     1      10.141   4.489  12.149  1.00  0.00    -0.237 OA
ATOM     82  O   UNL     1       9.711   2.863  13.972  1.00  0.00    -0.237 OA
ATOM     83  O   UNL     1      11.608   2.537  12.440  1.00  0.00    -0.744 OA
ENDBRANCH  76  80
ENDBRANCH  49  73
BRANCH  61  84
ATOM     84  C   UNL     1       0.990   3.390  12.028  1.00  0.00     0.023 A 
ATOM     85  C   UNL     1       1.306   3.954  10.772  1.00  0.00     0.031 A 
ATOM     86  C   UNL     1       0.149   4.121  12.886  1.00  0.00     0.131 A 
ATOM     87  C   UNL     1       0.771   5.212  10.421  1.00  0.00     0.055 A 
ATOM     88  C   UNL     1      -0.394   5.348  12.526  1.00  0.00     0.041 A 
ATOM     89  F   UNL     1      -0.189   3.626  14.089  1.00  0.00    -0.206 F 
ATOM     90  C   UNL     1      -0.081   5.902  11.293  1.00  0.00     0.022 A 
BRANCH  87  91
ATOM     91  S   UNL     1       1.193   6.003   8.832  1.00  0.00     0.124 S 
ATOM     92  O   UNL     1       2.646   5.891   8.770  1.00  0.00    -0.237 OA
ATOM     93  O   UNL     1       0.450   5.199   7.865  1.00  0.00    -0.237 OA
ATOM     94  O   UNL     1       0.695   7.371   8.989  1.00  0.00    -0.744 OA
ENDBRANCH  87  91
ENDBRANCH  61  84
ENDBRANCH  35  36
ENDBRANCH  28  30
ENDBRANCH  27  28
ENDBRANCH  26  27
ENDBRANCH   1  26
TORSDOF 19
