REMARK SMILES O=C(OCCOC(=O)c1ccc(-c2c3nc(c(-c4cc(S(=O)(=O)[O-])ccc4F)c4ccc([nH]4)c(-c4cc(S(=O)(=O)[O-])ccc4F)c4nc(c(-c5cc(S(=O)(=O)[O-])ccc5F)c5ccc2[nH]5)C=C4)C=C3)cc1)C1=Cc2cc(S(F)(F)(F)(F)F)ccc2O[C@H]1C(F)(F)F
REMARK SMILES IDX 5 1 4 2 3 3 2 4 1 5 72 6 73 7 87 8 74 9 86 10 75 11 85 12
REMARK SMILES IDX 76 13 84 14 83 15 88 16 89 17 90 18 91 19 77 20 78 21 79 22
REMARK SMILES IDX 80 23 81 24 82 25 6 26 7 27 8 28 9 29 10 30 71 31 11 32
REMARK SMILES IDX 70 33 12 34 13 35 14 36 64 37 15 38 69 39 63 40 65 41 16 42
REMARK SMILES IDX 68 43 62 44 61 45 17 47 49 48 29 49 48 50 30 51 33 52 47 53
REMARK SMILES IDX 66 54 31 55 32 56 46 58 67 59 34 60 18 61 19 62 27 63 20 64
REMARK SMILES IDX 26 65 28 66 25 67 21 68 22 69 23 70 24 71 50 72 51 73 59 74
REMARK SMILES IDX 52 75 58 76 60 77 57 78 53 79 54 80 55 81 56 82 35 83 36 84
REMARK SMILES IDX 44 85 37 86 43 87 45 88 42 89 38 90 39 91 40 92 41 93
REMARK H PARENT 65 46 33 57
REMARK Flexibility Score: inf
ROOT
ATOM      1  C   UNL     1       4.953  -0.410   1.185  1.00  0.00     0.275 C 
ENDROOT
BRANCH   1   2
ATOM      2  C   UNL     1       4.446   0.946   0.724  1.00  0.00     0.275 C 
BRANCH   2   3
ATOM      3  O   UNL     1       3.026   0.946   0.724  1.00  0.00    -0.459 OA
BRANCH   3   4
ATOM      4  C   UNL     1       2.316   0.021  -0.087  1.00  0.00     0.338 C 
ATOM      5  O   UNL     1       1.045   0.021  -0.087  1.00  0.00    -0.246 OA
BRANCH   4   6
ATOM      6  C   UNL     1       3.076  -0.969  -0.954  1.00  0.00     0.087 C 
ATOM      7  C   UNL     1       4.436  -0.969  -0.954  1.00  0.00     0.027 C 
ATOM      8  C   UNL     1       2.316  -1.959  -1.821  1.00  0.00     0.316 C 
ATOM      9  C   UNL     1       5.196   0.021  -0.087  1.00  0.00     0.019 A 
ATOM     10  O   UNL     1       3.493  -0.350   1.528  1.00  0.00    -0.475 OA
ATOM     11  C   UNL     1       6.355   0.643  -0.522  1.00  0.00     0.036 A 
ATOM     12  C   UNL     1       4.763   0.168   1.160  1.00  0.00     0.128 A 
ATOM     13  C   UNL     1       7.149   1.173   0.522  1.00  0.00     0.107 A 
ATOM     14  C   UNL     1       5.532   0.815   2.096  1.00  0.00     0.048 A 
ATOM     15  C   UNL     1       6.716   1.403   1.749  1.00  0.00     0.028 A 
BRANCH   8  16
ATOM     16  C   UNL     1       0.822  -1.750  -1.638  1.00  0.00     0.430 C 
ATOM     17  F   UNL     1       0.575  -1.361  -0.391  1.00  0.00    -0.167 F 
ATOM     18  F   UNL     1       0.397  -0.817  -2.486  1.00  0.00    -0.167 F 
ATOM     19  F   UNL     1       0.185  -2.893  -1.881  1.00  0.00    -0.167 F 
ENDBRANCH   8  16
BRANCH  13  20
ATOM     20  S   UNL     1       8.877   1.561   0.152  1.00  0.00     0.310 S 
ATOM     21  F   UNL     1       9.271   1.581   1.688  1.00  0.00    -0.094 F 
ATOM     22  F   UNL     1       8.530   3.091   0.292  1.00  0.00    -0.094 F 
ATOM     23  F   UNL     1      10.361   1.898  -0.169  1.00  0.00    -0.094 F 
ATOM     24  F   UNL     1       9.236   0.023   0.155  1.00  0.00    -0.094 F 
ATOM     25  F   UNL     1       7.401   1.202   0.589  1.00  0.00    -0.094 F 
ENDBRANCH  13  20
ENDBRANCH   4   6
ENDBRANCH   3   4
ENDBRANCH   2   3
ENDBRANCH   1   2
BRANCH   1  26
ATOM     26  O   UNL     1       4.479  -1.417   0.303  1.00  0.00    -0.458 OA
BRANCH  26  27
ATOM     27  C   UNL     1       3.083  -1.613   0.132  1.00  0.00     0.338 C 
ATOM     28  O   UNL     1       2.257  -0.886   0.768  1.00  0.00    -0.246 OA
BRANCH  27  29
ATOM     29  C   UNL     1       2.576  -2.691  -0.812  1.00  0.00     0.060 A 
ATOM     30  C   UNL     1       1.649  -2.462  -1.815  1.00  0.00     0.016 A 
ATOM     31  C   UNL     1       3.197  -3.860  -0.701  1.00  0.00     0.016 A 
ATOM     32  C   UNL     1       1.226  -3.635  -2.484  1.00  0.00     0.010 A 
ATOM     33  C   UNL     1       2.824  -4.926  -1.483  1.00  0.00     0.010 A 
ATOM     34  C   UNL     1       1.871  -4.787  -2.454  1.00  0.00    -0.014 A 
BRANCH  34  35
ATOM     35  C   UNL     1       1.570  -5.899  -3.446  1.00  0.00     0.031 A 
ATOM     36  C   UNL     1       1.138  -7.103  -2.887  1.00  0.00     0.074 A 
ATOM     37  C   UNL     1       1.869  -5.731  -4.787  1.00  0.00     0.049 A 
ATOM     38  N   UNL     1       0.909  -8.256  -3.517  1.00  0.00    -0.248 NA
ATOM     39  C   UNL     1       0.853  -7.293  -1.457  1.00  0.00     0.031 C 
ATOM     40  C   UNL     1       2.297  -4.517  -5.359  1.00  0.00     0.029 A 
ATOM     41  N   UNL     1       1.812  -6.673  -5.790  1.00  0.00    -0.354 N 
ATOM     42  C   UNL     1       0.487  -9.180  -2.650  1.00  0.00     0.074 A 
ATOM     43  C   UNL     1       0.451  -8.575  -1.312  1.00  0.00     0.031 C 
ATOM     44  C   UNL     1       2.507  -4.728  -6.686  1.00  0.00     0.029 A 
ATOM     45  C   UNL     1       2.212  -6.076  -6.965  1.00  0.00     0.049 A 
ATOM     46  H   UNL     1       1.534  -7.612  -5.685  1.00  0.00     0.167 HD
ATOM     47  C   UNL     1       0.129 -10.501  -2.924  1.00  0.00     0.034 A 
ATOM     48  C   UNL     1       2.323  -6.657  -8.218  1.00  0.00     0.034 A 
ATOM     49  C   UNL     1       0.198 -11.070  -4.186  1.00  0.00     0.049 A 
ATOM     50  C   UNL     1       2.020  -7.995  -8.481  1.00  0.00     0.074 A 
ATOM     51  C   UNL     1      -0.166 -12.398  -4.480  1.00  0.00     0.029 A 
ATOM     52  N   UNL     1       0.622 -10.479  -5.356  1.00  0.00    -0.354 N 
ATOM     53  N   UNL     1       1.561  -8.907  -7.622  1.00  0.00    -0.248 NA
ATOM     54  C   UNL     1       2.164  -8.630  -9.797  1.00  0.00     0.031 C 
ATOM     55  C   UNL     1       0.043 -12.608  -5.807  1.00  0.00     0.029 A 
ATOM     56  C   UNL     1       0.543 -11.415  -6.363  1.00  0.00     0.049 A 
ATOM     57  H   UNL     1       0.927  -9.549  -5.455  1.00  0.00     0.167 HD
ATOM     58  C   UNL     1       1.371 -10.071  -8.245  1.00  0.00     0.074 A 
ATOM     59  C   UNL     1       1.764  -9.912  -9.652  1.00  0.00     0.031 C 
ATOM     60  C   UNL     1       0.884 -11.259  -7.698  1.00  0.00     0.034 A 
BRANCH  47  61
ATOM     61  C   UNL     1      -0.364 -11.363  -1.774  1.00  0.00     0.023 A 
ATOM     62  C   UNL     1      -1.386 -10.921  -0.950  1.00  0.00     0.031 A 
ATOM     63  C   UNL     1       0.323 -12.463  -1.489  1.00  0.00     0.131 A 
ATOM     64  C   UNL     1      -1.418 -11.554   0.315  1.00  0.00     0.055 A 
ATOM     65  C   UNL     1       0.143 -13.110  -0.290  1.00  0.00     0.041 A 
ATOM     66  F   UNL     1       1.193 -12.944  -2.373  1.00  0.00    -0.206 F 
ATOM     67  C   UNL     1      -0.809 -12.691   0.598  1.00  0.00     0.022 A 
BRANCH  64  68
ATOM     68  S   UNL     1      -2.359 -10.751   1.636  1.00  0.00     0.124 S 
ATOM     69  O   UNL     1      -1.781  -9.358   1.899  1.00  0.00    -0.237 OA
ATOM     70  O   UNL     1      -3.824 -10.623   1.214  1.00  0.00    -0.237 OA
ATOM     71  O   UNL     1      -2.256 -11.690   3.061  1.00  0.00    -0.744 OA
ENDBRANCH  64  68
ENDBRANCH  47  61
BRANCH  48  72
ATOM     72  C   UNL     1       2.800  -5.790  -9.371  1.00  0.00     0.023 A 
ATOM     73  C   UNL     1       1.984  -5.439 -10.434  1.00  0.00     0.031 A 
ATOM     74  C   UNL     1       4.008  -5.258  -9.225  1.00  0.00     0.131 A 
ATOM     75  C   UNL     1       2.653  -4.729 -11.460  1.00  0.00     0.055 A 
ATOM     76  C   UNL     1       4.545  -4.462 -10.208  1.00  0.00     0.041 A 
ATOM     77  F   UNL     1       4.704  -5.499  -8.118  1.00  0.00    -0.206 F 
ATOM     78  C   UNL     1       3.817  -4.123 -11.315  1.00  0.00     0.022 A 
BRANCH  75  79
ATOM     79  S   UNL     1       1.856  -4.645 -13.083  1.00  0.00     0.124 S 
ATOM     80  O   UNL     1       1.668  -6.060 -13.633  1.00  0.00    -0.237 OA
ATOM     81  O   UNL     1       0.492  -3.964 -12.947  1.00  0.00    -0.237 OA
ATOM     82  O   UNL     1       2.838  -3.743 -14.153  1.00  0.00    -0.744 OA
ENDBRANCH  75  79
ENDBRANCH  48  72
BRANCH  60  83
ATOM     83  C   UNL     1       0.716 -12.455  -8.621  1.00  0.00     0.023 A 
ATOM     84  C   UNL     1       1.786 -13.060  -9.260  1.00  0.00     0.031 A 
ATOM     85  C   UNL     1      -0.515 -12.940  -8.730  1.00  0.00     0.131 A 
ATOM     86  C   UNL     1       1.406 -14.015 -10.233  1.00  0.00     0.055 A 
ATOM     87  C   UNL     1      -0.789 -13.965  -9.602  1.00  0.00     0.041 A 
ATOM     88  F   UNL     1      -1.493 -12.428  -7.987  1.00  0.00    -0.206 F 
ATOM     89  C   UNL     1       0.211 -14.572 -10.310  1.00  0.00     0.022 A 
BRANCH  86  90
ATOM     90  S   UNL     1       2.646 -14.508 -11.457  1.00  0.00     0.124 S 
ATOM     91  O   UNL     1       3.093 -13.279 -12.253  1.00  0.00    -0.237 OA
ATOM     92  O   UNL     1       3.853 -15.120 -10.743  1.00  0.00    -0.237 OA
ATOM     93  O   UNL     1       1.968 -15.661 -12.522  1.00  0.00    -0.744 OA
ENDBRANCH  86  90
ENDBRANCH  60  83
ENDBRANCH  34  35
ENDBRANCH  27  29
ENDBRANCH  26  27
ENDBRANCH   1  26
TORSDOF 16
