REMARK SMILES O=C(Cc1ccc(NC(=O)c2ccc(N3C(=O)c4ccccc4C3=O)cc2)cc1)OCCOC(=O)c1ccc(-c2c3nc(c(-c4cc(S(=O)(=O)[O-])ccc4F)c4ccc([nH]4)c(-c4cc(S(=O)(=O)[O-])ccc4F)c4nc(c(-c5cc(S(=O)(=O)[O-])ccc5F)c5ccc2[nH]5)C=C4)C=C3)cc1
REMARK SMILES IDX 31 1 30 2 2 3 1 4 3 5 4 6 5 7 29 8 6 9 28 10 7 11 8 12 9 13
REMARK SMILES IDX 10 15 11 16 12 17 27 18 13 19 26 20 14 21 15 22 16 23 24 24
REMARK SMILES IDX 17 25 18 26 23 27 25 28 19 29 22 30 20 31 21 32 32 33 33 34
REMARK SMILES IDX 34 35 35 36 36 37 37 38 98 39 38 40 97 41 39 42 40 43 41 44
REMARK SMILES IDX 91 45 42 46 96 47 90 48 92 49 43 50 95 51 89 52 88 53 44 55
REMARK SMILES IDX 76 56 56 57 75 58 57 59 60 60 74 61 93 62 58 63 59 64 73 66
REMARK SMILES IDX 94 67 61 68 45 69 46 70 54 71 47 72 53 73 55 74 52 75 48 76
REMARK SMILES IDX 49 77 50 78 51 79 77 80 78 81 86 82 79 83 85 84 87 85 84 86
REMARK SMILES IDX 80 87 81 88 82 89 83 90 62 91 63 92 71 93 64 94 70 95 72 96
REMARK SMILES IDX 69 97 65 98 66 99 67 100 68 101
REMARK H PARENT 8 14 92 54 60 65
REMARK Flexibility Score: inf
ROOT
ATOM      1  C   UNL     1       3.807  -0.632   1.267  1.00  0.00     0.274 C 
ENDROOT
BRANCH   1   2
ATOM      2  O   UNL     1       2.431  -0.275   1.036  1.00  0.00    -0.462 OA
BRANCH   2   3
ATOM      3  C   UNL     1       2.032   0.757   0.246  1.00  0.00     0.310 C 
ATOM      4  O   UNL     1       1.050   1.425   0.564  1.00  0.00    -0.252 OA
BRANCH   3   5
ATOM      5  C   UNL     1       2.727   0.980  -1.080  1.00  0.00     0.158 C 
BRANCH   5   6
ATOM      6  C   UNL     1       3.819   2.011  -1.088  1.00  0.00    -0.037 A 
ATOM      7  C   UNL     1       5.137   1.596  -0.928  1.00  0.00     0.006 A 
ATOM      8  C   UNL     1       3.567   3.374  -1.255  1.00  0.00     0.006 A 
ATOM      9  C   UNL     1       6.165   2.521  -0.825  1.00  0.00     0.026 A 
ATOM     10  C   UNL     1       4.630   4.293  -1.277  1.00  0.00     0.026 A 
ATOM     11  C   UNL     1       5.950   3.869  -1.080  1.00  0.00     0.041 A 
BRANCH  11  12
ATOM     12  N   UNL     1       6.982   4.829  -1.147  1.00  0.00    -0.322 N 
ATOM     13  C   UNL     1       8.361   4.708  -1.163  1.00  0.00     0.255 C 
ATOM     14  H   UNL     1       6.661   5.758  -1.191  1.00  0.00     0.170 HD
ATOM     15  O   UNL     1       9.075   5.703  -1.047  1.00  0.00    -0.269 OA
BRANCH  13  16
ATOM     16  C   UNL     1       9.016   3.393  -1.317  1.00  0.00     0.040 A 
ATOM     17  C   UNL     1       9.780   2.894  -0.263  1.00  0.00     0.016 A 
ATOM     18  C   UNL     1       8.782   2.599  -2.439  1.00  0.00     0.016 A 
ATOM     19  C   UNL     1      10.203   1.555  -0.281  1.00  0.00     0.028 A 
ATOM     20  C   UNL     1       9.199   1.258  -2.439  1.00  0.00     0.028 A 
ATOM     21  C   UNL     1       9.880   0.691  -1.345  1.00  0.00     0.052 A 
BRANCH  21  22
ATOM     22  N   UNL     1      10.203  -0.706  -1.305  1.00  0.00    -0.242 N 
ATOM     23  C   UNL     1       9.891  -1.619  -2.293  1.00  0.00     0.266 C 
ATOM     24  C   UNL     1      10.832  -1.350  -0.251  1.00  0.00     0.266 C 
ATOM     25  O   UNL     1       9.287  -1.511  -3.347  1.00  0.00    -0.268 OA
ATOM     26  C   UNL     1      10.412  -2.914  -1.874  1.00  0.00     0.053 A 
ATOM     27  C   UNL     1      10.980  -2.754  -0.632  1.00  0.00     0.053 A 
ATOM     28  O   UNL     1      11.217  -0.960   0.831  1.00  0.00    -0.268 OA
ATOM     29  C   UNL     1      10.397  -4.136  -2.522  1.00  0.00     0.015 A 
ATOM     30  C   UNL     1      11.566  -3.810   0.043  1.00  0.00     0.015 A 
ATOM     31  C   UNL     1      10.992  -5.218  -1.866  1.00  0.00     0.001 A 
ATOM     32  C   UNL     1      11.571  -5.056  -0.592  1.00  0.00     0.001 A 
ENDBRANCH  21  22
ENDBRANCH  13  16
ENDBRANCH  11  12
ENDBRANCH   5   6
ENDBRANCH   3   5
ENDBRANCH   2   3
ENDBRANCH   1   2
BRANCH   1  33
ATOM     33  C   UNL     1       4.196  -1.993   0.680  1.00  0.00     0.275 C 
BRANCH  33  34
ATOM     34  O   UNL     1       3.875  -2.088  -0.715  1.00  0.00    -0.458 OA
BRANCH  34  35
ATOM     35  C   UNL     1       2.640  -2.599  -0.973  1.00  0.00     0.338 C 
ATOM     36  O   UNL     1       1.864  -3.066  -0.158  1.00  0.00    -0.246 OA
BRANCH  35  37
ATOM     37  C   UNL     1       2.284  -2.311  -2.379  1.00  0.00     0.060 A 
ATOM     38  C   UNL     1       1.015  -1.774  -2.633  1.00  0.00     0.016 A 
ATOM     39  C   UNL     1       3.186  -2.522  -3.426  1.00  0.00     0.016 A 
ATOM     40  C   UNL     1       0.637  -1.467  -3.941  1.00  0.00     0.010 A 
ATOM     41  C   UNL     1       2.800  -2.224  -4.737  1.00  0.00     0.010 A 
ATOM     42  C   UNL     1       1.517  -1.717  -5.003  1.00  0.00    -0.014 A 
BRANCH  42  43
ATOM     43  C   UNL     1       1.033  -1.607  -6.402  1.00  0.00     0.031 A 
ATOM     44  C   UNL     1       0.523  -2.849  -7.082  1.00  0.00     0.074 A 
ATOM     45  C   UNL     1       1.030  -0.430  -7.053  1.00  0.00     0.049 A 
ATOM     46  N   UNL     1       0.054  -3.001  -8.293  1.00  0.00    -0.248 NA
ATOM     47  C   UNL     1       0.551  -4.083  -6.283  1.00  0.00     0.031 C 
ATOM     48  C   UNL     1       1.471   0.847  -6.495  1.00  0.00     0.029 A 
ATOM     49  N   UNL     1       0.644  -0.122  -8.335  1.00  0.00    -0.354 N 
ATOM     50  C   UNL     1      -0.284  -4.345  -8.399  1.00  0.00     0.074 A 
ATOM     51  C   UNL     1       0.083  -4.972  -7.146  1.00  0.00     0.031 C 
ATOM     52  C   UNL     1       1.337   1.801  -7.433  1.00  0.00     0.029 A 
ATOM     53  C   UNL     1       0.827   1.200  -8.666  1.00  0.00     0.049 A 
ATOM     54  H   UNL     1       0.271  -0.786  -8.959  1.00  0.00     0.167 HD
ATOM     55  C   UNL     1      -0.863  -4.997  -9.438  1.00  0.00     0.034 A 
ATOM     56  C   UNL     1       0.621   1.845  -9.833  1.00  0.00     0.034 A 
ATOM     57  C   UNL     1      -1.195  -4.373 -10.694  1.00  0.00     0.049 A 
ATOM     58  C   UNL     1       0.075   1.075 -11.015  1.00  0.00     0.074 A 
ATOM     59  C   UNL     1      -1.785  -4.941 -11.810  1.00  0.00     0.029 A 
ATOM     60  N   UNL     1      -0.947  -3.043 -11.012  1.00  0.00    -0.354 N 
ATOM     61  N   UNL     1      -0.268  -0.191 -11.093  1.00  0.00    -0.248 NA
ATOM     62  C   UNL     1      -0.120   1.825 -12.264  1.00  0.00     0.031 C 
ATOM     63  C   UNL     1      -1.827  -3.977 -12.823  1.00  0.00     0.029 A 
ATOM     64  C   UNL     1      -1.338  -2.784 -12.316  1.00  0.00     0.049 A 
ATOM     65  H   UNL     1      -0.551  -2.382 -10.399  1.00  0.00     0.167 HD
ATOM     66  C   UNL     1      -0.756  -0.374 -12.386  1.00  0.00     0.074 A 
ATOM     67  C   UNL     1      -0.668   0.910 -13.049  1.00  0.00     0.031 C 
ATOM     68  C   UNL     1      -1.241  -1.500 -12.971  1.00  0.00     0.034 A 
BRANCH  55  69
ATOM     69  C   UNL     1      -1.125  -6.471  -9.261  1.00  0.00     0.023 A 
ATOM     70  C   UNL     1      -2.029  -6.947  -8.295  1.00  0.00     0.031 A 
ATOM     71  C   UNL     1      -0.431  -7.416 -10.037  1.00  0.00     0.131 A 
ATOM     72  C   UNL     1      -2.161  -8.326  -8.079  1.00  0.00     0.055 A 
ATOM     73  C   UNL     1      -0.626  -8.788  -9.872  1.00  0.00     0.041 A 
ATOM     74  F   UNL     1       0.463  -7.021 -10.956  1.00  0.00    -0.206 F 
ATOM     75  C   UNL     1      -1.484  -9.251  -8.878  1.00  0.00     0.022 A 
BRANCH  72  76
ATOM     76  S   UNL     1      -3.113  -8.892  -6.643  1.00  0.00     0.124 S 
ATOM     77  O   UNL     1      -2.394  -8.254  -5.543  1.00  0.00    -0.237 OA
ATOM     78  O   UNL     1      -4.446  -8.371  -6.923  1.00  0.00    -0.237 OA
ATOM     79  O   UNL     1      -2.986 -10.347  -6.699  1.00  0.00    -0.744 OA
ENDBRANCH  72  76
ENDBRANCH  55  69
BRANCH  56  80
ATOM     80  C   UNL     1       0.957   3.291  -9.974  1.00  0.00     0.023 A 
ATOM     81  C   UNL     1      -0.036   4.244 -10.254  1.00  0.00     0.031 A 
ATOM     82  C   UNL     1       2.292   3.730  -9.911  1.00  0.00     0.131 A 
ATOM     83  C   UNL     1       0.325   5.575 -10.514  1.00  0.00     0.055 A 
ATOM     84  C   UNL     1       2.640   5.066 -10.117  1.00  0.00     0.041 A 
ATOM     85  F   UNL     1       3.281   2.860  -9.650  1.00  0.00    -0.206 F 
ATOM     86  C   UNL     1       1.655   5.995 -10.436  1.00  0.00     0.022 A 
BRANCH  83  87
ATOM     87  S   UNL     1      -0.962   6.736 -11.051  1.00  0.00     0.124 S 
ATOM     88  O   UNL     1      -1.455   6.091 -12.262  1.00  0.00    -0.237 OA
ATOM     89  O   UNL     1      -1.867   6.734  -9.907  1.00  0.00    -0.237 OA
ATOM     90  O   UNL     1      -0.229   7.983 -11.260  1.00  0.00    -0.744 OA
ENDBRANCH  83  87
ENDBRANCH  56  80
BRANCH  68  91
ATOM     91  C   UNL     1      -1.766  -1.378 -14.382  1.00  0.00     0.023 A 
ATOM     92  C   UNL     1      -0.921  -1.103 -15.471  1.00  0.00     0.031 A 
ATOM     93  C   UNL     1      -3.140  -1.544 -14.638  1.00  0.00     0.131 A 
ATOM     94  C   UNL     1      -1.464  -0.954 -16.758  1.00  0.00     0.055 A 
ATOM     95  C   UNL     1      -3.666  -1.452 -15.927  1.00  0.00     0.041 A 
ATOM     96  F   UNL     1      -3.994  -1.807 -13.636  1.00  0.00    -0.206 F 
ATOM     97  C   UNL     1      -2.828  -1.143 -16.995  1.00  0.00     0.022 A 
BRANCH  94  98
ATOM     98  S   UNL     1      -0.375  -0.429 -18.111  1.00  0.00     0.124 S 
ATOM     99  O   UNL     1       0.134   0.846 -17.614  1.00  0.00    -0.237 OA
ATOM    100  O   UNL     1       0.592  -1.520 -18.174  1.00  0.00    -0.237 OA
ATOM    101  O   UNL     1      -1.275  -0.332 -19.259  1.00  0.00    -0.744 OA
ENDBRANCH  94  98
ENDBRANCH  68  91
ENDBRANCH  42  43
ENDBRANCH  35  37
ENDBRANCH  34  35
ENDBRANCH  33  34
ENDBRANCH   1  33
TORSDOF 18
