REMARK SMILES O=C(C[C@@H]1C(=O)NCCN1C(=O)OCC1c2ccccc2-c2ccccc21)OCCOC(=O)c1ccc(-c2c3nc(c(-c4cc(S(=O)(=O)[O-])ccc4F)c4ccc([nH]4)c(-c4cc(S(=O)(=O)[O-])ccc4F)c4nc(c(-c5cc(S(=O)(=O)[O-])ccc5F)c5ccc2[nH]5)C=C4)C=C3)cc1
REMARK SMILES IDX 29 1 28 2 2 3 1 4 3 5 4 6 5 7 10 8 6 9 7 10 9 11 8 12 11 14
REMARK SMILES IDX 12 15 13 16 14 17 15 18 16 19 27 20 17 21 21 22 22 23 26 24
REMARK SMILES IDX 18 25 20 26 23 27 25 28 19 29 24 30 30 31 31 32 32 33 33 34
REMARK SMILES IDX 34 35 35 36 96 37 36 38 95 39 37 40 38 41 39 42 89 43 40 44
REMARK SMILES IDX 94 45 88 46 90 47 41 48 93 49 87 50 86 51 42 53 74 54 54 55
REMARK SMILES IDX 73 56 55 57 58 58 72 59 91 60 56 61 57 62 71 64 92 65 59 66
REMARK SMILES IDX 43 67 44 68 52 69 45 70 51 71 53 72 50 73 46 74 47 75 48 76
REMARK SMILES IDX 49 77 75 78 76 79 84 80 77 81 83 82 85 83 82 84 78 85 79 86
REMARK SMILES IDX 80 87 81 88 60 89 61 90 69 91 62 92 68 93 70 94 67 95 63 96
REMARK SMILES IDX 64 97 65 98 66 99
REMARK H PARENT 7 13 90 52 58 63
REMARK Flexibility Score: inf
ROOT
ATOM      1  C   UNL     1       4.447  -0.624   1.139  1.00  0.00     0.274 C 
ENDROOT
BRANCH   1   2
ATOM      2  O   UNL     1       3.137  -0.073   0.951  1.00  0.00    -0.462 OA
BRANCH   2   3
ATOM      3  C   UNL     1       2.485   0.006  -0.227  1.00  0.00     0.308 C 
ATOM      4  O   UNL     1       1.260  -0.118  -0.230  1.00  0.00    -0.252 OA
BRANCH   3   5
ATOM      5  C   UNL     1       3.239   0.164  -1.522  1.00  0.00     0.158 C 
BRANCH   5   6
ATOM      6  C   UNL     1       4.026   1.442  -1.820  1.00  0.00     0.189 C 
ATOM      7  C   UNL     1       5.527   1.159  -1.523  1.00  0.00     0.243 C 
ATOM      8  N   UNL     1       3.520   2.757  -1.365  1.00  0.00    -0.294 N 
ATOM      9  O   UNL     1       6.112   0.150  -1.915  1.00  0.00    -0.273 OA
ATOM     10  N   UNL     1       6.213   2.047  -0.741  1.00  0.00    -0.353 N 
ATOM     11  C   UNL     1       4.528   3.775  -1.095  1.00  0.00     0.145 C 
ATOM     12  C   UNL     1       5.594   3.215  -0.165  1.00  0.00     0.137 C 
ATOM     13  H   UNL     1       7.168   1.882  -0.563  1.00  0.00     0.163 HD
BRANCH   8  14
ATOM     14  C   UNL     1       2.219   3.198  -1.541  1.00  0.00     0.410 C 
ATOM     15  O   UNL     1       1.905   4.385  -1.601  1.00  0.00    -0.224 OA
BRANCH  14  16
ATOM     16  O   UNL     1       1.340   2.182  -1.562  1.00  0.00    -0.448 OA
BRANCH  16  17
ATOM     17  C   UNL     1      -0.067   2.461  -1.429  1.00  0.00     0.248 C 
BRANCH  17  18
ATOM     18  C   UNL     1      -0.571   2.904  -0.021  1.00  0.00     0.088 C 
ATOM     19  C   UNL     1       0.470   3.087   1.076  1.00  0.00    -0.029 A 
ATOM     20  C   UNL     1      -1.125   4.324  -0.119  1.00  0.00    -0.029 A 
ATOM     21  C   UNL     1       1.117   2.128   1.834  1.00  0.00     0.005 A 
ATOM     22  C   UNL     1       0.702   4.456   1.311  1.00  0.00    -0.014 A 
ATOM     23  C   UNL     1      -0.312   5.216   0.611  1.00  0.00    -0.014 A 
ATOM     24  C   UNL     1      -2.255   4.753  -0.799  1.00  0.00     0.005 A 
ATOM     25  C   UNL     1       2.137   2.532   2.696  1.00  0.00     0.000 A 
ATOM     26  C   UNL     1       1.727   4.864   2.151  1.00  0.00     0.009 A 
ATOM     27  C   UNL     1      -0.613   6.565   0.643  1.00  0.00     0.009 A 
ATOM     28  C   UNL     1      -2.563   6.111  -0.756  1.00  0.00     0.000 A 
ATOM     29  C   UNL     1       2.469   3.887   2.823  1.00  0.00     0.001 A 
ATOM     30  C   UNL     1      -1.746   7.010  -0.048  1.00  0.00     0.001 A 
ENDBRANCH  17  18
ENDBRANCH  16  17
ENDBRANCH  14  16
ENDBRANCH   8  14
ENDBRANCH   5   6
ENDBRANCH   3   5
ENDBRANCH   2   3
ENDBRANCH   1   2
BRANCH   1  31
ATOM     31  C   UNL     1       4.480  -2.151   1.100  1.00  0.00     0.275 C 
BRANCH  31  32
ATOM     32  O   UNL     1       4.053  -2.641  -0.179  1.00  0.00    -0.458 OA
BRANCH  32  33
ATOM     33  C   UNL     1       2.764  -3.067  -0.263  1.00  0.00     0.338 C 
ATOM     34  O   UNL     1       1.986  -3.205   0.663  1.00  0.00    -0.246 OA
BRANCH  33  35
ATOM     35  C   UNL     1       2.402  -3.116  -1.702  1.00  0.00     0.060 A 
ATOM     36  C   UNL     1       1.172  -2.582  -2.111  1.00  0.00     0.016 A 
ATOM     37  C   UNL     1       3.309  -3.592  -2.653  1.00  0.00     0.016 A 
ATOM     38  C   UNL     1       0.851  -2.511  -3.469  1.00  0.00     0.010 A 
ATOM     39  C   UNL     1       2.977  -3.548  -4.008  1.00  0.00     0.010 A 
ATOM     40  C   UNL     1       1.739  -3.025  -4.421  1.00  0.00    -0.014 A 
BRANCH  40  41
ATOM     41  C   UNL     1       1.291  -3.264  -5.815  1.00  0.00     0.031 A 
ATOM     42  C   UNL     1       0.740  -4.626  -6.132  1.00  0.00     0.074 A 
ATOM     43  C   UNL     1       1.405  -2.333  -6.778  1.00  0.00     0.049 A 
ATOM     44  N   UNL     1       0.397  -5.141  -7.282  1.00  0.00    -0.248 NA
ATOM     45  C   UNL     1       0.574  -5.534  -4.986  1.00  0.00     0.031 C 
ATOM     46  C   UNL     1       1.886  -0.968  -6.582  1.00  0.00     0.029 A 
ATOM     47  N   UNL     1       1.143  -2.410  -8.125  1.00  0.00    -0.354 N 
ATOM     48  C   UNL     1      -0.017  -6.438  -7.001  1.00  0.00     0.074 A 
ATOM     49  C   UNL     1       0.158  -6.640  -5.579  1.00  0.00     0.031 C 
ATOM     50  C   UNL     1       1.913  -0.342  -7.774  1.00  0.00     0.029 A 
ATOM     51  C   UNL     1       1.492  -1.275  -8.821  1.00  0.00     0.049 A 
ATOM     52  H   UNL     1       0.744  -3.202  -8.551  1.00  0.00     0.167 HD
ATOM     53  C   UNL     1      -0.500  -7.375  -7.852  1.00  0.00     0.034 A 
ATOM     54  C   UNL     1       1.508  -1.036 -10.150  1.00  0.00     0.034 A 
ATOM     55  C   UNL     1      -0.635  -7.165  -9.270  1.00  0.00     0.049 A 
ATOM     56  C   UNL     1       1.058  -2.127 -11.099  1.00  0.00     0.074 A 
ATOM     57  C   UNL     1      -1.130  -8.034 -10.225  1.00  0.00     0.029 A 
ATOM     58  N   UNL     1      -0.246  -6.013  -9.943  1.00  0.00    -0.354 N 
ATOM     59  N   UNL     1       0.641  -3.343 -10.824  1.00  0.00    -0.248 NA
ATOM     60  C   UNL     1       1.077  -1.815 -12.535  1.00  0.00     0.031 C 
ATOM     61  C   UNL     1      -0.954  -7.447 -11.482  1.00  0.00     0.029 A 
ATOM     62  C   UNL     1      -0.446  -6.169 -11.306  1.00  0.00     0.049 A 
ATOM     63  H   UNL     1       0.118  -5.205  -9.515  1.00  0.00     0.167 HD
ATOM     64  C   UNL     1       0.317  -3.924 -12.049  1.00  0.00     0.074 A 
ATOM     65  C   UNL     1       0.584  -2.927 -13.064  1.00  0.00     0.031 C 
ATOM     66  C   UNL     1      -0.170  -5.165 -12.310  1.00  0.00     0.034 A 
BRANCH  53  67
ATOM     67  C   UNL     1      -0.840  -8.724  -7.266  1.00  0.00     0.023 A 
ATOM     68  C   UNL     1      -1.827  -8.876  -6.275  1.00  0.00     0.031 A 
ATOM     69  C   UNL     1      -0.117  -9.865  -7.654  1.00  0.00     0.131 A 
ATOM     70  C   UNL     1      -1.996 -10.115  -5.642  1.00  0.00     0.055 A 
ATOM     71  C   UNL     1      -0.357 -11.117  -7.087  1.00  0.00     0.041 A 
ATOM     72  F   UNL     1       0.858  -9.778  -8.573  1.00  0.00    -0.206 F 
ATOM     73  C   UNL     1      -1.288 -11.244  -6.060  1.00  0.00     0.022 A 
BRANCH  70  74
ATOM     74  S   UNL     1      -3.017 -10.188  -4.144  1.00  0.00     0.124 S 
ATOM     75  O   UNL     1      -2.359  -9.200  -3.291  1.00  0.00    -0.237 OA
ATOM     76  O   UNL     1      -4.337  -9.824  -4.644  1.00  0.00    -0.237 OA
ATOM     77  O   UNL     1      -2.876 -11.573  -3.700  1.00  0.00    -0.744 OA
ENDBRANCH  70  74
ENDBRANCH  53  67
BRANCH  54  78
ATOM     78  C   UNL     1       2.026   0.263 -10.677  1.00  0.00     0.023 A 
ATOM     79  C   UNL     1       1.204   1.147 -11.396  1.00  0.00     0.031 A 
ATOM     80  C   UNL     1       3.377   0.616 -10.506  1.00  0.00     0.131 A 
ATOM     81  C   UNL     1       1.750   2.319 -11.947  1.00  0.00     0.055 A 
ATOM     82  C   UNL     1       3.902   1.808 -11.009  1.00  0.00     0.041 A 
ATOM     83  F   UNL     1       4.212  -0.196  -9.837  1.00  0.00    -0.206 F 
ATOM     84  C   UNL     1       3.088   2.663 -11.744  1.00  0.00     0.022 A 
BRANCH  81  85
ATOM     85  S   UNL     1       0.704   3.354 -13.010  1.00  0.00     0.124 S 
ATOM     86  O   UNL     1       0.345   2.421 -14.072  1.00  0.00    -0.237 OA
ATOM     87  O   UNL     1      -0.370   3.737 -12.100  1.00  0.00    -0.237 OA
ATOM     88  O   UNL     1       1.596   4.441 -13.410  1.00  0.00    -0.744 OA
ENDBRANCH  81  85
ENDBRANCH  54  78
BRANCH  66  89
ATOM     89  C   UNL     1      -0.507  -5.504 -13.744  1.00  0.00     0.023 A 
ATOM     90  C   UNL     1       0.481  -5.647 -14.733  1.00  0.00     0.031 A 
ATOM     91  C   UNL     1      -1.847  -5.734 -14.109  1.00  0.00     0.131 A 
ATOM     92  C   UNL     1       0.110  -5.979 -16.047  1.00  0.00     0.055 A 
ATOM     93  C   UNL     1      -2.203  -6.123 -15.401  1.00  0.00     0.041 A 
ATOM     94  F   UNL     1      -2.832  -5.609 -13.206  1.00  0.00    -0.206 F 
ATOM     95  C   UNL     1      -1.223  -6.240 -16.380  1.00  0.00     0.022 A 
BRANCH  92  96
ATOM     96  S   UNL     1       1.383  -6.005 -17.338  1.00  0.00     0.124 S 
ATOM     97  O   UNL     1       1.883  -4.635 -17.299  1.00  0.00    -0.237 OA
ATOM     98  O   UNL     1       2.300  -7.033 -16.855  1.00  0.00    -0.237 OA
ATOM     99  O   UNL     1       0.640  -6.359 -18.547  1.00  0.00    -0.744 OA
ENDBRANCH  92  96
ENDBRANCH  66  89
ENDBRANCH  40  41
ENDBRANCH  33  35
ENDBRANCH  32  33
ENDBRANCH  31  32
ENDBRANCH   1  31
TORSDOF 19
