REMARK SMILES O=C(Cc1ccn[nH]1)Nc1sc2c(c1C(=O)OCCOC(=O)c1ccc(-c3c4nc(c(-c5cc(S(=O)(=O)[O-])ccc5F)c5ccc([nH]5)c(-c5cc(S(=O)(=O)[O-])ccc5F)c5nc(c(-c6cc(S(=O)(=O)[O-])ccc6F)c6ccc3[nH]6)C=C5)C=C4)cc1)CCC2
REMARK SMILES IDX 18 1 17 2 15 3 16 4 14 5 10 6 11 7 12 8 13 9 88 10 86 11
REMARK SMILES IDX 87 12 9 13 1 14 2 15 3 17 4 18 5 19 8 20 6 21 7 22 19 24
REMARK SMILES IDX 20 25 21 26 22 27 23 28 24 29 85 30 25 31 84 32 26 33 27 34
REMARK SMILES IDX 28 35 78 36 29 37 83 38 77 39 79 40 30 41 82 42 76 43 75 44
REMARK SMILES IDX 31 46 63 47 43 48 62 49 44 50 47 51 61 52 80 53 45 54 46 55
REMARK SMILES IDX 60 57 81 58 48 59 32 60 33 61 41 62 34 63 40 64 42 65 39 66
REMARK SMILES IDX 35 67 36 68 37 69 38 70 64 71 65 72 73 73 66 74 72 75 74 76
REMARK SMILES IDX 71 77 67 78 68 79 69 80 70 81 49 82 50 83 58 84 51 85 57 86
REMARK SMILES IDX 59 87 56 88 52 89 53 90 54 91 55 92
REMARK H PARENT 9 16 8 23 79 45 47 56
REMARK Flexibility Score: inf
ROOT
ATOM      1  C   UNL     1      -0.737   4.536   0.546  1.00  0.00     0.275 C 
ENDROOT
BRANCH   1   2
ATOM      2  O   UNL     1      -0.197   4.006  -0.681  1.00  0.00    -0.458 OA
BRANCH   2   3
ATOM      3  C   UNL     1       0.976   3.301  -0.601  1.00  0.00     0.341 C 
ATOM      4  O   UNL     1       1.611   3.158   0.445  1.00  0.00    -0.246 OA
BRANCH   3   5
ATOM      5  C   UNL     1       1.444   2.808  -1.896  1.00  0.00     0.098 A 
ATOM      6  C   UNL     1       2.536   1.962  -2.077  1.00  0.00     0.110 A 
ATOM      7  S   UNL     1       3.002   1.754  -3.715  1.00  0.00    -0.122 S 
ATOM      8  C   UNL     1       1.636   2.576  -4.208  1.00  0.00     0.011 A 
ATOM      9  C   UNL     1       0.888   3.085  -3.181  1.00  0.00    -0.017 A 
ATOM     10  C   UNL     1       1.097   2.858  -5.556  1.00  0.00     0.047 C 
ATOM     11  C   UNL     1      -0.302   3.806  -3.701  1.00  0.00     0.038 C 
ATOM     12  C   UNL     1      -0.327   3.384  -5.204  1.00  0.00     0.010 C 
BRANCH   6  13
ATOM     13  N   UNL     1       3.308   1.282  -1.158  1.00  0.00    -0.317 N 
ATOM     14  O   UNL     1       2.151  -0.690  -1.505  1.00  0.00    -0.274 OA
ATOM     15  C   UNL     1       3.011  -0.052  -0.904  1.00  0.00     0.230 C 
ATOM     16  H   UNL     1       4.051   1.731  -0.693  1.00  0.00     0.170 HD
BRANCH  15  17
ATOM     17  C   UNL     1       3.846  -0.666   0.215  1.00  0.00     0.155 C 
BRANCH  17  18
ATOM     18  C   UNL     1       4.472  -1.944  -0.224  1.00  0.00     0.044 A 
ATOM     19  C   UNL     1       4.088  -3.258  -0.057  1.00  0.00     0.045 A 
ATOM     20  N   UNL     1       5.631  -1.993  -0.948  1.00  0.00    -0.282 N 
ATOM     21  C   UNL     1       5.075  -4.009  -0.722  1.00  0.00     0.135 A 
ATOM     22  N   UNL     1       6.033  -3.238  -1.246  1.00  0.00    -0.184 NA
ATOM     23  H   UNL     1       6.126  -1.189  -1.225  1.00  0.00     0.190 HD
ENDBRANCH  17  18
ENDBRANCH  15  17
ENDBRANCH   6  13
ENDBRANCH   3   5
ENDBRANCH   2   3
ENDBRANCH   1   2
BRANCH   1  24
ATOM     24  C   UNL     1      -1.720   3.597   1.247  1.00  0.00     0.275 C 
BRANCH  24  25
ATOM     25  O   UNL     1      -1.070   2.443   1.773  1.00  0.00    -0.458 OA
BRANCH  25  26
ATOM     26  C   UNL     1      -0.973   1.443   0.867  1.00  0.00     0.338 C 
ATOM     27  O   UNL     1      -1.248   1.515  -0.319  1.00  0.00    -0.246 OA
BRANCH  26  28
ATOM     28  C   UNL     1      -0.569   0.197   1.513  1.00  0.00     0.060 A 
ATOM     29  C   UNL     1      -0.166  -0.832   0.658  1.00  0.00     0.016 A 
ATOM     30  C   UNL     1      -0.810  -0.017   2.875  1.00  0.00     0.016 A 
ATOM     31  C   UNL     1      -0.126  -2.121   1.132  1.00  0.00     0.010 A 
ATOM     32  C   UNL     1      -0.799  -1.311   3.344  1.00  0.00     0.010 A 
ATOM     33  C   UNL     1      -0.520  -2.348   2.447  1.00  0.00    -0.014 A 
BRANCH  33  34
ATOM     34  C   UNL     1      -0.629  -3.724   2.886  1.00  0.00     0.031 A 
ATOM     35  C   UNL     1       0.684  -4.348   3.212  1.00  0.00     0.074 A 
ATOM     36  C   UNL     1      -1.861  -4.247   3.063  1.00  0.00     0.049 A 
ATOM     37  N   UNL     1       1.170  -5.471   2.799  1.00  0.00    -0.248 NA
ATOM     38  C   UNL     1       1.655  -3.544   3.985  1.00  0.00     0.031 C 
ATOM     39  C   UNL     1      -3.151  -3.551   2.944  1.00  0.00     0.029 A 
ATOM     40  N   UNL     1      -2.238  -5.472   3.510  1.00  0.00    -0.354 N 
ATOM     41  C   UNL     1       2.394  -5.623   3.449  1.00  0.00     0.074 A 
ATOM     42  C   UNL     1       2.717  -4.345   4.009  1.00  0.00     0.031 C 
ATOM     43  C   UNL     1      -4.111  -4.273   3.564  1.00  0.00     0.029 A 
ATOM     44  C   UNL     1      -3.534  -5.524   4.022  1.00  0.00     0.049 A 
ATOM     45  H   UNL     1      -1.646  -6.258   3.476  1.00  0.00     0.167 HD
ATOM     46  C   UNL     1       2.910  -6.859   3.689  1.00  0.00     0.034 A 
ATOM     47  C   UNL     1      -4.044  -6.469   4.862  1.00  0.00     0.034 A 
ATOM     48  C   UNL     1       2.392  -7.816   2.740  1.00  0.00     0.049 A 
ATOM     49  C   UNL     1      -3.132  -7.643   4.772  1.00  0.00     0.074 A 
ATOM     50  C   UNL     1       2.451  -7.920   1.363  1.00  0.00     0.029 A 
ATOM     51  N   UNL     1       1.359  -8.640   3.131  1.00  0.00    -0.354 N 
ATOM     52  N   UNL     1      -2.984  -8.346   3.679  1.00  0.00    -0.248 NA
ATOM     53  C   UNL     1      -2.003  -7.690   5.694  1.00  0.00     0.031 C 
ATOM     54  C   UNL     1       1.155  -8.366   0.977  1.00  0.00     0.029 A 
ATOM     55  C   UNL     1       0.412  -8.607   2.136  1.00  0.00     0.049 A 
ATOM     56  H   UNL     1       1.308  -9.156   3.968  1.00  0.00     0.167 HD
ATOM     57  C   UNL     1      -1.619  -8.577   3.577  1.00  0.00     0.074 A 
ATOM     58  C   UNL     1      -1.071  -8.200   4.881  1.00  0.00     0.031 C 
ATOM     59  C   UNL     1      -1.012  -8.761   2.366  1.00  0.00     0.034 A 
BRANCH  46  60
ATOM     60  C   UNL     1       3.514  -7.269   5.019  1.00  0.00     0.023 A 
ATOM     61  C   UNL     1       3.804  -8.637   5.178  1.00  0.00     0.031 A 
ATOM     62  C   UNL     1       3.512  -6.505   6.209  1.00  0.00     0.131 A 
ATOM     63  C   UNL     1       3.900  -9.212   6.455  1.00  0.00     0.055 A 
ATOM     64  C   UNL     1       3.671  -7.072   7.476  1.00  0.00     0.041 A 
ATOM     65  F   UNL     1       3.282  -5.188   6.233  1.00  0.00    -0.206 F 
ATOM     66  C   UNL     1       3.822  -8.441   7.609  1.00  0.00     0.022 A 
BRANCH  63  67
ATOM     67  S   UNL     1       3.908 -11.018   6.572  1.00  0.00     0.124 S 
ATOM     68  O   UNL     1       2.730 -11.364   5.784  1.00  0.00    -0.237 OA
ATOM     69  O   UNL     1       5.200 -11.349   5.982  1.00  0.00    -0.237 OA
ATOM     70  O   UNL     1       3.795 -11.264   8.008  1.00  0.00    -0.744 OA
ENDBRANCH  63  67
ENDBRANCH  46  60
BRANCH  47  71
ATOM     71  C   UNL     1      -4.963  -6.202   6.016  1.00  0.00     0.023 A 
ATOM     72  C   UNL     1      -5.808  -7.173   6.599  1.00  0.00     0.031 A 
ATOM     73  C   UNL     1      -4.864  -4.967   6.704  1.00  0.00     0.131 A 
ATOM     74  C   UNL     1      -6.519  -6.879   7.794  1.00  0.00     0.055 A 
ATOM     75  C   UNL     1      -5.572  -4.682   7.874  1.00  0.00     0.041 A 
ATOM     76  F   UNL     1      -4.011  -4.013   6.301  1.00  0.00    -0.206 F 
ATOM     77  C   UNL     1      -6.401  -5.639   8.427  1.00  0.00     0.022 A 
BRANCH  74  78
ATOM     78  S   UNL     1      -7.588  -8.130   8.587  1.00  0.00     0.124 S 
ATOM     79  O   UNL     1      -8.604  -8.367   7.568  1.00  0.00    -0.237 OA
ATOM     80  O   UNL     1      -6.656  -9.222   8.843  1.00  0.00    -0.237 OA
ATOM     81  O   UNL     1      -8.078  -7.452   9.790  1.00  0.00    -0.744 OA
ENDBRANCH  74  78
ENDBRANCH  47  71
BRANCH  59  82
ATOM     82  C   UNL     1      -1.872  -8.953   1.134  1.00  0.00     0.023 A 
ATOM     83  C   UNL     1      -2.780  -8.001   0.613  1.00  0.00     0.031 A 
ATOM     84  C   UNL     1      -1.619 -10.103   0.366  1.00  0.00     0.131 A 
ATOM     85  C   UNL     1      -3.391  -8.227  -0.640  1.00  0.00     0.055 A 
ATOM     86  C   UNL     1      -2.205 -10.309  -0.880  1.00  0.00     0.041 A 
ATOM     87  F   UNL     1      -0.746 -11.029   0.797  1.00  0.00    -0.206 F 
ATOM     88  C   UNL     1      -3.096  -9.372  -1.387  1.00  0.00     0.022 A 
BRANCH  85  89
ATOM     89  S   UNL     1      -4.594  -7.039  -1.327  1.00  0.00     0.124 S 
ATOM     90  O   UNL     1      -5.516  -6.812  -0.221  1.00  0.00    -0.237 OA
ATOM     91  O   UNL     1      -3.748  -5.909  -1.700  1.00  0.00    -0.237 OA
ATOM     92  O   UNL     1      -5.174  -7.761  -2.462  1.00  0.00    -0.744 OA
ENDBRANCH  85  89
ENDBRANCH  59  82
ENDBRANCH  33  34
ENDBRANCH  26  28
ENDBRANCH  25  26
ENDBRANCH  24  25
ENDBRANCH   1  24
TORSDOF 17
