REMARK SMILES CC(C)(C)OC(=O)N1[C@@H](C(=O)OCCOC(=O)c2ccc(-c3c4nc(c(-c5cc(S(=O)(=O)[O-])ccc5F)c5ccc([nH]5)c(-c5cc(S(=O)(=O)[O-])ccc5F)c5nc(c(-c6cc(S(=O)(=O)[O-])ccc6F)c6ccc3[nH]6)C=C5)C=C4)cc2)C[C@H]2CCCC[C@@H]21
REMARK SMILES IDX 13 1 12 2 10 3 11 4 9 5 8 6 87 7 81 8 82 9 86 10 83 11 85 12
REMARK SMILES IDX 84 13 6 14 7 15 5 16 2 17 1 18 3 19 4 20 14 21 15 22 16 23
REMARK SMILES IDX 17 24 18 25 19 26 80 27 20 28 79 29 21 30 22 31 23 32 73 33
REMARK SMILES IDX 24 34 78 35 72 36 74 37 25 38 77 39 71 40 70 41 26 43 58 44
REMARK SMILES IDX 38 45 57 46 39 47 42 48 56 49 75 50 40 51 41 52 55 54 76 55
REMARK SMILES IDX 43 56 27 57 28 58 36 59 29 60 35 61 37 62 34 63 30 64 31 65
REMARK SMILES IDX 32 66 33 67 59 68 60 69 68 70 61 71 67 72 69 73 66 74 62 75
REMARK SMILES IDX 63 76 64 77 65 78 44 79 45 80 53 81 46 82 52 83 54 84 51 85
REMARK SMILES IDX 47 86 48 87 49 88 50 89
REMARK H PARENT 74 42 42 53
REMARK Flexibility Score: inf
ROOT
ATOM      1  C   UNL     1       5.362  -3.512   4.397  1.00  0.00     0.274 C 
ENDROOT
BRANCH   1   2
ATOM      2  O   UNL     1       4.462  -3.581   3.265  1.00  0.00    -0.461 OA
BRANCH   2   3
ATOM      3  C   UNL     1       3.390  -4.406   3.428  1.00  0.00     0.329 C 
ATOM      4  O   UNL     1       3.184  -5.046   4.457  1.00  0.00    -0.250 OA
BRANCH   3   5
ATOM      5  C   UNL     1       2.526  -4.549   2.151  1.00  0.00     0.199 C 
ATOM      6  N   UNL     1       1.100  -4.227   2.357  1.00  0.00    -0.291 N 
ATOM      7  C   UNL     1       0.383  -5.411   2.788  1.00  0.00     0.092 C 
ATOM      8  C   UNL     1       2.530  -6.078   1.867  1.00  0.00     0.043 C 
ATOM      9  C   UNL     1       1.066  -6.510   1.974  1.00  0.00     0.014 C 
ATOM     10  C   UNL     1      -1.126  -5.548   2.569  1.00  0.00     0.025 C 
ATOM     11  C   UNL     1       0.756  -7.854   2.619  1.00  0.00     0.006 C 
ATOM     12  C   UNL     1      -1.592  -6.913   3.093  1.00  0.00     0.002 C 
ATOM     13  C   UNL     1      -0.761  -8.095   2.573  1.00  0.00     0.000 C 
BRANCH   6  14
ATOM     14  C   UNL     1       0.501  -2.983   2.307  1.00  0.00     0.411 C 
ATOM     15  O   UNL     1      -0.565  -2.750   2.849  1.00  0.00    -0.224 OA
BRANCH  14  16
ATOM     16  O   UNL     1       1.166  -2.083   1.533  1.00  0.00    -0.444 OA
BRANCH  16  17
ATOM     17  C   UNL     1       0.572  -0.764   1.282  1.00  0.00     0.106 C 
ATOM     18  C   UNL     1       1.206  -0.281  -0.031  1.00  0.00     0.056 C 
ATOM     19  C   UNL     1       0.960   0.200   2.405  1.00  0.00     0.056 C 
ATOM     20  C   UNL     1      -0.957  -0.741   1.085  1.00  0.00     0.056 C 
ENDBRANCH  16  17
ENDBRANCH  14  16
ENDBRANCH   6  14
ENDBRANCH   3   5
ENDBRANCH   2   3
ENDBRANCH   1   2
BRANCH   1  21
ATOM     21  C   UNL     1       5.114  -2.281   5.271  1.00  0.00     0.275 C 
BRANCH  21  22
ATOM     22  O   UNL     1       3.839  -2.361   5.936  1.00  0.00    -0.458 OA
BRANCH  22  23
ATOM     23  C   UNL     1       2.855  -1.670   5.314  1.00  0.00     0.338 C 
ATOM     24  O   UNL     1       2.988  -0.981   4.317  1.00  0.00    -0.246 OA
BRANCH  23  25
ATOM     25  C   UNL     1       1.543  -1.921   5.932  1.00  0.00     0.060 A 
ATOM     26  C   UNL     1       0.899  -3.108   5.620  1.00  0.00     0.016 A 
ATOM     27  C   UNL     1       0.844  -0.913   6.589  1.00  0.00     0.016 A 
ATOM     28  C   UNL     1      -0.466  -3.248   5.833  1.00  0.00     0.010 A 
ATOM     29  C   UNL     1      -0.509  -1.109   6.917  1.00  0.00     0.010 A 
ATOM     30  C   UNL     1      -1.198  -2.263   6.497  1.00  0.00    -0.014 A 
BRANCH  30  31
ATOM     31  C   UNL     1      -2.676  -2.430   6.659  1.00  0.00     0.031 A 
ATOM     32  C   UNL     1      -3.620  -1.361   6.165  1.00  0.00     0.074 A 
ATOM     33  C   UNL     1      -3.193  -3.563   7.182  1.00  0.00     0.049 A 
ATOM     34  N   UNL     1      -4.898  -1.205   6.405  1.00  0.00    -0.248 NA
ATOM     35  C   UNL     1      -3.042  -0.320   5.303  1.00  0.00     0.031 C 
ATOM     36  C   UNL     1      -2.421  -4.737   7.602  1.00  0.00     0.029 A 
ATOM     37  N   UNL     1      -4.495  -3.927   7.435  1.00  0.00    -0.354 N 
ATOM     38  C   UNL     1      -5.263  -0.017   5.778  1.00  0.00     0.074 A 
ATOM     39  C   UNL     1      -4.062   0.515   5.166  1.00  0.00     0.031 C 
ATOM     40  C   UNL     1      -3.261  -5.702   8.001  1.00  0.00     0.029 A 
ATOM     41  C   UNL     1      -4.618  -5.175   8.005  1.00  0.00     0.049 A 
ATOM     42  H   UNL     1      -5.265  -3.350   7.228  1.00  0.00     0.167 HD
ATOM     43  C   UNL     1      -6.486   0.571   5.722  1.00  0.00     0.034 A 
ATOM     44  C   UNL     1      -5.683  -5.805   8.539  1.00  0.00     0.034 A 
ATOM     45  C   UNL     1      -7.683  -0.009   6.291  1.00  0.00     0.049 A 
ATOM     46  C   UNL     1      -7.009  -5.091   8.559  1.00  0.00     0.074 A 
ATOM     47  C   UNL     1      -8.970   0.502   6.300  1.00  0.00     0.029 A 
ATOM     48  N   UNL     1      -7.746  -1.238   6.938  1.00  0.00    -0.354 N 
ATOM     49  N   UNL     1      -7.322  -3.913   8.072  1.00  0.00    -0.248 NA
ATOM     50  C   UNL     1      -8.121  -5.787   9.217  1.00  0.00     0.031 C 
ATOM     51  C   UNL     1      -9.791  -0.377   7.016  1.00  0.00     0.029 A 
ATOM     52  C   UNL     1      -9.041  -1.485   7.374  1.00  0.00     0.049 A 
ATOM     53  H   UNL     1      -6.983  -1.846   7.068  1.00  0.00     0.167 HD
ATOM     54  C   UNL     1      -8.676  -3.740   8.341  1.00  0.00     0.074 A 
ATOM     55  C   UNL     1      -9.121  -4.943   9.014  1.00  0.00     0.031 C 
ATOM     56  C   UNL     1      -9.478  -2.683   8.055  1.00  0.00     0.034 A 
BRANCH  43  57
ATOM     57  C   UNL     1      -6.576   1.944   5.090  1.00  0.00     0.023 A 
ATOM     58  C   UNL     1      -6.273   2.175   3.737  1.00  0.00     0.031 A 
ATOM     59  C   UNL     1      -6.944   3.053   5.876  1.00  0.00     0.131 A 
ATOM     60  C   UNL     1      -6.266   3.487   3.235  1.00  0.00     0.055 A 
ATOM     61  C   UNL     1      -7.025   4.342   5.348  1.00  0.00     0.041 A 
ATOM     62  F   UNL     1      -7.223   2.904   7.181  1.00  0.00    -0.206 F 
ATOM     63  C   UNL     1      -6.667   4.568   4.023  1.00  0.00     0.022 A 
BRANCH  60  64
ATOM     64  S   UNL     1      -5.571   3.784   1.585  1.00  0.00     0.124 S 
ATOM     65  O   UNL     1      -4.222   3.241   1.728  1.00  0.00    -0.237 OA
ATOM     66  O   UNL     1      -6.475   3.034   0.721  1.00  0.00    -0.237 OA
ATOM     67  O   UNL     1      -5.635   5.238   1.441  1.00  0.00    -0.744 OA
ENDBRANCH  60  64
ENDBRANCH  43  57
BRANCH  44  68
ATOM     68  C   UNL     1      -5.527  -7.144   9.182  1.00  0.00     0.023 A 
ATOM     69  C   UNL     1      -6.239  -8.261   8.719  1.00  0.00     0.031 A 
ATOM     70  C   UNL     1      -4.698  -7.315  10.308  1.00  0.00     0.131 A 
ATOM     71  C   UNL     1      -6.142  -9.485   9.400  1.00  0.00     0.055 A 
ATOM     72  C   UNL     1      -4.549  -8.551  10.938  1.00  0.00     0.041 A 
ATOM     73  F   UNL     1      -4.002  -6.280  10.806  1.00  0.00    -0.206 F 
ATOM     74  C   UNL     1      -5.286  -9.643  10.492  1.00  0.00     0.022 A 
BRANCH  71  75
ATOM     75  S   UNL     1      -7.231 -10.846   8.901  1.00  0.00     0.124 S 
ATOM     76  O   UNL     1      -8.550 -10.248   9.070  1.00  0.00    -0.237 OA
ATOM     77  O   UNL     1      -6.806 -11.087   7.526  1.00  0.00    -0.237 OA
ATOM     78  O   UNL     1      -6.901 -11.910   9.847  1.00  0.00    -0.744 OA
ENDBRANCH  71  75
ENDBRANCH  44  68
BRANCH  56  79
ATOM     79  C   UNL     1     -10.938  -2.816   8.418  1.00  0.00     0.023 A 
ATOM     80  C   UNL     1     -11.368  -2.920   9.753  1.00  0.00     0.031 A 
ATOM     81  C   UNL     1     -11.914  -2.876   7.406  1.00  0.00     0.131 A 
ATOM     82  C   UNL     1     -12.723  -3.149  10.036  1.00  0.00     0.055 A 
ATOM     83  C   UNL     1     -13.269  -3.031   7.697  1.00  0.00     0.041 A 
ATOM     84  F   UNL     1     -11.563  -2.790   6.112  1.00  0.00    -0.206 F 
ATOM     85  C   UNL     1     -13.679  -3.185   9.018  1.00  0.00     0.022 A 
BRANCH  82  86
ATOM     86  S   UNL     1     -13.206  -3.520  11.745  1.00  0.00     0.124 S 
ATOM     87  O   UNL     1     -12.383  -4.687  12.046  1.00  0.00    -0.237 OA
ATOM     88  O   UNL     1     -12.849  -2.290  12.445  1.00  0.00    -0.237 OA
ATOM     89  O   UNL     1     -14.641  -3.782  11.648  1.00  0.00    -0.744 OA
ENDBRANCH  82  86
ENDBRANCH  56  79
ENDBRANCH  30  31
ENDBRANCH  23  25
ENDBRANCH  22  23
ENDBRANCH  21  22
ENDBRANCH   1  21
TORSDOF 17
