REMARK SMILES O=C(OCCOC(=O)[C@H]1[C@H]2CC[C@H](C2)[C@@H]1C(=O)Nc1sc2c(c1C(=O)NC1CCCCC1)CCCC2)c1ccc(-c2c3nc(c(-c4cc(S(=O)(=O)[O-])ccc4F)c4ccc([nH]4)c(-c4cc(S(=O)(=O)[O-])ccc4F)c4nc(c(-c5cc(S(=O)(=O)[O-])ccc5F)c5ccc2[nH]5)C=C4)C=C3)cc1
REMARK SMILES IDX 5 1 4 2 3 3 2 4 1 5 37 6 38 7 99 8 39 9 98 10 40 11 41 12
REMARK SMILES IDX 42 13 92 14 43 15 97 16 91 17 93 18 44 19 96 20 90 21 89 22
REMARK SMILES IDX 45 24 77 25 57 26 76 27 58 28 61 29 75 30 94 31 59 32 60 33
REMARK SMILES IDX 74 35 95 36 62 37 46 38 47 39 55 40 48 41 54 42 56 43 53 44
REMARK SMILES IDX 49 45 50 46 51 47 52 48 78 49 79 50 87 51 80 52 86 53 88 54
REMARK SMILES IDX 85 55 81 56 82 57 83 58 84 59 63 60 64 61 72 62 65 63 71 64
REMARK SMILES IDX 73 65 70 66 66 67 67 68 68 69 69 70 6 71 7 72 8 73 9 74
REMARK SMILES IDX 10 75 15 76 11 77 14 78 13 79 12 80 16 81 17 82 18 83 19 85
REMARK SMILES IDX 20 86 23 87 21 88 22 89 36 90 33 91 35 92 34 93 24 94 25 95
REMARK SMILES IDX 26 96 27 98 28 99 32 100 29 101 31 102 30 103
REMARK H PARENT 93 23 61 34 18 84 26 97
REMARK Flexibility Score: inf
ROOT
ATOM      1  C   UNL     1       1.747   0.664   4.741  1.00  0.00     0.274 C 
ENDROOT
BRANCH   1   2
ATOM      2  C   UNL     1       2.624  -0.583   4.714  1.00  0.00     0.275 C 
BRANCH   2   3
ATOM      3  O   UNL     1       3.868  -0.423   4.011  1.00  0.00    -0.458 OA
BRANCH   3   4
ATOM      4  C   UNL     1       4.153  -0.605   2.698  1.00  0.00     0.338 C 
ATOM      5  O   UNL     1       5.332  -0.652   2.353  1.00  0.00    -0.246 OA
BRANCH   4   6
ATOM      6  C   UNL     1       3.111  -0.641   1.621  1.00  0.00     0.060 A 
ATOM      7  C   UNL     1       1.876  -1.291   1.702  1.00  0.00     0.016 A 
ATOM      8  C   UNL     1       3.443  -0.025   0.401  1.00  0.00     0.016 A 
ATOM      9  C   UNL     1       0.981  -1.299   0.616  1.00  0.00     0.010 A 
ATOM     10  C   UNL     1       2.548  -0.022  -0.683  1.00  0.00     0.010 A 
ATOM     11  C   UNL     1       1.316  -0.690  -0.596  1.00  0.00    -0.014 A 
BRANCH  11  12
ATOM     12  C   UNL     1       0.479  -0.936  -1.813  1.00  0.00     0.031 A 
ATOM     13  C   UNL     1       0.958  -2.009  -2.790  1.00  0.00     0.074 A 
ATOM     14  C   UNL     1      -0.573  -0.136  -2.109  1.00  0.00     0.049 A 
ATOM     15  N   UNL     1       0.426  -2.443  -3.909  1.00  0.00    -0.248 NA
ATOM     16  C   UNL     1       2.276  -2.598  -2.502  1.00  0.00     0.031 C 
ATOM     17  C   UNL     1      -1.023   1.011  -1.312  1.00  0.00     0.029 A 
ATOM     18  N   UNL     1      -1.415  -0.115  -3.203  1.00  0.00    -0.354 N 
ATOM     19  C   UNL     1       1.405  -3.225  -4.533  1.00  0.00     0.074 A 
ATOM     20  C   UNL     1       2.517  -3.288  -3.605  1.00  0.00     0.031 C 
ATOM     21  C   UNL     1      -2.028   1.637  -1.958  1.00  0.00     0.029 A 
ATOM     22  C   UNL     1      -2.287   0.956  -3.228  1.00  0.00     0.049 A 
ATOM     23  H   UNL     1      -1.396  -0.805  -3.905  1.00  0.00     0.167 HD
ATOM     24  C   UNL     1       1.429  -3.740  -5.798  1.00  0.00     0.034 A 
ATOM     25  C   UNL     1      -3.154   1.359  -4.186  1.00  0.00     0.034 A 
ATOM     26  C   UNL     1       0.344  -3.587  -6.753  1.00  0.00     0.049 A 
ATOM     27  C   UNL     1      -3.175   0.639  -5.530  1.00  0.00     0.074 A 
ATOM     28  C   UNL     1      -0.053  -4.411  -7.791  1.00  0.00     0.029 A 
ATOM     29  N   UNL     1      -0.462  -2.458  -6.850  1.00  0.00    -0.354 N 
ATOM     30  N   UNL     1      -2.489  -0.404  -5.946  1.00  0.00    -0.248 NA
ATOM     31  C   UNL     1      -4.058   1.211  -6.556  1.00  0.00     0.031 C 
ATOM     32  C   UNL     1      -1.088  -3.760  -8.504  1.00  0.00     0.029 A 
ATOM     33  C   UNL     1      -1.376  -2.549  -7.886  1.00  0.00     0.049 A 
ATOM     34  H   UNL     1      -0.391  -1.681  -6.249  1.00  0.00     0.167 HD
ATOM     35  C   UNL     1      -2.828  -0.594  -7.293  1.00  0.00     0.074 A 
ATOM     36  C   UNL     1      -3.824   0.419  -7.594  1.00  0.00     0.031 C 
ATOM     37  C   UNL     1      -2.354  -1.505  -8.197  1.00  0.00     0.034 A 
BRANCH  24  38
ATOM     38  C   UNL     1       2.704  -4.452  -6.219  1.00  0.00     0.023 A 
ATOM     39  C   UNL     1       3.191  -5.576  -5.520  1.00  0.00     0.031 A 
ATOM     40  C   UNL     1       3.506  -3.937  -7.253  1.00  0.00     0.131 A 
ATOM     41  C   UNL     1       4.475  -6.080  -5.794  1.00  0.00     0.055 A 
ATOM     42  C   UNL     1       4.748  -4.498  -7.578  1.00  0.00     0.041 A 
ATOM     43  F   UNL     1       3.127  -2.841  -7.930  1.00  0.00    -0.206 F 
ATOM     44  C   UNL     1       5.247  -5.566  -6.836  1.00  0.00     0.022 A 
BRANCH  41  45
ATOM     45  S   UNL     1       5.165  -7.338  -4.679  1.00  0.00     0.124 S 
ATOM     46  O   UNL     1       5.426  -6.538  -3.474  1.00  0.00    -0.237 OA
ATOM     47  O   UNL     1       4.109  -8.307  -4.585  1.00  0.00    -0.237 OA
ATOM     48  O   UNL     1       6.378  -7.785  -5.386  1.00  0.00    -0.744 OA
ENDBRANCH  41  45
ENDBRANCH  24  38
BRANCH  25  49
ATOM     49  C   UNL     1      -4.027   2.566  -3.997  1.00  0.00     0.023 A 
ATOM     50  C   UNL     1      -5.412   2.428  -3.797  1.00  0.00     0.031 A 
ATOM     51  C   UNL     1      -3.519   3.870  -4.138  1.00  0.00     0.131 A 
ATOM     52  C   UNL     1      -6.241   3.566  -3.776  1.00  0.00     0.055 A 
ATOM     53  C   UNL     1      -4.340   5.003  -4.069  1.00  0.00     0.041 A 
ATOM     54  F   UNL     1      -2.214   4.056  -4.386  1.00  0.00    -0.206 F 
ATOM     55  C   UNL     1      -5.713   4.853  -3.893  1.00  0.00     0.022 A 
BRANCH  52  56
ATOM     56  S   UNL     1      -8.042   3.336  -3.682  1.00  0.00     0.124 S 
ATOM     57  O   UNL     1      -8.319   2.670  -4.949  1.00  0.00    -0.237 OA
ATOM     58  O   UNL     1      -8.184   2.518  -2.482  1.00  0.00    -0.237 OA
ATOM     59  O   UNL     1      -8.555   4.700  -3.565  1.00  0.00    -0.744 OA
ENDBRANCH  52  56
ENDBRANCH  25  49
BRANCH  37  60
ATOM     60  C   UNL     1      -3.032  -1.516  -9.556  1.00  0.00     0.023 A 
ATOM     61  C   UNL     1      -2.968  -0.457 -10.489  1.00  0.00     0.031 A 
ATOM     62  C   UNL     1      -3.845  -2.618  -9.879  1.00  0.00     0.131 A 
ATOM     63  C   UNL     1      -3.729  -0.520 -11.674  1.00  0.00     0.055 A 
ATOM     64  C   UNL     1      -4.535  -2.707 -11.086  1.00  0.00     0.041 A 
ATOM     65  F   UNL     1      -4.001  -3.628  -9.009  1.00  0.00    -0.206 F 
ATOM     66  C   UNL     1      -4.489  -1.651 -11.986  1.00  0.00     0.022 A 
BRANCH  63  67
ATOM     67  S   UNL     1      -3.834   0.934 -12.766  1.00  0.00     0.124 S 
ATOM     68  O   UNL     1      -4.312   1.968 -11.854  1.00  0.00    -0.237 OA
ATOM     69  O   UNL     1      -2.458   1.078 -13.230  1.00  0.00    -0.237 OA
ATOM     70  O   UNL     1      -4.793   0.525 -13.792  1.00  0.00    -0.744 OA
ENDBRANCH  63  67
ENDBRANCH  37  60
ENDBRANCH  11  12
ENDBRANCH   4   6
ENDBRANCH   3   4
ENDBRANCH   2   3
ENDBRANCH   1   2
BRANCH   1  71
ATOM     71  O   UNL     1       1.653   1.294   3.461  1.00  0.00    -0.462 OA
BRANCH  71  72
ATOM     72  C   UNL     1       2.475   2.369   3.273  1.00  0.00     0.310 C 
ATOM     73  O   UNL     1       3.240   2.822   4.117  1.00  0.00    -0.252 OA
BRANCH  72  74
ATOM     74  C   UNL     1       2.235   2.953   1.899  1.00  0.00     0.115 C 
ATOM     75  C   UNL     1       0.827   3.589   1.805  1.00  0.00     0.004 C 
ATOM     76  C   UNL     1       3.200   4.112   1.519  1.00  0.00     0.096 C 
ATOM     77  C   UNL     1       0.596   4.610   2.928  1.00  0.00     0.005 C 
ATOM     78  C   UNL     1       1.010   4.510   0.608  1.00  0.00     0.009 C 
ATOM     79  C   UNL     1       2.198   5.241   1.240  1.00  0.00     0.003 C 
ATOM     80  C   UNL     1       1.585   5.721   2.575  1.00  0.00     0.005 C 
BRANCH  76  81
ATOM     81  C   UNL     1       4.279   3.603   0.527  1.00  0.00     0.229 C 
ATOM     82  O   UNL     1       5.274   3.060   1.037  1.00  0.00    -0.274 OA
ATOM     83  N   UNL     1       4.187   3.471  -0.823  1.00  0.00    -0.317 N 
ATOM     84  H   UNL     1       4.707   2.714  -1.177  1.00  0.00     0.170 HD
BRANCH  83  85
ATOM     85  C   UNL     1       3.517   4.175  -1.801  1.00  0.00     0.108 A 
ATOM     86  S   UNL     1       3.315   5.842  -1.597  1.00  0.00    -0.122 S 
ATOM     87  C   UNL     1       3.247   3.833  -3.145  1.00  0.00     0.078 A 
ATOM     88  C   UNL     1       1.987   5.767  -2.625  1.00  0.00     0.011 A 
ATOM     89  C   UNL     1       2.178   4.781  -3.586  1.00  0.00    -0.019 A 
ATOM     90  C   UNL     1       0.861   6.744  -2.523  1.00  0.00     0.047 C 
ATOM     91  C   UNL     1       1.228   4.822  -4.762  1.00  0.00     0.037 C 
ATOM     92  C   UNL     1      -0.282   6.325  -3.443  1.00  0.00     0.006 C 
ATOM     93  C   UNL     1       0.289   6.035  -4.824  1.00  0.00     0.005 C 
BRANCH  87  94
ATOM     94  C   UNL     1       4.001   2.657  -3.682  1.00  0.00     0.254 C 
ATOM     95  O   UNL     1       4.734   2.002  -2.925  1.00  0.00    -0.269 OA
ATOM     96  N   UNL     1       4.163   2.324  -5.012  1.00  0.00    -0.349 N 
ATOM     97  H   UNL     1       4.993   2.622  -5.450  1.00  0.00     0.164 HD
BRANCH  96  98
ATOM     98  C   UNL     1       3.213   1.565  -5.834  1.00  0.00     0.082 C 
ATOM     99  C   UNL     1       2.679   0.360  -5.084  1.00  0.00     0.025 C 
ATOM    100  C   UNL     1       2.131   2.474  -6.312  1.00  0.00     0.025 C 
ATOM    101  C   UNL     1       1.242   0.004  -5.392  1.00  0.00     0.002 C 
ATOM    102  C   UNL     1       1.030   1.851  -7.112  1.00  0.00     0.002 C 
ATOM    103  C   UNL     1       0.324   0.889  -6.209  1.00  0.00     0.000 C 
ENDBRANCH  96  98
ENDBRANCH  87  94
ENDBRANCH  83  85
ENDBRANCH  76  81
ENDBRANCH  72  74
ENDBRANCH  71  72
ENDBRANCH   1  71
TORSDOF 18
