REMARK SMILES Cc1ccccc1[C@@H]1[NH2+][C@H](C(=O)OCCOC(=O)c2ccc(-c3c4nc(c(-c5cc(S(=O)(=O)[O-])ccc5F)c5ccc([nH]5)c(-c5cc(S(=O)(=O)[O-])ccc5F)c5nc(c(-c6cc(S(=O)(=O)[O-])ccc6F)c6ccc3[nH]6)C=C5)C=C4)cc2)CC2=c3ccccc3=N[C@H]21
REMARK SMILES IDX 15 1 14 2 13 3 11 4 12 5 10 6 8 7 9 8 91 9 83 12 90 13 82 14
REMARK SMILES IDX 84 15 89 16 85 17 88 18 86 19 87 20 7 21 1 22 2 23 3 24 4 25
REMARK SMILES IDX 6 26 5 27 16 28 17 29 18 30 19 31 20 32 81 33 21 34 80 35
REMARK SMILES IDX 22 36 23 37 24 38 74 39 25 40 79 41 73 42 75 43 26 44 78 45
REMARK SMILES IDX 72 46 71 47 27 49 59 50 39 51 58 52 40 53 43 54 57 55 76 56
REMARK SMILES IDX 41 57 42 58 56 60 77 61 44 62 28 63 29 64 37 65 30 66 36 67
REMARK SMILES IDX 38 68 35 69 31 70 32 71 33 72 34 73 60 74 61 75 69 76 62 77
REMARK SMILES IDX 68 78 70 79 67 80 63 81 64 82 65 83 66 84 45 85 46 86 54 87
REMARK SMILES IDX 47 88 53 89 55 90 52 91 48 92 49 93 50 94 51 95
REMARK H PARENT 9 10 9 11 75 48 43 59
REMARK Flexibility Score: inf
ROOT
ATOM      1  C   UNL     1      -2.413   7.143  -3.316  1.00  0.00     0.275 C 
ENDROOT
BRANCH   1   2
ATOM      2  C   UNL     1      -2.847   6.797  -1.891  1.00  0.00     0.274 C 
BRANCH   2   3
ATOM      3  O   UNL     1      -1.896   5.949  -1.242  1.00  0.00    -0.458 OA
BRANCH   3   4
ATOM      4  C   UNL     1      -2.465   5.133  -0.324  1.00  0.00     0.365 C 
ATOM      5  O   UNL     1      -3.648   5.193   0.006  1.00  0.00    -0.245 OA
BRANCH   4   6
ATOM      6  C   UNL     1      -1.504   4.269   0.448  1.00  0.00     0.298 C 
ATOM      7  C   UNL     1       0.515   2.897   0.724  1.00  0.00     0.243 C 
ATOM      8  N   UNL     1      -0.283   3.752  -0.224  1.00  0.00    -0.326 N 
ATOM      9  C   UNL     1       0.705   3.474   2.197  1.00  0.00     0.196 C 
ATOM     10  H   UNL     1      -0.555   3.192  -1.032  1.00  0.00     0.347 HD
ATOM     11  H   UNL     1       0.291   4.541  -0.521  1.00  0.00     0.347 HD
ATOM     12  C   UNL     1      -0.546   4.190   2.597  1.00  0.00    -0.024 C 
ATOM     13  N   UNL     1       0.820   2.363   3.201  1.00  0.00    -0.270 NA
ATOM     14  C   UNL     1      -1.098   5.151   1.627  1.00  0.00     0.111 C 
ATOM     15  C   UNL     1      -1.212   3.540   3.539  1.00  0.00     0.002 A 
ATOM     16  C   UNL     1      -0.292   2.446   3.867  1.00  0.00     0.066 A 
ATOM     17  C   UNL     1      -2.577   3.548   3.950  1.00  0.00     0.010 A 
ATOM     18  C   UNL     1      -0.769   1.508   4.903  1.00  0.00     0.028 A 
ATOM     19  C   UNL     1      -2.988   2.571   4.772  1.00  0.00     0.001 A 
ATOM     20  C   UNL     1      -2.053   1.589   5.300  1.00  0.00     0.002 A 
BRANCH   7  21
ATOM     21  C   UNL     1       1.890   2.521   0.169  1.00  0.00     0.015 A 
ATOM     22  C   UNL     1       2.637   4.951  -0.224  1.00  0.00     0.045 C 
ATOM     23  C   UNL     1       2.884   3.468  -0.162  1.00  0.00    -0.042 A 
ATOM     24  C   UNL     1       4.203   3.028  -0.379  1.00  0.00     0.004 A 
ATOM     25  C   UNL     1       4.529   1.673  -0.349  1.00  0.00     0.000 A 
ATOM     26  C   UNL     1       2.229   1.150   0.133  1.00  0.00     0.010 A 
ATOM     27  C   UNL     1       3.534   0.731  -0.127  1.00  0.00     0.001 A 
ENDBRANCH   7  21
ENDBRANCH   4   6
ENDBRANCH   3   4
ENDBRANCH   2   3
ENDBRANCH   1   2
BRANCH   1  28
ATOM     28  O   UNL     1      -1.722   6.147  -4.127  1.00  0.00    -0.458 OA
BRANCH  28  29
ATOM     29  C   UNL     1      -1.619   4.818  -3.854  1.00  0.00     0.338 C 
ATOM     30  O   UNL     1      -0.534   4.245  -3.814  1.00  0.00    -0.246 OA
BRANCH  29  31
ATOM     31  C   UNL     1      -2.877   4.124  -3.511  1.00  0.00     0.060 A 
ATOM     32  C   UNL     1      -2.844   2.970  -2.701  1.00  0.00     0.016 A 
ATOM     33  C   UNL     1      -4.082   4.730  -3.833  1.00  0.00     0.016 A 
ATOM     34  C   UNL     1      -4.011   2.510  -2.091  1.00  0.00     0.010 A 
ATOM     35  C   UNL     1      -5.194   4.381  -3.114  1.00  0.00     0.010 A 
ATOM     36  C   UNL     1      -5.173   3.253  -2.272  1.00  0.00    -0.014 A 
BRANCH  36  37
ATOM     37  C   UNL     1      -6.512   2.815  -1.919  1.00  0.00     0.031 A 
ATOM     38  C   UNL     1      -7.124   2.984  -0.590  1.00  0.00     0.074 A 
ATOM     39  C   UNL     1      -7.219   2.497  -3.027  1.00  0.00     0.049 A 
ATOM     40  N   UNL     1      -8.252   2.455  -0.275  1.00  0.00    -0.248 NA
ATOM     41  C   UNL     1      -6.548   3.733   0.521  1.00  0.00     0.031 C 
ATOM     42  C   UNL     1      -8.648   2.475  -3.267  1.00  0.00     0.029 A 
ATOM     43  N   UNL     1      -6.697   2.077  -4.239  1.00  0.00    -0.354 N 
ATOM     44  C   UNL     1      -8.704   3.047   0.887  1.00  0.00     0.074 A 
ATOM     45  C   UNL     1      -7.557   3.745   1.407  1.00  0.00     0.031 C 
ATOM     46  C   UNL     1      -8.882   1.821  -4.425  1.00  0.00     0.029 A 
ATOM     47  C   UNL     1      -7.613   1.262  -4.876  1.00  0.00     0.049 A 
ATOM     48  H   UNL     1      -5.811   2.320  -4.592  1.00  0.00     0.167 HD
ATOM     49  C   UNL     1     -10.040   2.976   1.158  1.00  0.00     0.034 A 
ATOM     50  C   UNL     1      -7.315  -0.071  -4.965  1.00  0.00     0.034 A 
ATOM     51  C   UNL     1     -10.703   2.182   0.126  1.00  0.00     0.049 A 
ATOM     52  C   UNL     1      -8.249  -0.874  -4.087  1.00  0.00     0.074 A 
ATOM     53  C   UNL     1     -11.422   2.527  -1.004  1.00  0.00     0.029 A 
ATOM     54  N   UNL     1     -10.381   0.841   0.005  1.00  0.00    -0.354 N 
ATOM     55  N   UNL     1      -8.815  -0.423  -2.997  1.00  0.00    -0.248 NA
ATOM     56  C   UNL     1      -8.707  -2.206  -4.450  1.00  0.00     0.031 C 
ATOM     57  C   UNL     1     -11.473   1.382  -1.843  1.00  0.00     0.029 A 
ATOM     58  C   UNL     1     -10.808   0.346  -1.206  1.00  0.00     0.049 A 
ATOM     59  H   UNL     1      -9.911   0.314   0.691  1.00  0.00     0.167 HD
ATOM     60  C   UNL     1      -9.767  -1.317  -2.574  1.00  0.00     0.074 A 
ATOM     61  C   UNL     1      -9.639  -2.426  -3.508  1.00  0.00     0.031 C 
ATOM     62  C   UNL     1     -10.614  -1.058  -1.527  1.00  0.00     0.034 A 
BRANCH  49  63
ATOM     63  C   UNL     1     -10.850   3.771   2.161  1.00  0.00     0.023 A 
ATOM     64  C   UNL     1     -12.251   3.841   1.963  1.00  0.00     0.031 A 
ATOM     65  C   UNL     1     -10.370   4.481   3.273  1.00  0.00     0.131 A 
ATOM     66  C   UNL     1     -13.089   4.621   2.776  1.00  0.00     0.055 A 
ATOM     67  C   UNL     1     -11.208   5.262   4.093  1.00  0.00     0.041 A 
ATOM     68  F   UNL     1      -9.084   4.439   3.641  1.00  0.00    -0.206 F 
ATOM     69  C   UNL     1     -12.572   5.344   3.842  1.00  0.00     0.022 A 
BRANCH  66  70
ATOM     70  S   UNL     1     -14.860   4.687   2.387  1.00  0.00     0.124 S 
ATOM     71  O   UNL     1     -14.858   5.261   1.045  1.00  0.00    -0.237 OA
ATOM     72  O   UNL     1     -15.255   3.287   2.490  1.00  0.00    -0.237 OA
ATOM     73  O   UNL     1     -15.403   5.559   3.428  1.00  0.00    -0.744 OA
ENDBRANCH  66  70
ENDBRANCH  49  63
BRANCH  50  74
ATOM     74  C   UNL     1      -5.843  -0.317  -5.174  1.00  0.00     0.023 A 
ATOM     75  C   UNL     1      -5.250   0.302  -6.302  1.00  0.00     0.031 A 
ATOM     76  C   UNL     1      -4.987  -0.712  -4.135  1.00  0.00     0.131 A 
ATOM     77  C   UNL     1      -3.895   0.675  -6.285  1.00  0.00     0.055 A 
ATOM     78  C   UNL     1      -3.616  -0.401  -4.157  1.00  0.00     0.041 A 
ATOM     79  F   UNL     1      -5.473  -1.293  -3.029  1.00  0.00    -0.206 F 
ATOM     80  C   UNL     1      -3.074   0.337  -5.212  1.00  0.00     0.022 A 
BRANCH  77  81
ATOM     81  S   UNL     1      -3.314   1.861  -7.540  1.00  0.00     0.124 S 
ATOM     82  O   UNL     1      -3.121   1.003  -8.704  1.00  0.00    -0.237 OA
ATOM     83  O   UNL     1      -4.428   2.803  -7.615  1.00  0.00    -0.237 OA
ATOM     84  O   UNL     1      -2.097   2.412  -6.952  1.00  0.00    -0.744 OA
ENDBRANCH  77  81
ENDBRANCH  50  74
BRANCH  62  85
ATOM     85  C   UNL     1     -11.436  -2.078  -0.764  1.00  0.00     0.023 A 
ATOM     86  C   UNL     1     -11.371  -3.446  -1.029  1.00  0.00     0.031 A 
ATOM     87  C   UNL     1     -12.270  -1.718   0.329  1.00  0.00     0.131 A 
ATOM     88  C   UNL     1     -12.168  -4.368  -0.335  1.00  0.00     0.055 A 
ATOM     89  C   UNL     1     -12.989  -2.647   1.086  1.00  0.00     0.041 A 
ATOM     90  F   UNL     1     -12.412  -0.451   0.741  1.00  0.00    -0.206 F 
ATOM     91  C   UNL     1     -12.961  -3.985   0.739  1.00  0.00     0.022 A 
BRANCH  88  92
ATOM     92  S   UNL     1     -12.184  -6.067  -0.947  1.00  0.00     0.124 S 
ATOM     93  O   UNL     1     -12.709  -5.891  -2.299  1.00  0.00    -0.237 OA
ATOM     94  O   UNL     1     -10.776  -6.442  -0.863  1.00  0.00    -0.237 OA
ATOM     95  O   UNL     1     -13.072  -6.760  -0.018  1.00  0.00    -0.744 OA
ENDBRANCH  88  92
ENDBRANCH  62  85
ENDBRANCH  36  37
ENDBRANCH  29  31
ENDBRANCH  28  29
ENDBRANCH   1  28
TORSDOF 15
