REMARK SMILES COc1ccc(OC)c([C@H](C(=O)OCCOC(=O)c2ccc(-c3c4nc(c(-c5cc(S(=O)(=O)[O-])ccc5F)c5ccc([nH]5)c(-c5cc(S(=O)(=O)[O-])ccc5F)c5nc(c(-c6cc(S(=O)(=O)[O-])ccc6F)c6ccc3[nH]6)C=C5)C=C4)cc2)[NH+]2CC[NH+](Cc3nccn3C)CC2)c1
REMARK SMILES IDX 14 1 13 2 11 3 12 4 10 5 9 6 3 7 4 8 95 9 5 10 6 11 2 12
REMARK SMILES IDX 1 13 7 14 8 15 82 16 83 17 94 18 84 20 93 21 85 22 86 24
REMARK SMILES IDX 87 25 88 26 91 27 89 28 90 29 92 30 15 31 16 32 17 33 18 34
REMARK SMILES IDX 19 35 20 36 81 37 21 38 80 39 22 40 23 41 24 42 74 43 25 44
REMARK SMILES IDX 79 45 73 46 75 47 26 48 78 49 72 50 71 51 27 53 59 54 39 55
REMARK SMILES IDX 58 56 40 57 43 58 57 59 76 60 41 61 42 62 56 64 77 65 44 66
REMARK SMILES IDX 28 67 29 68 37 69 30 70 36 71 38 72 35 73 31 74 32 75 33 76
REMARK SMILES IDX 34 77 60 78 61 79 69 80 62 81 68 82 70 83 67 84 63 85 64 86
REMARK SMILES IDX 65 87 66 88 45 89 46 90 54 91 47 92 53 93 55 94 52 95 48 96
REMARK SMILES IDX 49 97 50 98 51 99
REMARK H PARENT 82 19 85 23 75 52 43 63
REMARK Flexibility Score: inf
ROOT
ATOM      1  C   UNL     1       0.002   2.955  -3.059  1.00  0.00     0.274 C 
ENDROOT
BRANCH   1   2
ATOM      2  O   UNL     1       1.374   3.304  -3.322  1.00  0.00    -0.457 OA
BRANCH   2   3
ATOM      3  C   UNL     1       2.296   2.833  -2.438  1.00  0.00     0.370 C 
ATOM      4  O   UNL     1       2.006   2.104  -1.490  1.00  0.00    -0.245 OA
BRANCH   3   5
ATOM      5  C   UNL     1       3.705   3.424  -2.614  1.00  0.00     0.330 C 
BRANCH   5   6
ATOM      6  C   UNL     1       4.428   3.271  -3.958  1.00  0.00     0.067 A 
ATOM      7  C   UNL     1       4.390   3.236  -6.418  1.00  0.00     0.119 A 
ATOM      8  C   UNL     1       5.773   3.086  -6.443  1.00  0.00     0.050 A 
ATOM      9  C   UNL     1       3.736   3.338  -5.186  1.00  0.00     0.060 A 
ATOM     10  C   UNL     1       6.489   3.009  -5.250  1.00  0.00     0.051 A 
ATOM     11  C   UNL     1       5.828   3.104  -4.020  1.00  0.00     0.128 A 
BRANCH   7  12
ATOM     12  O   UNL     1       3.788   3.280  -7.647  1.00  0.00    -0.497 OA
ATOM     13  C   UNL     1       2.366   3.293  -7.662  1.00  0.00     0.278 C 
ENDBRANCH   7  12
BRANCH  11  14
ATOM     14  O   UNL     1       6.610   2.863  -2.919  1.00  0.00    -0.496 OA
ATOM     15  C   UNL     1       6.818   4.003  -2.091  1.00  0.00     0.278 C 
ENDBRANCH  11  14
ENDBRANCH   5   6
BRANCH   5  16
ATOM     16  N   UNL     1       3.794   4.803  -2.076  1.00  0.00    -0.310 N 
ATOM     17  C   UNL     1       3.223   5.880  -2.887  1.00  0.00     0.325 C 
ATOM     18  C   UNL     1       3.479   4.921  -0.650  1.00  0.00     0.325 C 
ATOM     19  H   UNL     1       4.796   4.975  -2.161  1.00  0.00     0.349 HD
ATOM     20  C   UNL     1       1.818   6.394  -2.498  1.00  0.00     0.324 C 
ATOM     21  C   UNL     1       2.039   5.369  -0.309  1.00  0.00     0.324 C 
ATOM     22  N   UNL     1       1.510   6.509  -1.066  1.00  0.00    -0.319 N 
ATOM     23  H   UNL     1       0.497   6.446  -0.964  1.00  0.00     0.348 HD
BRANCH  22  24
ATOM     24  C   UNL     1       1.801   7.837  -0.504  1.00  0.00     0.339 C 
BRANCH  24  25
ATOM     25  C   UNL     1       3.238   8.264  -0.501  1.00  0.00     0.164 A 
ATOM     26  N   UNL     1       3.884   8.757  -1.546  1.00  0.00    -0.236 NA
ATOM     27  N   UNL     1       4.086   8.189   0.581  1.00  0.00    -0.333 N 
ATOM     28  C   UNL     1       5.198   8.841  -1.175  1.00  0.00     0.131 A 
ATOM     29  C   UNL     1       5.348   8.493   0.143  1.00  0.00     0.107 A 
ATOM     30  C   UNL     1       3.777   7.822   1.941  1.00  0.00     0.151 C 
ENDBRANCH  24  25
ENDBRANCH  22  24
ENDBRANCH   5  16
ENDBRANCH   3   5
ENDBRANCH   2   3
ENDBRANCH   1   2
BRANCH   1  31
ATOM     31  C   UNL     1      -0.458   1.750  -3.881  1.00  0.00     0.275 C 
BRANCH  31  32
ATOM     32  O   UNL     1       0.203   0.549  -3.455  1.00  0.00    -0.458 OA
BRANCH  32  33
ATOM     33  C   UNL     1       1.343   0.265  -4.131  1.00  0.00     0.338 C 
ATOM     34  O   UNL     1       1.771   0.848  -5.110  1.00  0.00    -0.246 OA
BRANCH  33  35
ATOM     35  C   UNL     1       2.099  -0.760  -3.399  1.00  0.00     0.060 A 
ATOM     36  C   UNL     1       3.395  -0.446  -2.977  1.00  0.00     0.016 A 
ATOM     37  C   UNL     1       1.559  -2.026  -3.172  1.00  0.00     0.016 A 
ATOM     38  C   UNL     1       4.159  -1.393  -2.309  1.00  0.00     0.010 A 
ATOM     39  C   UNL     1       2.337  -2.988  -2.528  1.00  0.00     0.010 A 
ATOM     40  C   UNL     1       3.642  -2.676  -2.107  1.00  0.00    -0.014 A 
BRANCH  40  41
ATOM     41  C   UNL     1       4.526  -3.740  -1.587  1.00  0.00     0.031 A 
ATOM     42  C   UNL     1       5.174  -4.669  -2.570  1.00  0.00     0.074 A 
ATOM     43  C   UNL     1       4.747  -3.849  -0.267  1.00  0.00     0.049 A 
ATOM     44  N   UNL     1       5.888  -5.741  -2.354  1.00  0.00    -0.248 NA
ATOM     45  C   UNL     1       4.982  -4.344  -3.992  1.00  0.00     0.031 C 
ATOM     46  C   UNL     1       4.214  -2.946   0.754  1.00  0.00     0.029 A 
ATOM     47  N   UNL     1       5.470  -4.772   0.443  1.00  0.00    -0.354 N 
ATOM     48  C   UNL     1       6.218  -6.231  -3.613  1.00  0.00     0.074 A 
ATOM     49  C   UNL     1       5.604  -5.352  -4.584  1.00  0.00     0.031 C 
ATOM     50  C   UNL     1       4.617  -3.372   1.964  1.00  0.00     0.029 A 
ATOM     51  C   UNL     1       5.392  -4.599   1.804  1.00  0.00     0.049 A 
ATOM     52  H   UNL     1       5.994  -5.489   0.019  1.00  0.00     0.167 HD
ATOM     53  C   UNL     1       6.964  -7.320  -3.920  1.00  0.00     0.034 A 
ATOM     54  C   UNL     1       5.864  -5.372   2.802  1.00  0.00     0.034 A 
ATOM     55  C   UNL     1       7.548  -8.183  -2.922  1.00  0.00     0.049 A 
ATOM     56  C   UNL     1       6.623  -6.624   2.437  1.00  0.00     0.074 A 
ATOM     57  C   UNL     1       8.312  -9.321  -3.100  1.00  0.00     0.029 A 
ATOM     58  N   UNL     1       7.421  -8.001  -1.548  1.00  0.00    -0.354 N 
ATOM     59  N   UNL     1       6.909  -7.101   1.245  1.00  0.00    -0.248 NA
ATOM     60  C   UNL     1       7.123  -7.441   3.548  1.00  0.00     0.031 C 
ATOM     61  C   UNL     1       8.593  -9.862  -1.840  1.00  0.00     0.029 A 
ATOM     62  C   UNL     1       8.068  -9.021  -0.869  1.00  0.00     0.049 A 
ATOM     63  H   UNL     1       6.942  -7.256  -1.120  1.00  0.00     0.167 HD
ATOM     64  C   UNL     1       7.641  -8.264   1.466  1.00  0.00     0.074 A 
ATOM     65  C   UNL     1       7.769  -8.402   2.904  1.00  0.00     0.031 C 
ATOM     66  C   UNL     1       8.162  -9.140   0.568  1.00  0.00     0.034 A 
BRANCH  53  67
ATOM     67  C   UNL     1       7.115  -7.662  -5.383  1.00  0.00     0.023 A 
ATOM     68  C   UNL     1       7.776  -6.808  -6.284  1.00  0.00     0.031 A 
ATOM     69  C   UNL     1       6.536  -8.837  -5.896  1.00  0.00     0.131 A 
ATOM     70  C   UNL     1       7.777  -7.103  -7.657  1.00  0.00     0.055 A 
ATOM     71  C   UNL     1       6.608  -9.164  -7.252  1.00  0.00     0.041 A 
ATOM     72  F   UNL     1       5.869  -9.678  -5.090  1.00  0.00    -0.206 F 
ATOM     73  C   UNL     1       7.218  -8.287  -8.143  1.00  0.00     0.022 A 
BRANCH  70  74
ATOM     74  S   UNL     1       8.392  -5.850  -8.817  1.00  0.00     0.124 S 
ATOM     75  O   UNL     1       7.495  -4.730  -8.544  1.00  0.00    -0.237 OA
ATOM     76  O   UNL     1       9.776  -5.680  -8.393  1.00  0.00    -0.237 OA
ATOM     77  O   UNL     1       8.212  -6.477 -10.125  1.00  0.00    -0.744 OA
ENDBRANCH  70  74
ENDBRANCH  53  67
BRANCH  54  78
ATOM     78  C   UNL     1       5.591  -5.024   4.226  1.00  0.00     0.023 A 
ATOM     79  C   UNL     1       6.633  -4.716   5.114  1.00  0.00     0.031 A 
ATOM     80  C   UNL     1       4.278  -5.035   4.732  1.00  0.00     0.131 A 
ATOM     81  C   UNL     1       6.351  -4.469   6.467  1.00  0.00     0.055 A 
ATOM     82  C   UNL     1       3.997  -4.739   6.067  1.00  0.00     0.041 A 
ATOM     83  F   UNL     1       3.242  -5.324   3.928  1.00  0.00    -0.206 F 
ATOM     84  C   UNL     1       5.039  -4.466   6.946  1.00  0.00     0.022 A 
BRANCH  81  85
ATOM     85  S   UNL     1       7.734  -4.225   7.615  1.00  0.00     0.124 S 
ATOM     86  O   UNL     1       8.488  -5.462   7.442  1.00  0.00    -0.237 OA
ATOM     87  O   UNL     1       8.356  -3.015   7.087  1.00  0.00    -0.237 OA
ATOM     88  O   UNL     1       7.078  -4.070   8.911  1.00  0.00    -0.744 OA
ENDBRANCH  81  85
ENDBRANCH  54  78
BRANCH  66  89
ATOM     89  C   UNL     1       8.943 -10.300   1.134  1.00  0.00     0.023 A 
ATOM     90  C   UNL     1       8.318 -11.314   1.881  1.00  0.00     0.031 A 
ATOM     91  C   UNL     1      10.333 -10.377   0.942  1.00  0.00     0.131 A 
ATOM     92  C   UNL     1       9.092 -12.328   2.463  1.00  0.00     0.055 A 
ATOM     93  C   UNL     1      11.090 -11.423   1.471  1.00  0.00     0.041 A 
ATOM     94  F   UNL     1      10.979  -9.434   0.238  1.00  0.00    -0.206 F 
ATOM     95  C   UNL     1      10.472 -12.398   2.249  1.00  0.00     0.022 A 
BRANCH  92  96
ATOM     96  S   UNL     1       8.286 -13.499   3.589  1.00  0.00     0.124 S 
ATOM     97  O   UNL     1       7.737 -12.611   4.608  1.00  0.00    -0.237 OA
ATOM     98  O   UNL     1       7.313 -14.150   2.719  1.00  0.00    -0.237 OA
ATOM     99  O   UNL     1       9.384 -14.354   4.038  1.00  0.00    -0.744 OA
ENDBRANCH  92  96
ENDBRANCH  66  89
ENDBRANCH  40  41
ENDBRANCH  33  35
ENDBRANCH  32  33
ENDBRANCH  31  32
ENDBRANCH   1  31
TORSDOF 20
