REMARK SMILES NS(=O)(=O)c1ccc(-n2nc(NC(=O)NCCCCCCCCCCC(=O)OCCOC(=O)c3ccc(-c4c5nc(c(-c6cc(S(=O)(=O)[O-])ccc6F)c6ccc([nH]6)c(-c6cc(S(=O)(=O)[O-])ccc6F)c6nc(c(-c7cc(S(=O)(=O)[O-])ccc7F)c7ccc4[nH]7)C=C6)C=C5)cc3)cc2-c2ccccc2)cc1
REMARK SMILES IDX 23 1 22 2 21 3 20 4 19 5 18 6 17 7 16 8 15 9 12 10 13 11
REMARK SMILES IDX 14 13 11 15 9 16 10 17 98 18 97 19 8 20 5 21 6 22 106 23
REMARK SMILES IDX 7 24 105 25 2 26 3 27 4 28 1 29 99 32 100 33 104 34 101 35
REMARK SMILES IDX 103 36 102 37 24 38 25 39 26 40 27 41 28 42 29 43 30 44
REMARK SMILES IDX 31 45 32 46 33 47 34 48 35 49 96 50 36 51 95 52 37 53 38 54
REMARK SMILES IDX 39 55 89 56 40 57 94 58 88 59 90 60 41 61 93 62 87 63 86 64
REMARK SMILES IDX 42 66 74 67 54 68 73 69 55 70 58 71 72 72 91 73 56 74 57 75
REMARK SMILES IDX 71 77 92 78 59 79 43 80 44 81 52 82 45 83 51 84 53 85 50 86
REMARK SMILES IDX 46 87 47 88 48 89 49 90 75 91 76 92 84 93 77 94 83 95 85 96
REMARK SMILES IDX 82 97 78 98 79 99 80 100 81 101 60 102 61 103 69 104 62 105
REMARK SMILES IDX 68 106 70 107 67 108 63 109 64 110 65 111 66 112
REMARK H PARENT 12 12 15 14 1 30 1 31 90 65 58 76
REMARK Flexibility Score: inf
ROOT
ATOM      1  C   UNL     1       4.580   2.841   1.094  1.00  0.00     0.001 C 
ENDROOT
BRANCH   1   2
ATOM      2  C   UNL     1       5.596   2.653  -0.032  1.00  0.00     0.000 C 
BRANCH   2   3
ATOM      3  C   UNL     1       4.903   2.140  -1.295  1.00  0.00     0.000 C 
BRANCH   3   4
ATOM      4  C   UNL     1       3.866   3.147  -1.800  1.00  0.00     0.000 C 
BRANCH   4   5
ATOM      5  C   UNL     1       4.475   4.539  -2.017  1.00  0.00     0.000 C 
BRANCH   5   6
ATOM      6  C   UNL     1       5.665   4.516  -2.986  1.00  0.00     0.002 C 
BRANCH   6   7
ATOM      7  C   UNL     1       5.313   3.908  -4.327  1.00  0.00     0.021 C 
BRANCH   7   8
ATOM      8  C   UNL     1       4.126   4.560  -4.990  1.00  0.00     0.117 C 
BRANCH   8   9
ATOM      9  N   UNL     1       4.327   5.859  -5.571  1.00  0.00    -0.338 N 
ATOM     10  N   UNL     1       3.100   5.546  -7.589  1.00  0.00    -0.291 N 
ATOM     11  C   UNL     1       3.890   6.295  -6.776  1.00  0.00     0.320 C 
ATOM     12  H   UNL     1       3.091   5.845  -8.527  1.00  0.00     0.173 HD
ATOM     13  O   UNL     1       4.335   7.366  -7.203  1.00  0.00    -0.248 OA
ATOM     14  H   UNL     1       4.841   6.505  -5.033  1.00  0.00     0.165 HD
BRANCH  10  15
ATOM     15  C   UNL     1       2.305   4.443  -7.340  1.00  0.00     0.157 A 
ATOM     16  N   UNL     1       1.558   2.779  -6.260  1.00  0.00    -0.231 N 
ATOM     17  N   UNL     1       1.744   4.118  -6.170  1.00  0.00    -0.149 NA
ATOM     18  C   UNL     1       1.448   2.405  -7.595  1.00  0.00     0.076 A 
ATOM     19  C   UNL     1       1.970   3.471  -8.309  1.00  0.00     0.078 A 
BRANCH  16  20
ATOM     20  C   UNL     1       1.487   1.958  -5.091  1.00  0.00     0.065 A 
ATOM     21  C   UNL     1       1.017   0.289  -2.897  1.00  0.00     0.082 A 
ATOM     22  C   UNL     1       1.738  -0.199  -3.991  1.00  0.00     0.024 A 
ATOM     23  C   UNL     1       0.608   1.625  -2.856  1.00  0.00     0.024 A 
ATOM     24  C   UNL     1       1.965   0.634  -5.095  1.00  0.00     0.030 A 
ATOM     25  C   UNL     1       0.872   2.469  -3.941  1.00  0.00     0.030 A 
BRANCH  21  26
ATOM     26  S   UNL     1       0.574  -0.822  -1.588  1.00  0.00     0.238 S 
ATOM     27  O   UNL     1       1.315  -2.031  -1.718  1.00  0.00    -0.207 OA
ATOM     28  O   UNL     1      -0.885  -0.803  -1.473  1.00  0.00    -0.207 OA
BRANCH  26  29
ATOM     29  N   UNL     1       1.171  -0.057  -0.225  1.00  0.00    -0.225 NA
ATOM     30  H   UNL     1       0.967  -0.622   0.599  1.00  0.00     0.137 HD
ATOM     31  H   UNL     1       0.731   0.858  -0.128  1.00  0.00     0.137 HD
ENDBRANCH  26  29
ENDBRANCH  21  26
ENDBRANCH  16  20
BRANCH  18  32
ATOM     32  C   UNL     1       0.806   1.175  -8.038  1.00  0.00     0.000 A 
ATOM     33  C   UNL     1      -0.401   0.785  -7.434  1.00  0.00     0.010 A 
ATOM     34  C   UNL     1       1.359   0.375  -9.039  1.00  0.00     0.010 A 
ATOM     35  C   UNL     1      -1.025  -0.405  -7.789  1.00  0.00     0.001 A 
ATOM     36  C   UNL     1       0.721  -0.812  -9.408  1.00  0.00     0.001 A 
ATOM     37  C   UNL     1      -0.463  -1.203  -8.779  1.00  0.00     0.000 A 
ENDBRANCH  18  32
ENDBRANCH  10  15
ENDBRANCH   8   9
ENDBRANCH   7   8
ENDBRANCH   6   7
ENDBRANCH   5   6
ENDBRANCH   4   5
ENDBRANCH   3   4
ENDBRANCH   2   3
ENDBRANCH   1   2
BRANCH   1  38
ATOM     38  C   UNL     1       4.036   1.484   1.534  1.00  0.00     0.012 C 
BRANCH  38  39
ATOM     39  C   UNL     1       5.100   0.459   1.952  1.00  0.00     0.123 C 
BRANCH  39  40
ATOM     40  C   UNL     1       6.152   0.849   2.982  1.00  0.00     0.305 C 
ATOM     41  O   UNL     1       6.646   0.033   3.752  1.00  0.00    -0.252 OA
BRANCH  40  42
ATOM     42  O   UNL     1       6.504   2.158   2.929  1.00  0.00    -0.462 OA
BRANCH  42  43
ATOM     43  C   UNL     1       7.178   2.743   4.062  1.00  0.00     0.274 C 
BRANCH  43  44
ATOM     44  C   UNL     1       6.183   3.140   5.140  1.00  0.00     0.275 C 
BRANCH  44  45
ATOM     45  O   UNL     1       5.546   1.961   5.612  1.00  0.00    -0.458 OA
BRANCH  45  46
ATOM     46  C   UNL     1       4.322   1.765   5.075  1.00  0.00     0.338 C 
ATOM     47  O   UNL     1       3.806   2.394   4.171  1.00  0.00    -0.246 OA
BRANCH  46  48
ATOM     48  C   UNL     1       3.564   0.879   5.929  1.00  0.00     0.060 A 
ATOM     49  C   UNL     1       2.369   0.309   5.473  1.00  0.00     0.016 A 
ATOM     50  C   UNL     1       3.765   1.163   7.265  1.00  0.00     0.016 A 
ATOM     51  C   UNL     1       1.255   0.458   6.302  1.00  0.00     0.010 A 
ATOM     52  C   UNL     1       2.722   0.916   8.088  1.00  0.00     0.010 A 
ATOM     53  C   UNL     1       1.437   1.052   7.565  1.00  0.00    -0.014 A 
BRANCH  53  54
ATOM     54  C   UNL     1       0.424   1.149   8.643  1.00  0.00     0.031 A 
ATOM     55  C   UNL     1       0.122  -0.305   9.015  1.00  0.00     0.074 A 
ATOM     56  C   UNL     1       0.030   2.322   9.270  1.00  0.00     0.049 A 
ATOM     57  N   UNL     1      -0.816  -1.025   8.467  1.00  0.00    -0.248 NA
ATOM     58  C   UNL     1       1.146  -1.201   9.643  1.00  0.00     0.031 C 
ATOM     59  C   UNL     1       0.292   3.758   8.973  1.00  0.00     0.029 A 
ATOM     60  N   UNL     1      -0.794   2.483  10.386  1.00  0.00    -0.354 N 
ATOM     61  C   UNL     1      -0.722  -2.277   9.079  1.00  0.00     0.074 A 
ATOM     62  C   UNL     1       0.647  -2.423   9.427  1.00  0.00     0.031 C 
ATOM     63  C   UNL     1      -0.120   4.572   9.998  1.00  0.00     0.029 A 
ATOM     64  C   UNL     1      -0.782   3.781  11.030  1.00  0.00     0.049 A 
ATOM     65  H   UNL     1      -1.357   1.749  10.720  1.00  0.00     0.167 HD
ATOM     66  C   UNL     1      -1.819  -2.796   9.703  1.00  0.00     0.034 A 
ATOM     67  C   UNL     1      -1.538   4.222  12.127  1.00  0.00     0.034 A 
ATOM     68  C   UNL     1      -2.986  -2.087   9.224  1.00  0.00     0.049 A 
ATOM     69  C   UNL     1      -2.634   3.220  12.228  1.00  0.00     0.074 A 
ATOM     70  C   UNL     1      -3.630  -1.936   8.016  1.00  0.00     0.029 A 
ATOM     71  N   UNL     1      -3.267  -0.970   9.967  1.00  0.00    -0.354 N 
ATOM     72  N   UNL     1      -3.556   3.131  11.308  1.00  0.00    -0.248 NA
ATOM     73  C   UNL     1      -2.301   1.991  12.933  1.00  0.00     0.031 C 
ATOM     74  C   UNL     1      -4.014  -0.559   7.962  1.00  0.00     0.029 A 
ATOM     75  C   UNL     1      -3.763   0.039   9.196  1.00  0.00     0.049 A 
ATOM     76  H   UNL     1      -3.127  -0.904  10.939  1.00  0.00     0.167 HD
ATOM     77  C   UNL     1      -3.583   1.786  10.976  1.00  0.00     0.074 A 
ATOM     78  C   UNL     1      -2.799   1.126  12.041  1.00  0.00     0.031 C 
ATOM     79  C   UNL     1      -3.897   1.392   9.699  1.00  0.00     0.034 A 
BRANCH  66  80
ATOM     80  C   UNL     1      -1.815  -3.420  11.103  1.00  0.00     0.023 A 
ATOM     81  C   UNL     1      -3.076  -3.785  11.616  1.00  0.00     0.031 A 
ATOM     82  C   UNL     1      -0.768  -3.386  12.058  1.00  0.00     0.131 A 
ATOM     83  C   UNL     1      -3.279  -3.988  12.993  1.00  0.00     0.055 A 
ATOM     84  C   UNL     1      -0.962  -3.649  13.421  1.00  0.00     0.041 A 
ATOM     85  F   UNL     1       0.483  -3.017  11.762  1.00  0.00    -0.206 F 
ATOM     86  C   UNL     1      -2.228  -3.928  13.903  1.00  0.00     0.022 A 
BRANCH  83  87
ATOM     87  S   UNL     1      -4.982  -4.146  13.589  1.00  0.00     0.124 S 
ATOM     88  O   UNL     1      -5.581  -2.912  13.097  1.00  0.00    -0.237 OA
ATOM     89  O   UNL     1      -5.412  -5.378  12.937  1.00  0.00    -0.237 OA
ATOM     90  O   UNL     1      -4.826  -4.231  15.040  1.00  0.00    -0.744 OA
ENDBRANCH  83  87
ENDBRANCH  66  80
BRANCH  67  91
ATOM     91  C   UNL     1      -1.114   4.978  13.417  1.00  0.00     0.023 A 
ATOM     92  C   UNL     1      -1.957   5.558  14.449  1.00  0.00     0.031 A 
ATOM     93  C   UNL     1       0.244   4.876  13.765  1.00  0.00     0.131 A 
ATOM     94  C   UNL     1      -1.405   5.993  15.712  1.00  0.00     0.055 A 
ATOM     95  C   UNL     1       0.760   5.259  15.011  1.00  0.00     0.041 A 
ATOM     96  F   UNL     1       1.119   4.319  12.917  1.00  0.00    -0.206 F 
ATOM     97  C   UNL     1      -0.053   5.807  15.988  1.00  0.00     0.022 A 
BRANCH  94  98
ATOM     98  S   UNL     1      -2.366   6.841  17.066  1.00  0.00     0.124 S 
ATOM     99  O   UNL     1      -2.825   8.064  16.418  1.00  0.00    -0.237 OA
ATOM    100  O   UNL     1      -3.391   5.865  17.414  1.00  0.00    -0.237 OA
ATOM    101  O   UNL     1      -1.367   7.062  18.117  1.00  0.00    -0.744 OA
ENDBRANCH  94  98
ENDBRANCH  67  91
BRANCH  79 102
ATOM    102  C   UNL     1      -4.445   2.433   8.735  1.00  0.00     0.023 A 
ATOM    103  C   UNL     1      -3.743   3.509   8.128  1.00  0.00     0.031 A 
ATOM    104  C   UNL     1      -5.779   2.236   8.352  1.00  0.00     0.131 A 
ATOM    105  C   UNL     1      -4.411   4.357   7.210  1.00  0.00     0.055 A 
ATOM    106  C   UNL     1      -6.413   3.039   7.410  1.00  0.00     0.041 A 
ATOM    107  F   UNL     1      -6.484   1.218   8.871  1.00  0.00    -0.206 F 
ATOM    108  C   UNL     1      -5.738   4.111   6.844  1.00  0.00     0.022 A 
BRANCH 105 109
ATOM    109  S   UNL     1      -3.604   5.855   6.532  1.00  0.00     0.124 S 
ATOM    110  O   UNL     1      -3.152   6.554   7.730  1.00  0.00    -0.237 OA
ATOM    111  O   UNL     1      -2.551   5.302   5.685  1.00  0.00    -0.237 OA
ATOM    112  O   UNL     1      -4.681   6.527   5.802  1.00  0.00    -0.744 OA
ENDBRANCH 105 109
ENDBRANCH  79 102
ENDBRANCH  53  54
ENDBRANCH  46  48
ENDBRANCH  45  46
ENDBRANCH  44  45
ENDBRANCH  43  44
ENDBRANCH  42  43
ENDBRANCH  40  42
ENDBRANCH  39  40
ENDBRANCH  38  39
ENDBRANCH   1  38
TORSDOF 29
