REMARK SMILES O=C(OCCOC(=O)c1ccc(-c2c3nc(c(-c4cc(S(=O)(=O)[O-])ccc4F)c4ccc([nH]4)c(-c4cc(S(=O)(=O)[O-])ccc4F)c4nc(c(-c5cc(S(=O)(=O)[O-])ccc5F)c5ccc2[nH]5)C=C4)C=C3)cc1)C1=Cc2cc(Cl)cc(Cl)c2O[C@@H]1C(F)(F)F
REMARK SMILES IDX 5 1 4 2 3 3 2 4 1 5 72 6 73 7 83 8 74 9 82 10 75 11 81 12
REMARK SMILES IDX 76 13 79 14 77 15 78 16 80 17 84 18 85 19 86 20 87 21 6 22
REMARK SMILES IDX 7 23 8 24 9 25 10 26 71 27 11 28 70 29 12 30 13 31 14 32
REMARK SMILES IDX 64 33 15 34 69 35 63 36 65 37 16 38 68 39 62 40 61 41 17 43
REMARK SMILES IDX 49 44 29 45 48 46 30 47 33 48 47 49 66 50 31 51 32 52 46 54
REMARK SMILES IDX 67 55 34 56 18 57 19 58 27 59 20 60 26 61 28 62 25 63 21 64
REMARK SMILES IDX 22 65 23 66 24 67 50 68 51 69 59 70 52 71 58 72 60 73 57 74
REMARK SMILES IDX 53 75 54 76 55 77 56 78 35 79 36 80 44 81 37 82 43 83 45 84
REMARK SMILES IDX 42 85 38 86 39 87 40 88 41 89
REMARK H PARENT 65 42 33 53
REMARK Flexibility Score: inf
ROOT
ATOM      1  C   UNL     1       4.702   0.803  -0.161  1.00  0.00     0.275 C 
ENDROOT
BRANCH   1   2
ATOM      2  C   UNL     1       3.899  -0.989   0.756  1.00  0.00     0.275 C 
BRANCH   2   3
ATOM      3  O   UNL     1       3.045  -1.059   2.049  1.00  0.00    -0.459 OA
BRANCH   3   4
ATOM      4  C   UNL     1       3.262  -0.032   2.879  1.00  0.00     0.338 C 
ATOM      5  O   UNL     1       2.699   0.275   3.897  1.00  0.00    -0.246 OA
BRANCH   4   6
ATOM      6  C   UNL     1       4.096   0.705   1.960  1.00  0.00     0.087 C 
ATOM      7  C   UNL     1       5.462   0.179   1.900  1.00  0.00     0.027 C 
ATOM      8  C   UNL     1       2.828   0.708   0.505  1.00  0.00     0.316 C 
ATOM      9  C   UNL     1       6.100  -0.742   0.494  1.00  0.00     0.020 A 
ATOM     10  O   UNL     1       3.474  -0.335  -0.989  1.00  0.00    -0.474 OA
ATOM     11  C   UNL     1       7.305  -1.371   0.648  1.00  0.00     0.032 A 
ATOM     12  C   UNL     1       5.133  -1.098  -0.904  1.00  0.00     0.146 A 
ATOM     13  C   UNL     1       7.628  -2.279  -0.371  1.00  0.00     0.043 A 
ATOM     14  C   UNL     1       5.543  -2.005  -1.844  1.00  0.00     0.085 A 
ATOM     15  Cl  UNL     1       9.120  -3.147  -0.178  1.00  0.00    -0.084 Cl
ATOM     16  C   UNL     1       6.805  -2.583  -1.537  1.00  0.00     0.045 A 
ATOM     17  Cl  UNL     1       4.652  -2.497  -3.201  1.00  0.00    -0.080 Cl
BRANCH   8  18
ATOM     18  C   UNL     1       2.389   2.222   0.703  1.00  0.00     0.430 C 
ATOM     19  F   UNL     1       1.112   2.415   0.354  1.00  0.00    -0.167 F 
ATOM     20  F   UNL     1       2.404   2.505   2.043  1.00  0.00    -0.167 F 
ATOM     21  F   UNL     1       3.190   3.177   0.205  1.00  0.00    -0.167 F 
ENDBRANCH   8  18
ENDBRANCH   4   6
ENDBRANCH   3   4
ENDBRANCH   2   3
ENDBRANCH   1   2
BRANCH   1  22
ATOM     22  O   UNL     1       3.891   1.764  -1.358  1.00  0.00    -0.458 OA
BRANCH  22  23
ATOM     23  C   UNL     1       2.973   1.716  -2.385  1.00  0.00     0.338 C 
ATOM     24  O   UNL     1       2.526   0.752  -2.979  1.00  0.00    -0.246 OA
BRANCH  23  25
ATOM     25  C   UNL     1       2.281   3.047  -2.379  1.00  0.00     0.060 A 
ATOM     26  C   UNL     1       0.920   3.097  -2.024  1.00  0.00     0.016 A 
ATOM     27  C   UNL     1       3.046   4.212  -2.331  1.00  0.00     0.016 A 
ATOM     28  C   UNL     1       0.403   4.246  -1.392  1.00  0.00     0.010 A 
ATOM     29  C   UNL     1       2.524   5.354  -1.713  1.00  0.00     0.010 A 
ATOM     30  C   UNL     1       1.227   5.358  -1.164  1.00  0.00    -0.014 A 
BRANCH  30  31
ATOM     31  C   UNL     1       0.690   6.625  -0.590  1.00  0.00     0.031 A 
ATOM     32  C   UNL     1       0.157   7.606  -1.592  1.00  0.00     0.074 A 
ATOM     33  C   UNL     1       0.729   6.948   0.723  1.00  0.00     0.049 A 
ATOM     34  N   UNL     1      -0.274   8.826  -1.426  1.00  0.00    -0.248 NA
ATOM     35  C   UNL     1       0.153   7.141  -2.989  1.00  0.00     0.031 C 
ATOM     36  C   UNL     1       1.221   6.096   1.806  1.00  0.00     0.029 A 
ATOM     37  N   UNL     1       0.356   8.108   1.373  1.00  0.00    -0.354 N 
ATOM     38  C   UNL     1      -0.608   9.269  -2.699  1.00  0.00     0.074 A 
ATOM     39  C   UNL     1      -0.249   8.223  -3.627  1.00  0.00     0.031 C 
ATOM     40  C   UNL     1       1.126   6.762   2.976  1.00  0.00     0.029 A 
ATOM     41  C   UNL     1       0.586   8.100   2.736  1.00  0.00     0.049 A 
ATOM     42  H   UNL     1      -0.041   8.878   0.904  1.00  0.00     0.167 HD
ATOM     43  C   UNL     1      -1.192  10.432  -3.067  1.00  0.00     0.034 A 
ATOM     44  C   UNL     1       0.389   9.065   3.667  1.00  0.00     0.034 A 
ATOM     45  C   UNL     1      -1.505  11.488  -2.147  1.00  0.00     0.049 A 
ATOM     46  C   UNL     1      -0.178  10.403   3.216  1.00  0.00     0.074 A 
ATOM     47  C   UNL     1      -2.075  12.719  -2.409  1.00  0.00     0.029 A 
ATOM     48  N   UNL     1      -1.253  11.442  -0.781  1.00  0.00    -0.354 N 
ATOM     49  N   UNL     1      -0.541  10.789   2.012  1.00  0.00    -0.248 NA
ATOM     50  C   UNL     1      -0.371  11.433   4.250  1.00  0.00     0.031 C 
ATOM     51  C   UNL     1      -2.108  13.443  -1.213  1.00  0.00     0.029 A 
ATOM     52  C   UNL     1      -1.636  12.633  -0.191  1.00  0.00     0.049 A 
ATOM     53  H   UNL     1      -0.860  10.676  -0.305  1.00  0.00     0.167 HD
ATOM     54  C   UNL     1      -1.048  12.081   2.159  1.00  0.00     0.074 A 
ATOM     55  C   UNL     1      -0.956  12.404   3.566  1.00  0.00     0.031 C 
ATOM     56  C   UNL     1      -1.549  12.926   1.220  1.00  0.00     0.034 A 
BRANCH  43  57
ATOM     57  C   UNL     1      -1.473  10.598  -4.537  1.00  0.00     0.023 A 
ATOM     58  C   UNL     1      -2.349   9.723  -5.208  1.00  0.00     0.031 A 
ATOM     59  C   UNL     1      -0.774  11.549  -5.296  1.00  0.00     0.131 A 
ATOM     60  C   UNL     1      -2.418   9.746  -6.606  1.00  0.00     0.055 A 
ATOM     61  C   UNL     1      -0.925  11.630  -6.681  1.00  0.00     0.041 A 
ATOM     62  F   UNL     1       0.099  12.384  -4.712  1.00  0.00    -0.206 F 
ATOM     63  C   UNL     1      -1.734  10.712  -7.347  1.00  0.00     0.022 A 
BRANCH  60  64
ATOM     64  S   UNL     1      -3.261   8.379  -7.449  1.00  0.00     0.124 S 
ATOM     65  O   UNL     1      -2.447   7.236  -7.040  1.00  0.00    -0.237 OA
ATOM     66  O   UNL     1      -4.605   8.439  -6.886  1.00  0.00    -0.237 OA
ATOM     67  O   UNL     1      -3.160   8.734  -8.863  1.00  0.00    -0.744 OA
ENDBRANCH  60  64
ENDBRANCH  43  57
BRANCH  44  68
ATOM     68  C   UNL     1       0.737   8.869   5.118  1.00  0.00     0.023 A 
ATOM     69  C   UNL     1      -0.237   8.992   6.129  1.00  0.00     0.031 A 
ATOM     70  C   UNL     1       2.071   8.697   5.529  1.00  0.00     0.131 A 
ATOM     71  C   UNL     1       0.141   9.014   7.485  1.00  0.00     0.055 A 
ATOM     72  C   UNL     1       2.436   8.658   6.880  1.00  0.00     0.041 A 
ATOM     73  F   UNL     1       3.054   8.590   4.620  1.00  0.00    -0.206 F 
ATOM     74  C   UNL     1       1.471   8.835   7.867  1.00  0.00     0.022 A 
BRANCH  71  75
ATOM     75  S   UNL     1      -1.109   9.412   8.744  1.00  0.00     0.124 S 
ATOM     76  O   UNL     1      -1.573  10.721   8.297  1.00  0.00    -0.237 OA
ATOM     77  O   UNL     1      -2.054   8.310   8.594  1.00  0.00    -0.237 OA
ATOM     78  O   UNL     1      -0.350   9.413   9.993  1.00  0.00    -0.744 OA
ENDBRANCH  71  75
ENDBRANCH  44  68
BRANCH  56  79
ATOM     79  C   UNL     1      -2.101  14.250   1.692  1.00  0.00     0.023 A 
ATOM     80  C   UNL     1      -1.281  15.244   2.252  1.00  0.00     0.031 A 
ATOM     81  C   UNL     1      -3.473  14.528   1.549  1.00  0.00     0.131 A 
ATOM     82  C   UNL     1      -1.848  16.450   2.693  1.00  0.00     0.055 A 
ATOM     83  C   UNL     1      -4.019  15.755   1.927  1.00  0.00     0.041 A 
ATOM     84  F   UNL     1      -4.304  13.615   1.020  1.00  0.00    -0.206 F 
ATOM     85  C   UNL     1      -3.207  16.720   2.514  1.00  0.00     0.022 A 
BRANCH  82  86
ATOM     86  S   UNL     1      -0.800  17.630   3.587  1.00  0.00     0.124 S 
ATOM     87  O   UNL     1      -0.321  16.825   4.706  1.00  0.00    -0.237 OA
ATOM     88  O   UNL     1       0.199  17.983   2.583  1.00  0.00    -0.237 OA
ATOM     89  O   UNL     1      -1.723  18.705   3.946  1.00  0.00    -0.744 OA
ENDBRANCH  82  86
ENDBRANCH  56  79
ENDBRANCH  30  31
ENDBRANCH  23  25
ENDBRANCH  22  23
ENDBRANCH   1  22
TORSDOF 15
