REMARK SMILES CC1=C(C)C[C@@H](C(=O)OCCOC(=O)c2ccc(-c3c4nc(c(-c5cc(S(=O)(=O)[O-])ccc5F)c5ccc([nH]5)c(-c5cc(S(=O)(=O)[O-])ccc5F)c5nc(c(-c6cc(S(=O)(=O)[O-])ccc6F)c6ccc3[nH]6)C=C5)C=C4)cc2)[C@@H](C(=O)N2CCN(c3cccc(C(F)(F)F)c3)CC2)C1
REMARK SMILES IDX 10 1 9 2 7 3 8 4 6 5 1 6 2 7 3 8 97 9 4 10 5 11 78 12 79 13
REMARK SMILES IDX 80 14 81 15 82 16 96 17 83 18 95 19 84 20 85 21 86 22 94 23
REMARK SMILES IDX 87 24 89 25 88 26 90 27 91 28 92 29 93 30 11 31 12 32 13 33
REMARK SMILES IDX 14 34 15 35 16 36 77 37 17 38 76 39 18 40 19 41 20 42 70 43
REMARK SMILES IDX 21 44 75 45 69 46 71 47 22 48 74 49 68 50 67 51 23 53 55 54
REMARK SMILES IDX 35 55 54 56 36 57 39 58 53 59 72 60 37 61 38 62 52 64 73 65
REMARK SMILES IDX 40 66 24 67 25 68 33 69 26 70 32 71 34 72 31 73 27 74 28 75
REMARK SMILES IDX 29 76 30 77 56 78 57 79 65 80 58 81 64 82 66 83 63 84 59 85
REMARK SMILES IDX 60 86 61 87 62 88 41 89 42 90 50 91 43 92 49 93 51 94 48 95
REMARK SMILES IDX 44 96 45 97 46 98 47 99
REMARK H PARENT 71 52 39 63
REMARK Flexibility Score: inf
ROOT
ATOM      1  C   UNL     1      -4.087   1.401  -3.564  1.00  0.00     0.274 C 
ENDROOT
BRANCH   1   2
ATOM      2  O   UNL     1      -2.696   1.520  -3.192  1.00  0.00    -0.462 OA
BRANCH   2   3
ATOM      3  C   UNL     1      -1.833   0.760  -3.892  1.00  0.00     0.310 C 
ATOM      4  O   UNL     1      -2.193   0.004  -4.795  1.00  0.00    -0.252 OA
BRANCH   3   5
ATOM      5  C   UNL     1      -0.350   0.895  -3.551  1.00  0.00     0.116 C 
ATOM      6  C   UNL     1       1.114  -0.058   0.494  1.00  0.00     0.039 C 
ATOM      7  C   UNL     1       0.823   0.114  -0.970  1.00  0.00    -0.074 C 
ATOM      8  C   UNL     1       0.381  -0.845  -1.806  1.00  0.00    -0.073 C 
ATOM      9  C   UNL     1       1.155   1.484  -1.514  1.00  0.00     0.045 C 
ATOM     10  C   UNL     1       0.130  -2.285  -1.453  1.00  0.00     0.039 C 
ATOM     11  C   UNL     1       0.197  -0.519  -3.265  1.00  0.00     0.046 C 
ATOM     12  C   UNL     1       0.259   2.003  -2.665  1.00  0.00     0.097 C 
BRANCH  12  13
ATOM     13  C   UNL     1      -0.661   3.060  -2.051  1.00  0.00     0.227 C 
ATOM     14  O   UNL     1      -1.428   2.739  -1.136  1.00  0.00    -0.275 OA
ATOM     15  N   UNL     1      -0.460   4.396  -2.388  1.00  0.00    -0.339 N 
ATOM     16  C   UNL     1      -1.148   5.416  -1.584  1.00  0.00     0.141 C 
ATOM     17  C   UNL     1       0.122   4.931  -3.645  1.00  0.00     0.141 C 
ATOM     18  C   UNL     1      -0.259   6.647  -1.328  1.00  0.00     0.138 C 
ATOM     19  C   UNL     1       0.976   6.200  -3.442  1.00  0.00     0.138 C 
ATOM     20  N   UNL     1       0.243   7.154  -2.603  1.00  0.00    -0.368 N 
BRANCH  20  21
ATOM     21  C   UNL     1       0.289   8.504  -2.858  1.00  0.00     0.037 A 
ATOM     22  C   UNL     1       0.942   9.394  -2.001  1.00  0.00     0.026 A 
ATOM     23  C   UNL     1      -0.381   9.027  -3.971  1.00  0.00     0.039 A 
ATOM     24  C   UNL     1       0.925  10.769  -2.241  1.00  0.00     0.003 A 
ATOM     25  C   UNL     1      -0.439  10.410  -4.212  1.00  0.00     0.058 A 
ATOM     26  C   UNL     1       0.229  11.277  -3.336  1.00  0.00     0.013 A 
BRANCH  25  27
ATOM     27  C   UNL     1      -1.258  10.966  -5.347  1.00  0.00     0.416 C 
ATOM     28  F   UNL     1      -2.384  11.596  -4.897  1.00  0.00    -0.166 F 
ATOM     29  F   UNL     1      -0.593  11.896  -6.085  1.00  0.00    -0.166 F 
ATOM     30  F   UNL     1      -1.698  10.025  -6.229  1.00  0.00    -0.166 F 
ENDBRANCH  25  27
ENDBRANCH  20  21
ENDBRANCH  12  13
ENDBRANCH   3   5
ENDBRANCH   2   3
ENDBRANCH   1   2
BRANCH   1  31
ATOM     31  C   UNL     1      -4.546   2.511  -4.518  1.00  0.00     0.275 C 
BRANCH  31  32
ATOM     32  O   UNL     1      -3.897   2.453  -5.805  1.00  0.00    -0.458 OA
BRANCH  32  33
ATOM     33  C   UNL     1      -2.748   3.151  -5.854  1.00  0.00     0.338 C 
ATOM     34  O   UNL     1      -2.250   3.788  -4.920  1.00  0.00    -0.246 OA
BRANCH  33  35
ATOM     35  C   UNL     1      -2.047   3.053  -7.129  1.00  0.00     0.060 A 
ATOM     36  C   UNL     1      -0.938   2.211  -7.207  1.00  0.00     0.016 A 
ATOM     37  C   UNL     1      -2.333   3.949  -8.158  1.00  0.00     0.016 A 
ATOM     38  C   UNL     1      -0.085   2.280  -8.302  1.00  0.00     0.010 A 
ATOM     39  C   UNL     1      -1.503   3.983  -9.284  1.00  0.00     0.010 A 
ATOM     40  C   UNL     1      -0.367   3.157  -9.356  1.00  0.00    -0.014 A 
BRANCH  40  41
ATOM     41  C   UNL     1       0.506   3.165 -10.552  1.00  0.00     0.031 A 
ATOM     42  C   UNL     1       1.396   4.336 -10.848  1.00  0.00     0.074 A 
ATOM     43  C   UNL     1       0.487   2.096 -11.368  1.00  0.00     0.049 A 
ATOM     44  N   UNL     1       2.131   4.567 -11.904  1.00  0.00    -0.248 NA
ATOM     45  C   UNL     1       1.467   5.385  -9.821  1.00  0.00     0.031 C 
ATOM     46  C   UNL     1      -0.313   0.887 -11.152  1.00  0.00     0.029 A 
ATOM     47  N   UNL     1       1.149   1.853 -12.543  1.00  0.00    -0.354 N 
ATOM     48  C   UNL     1       2.736   5.799 -11.686  1.00  0.00     0.074 A 
ATOM     49  C   UNL     1       2.274   6.268 -10.395  1.00  0.00     0.031 C 
ATOM     50  C   UNL     1      -0.099   0.034 -12.165  1.00  0.00     0.029 A 
ATOM     51  C   UNL     1       0.799   0.660 -13.127  1.00  0.00     0.049 A 
ATOM     52  H   UNL     1       1.808   2.473 -12.931  1.00  0.00     0.167 HD
ATOM     53  C   UNL     1       3.590   6.474 -12.496  1.00  0.00     0.034 A 
ATOM     54  C   UNL     1       1.123   0.147 -14.329  1.00  0.00     0.034 A 
ATOM     55  C   UNL     1       4.034   5.988 -13.781  1.00  0.00     0.049 A 
ATOM     56  C   UNL     1       2.026   0.937 -15.232  1.00  0.00     0.074 A 
ATOM     57  C   UNL     1       4.903   6.582 -14.680  1.00  0.00     0.029 A 
ATOM     58  N   UNL     1       3.634   4.787 -14.356  1.00  0.00    -0.354 N 
ATOM     59  N   UNL     1       2.562   2.118 -15.030  1.00  0.00    -0.248 NA
ATOM     60  C   UNL     1       2.359   0.329 -16.524  1.00  0.00     0.031 C 
ATOM     61  C   UNL     1       4.987   5.767 -15.817  1.00  0.00     0.029 A 
ATOM     62  C   UNL     1       4.215   4.636 -15.607  1.00  0.00     0.049 A 
ATOM     63  H   UNL     1       3.025   4.137 -13.936  1.00  0.00     0.167 HD
ATOM     64  C   UNL     1       3.297   2.397 -16.176  1.00  0.00     0.074 A 
ATOM     65  C   UNL     1       3.152   1.250 -17.052  1.00  0.00     0.031 C 
ATOM     66  C   UNL     1       4.026   3.501 -16.478  1.00  0.00     0.034 A 
BRANCH  53  67
ATOM     67  C   UNL     1       4.040   7.839 -12.038  1.00  0.00     0.023 A 
ATOM     68  C   UNL     1       4.879   8.010 -10.923  1.00  0.00     0.031 A 
ATOM     69  C   UNL     1       3.591   8.990 -12.709  1.00  0.00     0.131 A 
ATOM     70  C   UNL     1       5.195   9.303 -10.477  1.00  0.00     0.055 A 
ATOM     71  C   UNL     1       3.959  10.273 -12.299  1.00  0.00     0.041 A 
ATOM     72  F   UNL     1       2.771   8.886 -13.767  1.00  0.00    -0.206 F 
ATOM     73  C   UNL     1       4.755  10.435 -11.169  1.00  0.00     0.022 A 
BRANCH  70  74
ATOM     74  S   UNL     1       6.083   9.489  -8.906  1.00  0.00     0.124 S 
ATOM     75  O   UNL     1       5.209   8.770  -7.982  1.00  0.00    -0.237 OA
ATOM     76  O   UNL     1       7.366   8.859  -9.194  1.00  0.00    -0.237 OA
ATOM     77  O   UNL     1       6.129  10.937  -8.707  1.00  0.00    -0.744 OA
ENDBRANCH  70  74
ENDBRANCH  53  67
BRANCH  54  78
ATOM     78  C   UNL     1       0.519  -1.137 -14.767  1.00  0.00     0.023 A 
ATOM     79  C   UNL     1       1.288  -2.303 -14.882  1.00  0.00     0.031 A 
ATOM     80  C   UNL     1      -0.855  -1.212 -15.060  1.00  0.00     0.131 A 
ATOM     81  C   UNL     1       0.679  -3.497 -15.298  1.00  0.00     0.055 A 
ATOM     82  C   UNL     1      -1.462  -2.409 -15.438  1.00  0.00     0.041 A 
ATOM     83  F   UNL     1      -1.632  -0.123 -14.952  1.00  0.00    -0.206 F 
ATOM     84  C   UNL     1      -0.691  -3.560 -15.565  1.00  0.00     0.022 A 
BRANCH  81  85
ATOM     85  S   UNL     1       1.715  -4.969 -15.518  1.00  0.00     0.124 S 
ATOM     86  O   UNL     1       2.661  -4.521 -16.534  1.00  0.00    -0.237 OA
ATOM     87  O   UNL     1       2.258  -5.161 -14.177  1.00  0.00    -0.237 OA
ATOM     88  O   UNL     1       0.766  -5.991 -15.956  1.00  0.00    -0.744 OA
ENDBRANCH  81  85
ENDBRANCH  54  78
BRANCH  66  89
ATOM     89  C   UNL     1       4.721   3.493 -17.811  1.00  0.00     0.023 A 
ATOM     90  C   UNL     1       4.000   3.630 -19.010  1.00  0.00     0.031 A 
ATOM     91  C   UNL     1       6.111   3.303 -17.885  1.00  0.00     0.131 A 
ATOM     92  C   UNL     1       4.668   3.523 -20.239  1.00  0.00     0.055 A 
ATOM     93  C   UNL     1       6.776   3.241 -19.110  1.00  0.00     0.041 A 
ATOM     94  F   UNL     1       6.840   3.163 -16.767  1.00  0.00    -0.206 F 
ATOM     95  C   UNL     1       6.052   3.339 -20.296  1.00  0.00     0.022 A 
BRANCH  92  96
ATOM     96  S   UNL     1       3.690   3.547 -21.766  1.00  0.00     0.124 S 
ATOM     97  O   UNL     1       2.812   2.395 -21.583  1.00  0.00    -0.237 OA
ATOM     98  O   UNL     1       3.047   4.856 -21.706  1.00  0.00    -0.237 OA
ATOM     99  O   UNL     1       4.694   3.399 -22.819  1.00  0.00    -0.744 OA
ENDBRANCH  92  96
ENDBRANCH  66  89
ENDBRANCH  40  41
ENDBRANCH  33  35
ENDBRANCH  32  33
ENDBRANCH  31  32
ENDBRANCH   1  31
TORSDOF 17
