REMARK SMILES C[C@H](CNS(=O)(=O)CCC(=O)OCCOC(=O)c1ccc(-c2c3nc(c(-c4cc(S(=O)(=O)[O-])ccc4F)c4ccc([nH]4)c(-c4cc(S(=O)(=O)[O-])ccc4F)c4nc(c(-c5cc(S(=O)(=O)[O-])ccc5F)c5ccc2[nH]5)C=C4)C=C3)cc1)c1ccccc1
REMARK SMILES IDX 12 1 10 2 11 3 9 4 8 5 5 6 6 7 7 8 4 9 3 11 2 12 1 13 81 14
REMARK SMILES IDX 82 15 86 16 83 17 85 18 84 19 13 20 14 21 15 22 16 23 17 24
REMARK SMILES IDX 18 25 19 26 80 27 20 28 79 29 21 30 22 31 23 32 73 33 24 34
REMARK SMILES IDX 78 35 72 36 74 37 25 38 77 39 71 40 70 41 26 43 58 44 38 45
REMARK SMILES IDX 57 46 39 47 42 48 56 49 75 50 40 51 41 52 55 54 76 55 43 56
REMARK SMILES IDX 27 57 28 58 36 59 29 60 35 61 37 62 34 63 30 64 31 65 32 66
REMARK SMILES IDX 33 67 59 68 60 69 68 70 61 71 67 72 69 73 66 74 62 75 63 76
REMARK SMILES IDX 64 77 65 78 44 79 45 80 53 81 46 82 52 83 54 84 51 85 47 86
REMARK SMILES IDX 48 87 49 88 50 89
REMARK H PARENT 4 10 74 42 42 53
REMARK Flexibility Score: inf
ROOT
ATOM      1  O   UNL     1       3.671  -1.526   0.989  1.00  0.00    -0.462 OA
ENDROOT
BRANCH   1   2
ATOM      2  C   UNL     1       4.835  -0.875   0.773  1.00  0.00     0.306 C 
ATOM      3  O   UNL     1       5.828  -1.385   0.266  1.00  0.00    -0.252 OA
BRANCH   2   4
ATOM      4  C   UNL     1       4.838   0.545   1.271  1.00  0.00     0.140 C 
BRANCH   4   5
ATOM      5  C   UNL     1       3.625   1.391   0.927  1.00  0.00     0.165 C 
BRANCH   5   6
ATOM      6  S   UNL     1       2.274   1.276   2.094  1.00  0.00     0.212 S 
ATOM      7  O   UNL     1       1.435   2.446   1.966  1.00  0.00    -0.212 OA
ATOM      8  O   UNL     1       2.812   0.900   3.385  1.00  0.00    -0.212 OA
BRANCH   6   9
ATOM      9  N   UNL     1       1.375  -0.045   1.604  1.00  0.00    -0.215 NA
ATOM     10  H   UNL     1       2.020  -0.692   1.151  1.00  0.00     0.141 HD
BRANCH   9  11
ATOM     11  C   UNL     1       0.240   0.157   0.674  1.00  0.00     0.106 C 
BRANCH  11  12
ATOM     12  C   UNL     1      -0.349  -1.182   0.117  1.00  0.00     0.031 C 
ATOM     13  C   UNL     1      -0.025  -2.405   1.008  1.00  0.00     0.014 C 
BRANCH  12  14
ATOM     14  C   UNL     1      -1.859  -1.173  -0.178  1.00  0.00    -0.044 A 
ATOM     15  C   UNL     1      -2.623   0.001  -0.199  1.00  0.00     0.004 A 
ATOM     16  C   UNL     1      -2.533  -2.388  -0.423  1.00  0.00     0.004 A 
ATOM     17  C   UNL     1      -4.016  -0.051  -0.317  1.00  0.00     0.000 A 
ATOM     18  C   UNL     1      -3.923  -2.442  -0.535  1.00  0.00     0.000 A 
ATOM     19  C   UNL     1      -4.668  -1.274  -0.455  1.00  0.00     0.000 A 
ENDBRANCH  12  14
ENDBRANCH  11  12
ENDBRANCH   9  11
ENDBRANCH   6   9
ENDBRANCH   5   6
ENDBRANCH   4   5
ENDBRANCH   2   4
ENDBRANCH   1   2
BRANCH   1  20
ATOM     20  C   UNL     1       3.593  -2.870   0.473  1.00  0.00     0.274 C 
BRANCH  20  21
ATOM     21  C   UNL     1       2.905  -2.893  -0.889  1.00  0.00     0.275 C 
BRANCH  21  22
ATOM     22  O   UNL     1       3.713  -2.263  -1.887  1.00  0.00    -0.458 OA
BRANCH  22  23
ATOM     23  C   UNL     1       3.384  -0.982  -2.174  1.00  0.00     0.338 C 
ATOM     24  O   UNL     1       2.479  -0.312  -1.719  1.00  0.00    -0.246 OA
BRANCH  23  25
ATOM     25  C   UNL     1       4.349  -0.498  -3.155  1.00  0.00     0.060 A 
ATOM     26  C   UNL     1       5.528   0.114  -2.725  1.00  0.00     0.016 A 
ATOM     27  C   UNL     1       4.064  -0.681  -4.506  1.00  0.00     0.016 A 
ATOM     28  C   UNL     1       6.457   0.535  -3.666  1.00  0.00     0.010 A 
ATOM     29  C   UNL     1       5.009  -0.289  -5.443  1.00  0.00     0.010 A 
ATOM     30  C   UNL     1       6.208   0.314  -5.025  1.00  0.00    -0.014 A 
BRANCH  30  31
ATOM     31  C   UNL     1       7.197   0.712  -6.043  1.00  0.00     0.031 A 
ATOM     32  C   UNL     1       6.874   1.852  -6.954  1.00  0.00     0.074 A 
ATOM     33  C   UNL     1       8.325  -0.009  -6.168  1.00  0.00     0.049 A 
ATOM     34  N   UNL     1       7.493   2.250  -8.030  1.00  0.00    -0.248 NA
ATOM     35  C   UNL     1       5.674   2.636  -6.616  1.00  0.00     0.031 C 
ATOM     36  C   UNL     1       8.717  -1.118  -5.293  1.00  0.00     0.029 A 
ATOM     37  N   UNL     1       9.336   0.062  -7.088  1.00  0.00    -0.354 N 
ATOM     38  C   UNL     1       6.748   3.318  -8.516  1.00  0.00     0.074 A 
ATOM     39  C   UNL     1       5.612   3.480  -7.634  1.00  0.00     0.031 C 
ATOM     40  C   UNL     1       9.882  -1.625  -5.723  1.00  0.00     0.029 A 
ATOM     41  C   UNL     1      10.281  -0.925  -6.939  1.00  0.00     0.049 A 
ATOM     42  H   UNL     1       9.381   0.753  -7.788  1.00  0.00     0.167 HD
ATOM     43  C   UNL     1       7.005   4.085  -9.602  1.00  0.00     0.034 A 
ATOM     44  C   UNL     1      11.325  -1.249  -7.726  1.00  0.00     0.034 A 
ATOM     45  C   UNL     1       8.144   3.868 -10.459  1.00  0.00     0.049 A 
ATOM     46  C   UNL     1      11.550  -0.425  -8.969  1.00  0.00     0.074 A 
ATOM     47  C   UNL     1       8.524   4.569 -11.588  1.00  0.00     0.029 A 
ATOM     48  N   UNL     1       9.086   2.858 -10.280  1.00  0.00    -0.354 N 
ATOM     49  N   UNL     1      10.838   0.579  -9.431  1.00  0.00    -0.248 NA
ATOM     50  C   UNL     1      12.714  -0.768  -9.793  1.00  0.00     0.031 C 
ATOM     51  C   UNL     1       9.647   3.938 -12.134  1.00  0.00     0.029 A 
ATOM     52  C   UNL     1      10.029   2.904 -11.292  1.00  0.00     0.049 A 
ATOM     53  H   UNL     1       9.082   2.207  -9.542  1.00  0.00     0.167 HD
ATOM     54  C   UNL     1      11.498   1.019 -10.574  1.00  0.00     0.074 A 
ATOM     55  C   UNL     1      12.659   0.166 -10.732  1.00  0.00     0.031 C 
ATOM     56  C   UNL     1      11.183   2.041 -11.409  1.00  0.00     0.034 A 
BRANCH  43  57
ATOM     57  C   UNL     1       6.010   5.168  -9.941  1.00  0.00     0.023 A 
ATOM     58  C   UNL     1       5.739   6.229  -9.059  1.00  0.00     0.031 A 
ATOM     59  C   UNL     1       5.283   5.116 -11.144  1.00  0.00     0.131 A 
ATOM     60  C   UNL     1       4.716   7.144  -9.353  1.00  0.00     0.055 A 
ATOM     61  C   UNL     1       4.328   6.081 -11.472  1.00  0.00     0.041 A 
ATOM     62  F   UNL     1       5.473   4.113 -12.015  1.00  0.00    -0.206 F 
ATOM     63  C   UNL     1       4.028   7.093 -10.566  1.00  0.00     0.022 A 
BRANCH  60  64
ATOM     64  S   UNL     1       4.190   8.299  -8.057  1.00  0.00     0.124 S 
ATOM     65  O   UNL     1       3.784   7.384  -6.993  1.00  0.00    -0.237 OA
ATOM     66  O   UNL     1       5.404   9.069  -7.808  1.00  0.00    -0.237 OA
ATOM     67  O   UNL     1       3.097   9.041  -8.682  1.00  0.00    -0.744 OA
ENDBRANCH  60  64
ENDBRANCH  43  57
BRANCH  44  68
ATOM     68  C   UNL     1      12.204  -2.402  -7.383  1.00  0.00     0.023 A 
ATOM     69  C   UNL     1      13.566  -2.213  -7.104  1.00  0.00     0.031 A 
ATOM     70  C   UNL     1      11.705  -3.718  -7.351  1.00  0.00     0.131 A 
ATOM     71  C   UNL     1      14.392  -3.321  -6.856  1.00  0.00     0.055 A 
ATOM     72  C   UNL     1      12.517  -4.811  -7.042  1.00  0.00     0.041 A 
ATOM     73  F   UNL     1      10.409  -3.960  -7.607  1.00  0.00    -0.206 F 
ATOM     74  C   UNL     1      13.873  -4.617  -6.806  1.00  0.00     0.022 A 
BRANCH  71  75
ATOM     75  S   UNL     1      16.178  -3.050  -6.698  1.00  0.00     0.124 S 
ATOM     76  O   UNL     1      16.488  -2.385  -7.959  1.00  0.00    -0.237 OA
ATOM     77  O   UNL     1      16.253  -2.222  -5.499  1.00  0.00    -0.237 OA
ATOM     78  O   UNL     1      16.715  -4.402  -6.556  1.00  0.00    -0.744 OA
ENDBRANCH  71  75
ENDBRANCH  44  68
BRANCH  56  79
ATOM     79  C   UNL     1      12.158   2.347 -12.517  1.00  0.00     0.023 A 
ATOM     80  C   UNL     1      12.351   1.481 -13.605  1.00  0.00     0.031 A 
ATOM     81  C   UNL     1      12.877   3.557 -12.491  1.00  0.00     0.131 A 
ATOM     82  C   UNL     1      13.271   1.821 -14.607  1.00  0.00     0.055 A 
ATOM     83  C   UNL     1      13.741   3.918 -13.522  1.00  0.00     0.041 A 
ATOM     84  F   UNL     1      12.730   4.416 -11.470  1.00  0.00    -0.206 F 
ATOM     85  C   UNL     1      13.949   3.044 -14.585  1.00  0.00     0.022 A 
BRANCH  82  86
ATOM     86  S   UNL     1      13.624   0.614 -15.913  1.00  0.00     0.124 S 
ATOM     87  O   UNL     1      14.136  -0.518 -15.148  1.00  0.00    -0.237 OA
ATOM     88  O   UNL     1      12.314   0.427 -16.529  1.00  0.00    -0.237 OA
ATOM     89  O   UNL     1      14.610   1.293 -16.750  1.00  0.00    -0.744 OA
ENDBRANCH  82  86
ENDBRANCH  56  79
ENDBRANCH  30  31
ENDBRANCH  23  25
ENDBRANCH  22  23
ENDBRANCH  21  22
ENDBRANCH  20  21
ENDBRANCH   1  20
TORSDOF 20
