REMARK SMILES CN(CCc1cccs1)C(=O)N[C@@H]1COC[C@H]1C(=O)OCCOC(=O)c1ccc(-c2c3nc(c(-c4cc(S(=O)(=O)[O-])ccc4F)c4ccc([nH]4)c(-c4cc(S(=O)(=O)[O-])ccc4F)c4nc(c(-c5cc(S(=O)(=O)[O-])ccc5F)c5ccc2[nH]5)C=C4)C=C3)cc1
REMARK SMILES IDX 21 1 20 2 18 3 19 4 17 5 13 6 14 7 15 8 16 9 12 10 10 11
REMARK SMILES IDX 11 12 2 14 1 15 3 16 4 17 5 18 6 19 9 20 7 21 8 22 22 23
REMARK SMILES IDX 23 24 24 25 25 26 26 27 27 28 88 29 28 30 87 31 29 32 30 33
REMARK SMILES IDX 31 34 81 35 32 36 86 37 80 38 82 39 33 40 85 41 79 42 78 43
REMARK SMILES IDX 34 45 66 46 46 47 65 48 47 49 50 50 64 51 83 52 48 53 49 54
REMARK SMILES IDX 63 56 84 57 51 58 35 59 36 60 44 61 37 62 43 63 45 64 42 65
REMARK SMILES IDX 38 66 39 67 40 68 41 69 67 70 68 71 76 72 69 73 75 74 77 75
REMARK SMILES IDX 74 76 70 77 71 78 72 79 73 80 52 81 53 82 61 83 54 84 60 85
REMARK SMILES IDX 62 86 59 87 55 88 56 89 57 90 58 91
REMARK H PARENT 12 13 82 44 50 55
REMARK Flexibility Score: inf
ROOT
ATOM      1  C   UNL     1      -4.679   0.009   3.345  1.00  0.00     0.274 C 
ENDROOT
BRANCH   1   2
ATOM      2  O   UNL     1      -3.543   0.872   3.233  1.00  0.00    -0.462 OA
BRANCH   2   3
ATOM      3  C   UNL     1      -3.384   1.935   4.062  1.00  0.00     0.313 C 
ATOM      4  O   UNL     1      -4.324   2.512   4.598  1.00  0.00    -0.252 OA
BRANCH   3   5
ATOM      5  C   UNL     1      -1.783   2.195   4.471  1.00  0.00     0.150 C 
ATOM      6  C   UNL     1       0.197   2.493   3.420  1.00  0.00     0.126 C 
ATOM      7  C   UNL     1       0.635   4.353   3.853  1.00  0.00     0.186 C 
ATOM      8  O   UNL     1      -0.712   5.093   4.747  1.00  0.00    -0.378 OA
ATOM      9  C   UNL     1      -2.076   4.023   5.199  1.00  0.00     0.177 C 
BRANCH   6  10
ATOM     10  N   UNL     1       1.412   1.646   3.078  1.00  0.00    -0.332 N 
ATOM     11  C   UNL     1       1.686   0.885   1.976  1.00  0.00     0.317 C 
ATOM     12  O   UNL     1       2.628   0.097   2.101  1.00  0.00    -0.249 OA
ATOM     13  H   UNL     1       2.119   1.647   3.763  1.00  0.00     0.165 HD
BRANCH  11  14
ATOM     14  N   UNL     1       0.915   0.914   0.815  1.00  0.00    -0.328 N 
ATOM     15  C   UNL     1       1.200  -0.170  -0.119  1.00  0.00     0.148 C 
BRANCH  14  16
ATOM     16  C   UNL     1      -0.122   1.875   0.351  1.00  0.00     0.126 C 
BRANCH  16  17
ATOM     17  C   UNL     1      -1.541   1.730   0.949  1.00  0.00     0.068 C 
BRANCH  17  18
ATOM     18  C   UNL     1      -1.504   2.022   2.414  1.00  0.00     0.006 A 
ATOM     19  C   UNL     1      -1.298   3.478   3.333  1.00  0.00     0.015 A 
ATOM     20  S   UNL     1      -0.806   0.247   3.552  1.00  0.00    -0.149 S 
ATOM     21  C   UNL     1      -0.269   2.958   5.111  1.00  0.00     0.012 A 
ATOM     22  C   UNL     1       0.057   1.374   5.212  1.00  0.00     0.065 A 
ENDBRANCH  17  18
ENDBRANCH  16  17
ENDBRANCH  14  16
ENDBRANCH  11  14
ENDBRANCH   6  10
ENDBRANCH   3   5
ENDBRANCH   2   3
ENDBRANCH   1   2
BRANCH   1  23
ATOM     23  C   UNL     1      -4.113  -1.425   3.363  1.00  0.00     0.275 C 
BRANCH  23  24
ATOM     24  O   UNL     1      -3.189  -1.785   4.428  1.00  0.00    -0.458 OA
BRANCH  24  25
ATOM     25  C   UNL     1      -3.342  -1.248   5.657  1.00  0.00     0.338 C 
ATOM     26  O   UNL     1      -4.284  -0.572   6.037  1.00  0.00    -0.246 OA
BRANCH  25  27
ATOM     27  C   UNL     1      -2.128  -1.423   6.490  1.00  0.00     0.060 A 
ATOM     28  C   UNL     1      -1.742  -0.317   7.246  1.00  0.00     0.016 A 
ATOM     29  C   UNL     1      -1.388  -2.603   6.588  1.00  0.00     0.016 A 
ATOM     30  C   UNL     1      -0.615  -0.368   8.057  1.00  0.00     0.010 A 
ATOM     31  C   UNL     1      -0.364  -2.701   7.554  1.00  0.00     0.010 A 
ATOM     32  C   UNL     1      -0.001  -1.593   8.341  1.00  0.00    -0.014 A 
BRANCH  32  33
ATOM     33  C   UNL     1       0.855  -1.687   9.570  1.00  0.00     0.031 A 
ATOM     34  C   UNL     1       2.238  -2.283   9.550  1.00  0.00     0.074 A 
ATOM     35  C   UNL     1       0.356  -1.221  10.742  1.00  0.00     0.049 A 
ATOM     36  N   UNL     1       3.030  -2.550  10.559  1.00  0.00    -0.248 NA
ATOM     37  C   UNL     1       2.800  -2.632   8.239  1.00  0.00     0.031 C 
ATOM     38  C   UNL     1      -0.965  -0.599  10.914  1.00  0.00     0.029 A 
ATOM     39  N   UNL     1       0.887  -1.167  12.010  1.00  0.00    -0.354 N 
ATOM     40  C   UNL     1       4.171  -3.130  10.012  1.00  0.00     0.074 A 
ATOM     41  C   UNL     1       3.952  -3.196   8.581  1.00  0.00     0.031 C 
ATOM     42  C   UNL     1      -1.098  -0.150  12.165  1.00  0.00     0.029 A 
ATOM     43  C   UNL     1       0.043  -0.598  12.940  1.00  0.00     0.049 A 
ATOM     44  H   UNL     1       1.786  -1.504  12.232  1.00  0.00     0.167 HD
ATOM     45  C   UNL     1       5.291  -3.561  10.649  1.00  0.00     0.034 A 
ATOM     46  C   UNL     1       0.120  -0.500  14.281  1.00  0.00     0.034 A 
ATOM     47  C   UNL     1       5.490  -3.478  12.079  1.00  0.00     0.049 A 
ATOM     48  C   UNL     1       1.320  -1.087  14.966  1.00  0.00     0.074 A 
ATOM     49  C   UNL     1       6.589  -3.883  12.819  1.00  0.00     0.029 A 
ATOM     50  N   UNL     1       4.574  -2.964  12.989  1.00  0.00    -0.354 N 
ATOM     51  N   UNL     1       2.368  -1.667  14.430  1.00  0.00    -0.248 NA
ATOM     52  C   UNL     1       1.347  -1.015  16.430  1.00  0.00     0.031 C 
ATOM     53  C   UNL     1       6.299  -3.705  14.174  1.00  0.00     0.029 A 
ATOM     54  C   UNL     1       5.067  -3.082  14.280  1.00  0.00     0.049 A 
ATOM     55  H   UNL     1       3.701  -2.574  12.751  1.00  0.00     0.167 HD
ATOM     56  C   UNL     1       3.199  -1.994  15.495  1.00  0.00     0.074 A 
ATOM     57  C   UNL     1       2.537  -1.528  16.697  1.00  0.00     0.031 C 
ATOM     58  C   UNL     1       4.402  -2.620  15.476  1.00  0.00     0.034 A 
BRANCH  45  59
ATOM     59  C   UNL     1       6.370  -4.214   9.816  1.00  0.00     0.023 A 
ATOM     60  C   UNL     1       7.060  -3.514   8.813  1.00  0.00     0.031 A 
ATOM     61  C   UNL     1       6.715  -5.562  10.030  1.00  0.00     0.131 A 
ATOM     62  C   UNL     1       8.003  -4.182   8.016  1.00  0.00     0.055 A 
ATOM     63  C   UNL     1       7.721  -6.194   9.296  1.00  0.00     0.041 A 
ATOM     64  F   UNL     1       6.077  -6.292  10.959  1.00  0.00    -0.206 F 
ATOM     65  C   UNL     1       8.361  -5.508   8.270  1.00  0.00     0.022 A 
BRANCH  62  66
ATOM     66  S   UNL     1       8.631  -3.341   6.537  1.00  0.00     0.124 S 
ATOM     67  O   UNL     1       7.393  -3.060   5.815  1.00  0.00    -0.237 OA
ATOM     68  O   UNL     1       9.320  -2.186   7.100  1.00  0.00    -0.237 OA
ATOM     69  O   UNL     1       9.495  -4.343   5.915  1.00  0.00    -0.744 OA
ENDBRANCH  62  66
ENDBRANCH  45  59
BRANCH  46  70
ATOM     70  C   UNL     1      -0.995   0.105  15.072  1.00  0.00     0.023 A 
ATOM     71  C   UNL     1      -0.766   1.205  15.911  1.00  0.00     0.031 A 
ATOM     72  C   UNL     1      -2.290  -0.448  15.056  1.00  0.00     0.131 A 
ATOM     73  C   UNL     1      -1.792   1.673  16.746  1.00  0.00     0.055 A 
ATOM     74  C   UNL     1      -3.332   0.079  15.820  1.00  0.00     0.041 A 
ATOM     75  F   UNL     1      -2.569  -1.510  14.283  1.00  0.00    -0.206 F 
ATOM     76  C   UNL     1      -3.079   1.135  16.689  1.00  0.00     0.022 A 
BRANCH  73  77
ATOM     77  S   UNL     1      -1.375   2.893  18.020  1.00  0.00     0.124 S 
ATOM     78  O   UNL     1      -0.310   2.208  18.743  1.00  0.00    -0.237 OA
ATOM     79  O   UNL     1      -0.970   4.043  17.218  1.00  0.00    -0.237 OA
ATOM     80  O   UNL     1      -2.626   3.057  18.756  1.00  0.00    -0.744 OA
ENDBRANCH  73  77
ENDBRANCH  46  70
BRANCH  58  81
ATOM     81  C   UNL     1       5.113  -2.770  16.798  1.00  0.00     0.023 A 
ATOM     82  C   UNL     1       4.577  -3.535  17.848  1.00  0.00     0.031 A 
ATOM     83  C   UNL     1       6.334  -2.107  17.019  1.00  0.00     0.131 A 
ATOM     84  C   UNL     1       5.220  -3.554  19.094  1.00  0.00     0.055 A 
ATOM     85  C   UNL     1       7.015  -2.206  18.231  1.00  0.00     0.041 A 
ATOM     86  F   UNL     1       6.885  -1.349  16.057  1.00  0.00    -0.206 F 
ATOM     87  C   UNL     1       6.450  -2.918  19.284  1.00  0.00     0.022 A 
BRANCH  84  88
ATOM     88  S   UNL     1       4.355  -4.299  20.502  1.00  0.00     0.124 S 
ATOM     89  O   UNL     1       3.115  -3.530  20.535  1.00  0.00    -0.237 OA
ATOM     90  O   UNL     1       4.230  -5.693  20.091  1.00  0.00    -0.237 OA
ATOM     91  O   UNL     1       5.262  -4.062  21.624  1.00  0.00    -0.744 OA
ENDBRANCH  84  88
ENDBRANCH  58  81
ENDBRANCH  32  33
ENDBRANCH  25  27
ENDBRANCH  24  25
ENDBRANCH  23  24
ENDBRANCH   1  23
TORSDOF 19
