REMARK SMILES C[C@@H](C(=O)OCCOC(=O)c1ccc(-c2c3nc(c(-c4cc(S(=O)(=O)[O-])ccc4F)c4ccc([nH]4)c(-c4cc(S(=O)(=O)[O-])ccc4F)c4nc(c(-c5cc(S(=O)(=O)[O-])ccc5F)c5ccc2[nH]5)C=C4)C=C3)cc1)c1ccc(-c2cccc(OC(=O)NCCCc3ccccc3)c2)c(F)c1
REMARK SMILES IDX 3 1 4 2 2 3 1 4 74 5 75 6 99 7 76 8 97 9 77 10 98 11 78 12
REMARK SMILES IDX 79 13 96 14 80 15 82 16 81 17 83 18 84 19 85 20 86 21 87 23
REMARK SMILES IDX 88 24 89 25 90 26 91 27 95 28 92 29 94 30 93 31 5 32 6 33
REMARK SMILES IDX 7 34 8 35 9 36 10 37 11 38 12 39 73 40 13 41 72 42 14 43
REMARK SMILES IDX 15 44 16 45 66 46 17 47 71 48 65 49 67 50 18 51 70 52 64 53
REMARK SMILES IDX 63 54 19 56 51 57 31 58 50 59 32 60 35 61 49 62 68 63 33 64
REMARK SMILES IDX 34 65 48 67 69 68 36 69 20 70 21 71 29 72 22 73 28 74 30 75
REMARK SMILES IDX 27 76 23 77 24 78 25 79 26 80 52 81 53 82 61 83 54 84 60 85
REMARK SMILES IDX 62 86 59 87 55 88 56 89 57 90 58 91 37 92 38 93 46 94 39 95
REMARK SMILES IDX 45 96 47 97 44 98 40 99 41 100 42 101 43 102
REMARK H PARENT 86 22 67 55 35 66
REMARK Flexibility Score: inf
ROOT
ATOM      1  C   UNL     1       0.669  -2.438  -0.827  1.00  0.00     0.313 C 
ATOM      2  O   UNL     1       0.240  -3.490  -1.285  1.00  0.00    -0.252 OA
ENDROOT
BRANCH   1   3
ATOM      3  C   UNL     1       0.164  -1.028  -1.258  1.00  0.00     0.126 C 
ATOM      4  C   UNL     1       0.877   0.074  -0.450  1.00  0.00     0.025 C 
BRANCH   3   5
ATOM      5  C   UNL     1      -1.379  -0.869  -1.316  1.00  0.00    -0.031 A 
ATOM      6  C   UNL     1      -2.064   0.230  -0.758  1.00  0.00     0.005 A 
ATOM      7  C   UNL     1      -2.189  -1.817  -1.964  1.00  0.00     0.044 A 
ATOM      8  C   UNL     1      -3.482   0.315  -0.745  1.00  0.00     0.012 A 
ATOM      9  C   UNL     1      -3.601  -1.727  -1.950  1.00  0.00     0.131 A 
ATOM     10  C   UNL     1      -4.291  -0.688  -1.300  1.00  0.00     0.018 A 
ATOM     11  F   UNL     1      -4.284  -2.714  -2.548  1.00  0.00    -0.206 F 
BRANCH  10  12
ATOM     12  C   UNL     1      -5.773  -0.705  -1.116  1.00  0.00    -0.012 A 
ATOM     13  C   UNL     1      -6.655  -0.378  -2.155  1.00  0.00     0.009 A 
ATOM     14  C   UNL     1      -6.358  -1.148   0.097  1.00  0.00     0.056 A 
ATOM     15  C   UNL     1      -8.053  -0.511  -1.998  1.00  0.00     0.004 A 
ATOM     16  C   UNL     1      -7.751  -1.363   0.210  1.00  0.00     0.133 A 
ATOM     17  C   UNL     1      -8.616  -1.026  -0.822  1.00  0.00     0.047 A 
BRANCH  16  18
ATOM     18  O   UNL     1      -8.362  -2.399   1.403  1.00  0.00    -0.410 OA
BRANCH  18  19
ATOM     19  C   UNL     1      -8.802  -3.649   2.420  1.00  0.00     0.412 C 
ATOM     20  O   UNL     1      -8.500  -4.817   2.171  1.00  0.00    -0.224 OA
ATOM     21  N   UNL     1      -9.502  -3.369   3.559  1.00  0.00    -0.321 N 
ATOM     22  H   UNL     1      -9.187  -2.645   4.148  1.00  0.00     0.167 HD
BRANCH  21  23
ATOM     23  C   UNL     1     -10.693  -4.105   3.924  1.00  0.00     0.120 C 
BRANCH  23  24
ATOM     24  C   UNL     1     -10.514  -5.537   4.406  1.00  0.00     0.026 C 
BRANCH  24  25
ATOM     25  C   UNL     1      -9.477  -5.793   5.496  1.00  0.00     0.037 C 
BRANCH  25  26
ATOM     26  C   UNL     1      -9.723  -5.229   6.877  1.00  0.00    -0.048 A 
ATOM     27  C   UNL     1      -9.794  -3.852   7.107  1.00  0.00     0.004 A 
ATOM     28  C   UNL     1      -9.752  -6.084   7.989  1.00  0.00     0.004 A 
ATOM     29  C   UNL     1      -9.886  -3.339   8.403  1.00  0.00     0.000 A 
ATOM     30  C   UNL     1      -9.829  -5.572   9.289  1.00  0.00     0.000 A 
ATOM     31  C   UNL     1      -9.891  -4.197   9.496  1.00  0.00     0.000 A 
ENDBRANCH  25  26
ENDBRANCH  24  25
ENDBRANCH  23  24
ENDBRANCH  21  23
ENDBRANCH  18  19
ENDBRANCH  16  18
ENDBRANCH  10  12
ENDBRANCH   3   5
ENDBRANCH   1   3
BRANCH   1  32
ATOM     32  O   UNL     1       1.722  -2.384   0.049  1.00  0.00    -0.462 OA
BRANCH  32  33
ATOM     33  C   UNL     1       2.384  -3.625   0.397  1.00  0.00     0.274 C 
BRANCH  33  34
ATOM     34  C   UNL     1       2.412  -3.840   1.914  1.00  0.00     0.275 C 
BRANCH  34  35
ATOM     35  O   UNL     1       1.077  -4.058   2.396  1.00  0.00    -0.458 OA
BRANCH  35  36
ATOM     36  C   UNL     1       0.499  -3.001   2.998  1.00  0.00     0.338 C 
ATOM     37  O   UNL     1       1.043  -1.955   3.361  1.00  0.00    -0.246 OA
BRANCH  36  38
ATOM     38  C   UNL     1      -0.947  -3.167   2.880  1.00  0.00     0.060 A 
ATOM     39  C   UNL     1      -1.558  -2.422   1.881  1.00  0.00     0.016 A 
ATOM     40  C   UNL     1      -1.697  -4.028   3.685  1.00  0.00     0.016 A 
ATOM     41  C   UNL     1      -2.914  -2.563   1.653  1.00  0.00     0.010 A 
ATOM     42  C   UNL     1      -3.079  -4.146   3.467  1.00  0.00     0.010 A 
ATOM     43  C   UNL     1      -3.691  -3.417   2.440  1.00  0.00    -0.014 A 
BRANCH  43  44
ATOM     44  C   UNL     1      -5.158  -3.377   2.218  1.00  0.00     0.031 A 
ATOM     45  C   UNL     1      -5.910  -2.305   3.165  1.00  0.00     0.074 A 
ATOM     46  C   UNL     1      -5.622  -4.059   1.106  1.00  0.00     0.049 A 
ATOM     47  N   UNL     1      -7.127  -1.838   3.099  1.00  0.00    -0.248 NA
ATOM     48  C   UNL     1      -5.197  -1.598   4.250  1.00  0.00     0.031 C 
ATOM     49  C   UNL     1      -4.922  -4.938   0.143  1.00  0.00     0.029 A 
ATOM     50  N   UNL     1      -6.851  -4.067   0.513  1.00  0.00    -0.354 N 
ATOM     51  C   UNL     1      -7.384  -0.837   4.004  1.00  0.00     0.074 A 
ATOM     52  C   UNL     1      -6.118  -0.737   4.719  1.00  0.00     0.031 C 
ATOM     53  C   UNL     1      -5.793  -5.383  -0.814  1.00  0.00     0.029 A 
ATOM     54  C   UNL     1      -7.139  -4.864  -0.555  1.00  0.00     0.049 A 
ATOM     55  H   UNL     1      -7.554  -3.477   0.869  1.00  0.00     0.167 HD
ATOM     56  C   UNL     1      -8.568  -0.155   4.209  1.00  0.00     0.034 A 
ATOM     57  C   UNL     1      -8.365  -5.082  -1.139  1.00  0.00     0.034 A 
ATOM     58  C   UNL     1      -9.895  -0.350   3.522  1.00  0.00     0.049 A 
ATOM     59  C   UNL     1      -9.751  -4.461  -0.628  1.00  0.00     0.074 A 
ATOM     60  C   UNL     1     -11.174   0.020   3.932  1.00  0.00     0.029 A 
ATOM     61  N   UNL     1     -10.159  -0.986   2.297  1.00  0.00    -0.354 N 
ATOM     62  N   UNL     1     -10.002  -3.424   0.140  1.00  0.00    -0.248 NA
ATOM     63  C   UNL     1     -11.020  -5.065  -1.075  1.00  0.00     0.031 C 
ATOM     64  C   UNL     1     -12.136  -0.659   3.135  1.00  0.00     0.029 A 
ATOM     65  C   UNL     1     -11.490  -1.393   2.144  1.00  0.00     0.049 A 
ATOM     66  H   UNL     1      -9.471  -1.132   1.609  1.00  0.00     0.167 HD
ATOM     67  C   UNL     1     -11.367  -3.254   0.335  1.00  0.00     0.074 A 
ATOM     68  C   UNL     1     -11.947  -4.273  -0.527  1.00  0.00     0.031 C 
ATOM     69  C   UNL     1     -12.050  -2.386   1.167  1.00  0.00     0.034 A 
BRANCH  56  70
ATOM     70  C   UNL     1      -8.576   0.720   5.444  1.00  0.00     0.023 A 
ATOM     71  C   UNL     1      -7.880   1.933   5.519  1.00  0.00     0.031 A 
ATOM     72  C   UNL     1      -9.307   0.314   6.579  1.00  0.00     0.131 A 
ATOM     73  C   UNL     1      -7.907   2.678   6.712  1.00  0.00     0.055 A 
ATOM     74  C   UNL     1      -9.363   1.073   7.747  1.00  0.00     0.041 A 
ATOM     75  F   UNL     1     -10.004  -0.830   6.558  1.00  0.00    -0.206 F 
ATOM     76  C   UNL     1      -8.651   2.262   7.821  1.00  0.00     0.022 A 
BRANCH  73  77
ATOM     77  S   UNL     1      -6.881   4.167   6.833  1.00  0.00     0.124 S 
ATOM     78  O   UNL     1      -5.564   3.655   6.462  1.00  0.00    -0.237 OA
ATOM     79  O   UNL     1      -7.516   5.059   5.870  1.00  0.00    -0.237 OA
ATOM     80  O   UNL     1      -7.015   4.563   8.234  1.00  0.00    -0.744 OA
ENDBRANCH  73  77
ENDBRANCH  56  70
BRANCH  57  81
ATOM     81  C   UNL     1      -8.479  -6.030  -2.295  1.00  0.00     0.023 A 
ATOM     82  C   UNL     1      -9.139  -5.634  -3.476  1.00  0.00     0.031 A 
ATOM     83  C   UNL     1      -8.081  -7.374  -2.195  1.00  0.00     0.131 A 
ATOM     84  C   UNL     1      -9.427  -6.577  -4.478  1.00  0.00     0.055 A 
ATOM     85  C   UNL     1      -8.314  -8.294  -3.221  1.00  0.00     0.041 A 
ATOM     86  F   UNL     1      -7.488  -7.832  -1.081  1.00  0.00    -0.206 F 
ATOM     87  C   UNL     1      -9.002  -7.901  -4.365  1.00  0.00     0.022 A 
BRANCH  84  88
ATOM     88  S   UNL     1     -10.456  -6.077  -5.888  1.00  0.00     0.124 S 
ATOM     89  O   UNL     1     -11.723  -5.763  -5.236  1.00  0.00    -0.237 OA
ATOM     90  O   UNL     1      -9.715  -4.942  -6.428  1.00  0.00    -0.237 OA
ATOM     91  O   UNL     1     -10.471  -7.266  -6.738  1.00  0.00    -0.744 OA
ENDBRANCH  84  88
ENDBRANCH  57  81
BRANCH  69  92
ATOM     92  C   UNL     1     -13.576  -2.523   1.160  1.00  0.00     0.023 A 
ATOM     93  C   UNL     1     -14.245  -3.720   1.498  1.00  0.00     0.031 A 
ATOM     94  C   UNL     1     -14.378  -1.407   0.854  1.00  0.00     0.131 A 
ATOM     95  C   UNL     1     -15.652  -3.788   1.462  1.00  0.00     0.055 A 
ATOM     96  C   UNL     1     -15.776  -1.462   0.882  1.00  0.00     0.041 A 
ATOM     97  F   UNL     1     -13.816  -0.230   0.538  1.00  0.00    -0.206 F 
ATOM     98  C   UNL     1     -16.420  -2.660   1.172  1.00  0.00     0.022 A 
BRANCH  95  99
ATOM     99  S   UNL     1     -16.478  -5.390   1.711  1.00  0.00     0.124 S 
ATOM    100  O   UNL     1     -15.805  -6.239   0.735  1.00  0.00    -0.237 OA
ATOM    101  O   UNL     1     -16.188  -5.673   3.112  1.00  0.00    -0.237 OA
ATOM    102  O   UNL     1     -17.882  -5.102   1.416  1.00  0.00    -0.744 OA
ENDBRANCH  95  99
ENDBRANCH  69  92
ENDBRANCH  43  44
ENDBRANCH  36  38
ENDBRANCH  35  36
ENDBRANCH  34  35
ENDBRANCH  33  34
ENDBRANCH  32  33
ENDBRANCH   1  32
TORSDOF 22
