REMARK SMILES O=C(CCCC[C@@H]1CCSS1)OCCOC(=O)c1ccc(-c2c3nc(c(-c4cc(S(=O)(=O)[O-])ccc4F)c4ccc([nH]4)c(-c4cc(S(=O)(=O)[O-])ccc4F)c4nc(c(-c5cc(S(=O)(=O)[O-])ccc5F)c5ccc2[nH]5)C=C4)C=C3)cc1
REMARK SMILES IDX 13 1 12 2 2 3 1 4 3 5 4 6 5 7 6 8 7 9 8 10 11 11 9 12 10 13
REMARK SMILES IDX 14 14 15 15 16 16 17 17 18 18 19 19 80 20 20 21 79 22 21 23
REMARK SMILES IDX 22 24 23 25 73 26 24 27 78 28 72 29 74 30 25 31 77 32 71 33
REMARK SMILES IDX 70 34 26 36 58 37 38 38 57 39 39 40 42 41 56 42 75 43 40 44
REMARK SMILES IDX 41 45 55 47 76 48 43 49 27 50 28 51 36 52 29 53 35 54 37 55
REMARK SMILES IDX 34 56 30 57 31 58 32 59 33 60 59 61 60 62 68 63 61 64 67 65
REMARK SMILES IDX 69 66 66 67 62 68 63 69 64 70 65 71 44 72 45 73 53 74 46 75
REMARK SMILES IDX 52 76 54 77 51 78 47 79 48 80 49 81 50 82
REMARK H PARENT 74 35 42 46
REMARK Flexibility Score: inf
ROOT
ATOM      1  C   UNL     1       3.691   1.279  -1.037  1.00  0.00     0.274 C 
ENDROOT
BRANCH   1   2
ATOM      2  O   UNL     1       2.422   0.606  -1.027  1.00  0.00    -0.462 OA
BRANCH   2   3
ATOM      3  C   UNL     1       2.345  -0.704  -0.680  1.00  0.00     0.305 C 
ATOM      4  O   UNL     1       1.620  -1.475  -1.302  1.00  0.00    -0.252 OA
BRANCH   3   5
ATOM      5  C   UNL     1       3.075  -1.131   0.576  1.00  0.00     0.123 C 
BRANCH   5   6
ATOM      6  C   UNL     1       3.914  -2.391   0.409  1.00  0.00     0.012 C 
BRANCH   6   7
ATOM      7  C   UNL     1       5.314  -2.197  -0.187  1.00  0.00     0.002 C 
BRANCH   7   8
ATOM      8  C   UNL     1       6.280  -1.182   0.448  1.00  0.00     0.015 C 
BRANCH   8   9
ATOM      9  C   UNL     1       6.835  -1.396   1.867  1.00  0.00     0.059 C 
ATOM     10  C   UNL     1       6.709  -2.786   2.492  1.00  0.00     0.027 C 
ATOM     11  S   UNL     1       6.103  -0.195   3.027  1.00  0.00    -0.091 SA
ATOM     12  C   UNL     1       7.056  -2.731   3.978  1.00  0.00     0.083 C 
ATOM     13  S   UNL     1       6.067  -1.393   4.679  1.00  0.00    -0.094 SA
ENDBRANCH   8   9
ENDBRANCH   7   8
ENDBRANCH   6   7
ENDBRANCH   5   6
ENDBRANCH   3   5
ENDBRANCH   2   3
ENDBRANCH   1   2
BRANCH   1  14
ATOM     14  C   UNL     1       3.792   2.409  -0.007  1.00  0.00     0.275 C 
BRANCH  14  15
ATOM     15  O   UNL     1       3.502   1.958   1.325  1.00  0.00    -0.458 OA
BRANCH  15  16
ATOM     16  C   UNL     1       2.192   2.061   1.680  1.00  0.00     0.338 C 
ATOM     17  O   UNL     1       1.313   2.578   1.018  1.00  0.00    -0.246 OA
BRANCH  16  18
ATOM     18  C   UNL     1       1.933   1.316   2.936  1.00  0.00     0.060 A 
ATOM     19  C   UNL     1       0.687   0.691   3.067  1.00  0.00     0.016 A 
ATOM     20  C   UNL     1       2.859   1.245   3.981  1.00  0.00     0.016 A 
ATOM     21  C   UNL     1       0.345   0.045   4.255  1.00  0.00     0.010 A 
ATOM     22  C   UNL     1       2.522   0.583   5.169  1.00  0.00     0.010 A 
ATOM     23  C   UNL     1       1.246   0.018   5.329  1.00  0.00    -0.014 A 
BRANCH  23  24
ATOM     24  C   UNL     1       0.765  -0.429   6.662  1.00  0.00     0.031 A 
ATOM     25  C   UNL     1       0.332   0.614   7.660  1.00  0.00     0.074 A 
ATOM     26  C   UNL     1       0.645  -1.735   6.963  1.00  0.00     0.049 A 
ATOM     27  N   UNL     1      -0.219   0.463   8.838  1.00  0.00    -0.248 NA
ATOM     28  C   UNL     1       0.554   2.015   7.274  1.00  0.00     0.031 C 
ATOM     29  C   UNL     1       1.014  -2.843   6.083  1.00  0.00     0.029 A 
ATOM     30  N   UNL     1       0.167  -2.349   8.095  1.00  0.00    -0.354 N 
ATOM     31  C   UNL     1      -0.427   1.749   9.325  1.00  0.00     0.074 A 
ATOM     32  C   UNL     1       0.116   2.663   8.342  1.00  0.00     0.031 C 
ATOM     33  C   UNL     1       0.738  -4.003   6.705  1.00  0.00     0.029 A 
ATOM     34  C   UNL     1       0.189  -3.723   8.032  1.00  0.00     0.049 A 
ATOM     35  H   UNL     1      -0.161  -1.852   8.878  1.00  0.00     0.167 HD
ATOM     36  C   UNL     1      -1.036   2.138  10.473  1.00  0.00     0.034 A 
ATOM     37  C   UNL     1      -0.191  -4.645   8.940  1.00  0.00     0.034 A 
ATOM     38  C   UNL     1      -1.552   1.224  11.461  1.00  0.00     0.049 A 
ATOM     39  C   UNL     1      -0.786  -4.190  10.252  1.00  0.00     0.074 A 
ATOM     40  C   UNL     1      -2.204   1.512  12.648  1.00  0.00     0.029 A 
ATOM     41  N   UNL     1      -1.457  -0.160  11.388  1.00  0.00    -0.354 N 
ATOM     42  N   UNL     1      -1.027  -2.970  10.677  1.00  0.00    -0.248 NA
ATOM     43  C   UNL     1      -1.176  -5.242  11.201  1.00  0.00     0.031 C 
ATOM     44  C   UNL     1      -2.439   0.308  13.323  1.00  0.00     0.029 A 
ATOM     45  C   UNL     1      -2.002  -0.737  12.525  1.00  0.00     0.049 A 
ATOM     46  H   UNL     1      -1.059  -0.659  10.638  1.00  0.00     0.167 HD
ATOM     47  C   UNL     1      -1.632  -3.114  11.924  1.00  0.00     0.074 A 
ATOM     48  C   UNL     1      -1.725  -4.536  12.179  1.00  0.00     0.031 C 
ATOM     49  C   UNL     1      -2.082  -2.157  12.776  1.00  0.00     0.034 A 
BRANCH  36  50
ATOM     50  C   UNL     1      -1.129   3.623  10.727  1.00  0.00     0.023 A 
ATOM     51  C   UNL     1      -1.873   4.470   9.884  1.00  0.00     0.031 A 
ATOM     52  C   UNL     1      -0.421   4.209  11.790  1.00  0.00     0.131 A 
ATOM     53  C   UNL     1      -1.824   5.859  10.069  1.00  0.00     0.055 A 
ATOM     54  C   UNL     1      -0.442   5.587  12.017  1.00  0.00     0.041 A 
ATOM     55  F   UNL     1       0.324   3.455  12.614  1.00  0.00    -0.206 F 
ATOM     56  C   UNL     1      -1.133   6.422  11.144  1.00  0.00     0.022 A 
BRANCH  53  57
ATOM     57  S   UNL     1      -2.546   6.929   8.794  1.00  0.00     0.124 S 
ATOM     58  O   UNL     1      -1.810   6.510   7.604  1.00  0.00    -0.237 OA
ATOM     59  O   UNL     1      -3.957   6.562   8.836  1.00  0.00    -0.237 OA
ATOM     60  O   UNL     1      -2.238   8.279   9.264  1.00  0.00    -0.744 OA
ENDBRANCH  53  57
ENDBRANCH  36  50
BRANCH  37  61
ATOM     61  C   UNL     1      -0.017  -6.100   8.662  1.00  0.00     0.023 A 
ATOM     62  C   UNL     1      -1.124  -6.957   8.552  1.00  0.00     0.031 A 
ATOM     63  C   UNL     1       1.268  -6.665   8.579  1.00  0.00     0.131 A 
ATOM     64  C   UNL     1      -0.926  -8.340   8.416  1.00  0.00     0.055 A 
ATOM     65  C   UNL     1       1.459  -8.036   8.395  1.00  0.00     0.041 A 
ATOM     66  F   UNL     1       2.359  -5.890   8.679  1.00  0.00    -0.206 F 
ATOM     67  C   UNL     1       0.358  -8.884   8.327  1.00  0.00     0.022 A 
BRANCH  64  68
ATOM     68  S   UNL     1      -2.373  -9.434   8.445  1.00  0.00     0.124 S 
ATOM     69  O   UNL     1      -2.949  -9.130   9.750  1.00  0.00    -0.237 OA
ATOM     70  O   UNL     1      -3.127  -8.969   7.286  1.00  0.00    -0.237 OA
ATOM     71  O   UNL     1      -1.793 -10.769   8.314  1.00  0.00    -0.744 OA
ENDBRANCH  64  68
ENDBRANCH  37  61
BRANCH  49  72
ATOM     72  C   UNL     1      -2.761  -2.624  14.041  1.00  0.00     0.023 A 
ATOM     73  C   UNL     1      -2.061  -3.297  15.058  1.00  0.00     0.031 A 
ATOM     74  C   UNL     1      -4.139  -2.403  14.224  1.00  0.00     0.131 A 
ATOM     75  C   UNL     1      -2.749  -3.772  16.186  1.00  0.00     0.055 A 
ATOM     76  C   UNL     1      -4.807  -2.827  15.374  1.00  0.00     0.041 A 
ATOM     77  F   UNL     1      -4.859  -1.766  13.287  1.00  0.00    -0.206 F 
ATOM     78  C   UNL     1      -4.114  -3.528  16.357  1.00  0.00     0.022 A 
BRANCH  75  79
ATOM     79  S   UNL     1      -1.855  -4.794  17.390  1.00  0.00     0.124 S 
ATOM     80  O   UNL     1      -1.368  -5.890  16.558  1.00  0.00    -0.237 OA
ATOM     81  O   UNL     1      -0.839  -3.873  17.888  1.00  0.00    -0.237 OA
ATOM     82  O   UNL     1      -2.885  -5.163  18.360  1.00  0.00    -0.744 OA
ENDBRANCH  75  79
ENDBRANCH  49  72
ENDBRANCH  23  24
ENDBRANCH  16  18
ENDBRANCH  15  16
ENDBRANCH  14  15
ENDBRANCH   1  14
TORSDOF 18
