REMARK SMILES CC[NH2+][C@@]1(C(=O)OCCOC(=O)c2ccc(-c3c4nc(c(-c5cc(S(=O)(=O)[O-])ccc5F)c5ccc([nH]5)c(-c5cc(S(=O)(=O)[O-])ccc5F)c5nc(c(-c6cc(S(=O)(=O)[O-])ccc6F)c6ccc3[nH]6)C=C5)C=C4)cc2)CCC[C@@H](Sc2ncc(C)cn2)C1
REMARK SMILES IDX 9 1 8 2 7 3 5 4 6 5 4 6 76 7 88 8 77 9 79 10 78 11 3 12 2 15
REMARK SMILES IDX 1 16 80 17 81 18 82 19 87 20 83 21 86 22 84 23 85 24 10 25
REMARK SMILES IDX 11 26 12 27 13 28 14 29 75 30 15 31 74 32 16 33 17 34 18 35
REMARK SMILES IDX 68 36 19 37 73 38 67 39 69 40 20 41 72 42 66 43 65 44 21 46
REMARK SMILES IDX 53 47 33 48 52 49 34 50 37 51 51 52 70 53 35 54 36 55 50 57
REMARK SMILES IDX 71 58 38 59 22 60 23 61 31 62 24 63 30 64 32 65 29 66 25 67
REMARK SMILES IDX 26 68 27 69 28 70 54 71 55 72 63 73 56 74 62 75 64 76 61 77
REMARK SMILES IDX 57 78 58 79 59 80 60 81 39 82 40 83 48 84 41 85 47 86 49 87
REMARK SMILES IDX 46 88 42 89 43 90 44 91 45 92
REMARK H PARENT 3 13 3 14 69 45 37 56
REMARK Flexibility Score: inf
ROOT
ATOM      1  C   UNL     1      -2.087  -3.813  -2.712  1.00  0.00     0.275 C 
ENDROOT
BRANCH   1   2
ATOM      2  C   UNL     1      -0.919  -4.758  -2.442  1.00  0.00     0.274 C 
BRANCH   2   3
ATOM      3  O   UNL     1      -0.522  -4.664  -1.056  1.00  0.00    -0.457 OA
BRANCH   3   4
ATOM      4  C   UNL     1       0.719  -4.172  -0.784  1.00  0.00     0.368 C 
ATOM      5  O   UNL     1       1.506  -3.780  -1.640  1.00  0.00    -0.245 OA
BRANCH   4   6
ATOM      6  C   UNL     1       1.079  -4.297   0.733  1.00  0.00     0.195 C 
ATOM      7  C   UNL     1       1.819  -5.645   0.910  1.00  0.00     0.081 C 
ATOM      8  C   UNL     1      -0.135  -4.187   1.691  1.00  0.00     0.096 C 
ATOM      9  C   UNL     1       0.896  -6.856   0.902  1.00  0.00     0.008 C 
ATOM     10  C   UNL     1      -0.988  -5.465   1.812  1.00  0.00     0.061 C 
ATOM     11  C   UNL     1      -0.153  -6.733   1.998  1.00  0.00     0.015 C 
BRANCH   6  12
ATOM     12  N   UNL     1       2.109  -3.270   1.107  1.00  0.00    -0.332 N 
ATOM     13  H   UNL     1       2.336  -3.400   2.093  1.00  0.00     0.347 HD
ATOM     14  H   UNL     1       2.894  -3.425   0.475  1.00  0.00     0.347 HD
BRANCH  12  15
ATOM     15  C   UNL     1       1.720  -1.875   0.918  1.00  0.00     0.257 C 
ATOM     16  C   UNL     1       2.733  -0.936   1.563  1.00  0.00     0.071 C 
ENDBRANCH  12  15
ENDBRANCH   6  12
BRANCH  10  17
ATOM     17  S   UNL     1      -2.317  -5.340   3.082  1.00  0.00    -0.083 SA
BRANCH  17  18
ATOM     18  C   UNL     1      -1.363  -5.247   4.573  1.00  0.00     0.187 A 
ATOM     19  N   UNL     1      -0.841  -4.056   4.898  1.00  0.00    -0.231 NA
ATOM     20  N   UNL     1      -1.222  -6.372   5.294  1.00  0.00    -0.231 NA
ATOM     21  C   UNL     1      -0.104  -4.006   6.023  1.00  0.00     0.119 A 
ATOM     22  C   UNL     1      -0.487  -6.263   6.419  1.00  0.00     0.119 A 
ATOM     23  C   UNL     1       0.119  -5.096   6.836  1.00  0.00    -0.014 A 
ATOM     24  C   UNL     1       0.920  -5.017   8.089  1.00  0.00     0.048 C 
ENDBRANCH  17  18
ENDBRANCH  10  17
ENDBRANCH   4   6
ENDBRANCH   3   4
ENDBRANCH   2   3
ENDBRANCH   1   2
BRANCH   1  25
ATOM     25  O   UNL     1      -1.586  -2.474  -2.615  1.00  0.00    -0.458 OA
BRANCH  25  26
ATOM     26  C   UNL     1      -2.460  -1.529  -2.193  1.00  0.00     0.338 C 
ATOM     27  O   UNL     1      -3.659  -1.668  -2.038  1.00  0.00    -0.246 OA
BRANCH  26  28
ATOM     28  C   UNL     1      -1.708  -0.278  -1.924  1.00  0.00     0.060 A 
ATOM     29  C   UNL     1      -0.371  -0.336  -1.528  1.00  0.00     0.016 A 
ATOM     30  C   UNL     1      -2.346   0.960  -1.992  1.00  0.00     0.016 A 
ATOM     31  C   UNL     1       0.298   0.818  -1.118  1.00  0.00     0.010 A 
ATOM     32  C   UNL     1      -1.637   2.129  -1.673  1.00  0.00     0.010 A 
ATOM     33  C   UNL     1      -0.314   2.074  -1.191  1.00  0.00    -0.014 A 
BRANCH  33  34
ATOM     34  C   UNL     1       0.380   3.301  -0.680  1.00  0.00     0.031 A 
ATOM     35  C   UNL     1      -0.311   4.176   0.340  1.00  0.00     0.074 A 
ATOM     36  C   UNL     1       1.632   3.635  -1.063  1.00  0.00     0.049 A 
ATOM     37  N   UNL     1      -0.040   5.402   0.707  1.00  0.00    -0.248 NA
ATOM     38  C   UNL     1      -1.478   3.592   1.018  1.00  0.00     0.031 C 
ATOM     39  C   UNL     1       2.487   2.858  -1.962  1.00  0.00     0.029 A 
ATOM     40  N   UNL     1       2.417   4.714  -0.724  1.00  0.00    -0.354 N 
ATOM     41  C   UNL     1      -1.054   5.769   1.589  1.00  0.00     0.074 A 
ATOM     42  C   UNL     1      -1.938   4.627   1.704  1.00  0.00     0.031 C 
ATOM     43  C   UNL     1       3.691   3.445  -2.046  1.00  0.00     0.029 A 
ATOM     44  C   UNL     1       3.659   4.708  -1.317  1.00  0.00     0.049 A 
ATOM     45  H   UNL     1       2.116   5.426  -0.113  1.00  0.00     0.167 HD
ATOM     46  C   UNL     1      -1.236   6.951   2.231  1.00  0.00     0.034 A 
ATOM     47  C   UNL     1       4.642   5.634  -1.331  1.00  0.00     0.034 A 
ATOM     48  C   UNL     1      -0.306   8.054   2.167  1.00  0.00     0.049 A 
ATOM     49  C   UNL     1       4.410   6.956  -0.641  1.00  0.00     0.074 A 
ATOM     50  C   UNL     1      -0.408   9.308   2.745  1.00  0.00     0.029 A 
ATOM     51  N   UNL     1       0.917   8.023   1.509  1.00  0.00    -0.354 N 
ATOM     52  N   UNL     1       3.368   7.356   0.049  1.00  0.00    -0.248 NA
ATOM     53  C   UNL     1       5.474   7.962  -0.765  1.00  0.00     0.031 C 
ATOM     54  C   UNL     1       0.731  10.048   2.402  1.00  0.00     0.029 A 
ATOM     55  C   UNL     1       1.573   9.235   1.662  1.00  0.00     0.049 A 
ATOM     56  H   UNL     1       1.267   7.252   1.007  1.00  0.00     0.167 HD
ATOM     57  C   UNL     1       3.653   8.662   0.440  1.00  0.00     0.074 A 
ATOM     58  C   UNL     1       4.976   8.969  -0.063  1.00  0.00     0.031 C 
ATOM     59  C   UNL     1       2.885   9.534   1.142  1.00  0.00     0.034 A 
BRANCH  46  60
ATOM     60  C   UNL     1      -2.531   7.135   2.984  1.00  0.00     0.023 A 
ATOM     61  C   UNL     1      -2.854   6.383   4.126  1.00  0.00     0.031 A 
ATOM     62  C   UNL     1      -3.486   8.055   2.510  1.00  0.00     0.131 A 
ATOM     63  C   UNL     1      -4.126   6.508   4.708  1.00  0.00     0.055 A 
ATOM     64  C   UNL     1      -4.718   8.232   3.142  1.00  0.00     0.041 A 
ATOM     65  F   UNL     1      -3.243   8.786   1.411  1.00  0.00    -0.206 F 
ATOM     66  C   UNL     1      -5.051   7.444   4.238  1.00  0.00     0.022 A 
BRANCH  63  67
ATOM     67  S   UNL     1      -4.613   5.324   5.993  1.00  0.00     0.124 S 
ATOM     68  O   UNL     1      -4.457   4.050   5.294  1.00  0.00    -0.237 OA
ATOM     69  O   UNL     1      -3.648   5.594   7.052  1.00  0.00    -0.237 OA
ATOM     70  O   UNL     1      -5.994   5.695   6.296  1.00  0.00    -0.744 OA
ENDBRANCH  63  67
ENDBRANCH  46  60
BRANCH  47  71
ATOM     71  C   UNL     1       5.898   5.399  -2.105  1.00  0.00     0.023 A 
ATOM     72  C   UNL     1       7.149   5.362  -1.467  1.00  0.00     0.031 A 
ATOM     73  C   UNL     1       5.870   5.260  -3.505  1.00  0.00     0.131 A 
ATOM     74  C   UNL     1       8.320   5.221  -2.231  1.00  0.00     0.055 A 
ATOM     75  C   UNL     1       7.031   5.058  -4.252  1.00  0.00     0.041 A 
ATOM     76  F   UNL     1       4.704   5.304  -4.169  1.00  0.00    -0.206 F 
ATOM     77  C   UNL     1       8.267   5.049  -3.616  1.00  0.00     0.022 A 
BRANCH  74  78
ATOM     78  S   UNL     1       9.927   5.351  -1.398  1.00  0.00     0.124 S 
ATOM     79  O   UNL     1       9.857   6.691  -0.826  1.00  0.00    -0.237 OA
ATOM     80  O   UNL     1       9.869   4.244  -0.450  1.00  0.00    -0.237 OA
ATOM     81  O   UNL     1      10.889   5.186  -2.486  1.00  0.00    -0.744 OA
ENDBRANCH  74  78
ENDBRANCH  47  71
BRANCH  59  82
ATOM     82  C   UNL     1       3.483  10.888   1.430  1.00  0.00     0.023 A 
ATOM     83  C   UNL     1       3.692  11.834   0.411  1.00  0.00     0.031 A 
ATOM     84  C   UNL     1       3.870  11.226   2.738  1.00  0.00     0.131 A 
ATOM     85  C   UNL     1       4.319  13.053   0.708  1.00  0.00     0.055 A 
ATOM     86  C   UNL     1       4.450  12.460   3.037  1.00  0.00     0.041 A 
ATOM     87  F   UNL     1       3.695  10.358   3.748  1.00  0.00    -0.206 F 
ATOM     88  C   UNL     1       4.689  13.377   2.016  1.00  0.00     0.022 A 
BRANCH  85  89
ATOM     89  S   UNL     1       4.723  14.183  -0.653  1.00  0.00     0.124 S 
ATOM     90  O   UNL     1       5.583  13.354  -1.492  1.00  0.00    -0.237 OA
ATOM     91  O   UNL     1       3.407  14.495  -1.201  1.00  0.00    -0.237 OA
ATOM     92  O   UNL     1       5.396  15.297   0.013  1.00  0.00    -0.744 OA
ENDBRANCH  85  89
ENDBRANCH  59  82
ENDBRANCH  33  34
ENDBRANCH  26  28
ENDBRANCH  25  26
ENDBRANCH   1  25
TORSDOF 18
