REMARK SMILES C[C@@H](C(=O)OCCOC(=O)c1ccc(-c2c3nc(c(-c4cc(S(=O)(=O)[O-])ccc4F)c4ccc([nH]4)c(-c4cc(S(=O)(=O)[O-])ccc4F)c4nc(c(-c5cc(S(=O)(=O)[O-])ccc5F)c5ccc2[nH]5)C=C4)C=C3)cc1)N1C(=O)/C(=C2/SC(=S)N(c3ccccc3Cl)C2=O)c2ccccc21
REMARK SMILES IDX 7 1 6 2 5 3 3 4 4 5 2 6 1 7 74 8 75 9 97 10 76 11 77 12
REMARK SMILES IDX 92 13 96 14 78 15 93 16 95 17 79 18 90 19 94 20 80 21 82 22
REMARK SMILES IDX 91 23 81 24 83 25 84 26 88 27 85 28 87 29 89 30 86 31 8 32
REMARK SMILES IDX 9 33 10 34 11 35 12 36 73 37 13 38 72 39 14 40 15 41 16 42
REMARK SMILES IDX 66 43 17 44 71 45 65 46 67 47 18 48 70 49 64 50 63 51 19 53
REMARK SMILES IDX 51 54 31 55 50 56 32 57 35 58 49 59 68 60 33 61 34 62 48 64
REMARK SMILES IDX 69 65 36 66 20 67 21 68 29 69 22 70 28 71 30 72 27 73 23 74
REMARK SMILES IDX 24 75 25 76 26 77 52 78 53 79 61 80 54 81 60 82 62 83 59 84
REMARK SMILES IDX 55 85 56 86 57 87 58 88 37 89 38 90 46 91 39 92 45 93 47 94
REMARK SMILES IDX 44 95 40 96 41 97 42 98 43 99
REMARK H PARENT 67 52 35 63
REMARK Flexibility Score: inf
ROOT
ATOM      1  C   UNL     1       1.855   2.357  -3.946  1.00  0.00     0.275 C 
ENDROOT
BRANCH   1   2
ATOM      2  C   UNL     1       2.689   2.040  -2.703  1.00  0.00     0.274 C 
BRANCH   2   3
ATOM      3  O   UNL     1       2.226   0.869  -2.006  1.00  0.00    -0.461 OA
BRANCH   3   4
ATOM      4  C   UNL     1       1.351   1.154  -1.002  1.00  0.00     0.329 C 
ATOM      5  O   UNL     1       0.948   2.293  -0.783  1.00  0.00    -0.250 OA
BRANCH   4   6
ATOM      6  C   UNL     1       0.905  -0.085  -0.199  1.00  0.00     0.197 C 
ATOM      7  C   UNL     1       1.772  -1.322  -0.345  1.00  0.00     0.044 C 
BRANCH   6   8
ATOM      8  N   UNL     1      -0.517  -0.275  -0.369  1.00  0.00    -0.294 N 
ATOM      9  C   UNL     1      -1.381   0.627   0.232  1.00  0.00     0.261 C 
ATOM     10  C   UNL     1      -1.200  -1.060  -1.315  1.00  0.00     0.053 A 
ATOM     11  O   UNL     1      -1.053   1.617   0.890  1.00  0.00    -0.269 OA
ATOM     12  C   UNL     1      -2.756   0.275  -0.219  1.00  0.00     0.069 C 
ATOM     13  C   UNL     1      -2.532  -0.646  -1.369  1.00  0.00     0.012 A 
ATOM     14  C   UNL     1      -0.690  -2.019  -2.193  1.00  0.00     0.027 A 
ATOM     15  C   UNL     1      -3.777   0.784   0.506  1.00  0.00     0.094 C 
ATOM     16  C   UNL     1      -3.209  -0.996  -2.520  1.00  0.00     0.011 A 
ATOM     17  C   UNL     1      -1.491  -2.514  -3.220  1.00  0.00     0.002 A 
ATOM     18  S   UNL     1      -5.480   0.664   0.299  1.00  0.00    -0.053 SA
ATOM     19  C   UNL     1      -3.604   1.585   1.768  1.00  0.00     0.271 C 
ATOM     20  C   UNL     1      -2.740  -1.960  -3.418  1.00  0.00     0.001 A 
ATOM     21  C   UNL     1      -5.832   2.063   1.333  1.00  0.00     0.153 C 
ATOM     22  N   UNL     1      -4.658   2.469   1.927  1.00  0.00    -0.259 N 
ATOM     23  O   UNL     1      -2.813   1.283   2.656  1.00  0.00    -0.268 OA
ATOM     24  S   UNL     1      -7.357   2.725   1.444  1.00  0.00    -0.051 S 
BRANCH  22  25
ATOM     25  C   UNL     1      -4.500   3.542   2.850  1.00  0.00     0.069 A 
ATOM     26  C   UNL     1      -5.267   3.607   4.021  1.00  0.00     0.028 A 
ATOM     27  C   UNL     1      -3.510   4.524   2.638  1.00  0.00     0.065 A 
ATOM     28  C   UNL     1      -5.037   4.614   4.965  1.00  0.00     0.002 A 
ATOM     29  C   UNL     1      -3.284   5.527   3.586  1.00  0.00     0.023 A 
ATOM     30  Cl  UNL     1      -2.615   4.618   1.157  1.00  0.00    -0.082 Cl
ATOM     31  C   UNL     1      -4.044   5.568   4.752  1.00  0.00     0.002 A 
ENDBRANCH  22  25
ENDBRANCH   6   8
ENDBRANCH   4   6
ENDBRANCH   3   4
ENDBRANCH   2   3
ENDBRANCH   1   2
BRANCH   1  32
ATOM     32  O   UNL     1       0.454   2.542  -3.648  1.00  0.00    -0.458 OA
BRANCH  32  33
ATOM     33  C   UNL     1      -0.401   1.731  -4.325  1.00  0.00     0.338 C 
ATOM     34  O   UNL     1      -0.066   0.871  -5.128  1.00  0.00    -0.246 OA
BRANCH  33  35
ATOM     35  C   UNL     1      -1.836   1.999  -4.018  1.00  0.00     0.060 A 
ATOM     36  C   UNL     1      -2.270   2.560  -2.819  1.00  0.00     0.016 A 
ATOM     37  C   UNL     1      -2.800   1.559  -4.941  1.00  0.00     0.016 A 
ATOM     38  C   UNL     1      -3.649   2.581  -2.518  1.00  0.00     0.010 A 
ATOM     39  C   UNL     1      -4.176   1.613  -4.647  1.00  0.00     0.010 A 
ATOM     40  C   UNL     1      -4.630   2.082  -3.408  1.00  0.00    -0.014 A 
BRANCH  40  41
ATOM     41  C   UNL     1      -6.098   2.033  -3.077  1.00  0.00     0.031 A 
ATOM     42  C   UNL     1      -6.922   0.759  -3.183  1.00  0.00     0.074 A 
ATOM     43  C   UNL     1      -6.745   3.125  -2.640  1.00  0.00     0.049 A 
ATOM     44  N   UNL     1      -8.122   0.528  -3.648  1.00  0.00    -0.248 NA
ATOM     45  C   UNL     1      -6.300  -0.458  -2.697  1.00  0.00     0.031 C 
ATOM     46  C   UNL     1      -6.149   4.430  -2.357  1.00  0.00     0.029 A 
ATOM     47  N   UNL     1      -8.071   3.287  -2.343  1.00  0.00    -0.354 N 
ATOM     48  C   UNL     1      -8.256  -0.871  -3.686  1.00  0.00     0.074 A 
ATOM     49  C   UNL     1      -7.019  -1.432  -3.221  1.00  0.00     0.031 C 
ATOM     50  C   UNL     1      -7.100   5.247  -1.883  1.00  0.00     0.029 A 
ATOM     51  C   UNL     1      -8.385   4.562  -1.951  1.00  0.00     0.049 A 
ATOM     52  H   UNL     1      -8.732   2.560  -2.404  1.00  0.00     0.167 HD
ATOM     53  C   UNL     1      -9.351  -1.631  -3.928  1.00  0.00     0.034 A 
ATOM     54  C   UNL     1      -9.587   5.125  -1.740  1.00  0.00     0.034 A 
ATOM     55  C   UNL     1     -10.672  -1.065  -3.871  1.00  0.00     0.049 A 
ATOM     56  C   UNL     1     -10.815   4.280  -1.946  1.00  0.00     0.074 A 
ATOM     57  C   UNL     1     -11.895  -1.677  -4.065  1.00  0.00     0.029 A 
ATOM     58  N   UNL     1     -10.930   0.232  -3.445  1.00  0.00    -0.354 N 
ATOM     59  N   UNL     1     -10.906   3.040  -2.377  1.00  0.00    -0.248 NA
ATOM     60  C   UNL     1     -12.101   4.915  -1.648  1.00  0.00     0.031 C 
ATOM     61  C   UNL     1     -12.894  -0.750  -3.746  1.00  0.00     0.029 A 
ATOM     62  C   UNL     1     -12.290   0.424  -3.319  1.00  0.00     0.049 A 
ATOM     63  H   UNL     1     -10.244   0.913  -3.259  1.00  0.00     0.167 HD
ATOM     64  C   UNL     1     -12.265   2.749  -2.405  1.00  0.00     0.074 A 
ATOM     65  C   UNL     1     -12.948   3.931  -1.912  1.00  0.00     0.031 C 
ATOM     66  C   UNL     1     -12.908   1.624  -2.817  1.00  0.00     0.034 A 
BRANCH  53  67
ATOM     67  C   UNL     1      -9.178  -3.099  -4.283  1.00  0.00     0.023 A 
ATOM     68  C   UNL     1      -8.654  -4.086  -3.427  1.00  0.00     0.031 A 
ATOM     69  C   UNL     1      -9.544  -3.508  -5.582  1.00  0.00     0.131 A 
ATOM     70  C   UNL     1      -8.427  -5.391  -3.906  1.00  0.00     0.055 A 
ATOM     71  C   UNL     1      -9.410  -4.828  -6.019  1.00  0.00     0.041 A 
ATOM     72  F   UNL     1     -10.039  -2.620  -6.460  1.00  0.00    -0.206 F 
ATOM     73  C   UNL     1      -8.830  -5.776  -5.186  1.00  0.00     0.022 A 
BRANCH  70  74
ATOM     74  S   UNL     1      -7.467  -6.553  -2.889  1.00  0.00     0.124 S 
ATOM     75  O   UNL     1      -6.189  -5.855  -2.771  1.00  0.00    -0.237 OA
ATOM     76  O   UNL     1      -8.262  -6.638  -1.669  1.00  0.00    -0.237 OA
ATOM     77  O   UNL     1      -7.431  -7.771  -3.696  1.00  0.00    -0.744 OA
ENDBRANCH  70  74
ENDBRANCH  53  67
BRANCH  54  78
ATOM     78  C   UNL     1      -9.659   6.567  -1.385  1.00  0.00     0.023 A 
ATOM     79  C   UNL     1     -10.098   6.983  -0.121  1.00  0.00     0.031 A 
ATOM     80  C   UNL     1      -9.226   7.550  -2.296  1.00  0.00     0.131 A 
ATOM     81  C   UNL     1     -10.101   8.350   0.197  1.00  0.00     0.055 A 
ATOM     82  C   UNL     1      -9.181   8.901  -1.956  1.00  0.00     0.041 A 
ATOM     83  F   UNL     1      -8.786   7.200  -3.516  1.00  0.00    -0.206 F 
ATOM     84  C   UNL     1      -9.627   9.308  -0.704  1.00  0.00     0.022 A 
BRANCH  81  85
ATOM     85  S   UNL     1     -10.779   8.870   1.796  1.00  0.00     0.124 S 
ATOM     86  O   UNL     1     -12.129   8.319   1.743  1.00  0.00    -0.237 OA
ATOM     87  O   UNL     1      -9.863   8.235   2.737  1.00  0.00    -0.237 OA
ATOM     88  O   UNL     1     -10.700  10.328   1.741  1.00  0.00    -0.744 OA
ENDBRANCH  81  85
ENDBRANCH  54  78
BRANCH  66  89
ATOM     89  C   UNL     1     -14.404   1.640  -2.717  1.00  0.00     0.023 A 
ATOM     90  C   UNL     1     -15.168   2.421  -3.597  1.00  0.00     0.031 A 
ATOM     91  C   UNL     1     -15.064   0.887  -1.733  1.00  0.00     0.131 A 
ATOM     92  C   UNL     1     -16.556   2.484  -3.435  1.00  0.00     0.055 A 
ATOM     93  C   UNL     1     -16.452   0.913  -1.610  1.00  0.00     0.041 A 
ATOM     94  F   UNL     1     -14.369   0.120  -0.877  1.00  0.00    -0.206 F 
ATOM     95  C   UNL     1     -17.204   1.727  -2.454  1.00  0.00     0.022 A 
BRANCH  92  96
ATOM     96  S   UNL     1     -17.487   3.647  -4.465  1.00  0.00     0.124 S 
ATOM     97  O   UNL     1     -16.851   4.919  -4.136  1.00  0.00    -0.237 OA
ATOM     98  O   UNL     1     -17.239   3.139  -5.810  1.00  0.00    -0.237 OA
ATOM     99  O   UNL     1     -18.861   3.499  -3.989  1.00  0.00    -0.744 OA
ENDBRANCH  92  96
ENDBRANCH  66  89
ENDBRANCH  40  41
ENDBRANCH  33  35
ENDBRANCH  32  33
ENDBRANCH   1  32
TORSDOF 16
