REMARK SMILES O=C(CNC(=O)N1CC(OCCOC(=O)c2ccc(-c3c4nc(c(-c5cc(S(=O)(=O)[O-])ccc5F)c5ccc([nH]5)c(-c5cc(S(=O)(=O)[O-])ccc5F)c5nc(c(-c6cc(S(=O)(=O)[O-])ccc6F)c6ccc3[nH]6)C=C5)C=C4)cc2)=Nc2ccccc21)N[C@H](C(=O)[O-])c1ccccc1
REMARK SMILES IDX 11 1 10 2 9 3 7 4 8 5 85 6 80 7 84 8 79 9 81 10 83 11 82 12
REMARK SMILES IDX 5 13 4 14 6 16 3 17 2 18 1 19 86 20 87 22 91 23 92 24 96 25
REMARK SMILES IDX 93 26 95 27 94 28 88 29 89 30 90 31 12 32 13 33 14 34 15 35
REMARK SMILES IDX 16 36 17 37 78 38 18 39 77 40 19 41 20 42 21 43 71 44 22 45
REMARK SMILES IDX 76 46 70 47 72 48 23 49 75 50 69 51 68 52 24 54 56 55 36 56
REMARK SMILES IDX 55 57 37 58 40 59 54 60 73 61 38 62 39 63 53 65 74 66 41 67
REMARK SMILES IDX 25 68 26 69 34 70 27 71 33 72 35 73 32 74 28 75 29 76 30 77
REMARK SMILES IDX 31 78 57 79 58 80 66 81 59 82 65 83 67 84 64 85 60 86 61 87
REMARK SMILES IDX 62 88 63 89 42 90 43 91 51 92 44 93 50 94 52 95 49 96 45 97
REMARK SMILES IDX 46 98 47 99 48 100
REMARK H PARENT 4 15 86 21 72 53 40 64
REMARK Flexibility Score: inf
ROOT
ATOM      1  C   UNL     1       2.916   4.533   2.783  1.00  0.00     0.272 C 
ENDROOT
BRANCH   1   2
ATOM      2  O   UNL     1       2.665   5.432   1.676  1.00  0.00    -0.476 OA
BRANCH   2   3
ATOM      3  C   UNL     1       3.717   6.073   1.107  1.00  0.00     0.209 C 
ATOM      4  N   UNL     1       4.522   6.710  -1.114  1.00  0.00    -0.283 N 
ATOM      5  C   UNL     1       3.372   6.682  -0.230  1.00  0.00     0.224 C 
ATOM      6  C   UNL     1       5.795   6.930  -0.505  1.00  0.00     0.072 A 
ATOM      7  C   UNL     1       5.915   6.718   0.899  1.00  0.00     0.091 A 
ATOM      8  C   UNL     1       6.950   7.179  -1.257  1.00  0.00     0.029 A 
ATOM      9  N   UNL     1       4.867   6.194   1.689  1.00  0.00    -0.214 NA
ATOM     10  C   UNL     1       7.182   6.741   1.499  1.00  0.00     0.030 A 
ATOM     11  C   UNL     1       8.209   7.176  -0.638  1.00  0.00     0.002 A 
ATOM     12  C   UNL     1       8.326   6.950   0.733  1.00  0.00     0.002 A 
BRANCH   4  13
ATOM     13  C   UNL     1       4.244   6.801  -2.459  1.00  0.00     0.322 C 
ATOM     14  N   UNL     1       4.236   5.631  -3.173  1.00  0.00    -0.329 N 
ATOM     15  H   UNL     1       3.663   5.606  -3.974  1.00  0.00     0.165 HD
ATOM     16  O   UNL     1       3.821   7.836  -2.973  1.00  0.00    -0.248 OA
BRANCH  14  17
ATOM     17  C   UNL     1       4.987   4.422  -2.869  1.00  0.00     0.218 C 
BRANCH  17  18
ATOM     18  C   UNL     1       4.390   3.014  -3.033  1.00  0.00     0.240 C 
ATOM     19  O   UNL     1       5.131   2.082  -3.337  1.00  0.00    -0.273 OA
ATOM     20  N   UNL     1       3.069   2.871  -2.673  1.00  0.00    -0.342 N 
ATOM     21  H   UNL     1       2.561   3.686  -2.455  1.00  0.00     0.164 HD
BRANCH  20  22
ATOM     22  C   UNL     1       2.353   1.559  -2.592  1.00  0.00     0.158 C 
BRANCH  22  23
ATOM     23  C   UNL     1       2.506   0.687  -3.839  1.00  0.00    -0.020 A 
ATOM     24  C   UNL     1       2.469  -0.716  -3.793  1.00  0.00     0.006 A 
ATOM     25  C   UNL     1       2.665   1.289  -5.103  1.00  0.00     0.006 A 
ATOM     26  C   UNL     1       2.669  -1.482  -4.949  1.00  0.00     0.000 A 
ATOM     27  C   UNL     1       2.896   0.528  -6.250  1.00  0.00     0.000 A 
ATOM     28  C   UNL     1       2.905  -0.859  -6.172  1.00  0.00     0.000 A 
ENDBRANCH  22  23
BRANCH  22  29
ATOM     29  C   UNL     1       2.490   0.848  -1.189  1.00  0.00     0.068 C 
ATOM     30  O   UNL     1       3.520   0.154  -0.948  1.00  0.00    -0.548 OA
ATOM     31  O   UNL     1       1.516   1.068  -0.392  1.00  0.00    -0.548 OA
ENDBRANCH  22  29
ENDBRANCH  20  22
ENDBRANCH  17  18
ENDBRANCH  14  17
ENDBRANCH   4  13
ENDBRANCH   2   3
ENDBRANCH   1   2
BRANCH   1  32
ATOM     32  C   UNL     1       2.998   3.052   2.361  1.00  0.00     0.274 C 
BRANCH  32  33
ATOM     33  O   UNL     1       4.333   2.619   2.002  1.00  0.00    -0.458 OA
BRANCH  33  34
ATOM     34  C   UNL     1       4.613   2.804   0.692  1.00  0.00     0.338 C 
ATOM     35  O   UNL     1       3.903   3.447  -0.083  1.00  0.00    -0.246 OA
BRANCH  34  36
ATOM     36  C   UNL     1       6.018   2.477   0.340  1.00  0.00     0.060 A 
ATOM     37  C   UNL     1       6.735   3.571  -0.115  1.00  0.00     0.016 A 
ATOM     38  C   UNL     1       6.593   1.218   0.204  1.00  0.00     0.016 A 
ATOM     39  C   UNL     1       7.918   3.454  -0.819  1.00  0.00     0.010 A 
ATOM     40  C   UNL     1       7.863   1.092  -0.428  1.00  0.00     0.010 A 
ATOM     41  C   UNL     1       8.521   2.212  -0.979  1.00  0.00    -0.014 A 
BRANCH  41  42
ATOM     42  C   UNL     1       9.752   2.196  -1.829  1.00  0.00     0.031 A 
ATOM     43  C   UNL     1       9.697   1.622  -3.223  1.00  0.00     0.074 A 
ATOM     44  C   UNL     1      10.826   2.939  -1.473  1.00  0.00     0.049 A 
ATOM     45  N   UNL     1      10.643   1.564  -4.130  1.00  0.00    -0.248 NA
ATOM     46  C   UNL     1       8.405   1.082  -3.666  1.00  0.00     0.031 C 
ATOM     47  C   UNL     1      10.928   3.724  -0.238  1.00  0.00     0.029 A 
ATOM     48  N   UNL     1      11.999   3.226  -2.134  1.00  0.00    -0.354 N 
ATOM     49  C   UNL     1      10.066   0.954  -5.241  1.00  0.00     0.074 A 
ATOM     50  C   UNL     1       8.686   0.684  -4.899  1.00  0.00     0.031 C 
ATOM     51  C   UNL     1      12.055   4.451  -0.267  1.00  0.00     0.029 A 
ATOM     52  C   UNL     1      12.821   4.106  -1.461  1.00  0.00     0.049 A 
ATOM     53  H   UNL     1      12.231   2.838  -3.008  1.00  0.00     0.167 HD
ATOM     54  C   UNL     1      10.646   0.623  -6.423  1.00  0.00     0.034 A 
ATOM     55  C   UNL     1      14.064   4.555  -1.743  1.00  0.00     0.034 A 
ATOM     56  C   UNL     1      12.033   0.880  -6.741  1.00  0.00     0.049 A 
ATOM     57  C   UNL     1      14.738   4.051  -2.998  1.00  0.00     0.074 A 
ATOM     58  C   UNL     1      12.766   0.450  -7.835  1.00  0.00     0.029 A 
ATOM     59  N   UNL     1      12.899   1.642  -5.965  1.00  0.00    -0.354 N 
ATOM     60  N   UNL     1      14.245   3.309  -3.962  1.00  0.00    -0.248 NA
ATOM     61  C   UNL     1      16.147   4.422  -3.189  1.00  0.00     0.031 C 
ATOM     62  C   UNL     1      14.085   0.900  -7.689  1.00  0.00     0.029 A 
ATOM     63  C   UNL     1      14.162   1.676  -6.544  1.00  0.00     0.049 A 
ATOM     64  H   UNL     1      12.653   2.092  -5.125  1.00  0.00     0.167 HD
ATOM     65  C   UNL     1      15.280   3.133  -4.876  1.00  0.00     0.074 A 
ATOM     66  C   UNL     1      16.412   3.880  -4.368  1.00  0.00     0.031 C 
ATOM     67  C   UNL     1      15.295   2.410  -6.026  1.00  0.00     0.034 A 
BRANCH  54  68
ATOM     68  C   UNL     1       9.812  -0.196  -7.380  1.00  0.00     0.023 A 
ATOM     69  C   UNL     1       8.727   0.334  -8.105  1.00  0.00     0.031 A 
ATOM     70  C   UNL     1      10.097  -1.567  -7.525  1.00  0.00     0.131 A 
ATOM     71  C   UNL     1       7.948  -0.513  -8.914  1.00  0.00     0.055 A 
ATOM     72  C   UNL     1       9.344  -2.394  -8.357  1.00  0.00     0.041 A 
ATOM     73  F   UNL     1      11.114  -2.128  -6.850  1.00  0.00    -0.206 F 
ATOM     74  C   UNL     1       8.257  -1.871  -9.048  1.00  0.00     0.022 A 
BRANCH  71  75
ATOM     75  S   UNL     1       6.473   0.145  -9.750  1.00  0.00     0.124 S 
ATOM     76  O   UNL     1       5.738   0.771  -8.658  1.00  0.00    -0.237 OA
ATOM     77  O   UNL     1       7.053   1.054 -10.734  1.00  0.00    -0.237 OA
ATOM     78  O   UNL     1       5.838  -1.046 -10.314  1.00  0.00    -0.744 OA
ENDBRANCH  71  75
ENDBRANCH  54  68
BRANCH  55  79
ATOM     79  C   UNL     1      14.811   5.433  -0.784  1.00  0.00     0.023 A 
ATOM     80  C   UNL     1      15.353   6.672  -1.174  1.00  0.00     0.031 A 
ATOM     81  C   UNL     1      15.081   4.992   0.527  1.00  0.00     0.131 A 
ATOM     82  C   UNL     1      16.168   7.395  -0.284  1.00  0.00     0.055 A 
ATOM     83  C   UNL     1      15.828   5.750   1.430  1.00  0.00     0.041 A 
ATOM     84  F   UNL     1      14.624   3.805   0.955  1.00  0.00    -0.206 F 
ATOM     85  C   UNL     1      16.390   6.952   1.021  1.00  0.00     0.022 A 
BRANCH  82  86
ATOM     86  S   UNL     1      17.047   8.867  -0.889  1.00  0.00     0.124 S 
ATOM     87  O   UNL     1      17.809   8.325  -2.004  1.00  0.00    -0.237 OA
ATOM     88  O   UNL     1      15.945   9.761  -1.235  1.00  0.00    -0.237 OA
ATOM     89  O   UNL     1      17.843   9.287   0.264  1.00  0.00    -0.744 OA
ENDBRANCH  82  86
ENDBRANCH  55  79
BRANCH  67  90
ATOM     90  C   UNL     1      16.578   2.428  -6.827  1.00  0.00     0.023 A 
ATOM     91  C   UNL     1      17.773   1.868  -6.336  1.00  0.00     0.031 A 
ATOM     92  C   UNL     1      16.612   3.049  -8.088  1.00  0.00     0.131 A 
ATOM     93  C   UNL     1      18.962   1.994  -7.072  1.00  0.00     0.055 A 
ATOM     94  C   UNL     1      17.785   3.119  -8.842  1.00  0.00     0.041 A 
ATOM     95  F   UNL     1      15.507   3.607  -8.607  1.00  0.00    -0.206 F 
ATOM     96  C   UNL     1      18.972   2.604  -8.329  1.00  0.00     0.022 A 
BRANCH  93  97
ATOM     97  S   UNL     1      20.524   1.450  -6.322  1.00  0.00     0.124 S 
ATOM     98  O   UNL     1      20.547   2.204  -5.074  1.00  0.00    -0.237 OA
ATOM     99  O   UNL     1      20.326   0.010  -6.195  1.00  0.00    -0.237 OA
ATOM    100  O   UNL     1      21.534   1.848  -7.303  1.00  0.00    -0.744 OA
ENDBRANCH  93  97
ENDBRANCH  67  90
ENDBRANCH  41  42
ENDBRANCH  34  36
ENDBRANCH  33  34
ENDBRANCH  32  33
ENDBRANCH   1  32
TORSDOF 19
