REMARK SMILES Cc1cccc(C(=O)Nc2ccc(-c3nnc(S[C@H](C(=O)OCCOC(=O)c4ccc(-c5c6nc(c(-c7cc(S(=O)(=O)[O-])ccc7F)c7ccc([nH]7)c(-c7cc(S(=O)(=O)[O-])ccc7F)c7nc(c(-c8cc(S(=O)(=O)[O-])ccc8F)c8ccc5[nH]8)C=C7)C=C6)cc4)C(C)C)n3C)cc2)c1
REMARK SMILES IDX 23 1 22 2 20 3 21 4 19 5 18 6 17 7 14 8 15 9 94 10 16 11
REMARK SMILES IDX 95 12 13 13 10 14 11 15 97 16 12 17 96 18 9 19 7 20 8 21
REMARK SMILES IDX 6 23 1 24 2 25 3 26 98 27 4 28 5 29 91 30 92 31 93 32 24 33
REMARK SMILES IDX 25 34 26 35 27 36 28 37 29 38 90 39 30 40 89 41 31 42 32 43
REMARK SMILES IDX 33 44 83 45 34 46 88 47 82 48 84 49 35 50 87 51 81 52 80 53
REMARK SMILES IDX 36 55 68 56 48 57 67 58 49 59 52 60 66 61 85 62 50 63 51 64
REMARK SMILES IDX 65 66 86 67 53 68 37 69 38 70 46 71 39 72 45 73 47 74 44 75
REMARK SMILES IDX 40 76 41 77 42 78 43 79 69 80 70 81 78 82 71 83 77 84 79 85
REMARK SMILES IDX 76 86 72 87 73 88 74 89 75 90 54 91 55 92 63 93 56 94 62 95
REMARK SMILES IDX 64 96 61 97 57 98 58 99 59 100 60 101
REMARK H PARENT 9 22 84 54 52 65
REMARK Flexibility Score: inf
ROOT
ATOM      1  C   UNL     1       5.752   5.196   0.624  1.00  0.00     0.274 C 
ENDROOT
BRANCH   1   2
ATOM      2  O   UNL     1       6.061   5.135  -0.787  1.00  0.00    -0.461 OA
BRANCH   2   3
ATOM      3  C   UNL     1       5.040   4.937  -1.660  1.00  0.00     0.319 C 
ATOM      4  O   UNL     1       3.856   4.918  -1.312  1.00  0.00    -0.251 OA
BRANCH   3   5
ATOM      5  C   UNL     1       5.555   4.869  -3.110  1.00  0.00     0.167 C 
BRANCH   5   6
ATOM      6  S   UNL     1       4.402   3.788  -4.092  1.00  0.00    -0.071 SA
BRANCH   6   7
ATOM      7  C   UNL     1       5.038   2.201  -3.849  1.00  0.00     0.192 A 
ATOM      8  C   UNL     1       5.108   0.110  -3.206  1.00  0.00     0.164 A 
ATOM      9  N   UNL     1       6.334   0.480  -3.536  1.00  0.00    -0.129 NA
ATOM     10  N   UNL     1       4.257   1.100  -3.644  1.00  0.00    -0.305 N 
ATOM     11  N   UNL     1       6.286   1.809  -3.941  1.00  0.00    -0.123 NA
ATOM     12  C   UNL     1       2.909   0.887  -4.095  1.00  0.00     0.154 C 
BRANCH   8  13
ATOM     13  C   UNL     1       4.680  -1.106  -2.518  1.00  0.00     0.019 A 
ATOM     14  C   UNL     1       3.933  -3.442  -1.118  1.00  0.00     0.041 A 
ATOM     15  C   UNL     1       3.709  -2.185  -0.554  1.00  0.00     0.027 A 
ATOM     16  C   UNL     1       4.451  -3.522  -2.415  1.00  0.00     0.027 A 
ATOM     17  C   UNL     1       4.102  -1.028  -1.240  1.00  0.00     0.014 A 
ATOM     18  C   UNL     1       4.839  -2.364  -3.103  1.00  0.00     0.014 A 
BRANCH  14  19
ATOM     19  N   UNL     1       3.661  -4.575  -0.328  1.00  0.00    -0.322 N 
ATOM     20  C   UNL     1       4.278  -5.813  -0.299  1.00  0.00     0.255 C 
ATOM     21  O   UNL     1       3.695  -6.765   0.222  1.00  0.00    -0.269 OA
ATOM     22  H   UNL     1       2.915  -4.469   0.305  1.00  0.00     0.170 HD
BRANCH  20  23
ATOM     23  C   UNL     1       5.670  -6.001  -0.802  1.00  0.00     0.040 A 
ATOM     24  C   UNL     1       8.766  -3.929  -1.540  1.00  0.00     0.044 C 
ATOM     25  C   UNL     1       7.857  -5.114  -1.400  1.00  0.00    -0.050 A 
ATOM     26  C   UNL     1       8.236  -6.376  -1.863  1.00  0.00     0.003 A 
ATOM     27  C   UNL     1       6.604  -4.958  -0.799  1.00  0.00     0.017 A 
ATOM     28  C   UNL     1       7.355  -7.455  -1.764  1.00  0.00     0.001 A 
ATOM     29  C   UNL     1       6.068  -7.266  -1.251  1.00  0.00     0.014 A 
ENDBRANCH  20  23
ENDBRANCH  14  19
ENDBRANCH   8  13
ENDBRANCH   6   7
ENDBRANCH   5   6
BRANCH   5  30
ATOM     30  C   UNL     1       5.627   6.314  -3.699  1.00  0.00     0.007 C 
ATOM     31  C   UNL     1       6.783   7.132  -3.094  1.00  0.00     0.009 C 
ATOM     32  C   UNL     1       5.790   6.370  -5.226  1.00  0.00     0.009 C 
ENDBRANCH   5  30
ENDBRANCH   3   5
ENDBRANCH   2   3
ENDBRANCH   1   2
BRANCH   1  33
ATOM     33  C   UNL     1       5.431   3.821   1.249  1.00  0.00     0.275 C 
BRANCH  33  34
ATOM     34  O   UNL     1       6.540   2.909   1.183  1.00  0.00    -0.458 OA
BRANCH  34  35
ATOM     35  C   UNL     1       6.788   2.419  -0.052  1.00  0.00     0.338 C 
ATOM     36  O   UNL     1       5.902   1.941  -0.791  1.00  0.00    -0.246 OA
BRANCH  35  37
ATOM     37  C   UNL     1       8.054   3.011  -0.549  1.00  0.00     0.060 A 
ATOM     38  C   UNL     1       8.466   2.857  -1.880  1.00  0.00     0.016 A 
ATOM     39  C   UNL     1       8.631   4.013   0.238  1.00  0.00     0.016 A 
ATOM     40  C   UNL     1       9.411   3.725  -2.432  1.00  0.00     0.010 A 
ATOM     41  C   UNL     1       9.409   4.981  -0.342  1.00  0.00     0.010 A 
ATOM     42  C   UNL     1       9.884   4.779  -1.643  1.00  0.00    -0.014 A 
BRANCH  42  43
ATOM     43  C   UNL     1      11.227   5.322  -1.778  1.00  0.00     0.031 A 
ATOM     44  C   UNL     1      11.577   6.633  -2.317  1.00  0.00     0.074 A 
ATOM     45  C   UNL     1      12.094   4.671  -0.970  1.00  0.00     0.049 A 
ATOM     46  N   UNL     1      12.729   6.880  -2.844  1.00  0.00    -0.248 NA
ATOM     47  C   UNL     1      10.693   7.791  -2.251  1.00  0.00     0.031 C 
ATOM     48  C   UNL     1      13.353   5.114  -0.409  1.00  0.00     0.029 A 
ATOM     49  N   UNL     1      11.956   3.367  -0.494  1.00  0.00    -0.354 N 
ATOM     50  C   UNL     1      12.865   8.248  -2.833  1.00  0.00     0.074 A 
ATOM     51  C   UNL     1      11.532   8.772  -2.609  1.00  0.00     0.031 C 
ATOM     52  C   UNL     1      13.992   4.035   0.084  1.00  0.00     0.029 A 
ATOM     53  C   UNL     1      13.224   2.852  -0.286  1.00  0.00     0.049 A 
ATOM     54  H   UNL     1      11.106   2.896  -0.334  1.00  0.00     0.167 HD
ATOM     55  C   UNL     1      14.099   8.822  -2.744  1.00  0.00     0.034 A 
ATOM     56  C   UNL     1      13.646   1.774  -1.006  1.00  0.00     0.034 A 
ATOM     57  C   UNL     1      15.142   7.831  -2.457  1.00  0.00     0.049 A 
ATOM     58  C   UNL     1      14.763   2.177  -1.950  1.00  0.00     0.074 A 
ATOM     59  C   UNL     1      15.852   7.539  -1.302  1.00  0.00     0.029 A 
ATOM     60  N   UNL     1      15.376   6.770  -3.326  1.00  0.00    -0.354 N 
ATOM     61  N   UNL     1      15.149   3.407  -2.147  1.00  0.00    -0.248 NA
ATOM     62  C   UNL     1      15.499   1.236  -2.779  1.00  0.00     0.031 C 
ATOM     63  C   UNL     1      16.501   6.288  -1.478  1.00  0.00     0.029 A 
ATOM     64  C   UNL     1      16.207   5.825  -2.747  1.00  0.00     0.049 A 
ATOM     65  H   UNL     1      14.999   6.699  -4.233  1.00  0.00     0.167 HD
ATOM     66  C   UNL     1      16.126   3.459  -3.104  1.00  0.00     0.074 A 
ATOM     67  C   UNL     1      16.321   2.060  -3.453  1.00  0.00     0.031 C 
ATOM     68  C   UNL     1      16.649   4.660  -3.512  1.00  0.00     0.034 A 
BRANCH  55  69
ATOM     69  C   UNL     1      14.284  10.310  -2.555  1.00  0.00     0.023 A 
ATOM     70  C   UNL     1      15.331  10.805  -1.754  1.00  0.00     0.031 A 
ATOM     71  C   UNL     1      13.465  11.284  -3.160  1.00  0.00     0.131 A 
ATOM     72  C   UNL     1      15.471  12.180  -1.495  1.00  0.00     0.055 A 
ATOM     73  C   UNL     1      13.580  12.652  -2.877  1.00  0.00     0.041 A 
ATOM     74  F   UNL     1      12.530  10.941  -4.061  1.00  0.00    -0.206 F 
ATOM     75  C   UNL     1      14.579  13.107  -2.026  1.00  0.00     0.022 A 
BRANCH  72  76
ATOM     76  S   UNL     1      16.851  12.737  -0.456  1.00  0.00     0.124 S 
ATOM     77  O   UNL     1      16.576  12.063   0.808  1.00  0.00    -0.237 OA
ATOM     78  O   UNL     1      18.012  12.261  -1.202  1.00  0.00    -0.237 OA
ATOM     79  O   UNL     1      16.690  14.190  -0.428  1.00  0.00    -0.744 OA
ENDBRANCH  72  76
ENDBRANCH  55  69
BRANCH  56  80
ATOM     80  C   UNL     1      12.565   0.773  -1.306  1.00  0.00     0.023 A 
ATOM     81  C   UNL     1      11.855   0.213  -0.214  1.00  0.00     0.031 A 
ATOM     82  C   UNL     1      11.996   0.630  -2.582  1.00  0.00     0.131 A 
ATOM     83  C   UNL     1      10.584  -0.358  -0.397  1.00  0.00     0.055 A 
ATOM     84  C   UNL     1      10.741   0.029  -2.764  1.00  0.00     0.041 A 
ATOM     85  F   UNL     1      12.583   1.172  -3.657  1.00  0.00    -0.206 F 
ATOM     86  C   UNL     1      10.015  -0.433  -1.668  1.00  0.00     0.022 A 
BRANCH  83  87
ATOM     87  S   UNL     1       9.587  -0.801   1.062  1.00  0.00     0.124 S 
ATOM     88  O   UNL     1       9.971  -2.201   1.269  1.00  0.00    -0.237 OA
ATOM     89  O   UNL     1      10.030   0.135   2.070  1.00  0.00    -0.237 OA
ATOM     90  O   UNL     1       8.210  -0.602   0.597  1.00  0.00    -0.744 OA
ENDBRANCH  83  87
ENDBRANCH  56  80
BRANCH  68  91
ATOM     91  C   UNL     1      17.674   4.894  -4.612  1.00  0.00     0.023 A 
ATOM     92  C   UNL     1      18.169   3.887  -5.445  1.00  0.00     0.031 A 
ATOM     93  C   UNL     1      18.192   6.192  -4.870  1.00  0.00     0.131 A 
ATOM     94  C   UNL     1      19.139   4.154  -6.429  1.00  0.00     0.055 A 
ATOM     95  C   UNL     1      19.111   6.469  -5.886  1.00  0.00     0.041 A 
ATOM     96  F   UNL     1      17.838   7.264  -4.146  1.00  0.00    -0.206 F 
ATOM     97  C   UNL     1      19.601   5.443  -6.671  1.00  0.00     0.022 A 
BRANCH  94  98
ATOM     98  S   UNL     1      19.824   2.750  -7.343  1.00  0.00     0.124 S 
ATOM     99  O   UNL     1      20.390   1.937  -6.270  1.00  0.00    -0.237 OA
ATOM    100  O   UNL     1      18.641   2.199  -7.996  1.00  0.00    -0.237 OA
ATOM    101  O   UNL     1      20.801   3.365  -8.239  1.00  0.00    -0.744 OA
ENDBRANCH  94  98
ENDBRANCH  68  91
ENDBRANCH  42  43
ENDBRANCH  35  37
ENDBRANCH  34  35
ENDBRANCH  33  34
ENDBRANCH   1  33
TORSDOF 20
