REMARK SMILES O=C(OCCOC(=O)[C@H]1CCCCN1S(=O)(=O)c1cc[nH]c1)c1ccc(-c2c3nc(c(-c4cc(S(=O)(=O)[O-])ccc4F)c4ccc([nH]4)c(-c4cc(S(=O)(=O)[O-])ccc4F)c4nc(c(-c5cc(S(=O)(=O)[O-])ccc5F)c5ccc2[nH]5)C=C4)C=C3)cc1
REMARK SMILES IDX 4 1 3 2 2 3 1 4 23 5 24 6 85 7 25 8 84 9 26 10 27 11 28 12
REMARK SMILES IDX 78 13 29 14 83 15 77 16 79 17 30 18 82 19 76 20 75 21 31 23
REMARK SMILES IDX 63 24 43 25 62 26 44 27 47 28 61 29 80 30 45 31 46 32 60 34
REMARK SMILES IDX 81 35 48 36 32 37 33 38 41 39 34 40 40 41 42 42 39 43 35 44
REMARK SMILES IDX 36 45 37 46 38 47 64 48 65 49 73 50 66 51 72 52 74 53 71 54
REMARK SMILES IDX 67 55 68 56 69 57 70 58 49 59 50 60 58 61 51 62 57 63 59 64
REMARK SMILES IDX 56 65 52 66 53 67 54 68 55 69 5 70 6 71 7 72 8 73 9 74 10 75
REMARK SMILES IDX 14 76 11 77 13 78 12 79 15 80 16 81 17 82 18 83 19 84 22 85
REMARK SMILES IDX 20 86 21 87
REMARK H PARENT 79 22 47 33 21 88
REMARK Flexibility Score: inf
ROOT
ATOM      1  C   UNL     1      -2.198   1.089   3.080  1.00  0.00     0.275 C 
ENDROOT
BRANCH   1   2
ATOM      2  O   UNL     1      -2.421   2.492   3.081  1.00  0.00    -0.458 OA
BRANCH   2   3
ATOM      3  C   UNL     1      -1.347   3.244   3.323  1.00  0.00     0.338 C 
ATOM      4  O   UNL     1      -1.183   4.331   2.785  1.00  0.00    -0.246 OA
BRANCH   3   5
ATOM      5  C   UNL     1      -0.277   2.639   4.175  1.00  0.00     0.060 A 
ATOM      6  C   UNL     1      -0.387   2.551   5.857  1.00  0.00     0.016 A 
ATOM      7  C   UNL     1       1.257   3.042   3.493  1.00  0.00     0.016 A 
ATOM      8  C   UNL     1       0.887   2.965   6.907  1.00  0.00     0.010 A 
ATOM      9  C   UNL     1       2.787   3.468   4.627  1.00  0.00     0.010 A 
ATOM     10  C   UNL     1       2.413   3.555   6.404  1.00  0.00    -0.014 A 
BRANCH  10  11
ATOM     11  C   UNL     1       2.967   4.615   7.487  1.00  0.00     0.031 A 
ATOM     12  C   UNL     1       4.403   4.031   7.607  1.00  0.00     0.074 A 
ATOM     13  C   UNL     1       2.173   5.597   8.243  1.00  0.00     0.049 A 
ATOM     14  N   UNL     1       4.879   3.256   8.540  1.00  0.00    -0.248 NA
ATOM     15  C   UNL     1       5.262   3.871   6.369  1.00  0.00     0.031 C 
ATOM     16  C   UNL     1       0.820   6.213   7.906  1.00  0.00     0.029 A 
ATOM     17  N   UNL     1       2.344   6.375   9.462  1.00  0.00    -0.354 N 
ATOM     18  C   UNL     1       6.192   2.980   8.119  1.00  0.00     0.074 A 
ATOM     19  C   UNL     1       6.133   2.912   6.704  1.00  0.00     0.031 C 
ATOM     20  C   UNL     1       0.282   7.030   8.876  1.00  0.00     0.029 A 
ATOM     21  C   UNL     1       1.159   7.156  10.026  1.00  0.00     0.049 A 
ATOM     22  H   UNL     1       3.216   6.396   9.919  1.00  0.00     0.167 HD
ATOM     23  C   UNL     1       7.292   3.478   8.764  1.00  0.00     0.034 A 
ATOM     24  C   UNL     1       1.001   7.789  11.303  1.00  0.00     0.034 A 
ATOM     25  C   UNL     1       6.868   4.240   9.896  1.00  0.00     0.049 A 
ATOM     26  C   UNL     1       2.405   7.765  11.729  1.00  0.00     0.074 A 
ATOM     27  C   UNL     1       6.059   3.863  10.941  1.00  0.00     0.029 A 
ATOM     28  N   UNL     1       6.798   5.614   9.738  1.00  0.00    -0.354 N 
ATOM     29  N   UNL     1       3.346   8.495  11.214  1.00  0.00    -0.248 NA
ATOM     30  C   UNL     1       2.793   6.721  12.674  1.00  0.00     0.031 C 
ATOM     31  C   UNL     1       5.087   4.873  10.894  1.00  0.00     0.029 A 
ATOM     32  C   UNL     1       5.673   6.035  10.389  1.00  0.00     0.049 A 
ATOM     33  H   UNL     1       7.438   6.180   9.249  1.00  0.00     0.167 HD
ATOM     34  C   UNL     1       4.451   7.716  11.440  1.00  0.00     0.074 A 
ATOM     35  C   UNL     1       4.112   6.832  12.557  1.00  0.00     0.031 C 
ATOM     36  C   UNL     1       5.260   7.409  10.381  1.00  0.00     0.034 A 
BRANCH  23  37
ATOM     37  C   UNL     1       8.702   3.670   8.308  1.00  0.00     0.023 A 
ATOM     38  C   UNL     1       9.626   3.727   9.364  1.00  0.00     0.031 A 
ATOM     39  C   UNL     1       9.152   4.080   7.043  1.00  0.00     0.131 A 
ATOM     40  C   UNL     1      10.898   4.268   9.183  1.00  0.00     0.055 A 
ATOM     41  C   UNL     1      10.459   4.547   6.845  1.00  0.00     0.041 A 
ATOM     42  F   UNL     1       8.338   4.138   5.979  1.00  0.00    -0.206 F 
ATOM     43  C   UNL     1      11.332   4.670   7.924  1.00  0.00     0.022 A 
BRANCH  40  44
ATOM     44  S   UNL     1      11.869   4.571  10.676  1.00  0.00     0.124 S 
ATOM     45  O   UNL     1      11.000   5.474  11.422  1.00  0.00    -0.237 OA
ATOM     46  O   UNL     1      12.006   3.224  11.222  1.00  0.00    -0.237 OA
ATOM     47  O   UNL     1      13.101   5.164  10.162  1.00  0.00    -0.744 OA
ENDBRANCH  40  44
ENDBRANCH  23  37
BRANCH  24  48
ATOM     48  C   UNL     1       0.094   8.490  12.517  1.00  0.00     0.023 A 
ATOM     49  C   UNL     1      -1.279   8.862  12.591  1.00  0.00     0.031 A 
ATOM     50  C   UNL     1       0.719   8.639  13.829  1.00  0.00     0.131 A 
ATOM     51  C   UNL     1      -1.932   9.153  13.876  1.00  0.00     0.055 A 
ATOM     52  C   UNL     1       0.066   8.807  15.070  1.00  0.00     0.041 A 
ATOM     53  F   UNL     1       2.050   8.660  13.987  1.00  0.00    -0.206 F 
ATOM     54  C   UNL     1      -1.282   9.026  15.105  1.00  0.00     0.022 A 
BRANCH  51  55
ATOM     55  S   UNL     1      -3.692   9.688  14.018  1.00  0.00     0.124 S 
ATOM     56  O   UNL     1      -3.622  11.097  13.646  1.00  0.00    -0.237 OA
ATOM     57  O   UNL     1      -4.367   8.800  13.080  1.00  0.00    -0.237 OA
ATOM     58  O   UNL     1      -4.026   9.449  15.425  1.00  0.00    -0.744 OA
ENDBRANCH  51  55
ENDBRANCH  24  48
BRANCH  36  59
ATOM     59  C   UNL     1       5.293   8.386   9.205  1.00  0.00     0.023 A 
ATOM     60  C   UNL     1       5.451   9.762   9.462  1.00  0.00     0.031 A 
ATOM     61  C   UNL     1       5.107   8.037   7.850  1.00  0.00     0.131 A 
ATOM     62  C   UNL     1       5.418  10.716   8.425  1.00  0.00     0.055 A 
ATOM     63  C   UNL     1       5.067   8.988   6.812  1.00  0.00     0.041 A 
ATOM     64  F   UNL     1       4.933   6.761   7.485  1.00  0.00    -0.206 F 
ATOM     65  C   UNL     1       5.233  10.338   7.098  1.00  0.00     0.022 A 
BRANCH  62  66
ATOM     66  S   UNL     1       5.649  12.466   8.842  1.00  0.00     0.124 S 
ATOM     67  O   UNL     1       4.432  12.777   9.583  1.00  0.00    -0.237 OA
ATOM     68  O   UNL     1       6.886  12.440   9.617  1.00  0.00    -0.237 OA
ATOM     69  O   UNL     1       5.759  13.116   7.536  1.00  0.00    -0.744 OA
ENDBRANCH  62  66
ENDBRANCH  36  59
ENDBRANCH  10  11
ENDBRANCH   3   5
ENDBRANCH   2   3
ENDBRANCH   1   2
BRANCH   1  70
ATOM     70  C   UNL     1      -1.175   0.613   1.993  1.00  0.00     0.274 C 
BRANCH  70  71
ATOM     71  O   UNL     1       0.209   1.107   2.158  1.00  0.00    -0.461 OA
BRANCH  71  72
ATOM     72  C   UNL     1       1.067   1.689   1.239  1.00  0.00     0.324 C 
ATOM     73  O   UNL     1       0.739   1.933   0.085  1.00  0.00    -0.250 OA
BRANCH  72  74
ATOM     74  C   UNL     1       2.549   2.198   1.961  1.00  0.00     0.183 C 
ATOM     75  C   UNL     1       2.841   4.012   2.139  1.00  0.00     0.032 C 
ATOM     76  N   UNL     1       2.702   1.334   3.518  1.00  0.00    -0.184 NA
ATOM     77  C   UNL     1       1.911   5.085   3.413  1.00  0.00     0.004 C 
ATOM     78  C   UNL     1       1.646   1.993   5.015  1.00  0.00     0.103 C 
ATOM     79  C   UNL     1       1.058   4.146   4.939  1.00  0.00     0.017 C 
BRANCH  76  80
ATOM     80  S   UNL     1       2.550  -0.405   3.076  1.00  0.00     0.245 S 
ATOM     81  O   UNL     1       1.186  -0.852   3.264  1.00  0.00    -0.207 OA
ATOM     82  O   UNL     1       3.197  -0.560   1.781  1.00  0.00    -0.207 OA
BRANCH  80  83
ATOM     83  C   UNL     1       3.394  -1.570   4.041  1.00  0.00     0.100 A 
ATOM     84  C   UNL     1       3.042  -1.875   5.377  1.00  0.00     0.041 A 
ATOM     85  C   UNL     1       4.245  -2.581   3.607  1.00  0.00     0.104 A 
ATOM     86  C   UNL     1       3.719  -3.019   5.737  1.00  0.00     0.083 A 
ATOM     87  N   UNL     1       4.469  -3.430   4.665  1.00  0.00    -0.366 N 
ATOM     88  H   UNL     1       5.071  -4.208   4.655  1.00  0.00     0.165 HD
ENDBRANCH  80  83
ENDBRANCH  76  80
ENDBRANCH  72  74
ENDBRANCH  71  72
ENDBRANCH  70  71
ENDBRANCH   1  70
TORSDOF 16
