REMARK SMILES C/C(=N\NC(N)=O)c1nnn(-c2ccc(C(=O)OCCOC(=O)c3ccc(-c4c5nc(c(-c6cc(S(=O)(=O)[O-])ccc6F)c6ccc([nH]6)c(-c6cc(S(=O)(=O)[O-])ccc6F)c6nc(c(-c7cc(S(=O)(=O)[O-])ccc7F)c7ccc4[nH]7)C=C6)C=C5)cc3)cc2)c1C
REMARK SMILES IDX 19 1 18 2 16 3 17 4 15 5 12 6 13 7 88 8 14 9 87 10 11 11
REMARK SMILES IDX 8 12 9 13 89 14 10 15 90 16 2 17 1 18 3 19 4 20 5 21 6 23
REMARK SMILES IDX 7 24 20 27 21 28 22 29 23 30 24 31 25 32 86 33 26 34 85 35
REMARK SMILES IDX 27 36 28 37 29 38 79 39 30 40 84 41 78 42 80 43 31 44 83 45
REMARK SMILES IDX 77 46 76 47 32 49 64 50 44 51 63 52 45 53 48 54 62 55 81 56
REMARK SMILES IDX 46 57 47 58 61 60 82 61 49 62 33 63 34 64 42 65 35 66 41 67
REMARK SMILES IDX 43 68 40 69 36 70 37 71 38 72 39 73 65 74 66 75 74 76 67 77
REMARK SMILES IDX 73 78 75 79 72 80 68 81 69 82 70 83 71 84 50 85 51 86 59 87
REMARK SMILES IDX 52 88 58 89 60 90 57 91 53 92 54 93 55 94 56 95
REMARK H PARENT 4 22 6 25 6 26 80 48 48 59
REMARK Flexibility Score: inf
ROOT
ATOM      1  C   UNL     1       9.389  -3.898   6.121  1.00  0.00     0.275 C 
ENDROOT
BRANCH   1   2
ATOM      2  O   UNL     1       8.158  -3.281   5.724  1.00  0.00    -0.458 OA
BRANCH   2   3
ATOM      3  C   UNL     1       7.303  -4.067   5.025  1.00  0.00     0.338 C 
ATOM      4  O   UNL     1       7.553  -5.164   4.543  1.00  0.00    -0.246 OA
BRANCH   3   5
ATOM      5  C   UNL     1       5.971  -3.421   4.941  1.00  0.00     0.060 A 
ATOM      6  C   UNL     1       3.512  -2.231   4.453  1.00  0.00     0.067 A 
ATOM      7  C   UNL     1       3.603  -3.626   4.438  1.00  0.00     0.029 A 
ATOM      8  C   UNL     1       4.598  -1.442   4.848  1.00  0.00     0.029 A 
ATOM      9  C   UNL     1       4.849  -4.218   4.659  1.00  0.00     0.018 A 
ATOM     10  C   UNL     1       5.827  -2.039   5.099  1.00  0.00     0.018 A 
BRANCH   6  11
ATOM     11  N   UNL     1       2.388  -1.609   3.872  1.00  0.00    -0.217 N 
ATOM     12  C   UNL     1       1.086  -0.582   2.460  1.00  0.00     0.132 A 
ATOM     13  N   UNL     1       0.316  -1.372   3.269  1.00  0.00    -0.128 NA
ATOM     14  C   UNL     1       2.415  -0.715   2.811  1.00  0.00     0.071 A 
ATOM     15  N   UNL     1       1.126  -2.048   4.074  1.00  0.00    -0.061 NA
ATOM     16  C   UNL     1       3.640  -0.253   2.112  1.00  0.00     0.069 C 
BRANCH  12  17
ATOM     17  C   UNL     1       0.572   0.048   1.258  1.00  0.00     0.087 C 
ATOM     18  C   UNL     1       0.745  -0.748  -0.010  1.00  0.00     0.071 C 
ATOM     19  N   UNL     1       0.021   1.214   1.422  1.00  0.00    -0.174 NA
BRANCH  19  20
ATOM     20  N   UNL     1      -0.462   1.956   0.381  1.00  0.00    -0.229 N 
ATOM     21  C   UNL     1       0.131   2.164  -0.844  1.00  0.00     0.332 C 
ATOM     22  H   UNL     1      -1.333   2.393   0.524  1.00  0.00     0.195 HD
ATOM     23  N   UNL     1      -0.619   2.968  -1.652  1.00  0.00    -0.350 N 
ATOM     24  O   UNL     1       1.193   1.714  -1.250  1.00  0.00    -0.247 OA
ATOM     25  H   UNL     1      -1.474   3.331  -1.328  1.00  0.00     0.161 HD
ATOM     26  H   UNL     1      -0.304   3.184  -2.560  1.00  0.00     0.161 HD
ENDBRANCH  19  20
ENDBRANCH  12  17
ENDBRANCH   6  11
ENDBRANCH   3   5
ENDBRANCH   2   3
ENDBRANCH   1   2
BRANCH   1  27
ATOM     27  C   UNL     1       9.243  -4.576   7.475  1.00  0.00     0.275 C 
BRANCH  27  28
ATOM     28  O   UNL     1       8.469  -5.774   7.401  1.00  0.00    -0.458 OA
BRANCH  28  29
ATOM     29  C   UNL     1       7.169  -5.625   7.752  1.00  0.00     0.338 C 
ATOM     30  O   UNL     1       6.500  -4.609   7.674  1.00  0.00    -0.246 OA
BRANCH  29  31
ATOM     31  C   UNL     1       6.727  -6.812   8.493  1.00  0.00     0.060 A 
ATOM     32  C   UNL     1       5.370  -6.919   8.805  1.00  0.00     0.016 A 
ATOM     33  C   UNL     1       7.681  -7.663   9.071  1.00  0.00     0.016 A 
ATOM     34  C   UNL     1       4.985  -7.813   9.787  1.00  0.00     0.010 A 
ATOM     35  C   UNL     1       7.296  -8.542  10.063  1.00  0.00     0.010 A 
ATOM     36  C   UNL     1       5.958  -8.579  10.448  1.00  0.00    -0.014 A 
BRANCH  36  37
ATOM     37  C   UNL     1       5.511  -9.626  11.358  1.00  0.00     0.031 A 
ATOM     38  C   UNL     1       4.771 -10.678  10.623  1.00  0.00     0.074 A 
ATOM     39  C   UNL     1       5.841  -9.714  12.663  1.00  0.00     0.049 A 
ATOM     40  N   UNL     1       3.497 -10.885  10.637  1.00  0.00    -0.248 NA
ATOM     41  C   UNL     1       5.480 -11.413   9.559  1.00  0.00     0.031 C 
ATOM     42  C   UNL     1       6.761  -8.849  13.403  1.00  0.00     0.029 A 
ATOM     43  N   UNL     1       5.495 -10.655  13.592  1.00  0.00    -0.354 N 
ATOM     44  C   UNL     1       3.305 -11.996   9.826  1.00  0.00     0.074 A 
ATOM     45  C   UNL     1       4.472 -12.080   8.996  1.00  0.00     0.031 C 
ATOM     46  C   UNL     1       7.067  -9.427  14.588  1.00  0.00     0.029 A 
ATOM     47  C   UNL     1       6.280 -10.640  14.749  1.00  0.00     0.049 A 
ATOM     48  H   UNL     1       4.755 -11.290  13.458  1.00  0.00     0.167 HD
ATOM     49  C   UNL     1       2.398 -12.942  10.189  1.00  0.00     0.034 A 
ATOM     50  C   UNL     1       6.315 -11.573  15.745  1.00  0.00     0.034 A 
ATOM     51  C   UNL     1       1.435 -12.383  11.124  1.00  0.00     0.049 A 
ATOM     52  C   UNL     1       5.021 -12.293  15.696  1.00  0.00     0.074 A 
ATOM     53  C   UNL     1       0.570 -11.305  11.112  1.00  0.00     0.029 A 
ATOM     54  N   UNL     1       1.570 -12.736  12.447  1.00  0.00    -0.354 N 
ATOM     55  N   UNL     1       3.878 -11.726  15.963  1.00  0.00    -0.248 NA
ATOM     56  C   UNL     1       4.936 -13.517  14.917  1.00  0.00     0.031 C 
ATOM     57  C   UNL     1       0.574 -10.800  12.448  1.00  0.00     0.029 A 
ATOM     58  C   UNL     1       1.364 -11.637  13.238  1.00  0.00     0.049 A 
ATOM     59  H   UNL     1       1.782 -13.640  12.775  1.00  0.00     0.167 HD
ATOM     60  C   UNL     1       3.001 -12.236  15.021  1.00  0.00     0.074 A 
ATOM     61  C   UNL     1       3.669 -13.428  14.501  1.00  0.00     0.031 C 
ATOM     62  C   UNL     1       1.965 -11.475  14.552  1.00  0.00     0.034 A 
BRANCH  49  63
ATOM     63  C   UNL     1       2.696 -14.438  10.138  1.00  0.00     0.023 A 
ATOM     64  C   UNL     1       1.733 -15.282  10.721  1.00  0.00     0.031 A 
ATOM     65  C   UNL     1       3.952 -15.041   9.884  1.00  0.00     0.131 A 
ATOM     66  C   UNL     1       2.080 -16.561  11.187  1.00  0.00     0.055 A 
ATOM     67  C   UNL     1       4.273 -16.338  10.295  1.00  0.00     0.041 A 
ATOM     68  F   UNL     1       4.969 -14.410   9.290  1.00  0.00    -0.206 F 
ATOM     69  C   UNL     1       3.349 -17.092  10.991  1.00  0.00     0.022 A 
BRANCH  66  70
ATOM     70  S   UNL     1       0.893 -17.429  12.238  1.00  0.00     0.124 S 
ATOM     71  O   UNL     1       0.720 -16.463  13.318  1.00  0.00    -0.237 OA
ATOM     72  O   UNL     1      -0.239 -17.598  11.332  1.00  0.00    -0.237 OA
ATOM     73  O   UNL     1       1.595 -18.658  12.596  1.00  0.00    -0.744 OA
ENDBRANCH  66  70
ENDBRANCH  49  63
BRANCH  50  74
ATOM     74  C   UNL     1       7.494 -12.075  16.521  1.00  0.00     0.023 A 
ATOM     75  C   UNL     1       7.377 -12.866  17.692  1.00  0.00     0.031 A 
ATOM     76  C   UNL     1       8.783 -11.995  15.950  1.00  0.00     0.131 A 
ATOM     77  C   UNL     1       8.511 -13.534  18.226  1.00  0.00     0.055 A 
ATOM     78  C   UNL     1       9.894 -12.656  16.479  1.00  0.00     0.041 A 
ATOM     79  F   UNL     1       8.996 -11.341  14.797  1.00  0.00    -0.206 F 
ATOM     80  C   UNL     1       9.761 -13.439  17.612  1.00  0.00     0.022 A 
BRANCH  77  81
ATOM     81  S   UNL     1       8.371 -14.624  19.687  1.00  0.00     0.124 S 
ATOM     82  O   UNL     1       8.104 -13.675  20.761  1.00  0.00    -0.237 OA
ATOM     83  O   UNL     1       7.278 -15.514  19.317  1.00  0.00    -0.237 OA
ATOM     84  O   UNL     1       9.683 -15.271  19.758  1.00  0.00    -0.744 OA
ENDBRANCH  77  81
ENDBRANCH  50  74
BRANCH  62  85
ATOM     85  C   UNL     1       1.513 -10.292  15.390  1.00  0.00     0.023 A 
ATOM     86  C   UNL     1       2.333  -9.229  15.836  1.00  0.00     0.031 A 
ATOM     87  C   UNL     1       0.144 -10.231  15.710  1.00  0.00     0.131 A 
ATOM     88  C   UNL     1       1.777  -8.178  16.594  1.00  0.00     0.055 A 
ATOM     89  C   UNL     1      -0.407  -9.178  16.435  1.00  0.00     0.041 A 
ATOM     90  F   UNL     1      -0.695 -11.199  15.305  1.00  0.00    -0.206 F 
ATOM     91  C   UNL     1       0.410  -8.151  16.890  1.00  0.00     0.022 A 
BRANCH  88  92
ATOM     92  S   UNL     1       2.825  -6.842  17.256  1.00  0.00     0.124 S 
ATOM     93  O   UNL     1       3.980  -7.546  17.800  1.00  0.00    -0.237 OA
ATOM     94  O   UNL     1       3.076  -6.023  16.072  1.00  0.00    -0.237 OA
ATOM     95  O   UNL     1       1.971  -6.206  18.261  1.00  0.00    -0.744 OA
ENDBRANCH  88  92
ENDBRANCH  62  85
ENDBRANCH  36  37
ENDBRANCH  29  31
ENDBRANCH  28  29
ENDBRANCH  27  28
ENDBRANCH   1  27
TORSDOF 17
