REMARK SMILES CCc1ccc(S(=O)(=O)CC(=O)OCCOC(=O)c2ccc(-c3c4nc(c(-c5cc(S(=O)(=O)[O-])ccc5F)c5ccc([nH]5)c(-c5cc(S(=O)(=O)[O-])ccc5F)c5nc(c(-c6cc(S(=O)(=O)[O-])ccc6F)c6ccc3[nH]6)C=C5)C=C4)cc2)cc1
REMARK SMILES IDX 14 1 13 2 11 3 12 4 10 5 7 6 8 7 9 8 6 9 3 10 4 11 83 12
REMARK SMILES IDX 5 13 82 14 2 15 1 16 15 17 16 18 17 19 18 20 19 21 20 22
REMARK SMILES IDX 81 23 21 24 80 25 22 26 23 27 24 28 74 29 25 30 79 31 73 32
REMARK SMILES IDX 75 33 26 34 78 35 72 36 71 37 27 39 59 40 39 41 58 42 40 43
REMARK SMILES IDX 43 44 57 45 76 46 41 47 42 48 56 50 77 51 44 52 28 53 29 54
REMARK SMILES IDX 37 55 30 56 36 57 38 58 35 59 31 60 32 61 33 62 34 63 60 64
REMARK SMILES IDX 61 65 69 66 62 67 68 68 70 69 67 70 63 71 64 72 65 73 66 74
REMARK SMILES IDX 45 75 46 76 54 77 47 78 53 79 55 80 52 81 48 82 49 83 50 84
REMARK SMILES IDX 51 85
REMARK H PARENT 75 38 43 49
REMARK Flexibility Score: inf
ROOT
ATOM      1  C   UNL     1       5.596  -3.159   5.006  1.00  0.00     0.274 C 
ENDROOT
BRANCH   1   2
ATOM      2  O   UNL     1       4.325  -3.830   4.862  1.00  0.00    -0.461 OA
BRANCH   2   3
ATOM      3  C   UNL     1       3.518  -3.788   5.944  1.00  0.00     0.321 C 
ATOM      4  O   UNL     1       3.780  -3.148   6.962  1.00  0.00    -0.251 OA
BRANCH   3   5
ATOM      5  C   UNL     1       2.264  -4.578   5.880  1.00  0.00     0.264 C 
BRANCH   5   6
ATOM      6  S   UNL     1       1.927  -5.472   4.417  1.00  0.00     0.189 S 
ATOM      7  O   UNL     1       0.723  -6.243   4.677  1.00  0.00    -0.223 OA
ATOM      8  O   UNL     1       3.135  -6.168   4.007  1.00  0.00    -0.223 OA
BRANCH   6   9
ATOM      9  C   UNL     1       1.480  -4.325   3.138  1.00  0.00     0.067 A 
ATOM     10  C   UNL     1       0.706  -2.611   1.057  1.00  0.00    -0.048 A 
ATOM     11  C   UNL     1       1.501  -3.735   0.794  1.00  0.00     0.005 A 
ATOM     12  C   UNL     1       0.284  -2.371   2.372  1.00  0.00     0.005 A 
ATOM     13  C   UNL     1       1.892  -4.587   1.829  1.00  0.00     0.020 A 
ATOM     14  C   UNL     1       0.659  -3.229   3.411  1.00  0.00     0.020 A 
BRANCH  10  15
ATOM     15  C   UNL     1       0.299  -1.683  -0.063  1.00  0.00     0.032 C 
ATOM     16  C   UNL     1       0.959  -0.315   0.051  1.00  0.00     0.009 C 
ENDBRANCH  10  15
ENDBRANCH   6   9
ENDBRANCH   5   6
ENDBRANCH   3   5
ENDBRANCH   2   3
ENDBRANCH   1   2
BRANCH   1  17
ATOM     17  C   UNL     1       5.583  -1.795   4.327  1.00  0.00     0.275 C 
BRANCH  17  18
ATOM     18  O   UNL     1       4.449  -1.036   4.776  1.00  0.00    -0.458 OA
BRANCH  18  19
ATOM     19  C   UNL     1       3.558  -0.714   3.813  1.00  0.00     0.338 C 
ATOM     20  O   UNL     1       3.659  -0.935   2.613  1.00  0.00    -0.246 OA
BRANCH  19  21
ATOM     21  C   UNL     1       2.415   0.005   4.398  1.00  0.00     0.060 A 
ATOM     22  C   UNL     1       1.704  -0.518   5.482  1.00  0.00     0.016 A 
ATOM     23  C   UNL     1       1.992   1.183   3.781  1.00  0.00     0.016 A 
ATOM     24  C   UNL     1       0.530   0.107   5.906  1.00  0.00     0.010 A 
ATOM     25  C   UNL     1       0.863   1.848   4.258  1.00  0.00     0.010 A 
ATOM     26  C   UNL     1       0.104   1.304   5.308  1.00  0.00    -0.014 A 
BRANCH  26  27
ATOM     27  C   UNL     1      -1.124   2.003   5.772  1.00  0.00     0.031 A 
ATOM     28  C   UNL     1      -2.292   2.190   4.840  1.00  0.00     0.074 A 
ATOM     29  C   UNL     1      -1.173   2.509   7.020  1.00  0.00     0.049 A 
ATOM     30  N   UNL     1      -3.374   2.907   5.000  1.00  0.00    -0.248 NA
ATOM     31  C   UNL     1      -2.225   1.484   3.551  1.00  0.00     0.031 C 
ATOM     32  C   UNL     1      -0.117   2.382   8.026  1.00  0.00     0.029 A 
ATOM     33  N   UNL     1      -2.145   3.246   7.650  1.00  0.00    -0.354 N 
ATOM     34  C   UNL     1      -4.105   2.765   3.825  1.00  0.00     0.074 A 
ATOM     35  C   UNL     1      -3.332   1.904   2.954  1.00  0.00     0.031 C 
ATOM     36  C   UNL     1      -0.500   3.012   9.147  1.00  0.00     0.029 A 
ATOM     37  C   UNL     1      -1.793   3.646   8.918  1.00  0.00     0.049 A 
ATOM     38  H   UNL     1      -3.010   3.466   7.235  1.00  0.00     0.167 HD
ATOM     39  C   UNL     1      -5.308   3.305   3.505  1.00  0.00     0.034 A 
ATOM     40  C   UNL     1      -2.416   4.470   9.784  1.00  0.00     0.034 A 
ATOM     41  C   UNL     1      -6.075   4.151   4.388  1.00  0.00     0.049 A 
ATOM     42  C   UNL     1      -3.723   5.097   9.386  1.00  0.00     0.074 A 
ATOM     43  C   UNL     1      -7.320   4.720   4.173  1.00  0.00     0.029 A 
ATOM     44  N   UNL     1      -5.671   4.556   5.653  1.00  0.00    -0.354 N 
ATOM     45  N   UNL     1      -4.389   4.973   8.262  1.00  0.00    -0.248 NA
ATOM     46  C   UNL     1      -4.357   5.982  10.371  1.00  0.00     0.031 C 
ATOM     47  C   UNL     1      -7.640   5.513   5.281  1.00  0.00     0.029 A 
ATOM     48  C   UNL     1      -6.626   5.389   6.216  1.00  0.00     0.049 A 
ATOM     49  H   UNL     1      -4.828   4.290   6.087  1.00  0.00     0.167 HD
ATOM     50  C   UNL     1      -5.528   5.758   8.410  1.00  0.00     0.074 A 
ATOM     51  C   UNL     1      -5.466   6.334   9.738  1.00  0.00     0.031 C 
ATOM     52  C   UNL     1      -6.535   5.981   7.529  1.00  0.00     0.034 A 
BRANCH  39  53
ATOM     53  C   UNL     1      -5.843   3.037   2.120  1.00  0.00     0.023 A 
ATOM     54  C   UNL     1      -6.244   1.753   1.712  1.00  0.00     0.031 A 
ATOM     55  C   UNL     1      -5.945   4.087   1.189  1.00  0.00     0.131 A 
ATOM     56  C   UNL     1      -6.675   1.542   0.392  1.00  0.00     0.055 A 
ATOM     57  C   UNL     1      -6.437   3.883  -0.101  1.00  0.00     0.041 A 
ATOM     58  F   UNL     1      -5.557   5.330   1.518  1.00  0.00    -0.206 F 
ATOM     59  C   UNL     1      -6.795   2.602  -0.510  1.00  0.00     0.022 A 
BRANCH  56  60
ATOM     60  S   UNL     1      -6.964  -0.159  -0.166  1.00  0.00     0.124 S 
ATOM     61  O   UNL     1      -5.652  -0.765   0.047  1.00  0.00    -0.237 OA
ATOM     62  O   UNL     1      -8.028  -0.606   0.726  1.00  0.00    -0.237 OA
ATOM     63  O   UNL     1      -7.349   0.000  -1.567  1.00  0.00    -0.744 OA
ENDBRANCH  56  60
ENDBRANCH  39  53
BRANCH  40  64
ATOM     64  C   UNL     1      -1.777   4.801  11.087  1.00  0.00     0.023 A 
ATOM     65  C   UNL     1      -2.342   4.379  12.299  1.00  0.00     0.031 A 
ATOM     66  C   UNL     1      -0.598   5.567  11.134  1.00  0.00     0.131 A 
ATOM     67  C   UNL     1      -1.743   4.750  13.512  1.00  0.00     0.055 A 
ATOM     68  C   UNL     1       0.019   5.895  12.342  1.00  0.00     0.041 A 
ATOM     69  F   UNL     1      -0.017   5.990  10.000  1.00  0.00    -0.206 F 
ATOM     70  C   UNL     1      -0.560   5.493  13.542  1.00  0.00     0.022 A 
BRANCH  67  71
ATOM     71  S   UNL     1      -2.568   4.294  15.062  1.00  0.00     0.124 S 
ATOM     72  O   UNL     1      -3.868   4.938  14.909  1.00  0.00    -0.237 OA
ATOM     73  O   UNL     1      -2.561   2.837  14.991  1.00  0.00    -0.237 OA
ATOM     74  O   UNL     1      -1.703   4.870  16.089  1.00  0.00    -0.744 OA
ENDBRANCH  67  71
ENDBRANCH  40  64
BRANCH  52  75
ATOM     75  C   UNL     1      -7.657   6.870   8.000  1.00  0.00     0.023 A 
ATOM     76  C   UNL     1      -7.467   8.249   8.197  1.00  0.00     0.031 A 
ATOM     77  C   UNL     1      -8.918   6.323   8.294  1.00  0.00     0.131 A 
ATOM     78  C   UNL     1      -8.507   9.027   8.727  1.00  0.00     0.055 A 
ATOM     79  C   UNL     1      -9.964   7.112   8.774  1.00  0.00     0.041 A 
ATOM     80  F   UNL     1      -9.149   5.011   8.126  1.00  0.00    -0.206 F 
ATOM     81  C   UNL     1      -9.758   8.469   9.006  1.00  0.00     0.022 A 
BRANCH  78  82
ATOM     82  S   UNL     1      -8.176  10.763   9.134  1.00  0.00     0.124 S 
ATOM     83  O   UNL     1      -7.080  10.648  10.091  1.00  0.00    -0.237 OA
ATOM     84  O   UNL     1      -7.830  11.328   7.834  1.00  0.00    -0.237 OA
ATOM     85  O   UNL     1      -9.441  11.232   9.696  1.00  0.00    -0.744 OA
ENDBRANCH  78  82
ENDBRANCH  52  75
ENDBRANCH  26  27
ENDBRANCH  19  21
ENDBRANCH  18  19
ENDBRANCH  17  18
ENDBRANCH   1  17
TORSDOF 17
