REMARK SMILES O=C(Cc1c(C(=O)c2cc3c(cn2)CCCC3)[nH]c2cc(Cl)ccc12)OCCOC(=O)c1ccc(-c2c3nc(c(-c4cc(S(=O)(=O)[O-])ccc4F)c4ccc([nH]4)c(-c4cc(S(=O)(=O)[O-])ccc4F)c4nc(c(-c5cc(S(=O)(=O)[O-])ccc5F)c5ccc2[nH]5)C=C4)C=C3)cc1
REMARK SMILES IDX 27 1 26 2 2 3 1 4 3 5 4 6 5 7 25 8 18 9 19 10 24 11 20 13
REMARK SMILES IDX 23 14 21 15 22 16 6 17 7 18 8 19 9 20 13 21 10 22 12 23
REMARK SMILES IDX 11 24 17 25 14 26 16 27 15 28 28 29 29 30 30 31 31 32 32 33
REMARK SMILES IDX 33 34 94 35 34 36 93 37 35 38 36 39 37 40 87 41 38 42 92 43
REMARK SMILES IDX 86 44 88 45 39 46 91 47 85 48 84 49 40 51 72 52 52 53 71 54
REMARK SMILES IDX 53 55 56 56 70 57 89 58 54 59 55 60 69 62 90 63 57 64 41 65
REMARK SMILES IDX 42 66 50 67 43 68 49 69 51 70 48 71 44 72 45 73 46 74 47 75
REMARK SMILES IDX 73 76 74 77 82 78 75 79 81 80 83 81 80 82 76 83 77 84 78 85
REMARK SMILES IDX 79 86 58 87 59 88 67 89 60 90 66 91 68 92 65 93 61 94 62 95
REMARK SMILES IDX 63 96 64 97
REMARK H PARENT 18 12 88 50 56 61
REMARK Flexibility Score: inf
ROOT
ATOM      1  C   UNL     1       3.968  -1.861  -0.536  1.00  0.00     0.274 C 
ENDROOT
BRANCH   1   2
ATOM      2  O   UNL     1       2.719  -1.429   0.028  1.00  0.00    -0.462 OA
BRANCH   2   3
ATOM      3  C   UNL     1       2.655  -0.300   0.787  1.00  0.00     0.310 C 
ATOM      4  O   UNL     1       1.922  -0.261   1.772  1.00  0.00    -0.252 OA
BRANCH   3   5
ATOM      5  C   UNL     1       3.406   0.905   0.257  1.00  0.00     0.161 C 
BRANCH   5   6
ATOM      6  C   UNL     1       4.088   1.718   1.315  1.00  0.00     0.000 A 
ATOM      7  C   UNL     1       3.883   3.071   1.561  1.00  0.00     0.093 A 
ATOM      8  C   UNL     1       5.192   1.308   2.139  1.00  0.00     0.004 A 
ATOM      9  N   UNL     1       4.665   3.403   2.646  1.00  0.00    -0.351 N 
ATOM     10  C   UNL     1       5.543   2.394   2.937  1.00  0.00     0.048 A 
ATOM     11  C   UNL     1       5.957   0.129   2.263  1.00  0.00     0.012 A 
ATOM     12  H   UNL     1       4.600   4.250   3.143  1.00  0.00     0.167 HD
ATOM     13  C   UNL     1       6.609   2.375   3.843  1.00  0.00     0.047 A 
ATOM     14  C   UNL     1       7.043   0.091   3.147  1.00  0.00     0.021 A 
ATOM     15  C   UNL     1       7.357   1.201   3.923  1.00  0.00     0.043 A 
ATOM     16  Cl  UNL     1       8.697   1.129   5.003  1.00  0.00    -0.084 Cl
BRANCH   7  17
ATOM     17  C   UNL     1       3.051   4.035   0.852  1.00  0.00     0.227 C 
ATOM     18  O   UNL     1       2.189   3.745   0.031  1.00  0.00    -0.285 OA
BRANCH  17  19
ATOM     19  C   UNL     1       3.396   5.461   1.076  1.00  0.00     0.113 A 
ATOM     20  C   UNL     1       4.659   5.907   0.689  1.00  0.00     0.036 A 
ATOM     21  N   UNL     1       2.503   6.191   1.775  1.00  0.00    -0.252 NA
ATOM     22  C   UNL     1       5.042   7.194   1.050  1.00  0.00    -0.041 A 
ATOM     23  C   UNL     1       2.883   7.445   2.088  1.00  0.00     0.115 A 
ATOM     24  C   UNL     1       4.144   7.970   1.798  1.00  0.00    -0.026 A 
ATOM     25  C   UNL     1       6.400   7.709   0.651  1.00  0.00     0.036 C 
ATOM     26  C   UNL     1       4.461   9.376   2.211  1.00  0.00     0.037 C 
ATOM     27  C   UNL     1       6.516   9.226   0.750  1.00  0.00     0.005 C 
ATOM     28  C   UNL     1       5.938   9.736   2.065  1.00  0.00     0.005 C 
ENDBRANCH  17  19
ENDBRANCH   7  17
ENDBRANCH   5   6
ENDBRANCH   3   5
ENDBRANCH   2   3
ENDBRANCH   1   2
BRANCH   1  29
ATOM     29  C   UNL     1       3.988  -1.819  -2.065  1.00  0.00     0.275 C 
BRANCH  29  30
ATOM     30  O   UNL     1       3.814  -0.482  -2.570  1.00  0.00    -0.458 OA
BRANCH  30  31
ATOM     31  C   UNL     1       2.534  -0.144  -2.888  1.00  0.00     0.338 C 
ATOM     32  O   UNL     1       1.567  -0.885  -2.818  1.00  0.00    -0.246 OA
BRANCH  31  33
ATOM     33  C   UNL     1       2.443   1.303  -3.211  1.00  0.00     0.060 A 
ATOM     34  C   UNL     1       3.461   1.987  -3.885  1.00  0.00     0.016 A 
ATOM     35  C   UNL     1       1.283   1.990  -2.835  1.00  0.00     0.016 A 
ATOM     36  C   UNL     1       3.302   3.347  -4.200  1.00  0.00     0.010 A 
ATOM     37  C   UNL     1       1.132   3.350  -3.139  1.00  0.00     0.010 A 
ATOM     38  C   UNL     1       2.131   4.040  -3.841  1.00  0.00    -0.014 A 
BRANCH  38  39
ATOM     39  C   UNL     1       1.866   5.414  -4.353  1.00  0.00     0.031 A 
ATOM     40  C   UNL     1       2.077   6.654  -3.534  1.00  0.00     0.074 A 
ATOM     41  C   UNL     1       1.395   5.549  -5.606  1.00  0.00     0.049 A 
ATOM     42  N   UNL     1       1.765   7.895  -3.814  1.00  0.00    -0.248 NA
ATOM     43  C   UNL     1       2.736   6.483  -2.239  1.00  0.00     0.031 C 
ATOM     44  C   UNL     1       1.143   4.443  -6.524  1.00  0.00     0.029 A 
ATOM     45  N   UNL     1       1.047   6.671  -6.318  1.00  0.00    -0.354 N 
ATOM     46  C   UNL     1       2.150   8.648  -2.711  1.00  0.00     0.074 A 
ATOM     47  C   UNL     1       2.741   7.728  -1.773  1.00  0.00     0.031 C 
ATOM     48  C   UNL     1       0.686   4.939  -7.681  1.00  0.00     0.029 A 
ATOM     49  C   UNL     1       0.573   6.396  -7.576  1.00  0.00     0.049 A 
ATOM     50  H   UNL     1       1.130   7.585  -5.960  1.00  0.00     0.167 HD
ATOM     51  C   UNL     1       2.041   9.981  -2.508  1.00  0.00     0.034 A 
ATOM     52  C   UNL     1       0.090   7.211  -8.538  1.00  0.00     0.034 A 
ATOM     53  C   UNL     1       1.569  10.915  -3.492  1.00  0.00     0.049 A 
ATOM     54  C   UNL     1       0.089   8.703  -8.338  1.00  0.00     0.074 A 
ATOM     55  C   UNL     1       1.462  12.290  -3.362  1.00  0.00     0.029 A 
ATOM     56  N   UNL     1       1.210  10.599  -4.785  1.00  0.00    -0.354 N 
ATOM     57  N   UNL     1       0.472   9.389  -7.288  1.00  0.00    -0.248 NA
ATOM     58  C   UNL     1      -0.383   9.541  -9.452  1.00  0.00     0.031 C 
ATOM     59  C   UNL     1       1.082  12.812  -4.591  1.00  0.00     0.029 A 
ATOM     60  C   UNL     1       0.939  11.761  -5.481  1.00  0.00     0.049 A 
ATOM     61  H   UNL     1       1.155   9.688  -5.155  1.00  0.00     0.167 HD
ATOM     62  C   UNL     1       0.320  10.731  -7.629  1.00  0.00     0.074 A 
ATOM     63  C   UNL     1      -0.177  10.768  -8.984  1.00  0.00     0.031 C 
ATOM     64  C   UNL     1       0.558  11.824  -6.866  1.00  0.00     0.034 A 
BRANCH  51  65
ATOM     65  C   UNL     1       2.520  10.623  -1.234  1.00  0.00     0.023 A 
ATOM     66  C   UNL     1       1.594  11.091  -0.282  1.00  0.00     0.031 A 
ATOM     67  C   UNL     1       3.842  11.095  -1.177  1.00  0.00     0.131 A 
ATOM     68  C   UNL     1       2.001  12.044   0.667  1.00  0.00     0.055 A 
ATOM     69  C   UNL     1       4.235  12.052  -0.240  1.00  0.00     0.041 A 
ATOM     70  F   UNL     1       4.751  10.671  -2.069  1.00  0.00    -0.206 F 
ATOM     71  C   UNL     1       3.309  12.542   0.677  1.00  0.00     0.022 A 
BRANCH  68  72
ATOM     72  S   UNL     1       0.805  12.732   1.847  1.00  0.00     0.124 S 
ATOM     73  O   UNL     1       0.975  11.826   2.981  1.00  0.00    -0.237 OA
ATOM     74  O   UNL     1       1.296  14.091   2.061  1.00  0.00    -0.237 OA
ATOM     75  O   UNL     1      -0.467  12.633   1.142  1.00  0.00    -0.744 OA
ENDBRANCH  68  72
ENDBRANCH  51  65
BRANCH  52  76
ATOM     76  C   UNL     1      -0.350   6.587  -9.815  1.00  0.00     0.023 A 
ATOM     77  C   UNL     1      -1.431   5.687  -9.832  1.00  0.00     0.031 A 
ATOM     78  C   UNL     1       0.410   6.744 -10.984  1.00  0.00     0.131 A 
ATOM     79  C   UNL     1      -1.660   4.907 -10.971  1.00  0.00     0.055 A 
ATOM     80  C   UNL     1       0.128   6.021 -12.142  1.00  0.00     0.041 A 
ATOM     81  F   UNL     1       1.460   7.580 -11.001  1.00  0.00    -0.206 F 
ATOM     82  C   UNL     1      -0.898   5.079 -12.131  1.00  0.00     0.022 A 
BRANCH  79  83
ATOM     83  S   UNL     1      -2.839   3.530 -10.927  1.00  0.00     0.124 S 
ATOM     84  O   UNL     1      -3.751   3.876 -12.012  1.00  0.00    -0.237 OA
ATOM     85  O   UNL     1      -1.965   2.386 -11.178  1.00  0.00    -0.237 OA
ATOM     86  O   UNL     1      -3.402   3.599  -9.583  1.00  0.00    -0.744 OA
ENDBRANCH  79  83
ENDBRANCH  52  76
BRANCH  64  87
ATOM     87  C   UNL     1       0.354  13.212  -7.415  1.00  0.00     0.023 A 
ATOM     88  C   UNL     1       1.453  14.095  -7.480  1.00  0.00     0.031 A 
ATOM     89  C   UNL     1      -0.939  13.739  -7.550  1.00  0.00     0.131 A 
ATOM     90  C   UNL     1       1.229  15.473  -7.594  1.00  0.00     0.055 A 
ATOM     91  C   UNL     1      -1.154  15.109  -7.707  1.00  0.00     0.041 A 
ATOM     92  F   UNL     1      -2.013  12.938  -7.461  1.00  0.00    -0.206 F 
ATOM     93  C   UNL     1      -0.069  15.984  -7.706  1.00  0.00     0.022 A 
BRANCH  90  94
ATOM     94  S   UNL     1       2.595  16.660  -7.438  1.00  0.00     0.124 S 
ATOM     95  O   UNL     1       2.565  17.326  -8.738  1.00  0.00    -0.237 OA
ATOM     96  O   UNL     1       2.167  17.479  -6.308  1.00  0.00    -0.237 OA
ATOM     97  O   UNL     1       3.766  15.822  -7.197  1.00  0.00    -0.744 OA
ENDBRANCH  90  94
ENDBRANCH  64  87
ENDBRANCH  38  39
ENDBRANCH  31  33
ENDBRANCH  30  31
ENDBRANCH  29  30
ENDBRANCH   1  29
TORSDOF 17
