REMARK SMILES O=C(CCN1C(=O)/C(=C\c2ccc(-c3cccc(Cl)c3)o2)SC1=S)OCCOC(=O)c1ccc(-c2c3nc(c(-c4cc(S(=O)(=O)[O-])ccc4F)c4ccc([nH]4)c(-c4cc(S(=O)(=O)[O-])ccc4F)c4nc(c(-c5cc(S(=O)(=O)[O-])ccc5F)c5ccc2[nH]5)C=C4)C=C3)cc1
REMARK SMILES IDX 26 1 25 2 2 3 1 4 3 5 4 6 5 7 6 8 23 9 7 10 8 11 22 12 24 13
REMARK SMILES IDX 9 14 10 15 11 16 21 17 12 18 13 19 14 20 15 21 20 22 16 23
REMARK SMILES IDX 18 24 17 25 19 26 27 27 28 28 29 29 30 30 31 31 32 32 93 33
REMARK SMILES IDX 33 34 92 35 34 36 35 37 36 38 86 39 37 40 91 41 85 42 87 43
REMARK SMILES IDX 38 44 90 45 84 46 83 47 39 49 71 50 51 51 70 52 52 53 55 54
REMARK SMILES IDX 69 55 88 56 53 57 54 58 68 60 89 61 56 62 40 63 41 64 49 65
REMARK SMILES IDX 42 66 48 67 50 68 47 69 43 70 44 71 45 72 46 73 72 74 73 75
REMARK SMILES IDX 81 76 74 77 80 78 82 79 79 80 75 81 76 82 77 83 78 84 57 85
REMARK SMILES IDX 58 86 66 87 59 88 65 89 67 90 64 91 60 92 61 93 62 94 63 95
REMARK H PARENT 87 48 55 59
REMARK Flexibility Score: inf
ROOT
ATOM      1  C   UNL     1       3.156   0.458  -1.291  1.00  0.00     0.274 C 
ENDROOT
BRANCH   1   2
ATOM      2  O   UNL     1       2.090  -0.273  -0.662  1.00  0.00    -0.462 OA
BRANCH   2   3
ATOM      3  C   UNL     1       2.368  -1.272   0.215  1.00  0.00     0.307 C 
ATOM      4  O   UNL     1       1.764  -2.339   0.164  1.00  0.00    -0.252 OA
BRANCH   3   5
ATOM      5  C   UNL     1       3.354  -0.977   1.318  1.00  0.00     0.144 C 
BRANCH   5   6
ATOM      6  C   UNL     1       4.509  -1.980   1.372  1.00  0.00     0.139 C 
BRANCH   6   7
ATOM      7  N   UNL     1       5.495  -1.802   0.292  1.00  0.00    -0.292 N 
ATOM      8  C   UNL     1       6.197  -0.605   0.216  1.00  0.00     0.266 C 
ATOM      9  C   UNL     1       5.836  -2.765  -0.635  1.00  0.00     0.148 C 
ATOM     10  O   UNL     1       6.189   0.273   1.065  1.00  0.00    -0.268 OA
ATOM     11  C   UNL     1       6.930  -0.522  -1.080  1.00  0.00     0.084 C 
ATOM     12  S   UNL     1       7.025  -2.110  -1.759  1.00  0.00    -0.054 SA
ATOM     13  S   UNL     1       5.274  -4.326  -0.778  1.00  0.00    -0.052 S 
ATOM     14  C   UNL     1       7.321   0.561  -1.769  1.00  0.00     0.068 C 
BRANCH  14  15
ATOM     15  C   UNL     1       7.116   1.913  -1.377  1.00  0.00     0.128 A 
ATOM     16  C   UNL     1       7.468   2.587  -0.215  1.00  0.00     0.051 A 
ATOM     17  O   UNL     1       6.517   2.834  -2.219  1.00  0.00    -0.457 OA
ATOM     18  C   UNL     1       7.067   3.936  -0.350  1.00  0.00     0.051 A 
ATOM     19  C   UNL     1       6.476   4.042  -1.587  1.00  0.00     0.134 A 
BRANCH  19  20
ATOM     20  C   UNL     1       5.835   5.143  -2.293  1.00  0.00     0.019 A 
ATOM     21  C   UNL     1       6.451   6.402  -2.340  1.00  0.00     0.012 A 
ATOM     22  C   UNL     1       4.563   4.995  -2.861  1.00  0.00     0.032 A 
ATOM     23  C   UNL     1       5.803   7.495  -2.924  1.00  0.00     0.002 A 
ATOM     24  C   UNL     1       3.910   6.093  -3.424  1.00  0.00     0.041 A 
ATOM     25  C   UNL     1       4.524   7.343  -3.455  1.00  0.00     0.020 A 
ATOM     26  Cl  UNL     1       2.325   5.907  -4.066  1.00  0.00    -0.084 Cl
ENDBRANCH  19  20
ENDBRANCH  14  15
ENDBRANCH   6   7
ENDBRANCH   5   6
ENDBRANCH   3   5
ENDBRANCH   2   3
ENDBRANCH   1   2
BRANCH   1  27
ATOM     27  C   UNL     1       3.172   1.944  -0.943  1.00  0.00     0.275 C 
BRANCH  27  28
ATOM     28  O   UNL     1       3.051   2.150   0.466  1.00  0.00    -0.458 OA
BRANCH  28  29
ATOM     29  C   UNL     1       1.773   2.356   0.872  1.00  0.00     0.338 C 
ATOM     30  O   UNL     1       0.811   2.553   0.153  1.00  0.00    -0.246 OA
BRANCH  29  31
ATOM     31  C   UNL     1       1.670   2.114   2.325  1.00  0.00     0.060 A 
ATOM     32  C   UNL     1       0.489   1.517   2.778  1.00  0.00     0.016 A 
ATOM     33  C   UNL     1       2.680   2.462   3.230  1.00  0.00     0.016 A 
ATOM     34  C   UNL     1       0.284   1.327   4.140  1.00  0.00     0.010 A 
ATOM     35  C   UNL     1       2.474   2.265   4.600  1.00  0.00     0.010 A 
ATOM     36  C   UNL     1       1.258   1.735   5.060  1.00  0.00    -0.014 A 
BRANCH  36  37
ATOM     37  C   UNL     1       0.905   1.748   6.499  1.00  0.00     0.031 A 
ATOM     38  C   UNL     1       0.423   3.034   7.112  1.00  0.00     0.074 A 
ATOM     39  C   UNL     1       0.930   0.614   7.221  1.00  0.00     0.049 A 
ATOM     40  N   UNL     1      -0.044   3.258   8.312  1.00  0.00    -0.248 NA
ATOM     41  C   UNL     1       0.473   4.227   6.252  1.00  0.00     0.031 C 
ATOM     42  C   UNL     1       1.355  -0.694   6.723  1.00  0.00     0.029 A 
ATOM     43  N   UNL     1       0.578   0.380   8.526  1.00  0.00    -0.354 N 
ATOM     44  C   UNL     1      -0.365   4.610   8.346  1.00  0.00     0.074 A 
ATOM     45  C   UNL     1       0.018   5.166   7.066  1.00  0.00     0.031 C 
ATOM     46  C   UNL     1       1.235  -1.596   7.712  1.00  0.00     0.029 A 
ATOM     47  C   UNL     1       0.741  -0.929   8.915  1.00  0.00     0.049 A 
ATOM     48  H   UNL     1       0.240   1.082   9.127  1.00  0.00     0.167 HD
ATOM     49  C   UNL     1      -0.946   5.319   9.345  1.00  0.00     0.034 A 
ATOM     50  C   UNL     1       0.517  -1.516  10.108  1.00  0.00     0.034 A 
ATOM     51  C   UNL     1      -1.299   4.757  10.625  1.00  0.00     0.049 A 
ATOM     52  C   UNL     1      -0.051  -0.688  11.235  1.00  0.00     0.074 A 
ATOM     53  C   UNL     1      -1.901   5.378  11.705  1.00  0.00     0.029 A 
ATOM     54  N   UNL     1      -1.065   3.441  11.005  1.00  0.00    -0.354 N 
ATOM     55  N   UNL     1      -0.388   0.582  11.241  1.00  0.00    -0.248 NA
ATOM     56  C   UNL     1      -0.284  -1.377  12.511  1.00  0.00     0.031 C 
ATOM     57  C   UNL     1      -1.967   4.459  12.759  1.00  0.00     0.029 A 
ATOM     58  C   UNL     1      -1.474   3.242  12.314  1.00  0.00     0.049 A 
ATOM     59  H   UNL     1      -0.665   2.751  10.428  1.00  0.00     0.167 HD
ATOM     60  C   UNL     1      -0.903   0.833  12.510  1.00  0.00     0.074 A 
ATOM     61  C   UNL     1      -0.841  -0.419  13.237  1.00  0.00     0.031 C 
ATOM     62  C   UNL     1      -1.391   1.990  13.028  1.00  0.00     0.034 A 
BRANCH  49  63
ATOM     63  C   UNL     1      -1.186   6.788   9.095  1.00  0.00     0.023 A 
ATOM     64  C   UNL     1      -2.079   7.230   8.103  1.00  0.00     0.031 A 
ATOM     65  C   UNL     1      -0.481   7.758   9.828  1.00  0.00     0.131 A 
ATOM     66  C   UNL     1      -2.190   8.601   7.822  1.00  0.00     0.055 A 
ATOM     67  C   UNL     1      -0.652   9.124   9.594  1.00  0.00     0.041 A 
ATOM     68  F   UNL     1       0.403   7.394  10.770  1.00  0.00    -0.206 F 
ATOM     69  C   UNL     1      -1.499   9.552   8.576  1.00  0.00     0.022 A 
BRANCH  66  70
ATOM     70  S   UNL     1      -3.137   9.114   6.362  1.00  0.00     0.124 S 
ATOM     71  O   UNL     1      -2.432   8.414   5.291  1.00  0.00    -0.237 OA
ATOM     72  O   UNL     1      -4.478   8.630   6.670  1.00  0.00    -0.237 OA
ATOM     73  O   UNL     1      -2.986  10.568   6.350  1.00  0.00    -0.744 OA
ENDBRANCH  66  70
ENDBRANCH  49  63
BRANCH  50  74
ATOM     74  C   UNL     1       0.850  -2.954  10.315  1.00  0.00     0.023 A 
ATOM     75  C   UNL     1      -0.146  -3.901  10.599  1.00  0.00     0.031 A 
ATOM     76  C   UNL     1       2.187  -3.389  10.288  1.00  0.00     0.131 A 
ATOM     77  C   UNL     1       0.215  -5.227  10.892  1.00  0.00     0.055 A 
ATOM     78  C   UNL     1       2.537  -4.718  10.532  1.00  0.00     0.041 A 
ATOM     79  F   UNL     1       3.178  -2.522  10.020  1.00  0.00    -0.206 F 
ATOM     80  C   UNL     1       1.548  -5.643  10.850  1.00  0.00     0.022 A 
BRANCH  77  81
ATOM     81  S   UNL     1      -1.080  -6.385  11.414  1.00  0.00     0.124 S 
ATOM     82  O   UNL     1      -1.623  -5.714  12.589  1.00  0.00    -0.237 OA
ATOM     83  O   UNL     1      -1.944  -6.423  10.239  1.00  0.00    -0.237 OA
ATOM     84  O   UNL     1      -0.344  -7.619  11.684  1.00  0.00    -0.744 OA
ENDBRANCH  77  81
ENDBRANCH  50  74
BRANCH  62  85
ATOM     85  C   UNL     1      -1.931   1.937  14.436  1.00  0.00     0.023 A 
ATOM     86  C   UNL     1      -1.090   1.728  15.543  1.00  0.00     0.031 A 
ATOM     87  C   UNL     1      -3.309   2.094  14.671  1.00  0.00     0.131 A 
ATOM     88  C   UNL     1      -1.641   1.631  16.830  1.00  0.00     0.055 A 
ATOM     89  C   UNL     1      -3.844   2.052  15.958  1.00  0.00     0.041 A 
ATOM     90  F   UNL     1      -4.157   2.296  13.649  1.00  0.00    -0.206 F 
ATOM     91  C   UNL     1      -3.011   1.807  17.046  1.00  0.00     0.022 A 
BRANCH  88  92
ATOM     92  S   UNL     1      -0.554   1.190  18.213  1.00  0.00     0.124 S 
ATOM     93  O   UNL     1      -0.025  -0.101  17.785  1.00  0.00    -0.237 OA
ATOM     94  O   UNL     1       0.398   2.296  18.227  1.00  0.00    -0.237 OA
ATOM     95  O   UNL     1      -1.460   1.139  19.360  1.00  0.00    -0.744 OA
ENDBRANCH  88  92
ENDBRANCH  62  85
ENDBRANCH  36  37
ENDBRANCH  29  31
ENDBRANCH  28  29
ENDBRANCH  27  28
ENDBRANCH   1  27
TORSDOF 18
