REMARK SMILES COC(=O)c1ccc([C@H]2Nc3c(C(=O)OCCOC(=O)c4ccc(-c5c6nc(c(-c7cc(S(=O)(=O)[O-])ccc7F)c7ccc([nH]7)c(-c7cc(S(=O)(=O)[O-])ccc7F)c7nc(c(-c8cc(S(=O)(=O)[O-])ccc8F)c8ccc5[nH]8)C=C7)C=C6)cc4)cccc3[C@H]3[C@H]4CC[C@H](C4)[C@H]32)cc1
REMARK SMILES IDX 16 1 15 2 13 3 14 4 12 5 9 6 10 7 94 8 11 9 88 11 92 12
REMARK SMILES IDX 87 13 89 14 91 15 93 16 84 17 86 18 90 19 85 20 8 21 5 22
REMARK SMILES IDX 6 23 96 24 7 25 95 26 3 27 4 28 2 29 1 30 17 31 18 32 19 33
REMARK SMILES IDX 20 34 21 35 22 36 83 37 23 38 82 39 24 40 25 41 26 42 76 43
REMARK SMILES IDX 27 44 81 45 75 46 77 47 28 48 80 49 74 50 73 51 29 53 61 54
REMARK SMILES IDX 41 55 60 56 42 57 45 58 59 59 78 60 43 61 44 62 58 64 79 65
REMARK SMILES IDX 46 66 30 67 31 68 39 69 32 70 38 71 40 72 37 73 33 74 34 75
REMARK SMILES IDX 35 76 36 77 62 78 63 79 71 80 64 81 70 82 72 83 69 84 65 85
REMARK SMILES IDX 66 86 67 87 68 88 47 89 48 90 56 91 49 92 55 93 57 94 54 95
REMARK SMILES IDX 50 96 51 97 52 98 53 99
REMARK H PARENT 10 10 77 52 45 63
REMARK Flexibility Score: inf
ROOT
ATOM      1  C   UNL     1       0.306   8.612  -6.699  1.00  0.00     0.275 C 
ENDROOT
BRANCH   1   2
ATOM      2  O   UNL     1      -0.039   9.351  -5.511  1.00  0.00    -0.458 OA
BRANCH   2   3
ATOM      3  C   UNL     1      -1.093   8.898  -4.781  1.00  0.00     0.340 C 
ATOM      4  O   UNL     1      -1.763   7.903  -4.998  1.00  0.00    -0.246 OA
BRANCH   3   5
ATOM      5  C   UNL     1      -1.374   9.922  -3.758  1.00  0.00     0.083 A 
ATOM      6  C   UNL     1      -1.264   8.241  -0.468  1.00  0.00     0.113 C 
ATOM      7  N   UNL     1      -0.688   8.535  -1.818  1.00  0.00    -0.377 N 
ATOM      8  C   UNL     1      -0.691   9.350   0.465  1.00  0.00     0.027 C 
ATOM      9  C   UNL     1      -1.102   9.751  -2.392  1.00  0.00     0.053 A 
ATOM     10  H   UNL     1      -0.065   7.922  -2.272  1.00  0.00     0.161 HD
ATOM     11  C   UNL     1      -0.522  10.746  -0.202  1.00  0.00     0.030 C 
ATOM     12  C   UNL     1      -1.137   9.716   1.906  1.00  0.00    -0.005 C 
ATOM     13  C   UNL     1      -1.188  10.875  -1.545  1.00  0.00    -0.020 A 
ATOM     14  C   UNL     1      -0.806  11.727   0.956  1.00  0.00    -0.003 C 
ATOM     15  C   UNL     1      -2.486  10.441   2.058  1.00  0.00     0.004 C 
ATOM     16  C   UNL     1      -0.221  10.943   2.143  1.00  0.00     0.008 C 
ATOM     17  C   UNL     1      -1.951  11.112  -4.222  1.00  0.00     0.018 A 
ATOM     18  C   UNL     1      -1.727  12.074  -2.026  1.00  0.00     0.006 A 
ATOM     19  C   UNL     1      -2.293  11.759   1.317  1.00  0.00     0.004 C 
ATOM     20  C   UNL     1      -2.160  12.173  -3.347  1.00  0.00     0.001 A 
BRANCH   6  21
ATOM     21  C   UNL     1      -2.760   7.932  -0.588  1.00  0.00    -0.025 A 
ATOM     22  C   UNL     1      -5.558   7.765  -0.916  1.00  0.00     0.060 A 
ATOM     23  C   UNL     1      -4.725   7.548  -2.007  1.00  0.00     0.016 A 
ATOM     24  C   UNL     1      -5.002   7.852   0.361  1.00  0.00     0.016 A 
ATOM     25  C   UNL     1      -3.343   7.615  -1.832  1.00  0.00     0.007 A 
ATOM     26  C   UNL     1      -3.607   7.865   0.519  1.00  0.00     0.007 A 
BRANCH  22  27
ATOM     27  C   UNL     1      -7.001   7.958  -1.172  1.00  0.00     0.337 C 
ATOM     28  O   UNL     1      -7.630   7.391  -2.050  1.00  0.00    -0.246 OA
BRANCH  27  29
ATOM     29  O   UNL     1      -7.435   8.992  -0.405  1.00  0.00    -0.465 OA
ATOM     30  C   UNL     1      -8.737   9.483  -0.726  1.00  0.00     0.282 C 
ENDBRANCH  27  29
ENDBRANCH  22  27
ENDBRANCH   6  21
ENDBRANCH   3   5
ENDBRANCH   2   3
ENDBRANCH   1   2
BRANCH   1  31
ATOM     31  C   UNL     1       1.714   8.041  -6.572  1.00  0.00     0.275 C 
BRANCH  31  32
ATOM     32  O   UNL     1       1.688   6.991  -5.594  1.00  0.00    -0.458 OA
BRANCH  32  33
ATOM     33  C   UNL     1       2.400   7.216  -4.468  1.00  0.00     0.338 C 
ATOM     34  O   UNL     1       3.184   8.121  -4.250  1.00  0.00    -0.246 OA
BRANCH  33  35
ATOM     35  C   UNL     1       2.044   6.196  -3.470  1.00  0.00     0.060 A 
ATOM     36  C   UNL     1       0.715   6.067  -3.079  1.00  0.00     0.016 A 
ATOM     37  C   UNL     1       3.041   5.481  -2.810  1.00  0.00     0.016 A 
ATOM     38  C   UNL     1       0.398   5.329  -1.942  1.00  0.00     0.010 A 
ATOM     39  C   UNL     1       2.696   4.641  -1.743  1.00  0.00     0.010 A 
ATOM     40  C   UNL     1       1.377   4.596  -1.255  1.00  0.00    -0.014 A 
BRANCH  40  41
ATOM     41  C   UNL     1       1.038   3.847  -0.004  1.00  0.00     0.031 A 
ATOM     42  C   UNL     1       1.840   4.074   1.257  1.00  0.00     0.074 A 
ATOM     43  C   UNL     1       0.000   2.984   0.031  1.00  0.00     0.049 A 
ATOM     44  N   UNL     1       1.875   3.369   2.360  1.00  0.00    -0.248 NA
ATOM     45  C   UNL     1       2.736   5.241   1.270  1.00  0.00     0.031 C 
ATOM     46  C   UNL     1      -0.916   2.709  -1.077  1.00  0.00     0.029 A 
ATOM     47  N   UNL     1      -0.469   2.183   1.046  1.00  0.00    -0.354 N 
ATOM     48  C   UNL     1       2.852   3.954   3.161  1.00  0.00     0.074 A 
ATOM     49  C   UNL     1       3.382   5.078   2.416  1.00  0.00     0.031 C 
ATOM     50  C   UNL     1      -1.866   1.858  -0.667  1.00  0.00     0.029 A 
ATOM     51  C   UNL     1      -1.554   1.416   0.685  1.00  0.00     0.049 A 
ATOM     52  H   UNL     1      -0.067   2.160   1.945  1.00  0.00     0.167 HD
ATOM     53  C   UNL     1       3.272   3.582   4.397  1.00  0.00     0.034 A 
ATOM     54  C   UNL     1      -2.191   0.420   1.332  1.00  0.00     0.034 A 
ATOM     55  C   UNL     1       2.683   2.500   5.153  1.00  0.00     0.049 A 
ATOM     56  C   UNL     1      -1.687  -0.005   2.685  1.00  0.00     0.074 A 
ATOM     57  C   UNL     1       3.021   2.044   6.416  1.00  0.00     0.029 A 
ATOM     58  N   UNL     1       1.619   1.716   4.724  1.00  0.00    -0.354 N 
ATOM     59  N   UNL     1      -0.687   0.481   3.382  1.00  0.00    -0.248 NA
ATOM     60  C   UNL     1      -2.380  -1.129   3.325  1.00  0.00     0.031 C 
ATOM     61  C   UNL     1       2.202   0.953   6.727  1.00  0.00     0.029 A 
ATOM     62  C   UNL     1       1.302   0.771   5.690  1.00  0.00     0.049 A 
ATOM     63  H   UNL     1       1.157   1.816   3.861  1.00  0.00     0.167 HD
ATOM     64  C   UNL     1      -0.639  -0.273   4.550  1.00  0.00     0.074 A 
ATOM     65  C   UNL     1      -1.725  -1.229   4.472  1.00  0.00     0.031 C 
ATOM     66  C   UNL     1       0.227  -0.186   5.592  1.00  0.00     0.034 A 
BRANCH  53  67
ATOM     67  C   UNL     1       4.466   4.301   4.982  1.00  0.00     0.023 A 
ATOM     68  C   UNL     1       4.435   5.665   5.320  1.00  0.00     0.031 A 
ATOM     69  C   UNL     1       5.670   3.602   5.190  1.00  0.00     0.131 A 
ATOM     70  C   UNL     1       5.600   6.298   5.783  1.00  0.00     0.055 A 
ATOM     71  C   UNL     1       6.802   4.219   5.725  1.00  0.00     0.041 A 
ATOM     72  F   UNL     1       5.769   2.302   4.867  1.00  0.00    -0.206 F 
ATOM     73  C   UNL     1       6.776   5.580   6.012  1.00  0.00     0.022 A 
BRANCH  70  74
ATOM     74  S   UNL     1       5.597   8.105   5.952  1.00  0.00     0.124 S 
ATOM     75  O   UNL     1       5.248   8.528   4.598  1.00  0.00    -0.237 OA
ATOM     76  O   UNL     1       4.577   8.324   6.971  1.00  0.00    -0.237 OA
ATOM     77  O   UNL     1       6.966   8.414   6.361  1.00  0.00    -0.744 OA
ENDBRANCH  70  74
ENDBRANCH  53  67
BRANCH  54  78
ATOM     78  C   UNL     1      -3.314  -0.309   0.670  1.00  0.00     0.023 A 
ATOM     79  C   UNL     1      -4.610  -0.294   1.208  1.00  0.00     0.031 A 
ATOM     80  C   UNL     1      -3.097  -1.054  -0.504  1.00  0.00     0.131 A 
ATOM     81  C   UNL     1      -5.631  -1.032   0.589  1.00  0.00     0.055 A 
ATOM     82  C   UNL     1      -4.129  -1.733  -1.152  1.00  0.00     0.041 A 
ATOM     83  F   UNL     1      -1.874  -1.113  -1.056  1.00  0.00    -0.206 F 
ATOM     84  C   UNL     1      -5.405  -1.732  -0.599  1.00  0.00     0.022 A 
BRANCH  81  85
ATOM     85  S   UNL     1      -7.248  -1.135   1.405  1.00  0.00     0.124 S 
ATOM     86  O   UNL     1      -6.893  -1.719   2.693  1.00  0.00    -0.237 OA
ATOM     87  O   UNL     1      -7.667   0.262   1.429  1.00  0.00    -0.237 OA
ATOM     88  O   UNL     1      -8.022  -2.002   0.519  1.00  0.00    -0.744 OA
ENDBRANCH  81  85
ENDBRANCH  54  78
BRANCH  66  89
ATOM     89  C   UNL     1      -0.006  -1.127   6.747  1.00  0.00     0.023 A 
ATOM     90  C   UNL     1       0.200  -2.512   6.624  1.00  0.00     0.031 A 
ATOM     91  C   UNL     1      -0.467  -0.630   7.978  1.00  0.00     0.131 A 
ATOM     92  C   UNL     1      -0.110  -3.360   7.698  1.00  0.00     0.055 A 
ATOM     93  C   UNL     1      -0.721  -1.473   9.060  1.00  0.00     0.041 A 
ATOM     94  F   UNL     1      -0.682   0.684   8.147  1.00  0.00    -0.206 F 
ATOM     95  C   UNL     1      -0.555  -2.848   8.920  1.00  0.00     0.022 A 
BRANCH  92  96
ATOM     96  S   UNL     1      -0.009  -5.154   7.449  1.00  0.00     0.124 S 
ATOM     97  O   UNL     1      -0.947  -5.362   6.351  1.00  0.00    -0.237 OA
ATOM     98  O   UNL     1       1.402  -5.346   7.128  1.00  0.00    -0.237 OA
ATOM     99  O   UNL     1      -0.430  -5.703   8.737  1.00  0.00    -0.744 OA
ENDBRANCH  92  96
ENDBRANCH  66  89
ENDBRANCH  40  41
ENDBRANCH  33  35
ENDBRANCH  32  33
ENDBRANCH  31  32
ENDBRANCH   1  31
TORSDOF 17
