REMARK SMILES O=Cc1c(OCc2ccc(C(=O)OCCOC(=O)c3ccc(-c4c5nc(c(-c6cc(S(=O)(=O)[O-])ccc6F)c6ccc([nH]6)c(-c6cc(S(=O)(=O)[O-])ccc6F)c6nc(c(-c7cc(S(=O)(=O)[O-])ccc7F)c7ccc4[nH]7)C=C6)C=C5)cc3)cc2)ccc2ccccc12
REMARK SMILES IDX 14 1 13 2 11 3 12 4 10 5 7 6 8 7 83 8 9 9 82 10 6 11 5 12
REMARK SMILES IDX 4 13 3 14 91 15 84 16 86 17 90 18 85 19 87 20 89 21 88 22
REMARK SMILES IDX 2 23 1 24 15 25 16 26 17 27 18 28 19 29 20 30 81 31 21 32
REMARK SMILES IDX 80 33 22 34 23 35 24 36 74 37 25 38 79 39 73 40 75 41 26 42
REMARK SMILES IDX 78 43 72 44 71 45 27 47 59 48 39 49 58 50 40 51 43 52 57 53
REMARK SMILES IDX 76 54 41 55 42 56 56 58 77 59 44 60 28 61 29 62 37 63 30 64
REMARK SMILES IDX 36 65 38 66 35 67 31 68 32 69 33 70 34 71 60 72 61 73 69 74
REMARK SMILES IDX 62 75 68 76 70 77 67 78 63 79 64 80 65 81 66 82 45 83 46 84
REMARK SMILES IDX 54 85 47 86 53 87 55 88 52 89 48 90 49 91 50 92 51 93
REMARK H PARENT 75 46 43 57
REMARK Flexibility Score: inf
ROOT
ATOM      1  C   UNL     1       7.507  -5.781   6.316  1.00  0.00     0.275 C 
ENDROOT
BRANCH   1   2
ATOM      2  O   UNL     1       6.414  -4.939   5.900  1.00  0.00    -0.458 OA
BRANCH   2   3
ATOM      3  C   UNL     1       5.785  -5.287   4.748  1.00  0.00     0.338 C 
ATOM      4  O   UNL     1       6.084  -6.221   4.019  1.00  0.00    -0.246 OA
BRANCH   3   5
ATOM      5  C   UNL     1       4.616  -4.404   4.497  1.00  0.00     0.060 A 
ATOM      6  C   UNL     1       2.403  -2.731   3.936  1.00  0.00    -0.011 A 
ATOM      7  C   UNL     1       2.434  -4.048   3.468  1.00  0.00     0.008 A 
ATOM      8  C   UNL     1       3.478  -2.291   4.728  1.00  0.00     0.008 A 
ATOM      9  C   UNL     1       3.537  -4.869   3.731  1.00  0.00     0.016 A 
ATOM     10  C   UNL     1       4.580  -3.106   4.995  1.00  0.00     0.016 A 
BRANCH   6  11
ATOM     11  C   UNL     1       1.243  -1.815   3.574  1.00  0.00     0.265 C 
BRANCH  11  12
ATOM     12  O   UNL     1       1.453  -1.024   2.389  1.00  0.00    -0.488 OA
BRANCH  12  13
ATOM     13  C   UNL     1       2.367  -0.004   2.416  1.00  0.00     0.130 A 
ATOM     14  C   UNL     1       2.940   0.419   1.204  1.00  0.00     0.064 A 
ATOM     15  C   UNL     1       4.078   1.279   1.176  1.00  0.00    -0.004 A 
ATOM     16  C   UNL     1       2.804   0.594   3.592  1.00  0.00     0.048 A 
ATOM     17  C   UNL     1       4.622   1.689   2.416  1.00  0.00    -0.017 A 
ATOM     18  C   UNL     1       4.713   1.763   0.004  1.00  0.00     0.009 A 
ATOM     19  C   UNL     1       3.955   1.377   3.603  1.00  0.00     0.012 A 
ATOM     20  C   UNL     1       5.811   2.433   2.464  1.00  0.00     0.009 A 
ATOM     21  C   UNL     1       5.874   2.542   0.065  1.00  0.00     0.001 A 
ATOM     22  C   UNL     1       6.440   2.849   1.295  1.00  0.00     0.001 A 
BRANCH  14  23
ATOM     23  C   UNL     1       2.364  -0.054  -0.073  1.00  0.00     0.264 C 
ATOM     24  O   UNL     1       1.165   0.002  -0.316  1.00  0.00    -0.298 OA
ENDBRANCH  14  23
ENDBRANCH  12  13
ENDBRANCH  11  12
ENDBRANCH   6  11
ENDBRANCH   3   5
ENDBRANCH   2   3
ENDBRANCH   1   2
BRANCH   1  25
ATOM     25  C   UNL     1       7.094  -6.708   7.460  1.00  0.00     0.275 C 
BRANCH  25  26
ATOM     26  O   UNL     1       6.145  -7.692   7.011  1.00  0.00    -0.458 OA
BRANCH  26  27
ATOM     27  C   UNL     1       4.856  -7.404   7.305  1.00  0.00     0.338 C 
ATOM     28  O   UNL     1       4.439  -6.450   7.939  1.00  0.00    -0.246 OA
BRANCH  27  29
ATOM     29  C   UNL     1       3.961  -8.369   6.655  1.00  0.00     0.060 A 
ATOM     30  C   UNL     1       3.551  -8.090   5.357  1.00  0.00     0.016 A 
ATOM     31  C   UNL     1       3.375  -9.412   7.363  1.00  0.00     0.016 A 
ATOM     32  C   UNL     1       2.472  -8.762   4.797  1.00  0.00     0.010 A 
ATOM     33  C   UNL     1       2.367 -10.170   6.751  1.00  0.00     0.010 A 
ATOM     34  C   UNL     1       1.873  -9.828   5.476  1.00  0.00    -0.014 A 
BRANCH  34  35
ATOM     35  C   UNL     1       0.708 -10.546   4.877  1.00  0.00     0.031 A 
ATOM     36  C   UNL     1      -0.582 -10.661   5.650  1.00  0.00     0.074 A 
ATOM     37  C   UNL     1       0.792 -11.084   3.642  1.00  0.00     0.049 A 
ATOM     38  N   UNL     1      -1.620 -11.425   5.427  1.00  0.00    -0.248 NA
ATOM     39  C   UNL     1      -0.706  -9.817   6.848  1.00  0.00     0.031 C 
ATOM     40  C   UNL     1       1.947 -10.984   2.747  1.00  0.00     0.029 A 
ATOM     41  N   UNL     1      -0.114 -11.825   2.921  1.00  0.00    -0.354 N 
ATOM     42  C   UNL     1      -2.493 -11.203   6.488  1.00  0.00     0.074 A 
ATOM     43  C   UNL     1      -1.849 -10.246   7.363  1.00  0.00     0.031 C 
ATOM     44  C   UNL     1       1.669 -11.602   1.591  1.00  0.00     0.029 A 
ATOM     45  C   UNL     1       0.370 -12.252   1.704  1.00  0.00     0.049 A 
ATOM     46  H   UNL     1      -1.020 -12.032   3.243  1.00  0.00     0.167 HD
ATOM     47  C   UNL     1      -3.716 -11.751   6.707  1.00  0.00     0.034 A 
ATOM     48  C   UNL     1      -0.135 -13.121   0.807  1.00  0.00     0.034 A 
ATOM     49  C   UNL     1      -4.351 -12.675   5.797  1.00  0.00     0.049 A 
ATOM     50  C   UNL     1      -1.453 -13.785   1.109  1.00  0.00     0.074 A 
ATOM     51  C   UNL     1      -5.588 -13.286   5.910  1.00  0.00     0.029 A 
ATOM     52  N   UNL     1      -3.800 -13.119   4.599  1.00  0.00    -0.354 N 
ATOM     53  N   UNL     1      -2.236 -13.628   2.152  1.00  0.00    -0.248 NA
ATOM     54  C   UNL     1      -1.948 -14.750   0.122  1.00  0.00     0.031 C 
ATOM     55  C   UNL     1      -5.750 -14.156   4.826  1.00  0.00     0.029 A 
ATOM     56  C   UNL     1      -4.658 -14.019   3.984  1.00  0.00     0.049 A 
ATOM     57  H   UNL     1      -2.928 -12.836   4.240  1.00  0.00     0.167 HD
ATOM     58  C   UNL     1      -3.333 -14.453   1.928  1.00  0.00     0.074 A 
ATOM     59  C   UNL     1      -3.114 -15.095   0.647  1.00  0.00     0.031 C 
ATOM     60  C   UNL     1      -4.426 -14.657   2.708  1.00  0.00     0.034 A 
BRANCH  47  61
ATOM     61  C   UNL     1      -4.408 -11.419   8.011  1.00  0.00     0.023 A 
ATOM     62  C   UNL     1      -4.785 -10.108   8.351  1.00  0.00     0.031 A 
ATOM     63  C   UNL     1      -4.660 -12.436   8.953  1.00  0.00     0.131 A 
ATOM     64  C   UNL     1      -5.311  -9.837   9.625  1.00  0.00     0.055 A 
ATOM     65  C   UNL     1      -5.269 -12.173  10.182  1.00  0.00     0.041 A 
ATOM     66  F   UNL     1      -4.303 -13.705   8.701  1.00  0.00    -0.206 F 
ATOM     67  C   UNL     1      -5.581 -10.864  10.532  1.00  0.00     0.022 A 
BRANCH  64  68
ATOM     68  S   UNL     1      -5.476  -8.106  10.143  1.00  0.00     0.124 S 
ATOM     69  O   UNL     1      -4.106  -7.621   9.993  1.00  0.00    -0.237 OA
ATOM     70  O   UNL     1      -6.448  -7.582   9.191  1.00  0.00    -0.237 OA
ATOM     71  O   UNL     1      -5.945  -8.204  11.524  1.00  0.00    -0.744 OA
ENDBRANCH  64  68
ENDBRANCH  47  61
BRANCH  48  72
ATOM     72  C   UNL     1       0.639 -13.474  -0.420  1.00  0.00     0.023 A 
ATOM     73  C   UNL     1       0.131 -13.205  -1.700  1.00  0.00     0.031 A 
ATOM     74  C   UNL     1       1.890 -14.115  -0.331  1.00  0.00     0.131 A 
ATOM     75  C   UNL     1       0.850 -13.608  -2.836  1.00  0.00     0.055 A 
ATOM     76  C   UNL     1       2.632 -14.452  -1.463  1.00  0.00     0.041 A 
ATOM     77  F   UNL     1       2.422 -14.404   0.868  1.00  0.00    -0.206 F 
ATOM     78  C   UNL     1       2.106 -14.210  -2.727  1.00  0.00     0.022 A 
BRANCH  75  79
ATOM     79  S   UNL     1       0.077 -13.416  -4.465  1.00  0.00     0.124 S 
ATOM     80  O   UNL     1      -1.145 -14.195  -4.306  1.00  0.00    -0.237 OA
ATOM     81  O   UNL     1      -0.091 -11.969  -4.553  1.00  0.00    -0.237 OA
ATOM     82  O   UNL     1       1.065 -13.983  -5.380  1.00  0.00    -0.744 OA
ENDBRANCH  75  79
ENDBRANCH  48  72
BRANCH  60  83
ATOM     83  C   UNL     1      -5.500 -15.564   2.159  1.00  0.00     0.023 A 
ATOM     84  C   UNL     1      -5.286 -16.939   1.962  1.00  0.00     0.031 A 
ATOM     85  C   UNL     1      -6.757 -15.035   1.817  1.00  0.00     0.131 A 
ATOM     86  C   UNL     1      -6.294 -17.727   1.387  1.00  0.00     0.055 A 
ATOM     87  C   UNL     1      -7.779 -15.836   1.309  1.00  0.00     0.041 A 
ATOM     88  F   UNL     1      -7.014 -13.726   1.978  1.00  0.00    -0.206 F 
ATOM     89  C   UNL     1      -7.546 -17.188   1.078  1.00  0.00     0.022 A 
BRANCH  86  90
ATOM     90  S   UNL     1      -5.917 -19.447   0.952  1.00  0.00     0.124 S 
ATOM     91  O   UNL     1      -4.794 -19.287   0.033  1.00  0.00    -0.237 OA
ATOM     92  O   UNL     1      -5.600 -20.035   2.249  1.00  0.00    -0.237 OA
ATOM     93  O   UNL     1      -7.155 -19.926   0.341  1.00  0.00    -0.744 OA
ENDBRANCH  86  90
ENDBRANCH  60  83
ENDBRANCH  34  35
ENDBRANCH  27  29
ENDBRANCH  26  27
ENDBRANCH  25  26
ENDBRANCH   1  25
TORSDOF 18
