REMARK SMILES Cc1noc(C)c1COc1ccc(C(=O)OCCOC(=O)c2ccc(-c3c4nc(c(-c5cc(S(=O)(=O)[O-])ccc5F)c5ccc([nH]5)c(-c5cc(S(=O)(=O)[O-])ccc5F)c5nc(c(-c6cc(S(=O)(=O)[O-])ccc6F)c6ccc3[nH]6)C=C5)C=C4)cc2)cc1
REMARK SMILES IDX 17 1 16 2 14 3 15 4 13 5 10 6 11 7 86 8 12 9 85 10 9 11 8 12
REMARK SMILES IDX 7 13 1 14 2 15 3 16 4 17 5 18 6 19 18 20 19 21 20 22 21 23
REMARK SMILES IDX 22 24 23 25 84 26 24 27 83 28 25 29 26 30 27 31 77 32 28 33
REMARK SMILES IDX 82 34 76 35 78 36 29 37 81 38 75 39 74 40 30 42 62 43 42 44
REMARK SMILES IDX 61 45 43 46 46 47 60 48 79 49 44 50 45 51 59 53 80 54 47 55
REMARK SMILES IDX 31 56 32 57 40 58 33 59 39 60 41 61 38 62 34 63 35 64 36 65
REMARK SMILES IDX 37 66 63 67 64 68 72 69 65 70 71 71 73 72 70 73 66 74 67 75
REMARK SMILES IDX 68 76 69 77 48 78 49 79 57 80 50 81 56 82 58 83 55 84 51 85
REMARK SMILES IDX 52 86 53 87 54 88
REMARK H PARENT 78 41 46 52
REMARK Flexibility Score: inf
ROOT
ATOM      1  C   UNL     1       2.235   0.297  -7.736  1.00  0.00     0.275 C 
ENDROOT
BRANCH   1   2
ATOM      2  O   UNL     1       1.615   0.552  -6.463  1.00  0.00    -0.458 OA
BRANCH   2   3
ATOM      3  C   UNL     1       1.938   1.729  -5.865  1.00  0.00     0.338 C 
ATOM      4  O   UNL     1       2.722   2.559  -6.279  1.00  0.00    -0.246 OA
BRANCH   3   5
ATOM      5  C   UNL     1       1.137   1.916  -4.628  1.00  0.00     0.060 A 
ATOM      6  C   UNL     1      -0.317   2.342  -2.291  1.00  0.00     0.119 A 
ATOM      7  C   UNL     1       0.075   3.433  -3.051  1.00  0.00     0.047 A 
ATOM      8  C   UNL     1      -0.045   1.040  -2.721  1.00  0.00     0.047 A 
ATOM      9  C   UNL     1       0.837   3.220  -4.197  1.00  0.00     0.019 A 
ATOM     10  C   UNL     1       0.691   0.824  -3.884  1.00  0.00     0.019 A 
BRANCH   6  11
ATOM     11  O   UNL     1      -0.992   2.583  -1.127  1.00  0.00    -0.489 OA
BRANCH  11  12
ATOM     12  C   UNL     1      -0.144   2.373   0.018  1.00  0.00     0.271 C 
BRANCH  12  13
ATOM     13  C   UNL     1      -0.052   0.939   0.400  1.00  0.00     0.055 A 
ATOM     14  C   UNL     1      -2.577   0.285   0.400  1.00  0.00     0.071 C 
ATOM     15  C   UNL     1      -1.127   0.023   0.571  1.00  0.00     0.087 A 
ATOM     16  N   UNL     1      -0.679  -1.210   0.836  1.00  0.00    -0.085 NA
ATOM     17  O   UNL     1       0.701  -1.126   0.799  1.00  0.00    -0.361 OA
ATOM     18  C   UNL     1       1.072   0.151   0.515  1.00  0.00     0.140 A 
ATOM     19  C   UNL     1       2.516   0.391   0.325  1.00  0.00     0.091 C 
ENDBRANCH  12  13
ENDBRANCH  11  12
ENDBRANCH   6  11
ENDBRANCH   3   5
ENDBRANCH   2   3
ENDBRANCH   1   2
BRANCH   1  20
ATOM     20  C   UNL     1       1.259   0.536  -8.889  1.00  0.00     0.275 C 
BRANCH  20  21
ATOM     21  O   UNL     1       0.933   1.933  -9.009  1.00  0.00    -0.458 OA
BRANCH  21  22
ATOM     22  C   UNL     1      -0.271   2.280  -8.500  1.00  0.00     0.338 C 
ATOM     23  O   UNL     1      -1.102   1.538  -8.001  1.00  0.00    -0.246 OA
BRANCH  22  24
ATOM     24  C   UNL     1      -0.434   3.739  -8.524  1.00  0.00     0.060 A 
ATOM     25  C   UNL     1       0.081   4.458  -7.454  1.00  0.00     0.016 A 
ATOM     26  C   UNL     1      -1.243   4.373  -9.462  1.00  0.00     0.016 A 
ATOM     27  C   UNL     1      -0.302   5.775  -7.235  1.00  0.00     0.010 A 
ATOM     28  C   UNL     1      -1.526   5.738  -9.310  1.00  0.00     0.010 A 
ATOM     29  C   UNL     1      -1.094   6.449  -8.172  1.00  0.00    -0.014 A 
BRANCH  29  30
ATOM     30  C   UNL     1      -1.488   7.872  -7.938  1.00  0.00     0.031 A 
ATOM     31  C   UNL     1      -2.944   8.268  -7.947  1.00  0.00     0.074 A 
ATOM     32  C   UNL     1      -0.549   8.812  -7.699  1.00  0.00     0.049 A 
ATOM     33  N   UNL     1      -3.481   9.462  -7.965  1.00  0.00    -0.248 NA
ATOM     34  C   UNL     1      -3.926   7.173  -7.957  1.00  0.00     0.031 C 
ATOM     35  C   UNL     1       0.893   8.566  -7.598  1.00  0.00     0.029 A 
ATOM     36  N   UNL     1      -0.659  10.167  -7.494  1.00  0.00    -0.354 N 
ATOM     37  C   UNL     1      -4.857   9.263  -8.047  1.00  0.00     0.074 A 
ATOM     38  C   UNL     1      -5.067   7.831  -8.095  1.00  0.00     0.031 C 
ATOM     39  C   UNL     1       1.521   9.713  -7.308  1.00  0.00     0.029 A 
ATOM     40  C   UNL     1       0.552  10.800  -7.325  1.00  0.00     0.049 A 
ATOM     41  H   UNL     1      -1.523  10.639  -7.469  1.00  0.00     0.167 HD
ATOM     42  C   UNL     1      -5.847  10.191  -8.081  1.00  0.00     0.034 A 
ATOM     43  C   UNL     1       0.866  12.110  -7.258  1.00  0.00     0.034 A 
ATOM     44  C   UNL     1      -5.614  11.614  -7.993  1.00  0.00     0.049 A 
ATOM     45  C   UNL     1      -0.240  13.124  -7.375  1.00  0.00     0.074 A 
ATOM     46  C   UNL     1      -6.542  12.642  -8.003  1.00  0.00     0.029 A 
ATOM     47  N   UNL     1      -4.365  12.213  -7.874  1.00  0.00    -0.354 N 
ATOM     48  N   UNL     1      -1.530  12.925  -7.518  1.00  0.00    -0.248 NA
ATOM     49  C   UNL     1       0.151  14.538  -7.333  1.00  0.00     0.031 C 
ATOM     50  C   UNL     1      -5.853  13.859  -7.970  1.00  0.00     0.029 A 
ATOM     51  C   UNL     1      -4.499  13.594  -7.843  1.00  0.00     0.049 A 
ATOM     52  H   UNL     1      -3.510  11.728  -7.820  1.00  0.00     0.167 HD
ATOM     53  C   UNL     1      -2.107  14.191  -7.553  1.00  0.00     0.074 A 
ATOM     54  C   UNL     1      -1.025  15.143  -7.400  1.00  0.00     0.031 C 
ATOM     55  C   UNL     1      -3.412  14.534  -7.695  1.00  0.00     0.034 A 
BRANCH  42  56
ATOM     56  C   UNL     1      -7.264   9.700  -8.284  1.00  0.00     0.023 A 
ATOM     57  C   UNL     1      -7.914   8.870  -7.355  1.00  0.00     0.031 A 
ATOM     58  C   UNL     1      -7.970  10.056  -9.450  1.00  0.00     0.131 A 
ATOM     59  C   UNL     1      -9.193   8.364  -7.640  1.00  0.00     0.055 A 
ATOM     60  C   UNL     1      -9.275   9.620  -9.686  1.00  0.00     0.041 A 
ATOM     61  F   UNL     1      -7.398  10.828 -10.387  1.00  0.00    -0.206 F 
ATOM     62  C   UNL     1      -9.889   8.755  -8.786  1.00  0.00     0.022 A 
BRANCH  59  63
ATOM     63  S   UNL     1      -9.872   7.068  -6.568  1.00  0.00     0.124 S 
ATOM     64  O   UNL     1      -8.845   6.034  -6.669  1.00  0.00    -0.237 OA
ATOM     65  O   UNL     1      -9.974   7.744  -5.281  1.00  0.00    -0.237 OA
ATOM     66  O   UNL     1     -11.146   6.732  -7.201  1.00  0.00    -0.744 OA
ENDBRANCH  59  63
ENDBRANCH  42  56
BRANCH  43  67
ATOM     67  C   UNL     1       2.292  12.540  -7.150  1.00  0.00     0.023 A 
ATOM     68  C   UNL     1       2.746  13.279  -6.047  1.00  0.00     0.031 A 
ATOM     69  C   UNL     1       3.218  12.249  -8.171  1.00  0.00     0.131 A 
ATOM     70  C   UNL     1       4.073  13.736  -6.009  1.00  0.00     0.055 A 
ATOM     71  C   UNL     1       4.553  12.647  -8.096  1.00  0.00     0.041 A 
ATOM     72  F   UNL     1       2.839  11.551  -9.254  1.00  0.00    -0.206 F 
ATOM     73  C   UNL     1       4.984  13.408  -7.016  1.00  0.00     0.022 A 
BRANCH  70  74
ATOM     74  S   UNL     1       4.568  14.852  -4.668  1.00  0.00     0.124 S 
ATOM     75  O   UNL     1       3.621  15.950  -4.832  1.00  0.00    -0.237 OA
ATOM     76  O   UNL     1       4.380  14.012  -3.490  1.00  0.00    -0.237 OA
ATOM     77  O   UNL     1       5.957  15.173  -4.989  1.00  0.00    -0.744 OA
ENDBRANCH  70  74
ENDBRANCH  43  67
BRANCH  55  78
ATOM     78  C   UNL     1      -3.744  16.005  -7.625  1.00  0.00     0.023 A 
ATOM     79  C   UNL     1      -3.311  16.914  -8.606  1.00  0.00     0.031 A 
ATOM     80  C   UNL     1      -4.496  16.504  -6.547  1.00  0.00     0.131 A 
ATOM     81  C   UNL     1      -3.582  18.283  -8.458  1.00  0.00     0.055 A 
ATOM     82  C   UNL     1      -4.821  17.857  -6.440  1.00  0.00     0.041 A 
ATOM     83  F   UNL     1      -4.930  15.683  -5.577  1.00  0.00    -0.206 F 
ATOM     84  C   UNL     1      -4.352  18.757  -7.392  1.00  0.00     0.022 A 
BRANCH  81  85
ATOM     85  S   UNL     1      -2.829  19.452  -9.622  1.00  0.00     0.124 S 
ATOM     86  O   UNL     1      -1.406  19.180  -9.445  1.00  0.00    -0.237 OA
ATOM     87  O   UNL     1      -3.403  19.037 -10.897  1.00  0.00    -0.237 OA
ATOM     88  O   UNL     1      -3.276  20.756  -9.136  1.00  0.00    -0.744 OA
ENDBRANCH  81  85
ENDBRANCH  55  78
ENDBRANCH  29  30
ENDBRANCH  22  24
ENDBRANCH  21  22
ENDBRANCH  20  21
ENDBRANCH   1  20
TORSDOF 17
