REMARK SMILES Cc1c(C[NH2+]Cc2cccc(F)c2)c(C(=O)OCCOC(=O)c2ccc(-c3c4nc(c(-c5cc(S(=O)(=O)[O-])ccc5F)c5ccc([nH]5)c(-c5cc(S(=O)(=O)[O-])ccc5F)c5nc(c(-c6cc(S(=O)(=O)[O-])ccc6F)c6ccc3[nH]6)C=C5)C=C4)cc2)c(C)n1Cc1c(F)cccc1Cl
REMARK SMILES IDX 18 1 17 2 15 3 16 4 14 5 1 6 2 7 3 8 88 9 86 10 87 11 4 12
REMARK SMILES IDX 5 13 6 16 7 17 8 18 13 19 9 20 11 21 10 22 12 23 89 24 90 25
REMARK SMILES IDX 91 26 96 27 92 28 93 29 95 30 97 31 94 32 19 33 20 34 21 35
REMARK SMILES IDX 22 36 23 37 24 38 85 39 25 40 84 41 26 42 27 43 28 44 78 45
REMARK SMILES IDX 29 46 83 47 77 48 79 49 30 50 82 51 76 52 75 53 31 55 63 56
REMARK SMILES IDX 43 57 62 58 44 59 47 60 61 61 80 62 45 63 46 64 60 66 81 67
REMARK SMILES IDX 48 68 32 69 33 70 41 71 34 72 40 73 42 74 39 75 35 76 36 77
REMARK SMILES IDX 37 78 38 79 64 80 65 81 73 82 66 83 72 84 74 85 71 86 67 87
REMARK SMILES IDX 68 88 69 89 70 90 49 91 50 92 58 93 51 94 57 95 59 96 56 97
REMARK SMILES IDX 52 98 53 99 54 100 55 101
REMARK H PARENT 5 14 5 15 79 54 47 65
REMARK Flexibility Score: inf
ROOT
ATOM      1  C   UNL     1      -2.916   5.708   3.577  1.00  0.00     0.275 C 
ENDROOT
BRANCH   1   2
ATOM      2  O   UNL     1      -2.045   5.058   2.604  1.00  0.00    -0.458 OA
BRANCH   2   3
ATOM      3  C   UNL     1      -1.152   4.136   3.098  1.00  0.00     0.340 C 
ATOM      4  O   UNL     1      -1.022   3.891   4.278  1.00  0.00    -0.246 OA
BRANCH   3   5
ATOM      5  C   UNL     1      -0.397   3.440   2.033  1.00  0.00     0.089 A 
ATOM      6  C   UNL     1       0.770   0.409   0.172  1.00  0.00     0.065 C 
ATOM      7  C   UNL     1       0.426   1.743   0.749  1.00  0.00     0.025 A 
ATOM      8  C   UNL     1      -0.500   2.044   1.745  1.00  0.00     0.042 A 
ATOM      9  N   UNL     1       1.006   2.938   0.333  1.00  0.00    -0.343 N 
ATOM     10  C   UNL     1       0.621   3.939   1.225  1.00  0.00     0.030 A 
ATOM     11  C   UNL     1       1.238   5.291   1.295  1.00  0.00     0.065 C 
BRANCH   8  12
ATOM     12  C   UNL     1      -1.447   1.122   2.457  1.00  0.00     0.300 C 
BRANCH  12  13
ATOM     13  N   UNL     1      -0.871   0.846   3.767  1.00  0.00    -0.339 N 
ATOM     14  H   UNL     1      -0.695   1.735   4.236  1.00  0.00     0.346 HD
ATOM     15  H   UNL     1      -0.013   0.315   3.612  1.00  0.00     0.346 HD
BRANCH  13  16
ATOM     16  C   UNL     1      -1.728   0.036   4.619  1.00  0.00     0.297 C 
BRANCH  16  17
ATOM     17  C   UNL     1      -1.646  -1.462   4.413  1.00  0.00     0.009 A 
ATOM     18  C   UNL     1      -0.984  -2.064   3.331  1.00  0.00     0.010 A 
ATOM     19  C   UNL     1      -2.305  -2.299   5.327  1.00  0.00     0.048 A 
ATOM     20  C   UNL     1      -1.021  -3.444   3.131  1.00  0.00     0.004 A 
ATOM     21  C   UNL     1      -2.318  -3.678   5.134  1.00  0.00     0.123 A 
ATOM     22  C   UNL     1      -1.696  -4.255   4.035  1.00  0.00     0.039 A 
ATOM     23  F   UNL     1      -2.946  -4.462   6.020  1.00  0.00    -0.207 F 
ENDBRANCH  16  17
ENDBRANCH  13  16
ENDBRANCH  12  13
ENDBRANCH   8  12
BRANCH   9  24
ATOM     24  C   UNL     1       1.975   3.069  -0.779  1.00  0.00     0.162 C 
BRANCH  24  25
ATOM     25  C   UNL     1       1.382   3.644  -2.047  1.00  0.00     0.026 A 
ATOM     26  C   UNL     1       1.211   5.030  -2.162  1.00  0.00     0.129 A 
ATOM     27  C   UNL     1       0.997   2.879  -3.160  1.00  0.00     0.048 A 
ATOM     28  F   UNL     1       1.760   5.849  -1.258  1.00  0.00    -0.207 F 
ATOM     29  C   UNL     1       0.553   5.626  -3.237  1.00  0.00     0.040 A 
ATOM     30  C   UNL     1       0.358   3.472  -4.263  1.00  0.00     0.021 A 
ATOM     31  Cl  UNL     1       1.378   1.201  -3.308  1.00  0.00    -0.084 Cl
ATOM     32  C   UNL     1       0.102   4.841  -4.286  1.00  0.00     0.005 A 
ENDBRANCH  24  25
ENDBRANCH   9  24
ENDBRANCH   3   5
ENDBRANCH   2   3
ENDBRANCH   1   2
BRANCH   1  33
ATOM     33  C   UNL     1      -4.423   5.598   3.171  1.00  0.00     0.275 C 
BRANCH  33  34
ATOM     34  O   UNL     1      -5.383   4.848   4.033  1.00  0.00    -0.458 OA
BRANCH  34  35
ATOM     35  C   UNL     1      -6.098   3.809   3.453  1.00  0.00     0.338 C 
ATOM     36  O   UNL     1      -5.705   3.262   2.429  1.00  0.00    -0.246 OA
BRANCH  35  37
ATOM     37  C   UNL     1      -7.413   3.332   4.163  1.00  0.00     0.060 A 
ATOM     38  C   UNL     1      -7.434   2.137   4.870  1.00  0.00     0.016 A 
ATOM     39  C   UNL     1      -8.721   3.836   3.936  1.00  0.00     0.016 A 
ATOM     40  C   UNL     1      -8.676   1.553   5.392  1.00  0.00     0.010 A 
ATOM     41  C   UNL     1     -10.006   3.186   4.417  1.00  0.00     0.010 A 
ATOM     42  C   UNL     1     -10.054   2.004   5.187  1.00  0.00    -0.014 A 
BRANCH  42  43
ATOM     43  C   UNL     1     -11.338   0.863   5.490  1.00  0.00     0.031 A 
ATOM     44  C   UNL     1     -10.646  -0.375   5.026  1.00  0.00     0.074 A 
ATOM     45  C   UNL     1     -12.721   0.598   5.804  1.00  0.00     0.049 A 
ATOM     46  N   UNL     1     -10.159  -0.370   3.815  1.00  0.00    -0.248 NA
ATOM     47  C   UNL     1     -10.076  -1.406   5.892  1.00  0.00     0.031 C 
ATOM     48  C   UNL     1     -13.849   1.552   5.950  1.00  0.00     0.029 A 
ATOM     49  N   UNL     1     -13.511  -0.639   6.050  1.00  0.00    -0.354 N 
ATOM     50  C   UNL     1      -9.531  -1.568   3.633  1.00  0.00     0.074 A 
ATOM     51  C   UNL     1      -9.299  -2.037   4.998  1.00  0.00     0.031 C 
ATOM     52  C   UNL     1     -15.020   0.969   6.386  1.00  0.00     0.029 A 
ATOM     53  C   UNL     1     -14.910  -0.490   6.558  1.00  0.00     0.049 A 
ATOM     54  H   UNL     1     -13.124  -1.528   5.882  1.00  0.00     0.167 HD
ATOM     55  C   UNL     1      -9.990  -2.262   2.550  1.00  0.00     0.034 A 
ATOM     56  C   UNL     1     -15.914  -1.439   6.958  1.00  0.00     0.034 A 
ATOM     57  C   UNL     1     -10.982  -3.231   2.930  1.00  0.00     0.049 A 
ATOM     58  C   UNL     1     -15.724  -2.547   6.033  1.00  0.00     0.074 A 
ATOM     59  C   UNL     1     -11.082  -4.087   4.008  1.00  0.00     0.029 A 
ATOM     60  N   UNL     1     -12.258  -3.051   2.440  1.00  0.00    -0.354 N 
ATOM     61  N   UNL     1     -16.140  -2.487   4.806  1.00  0.00    -0.248 NA
ATOM     62  C   UNL     1     -15.198  -3.829   6.477  1.00  0.00     0.031 C 
ATOM     63  C   UNL     1     -12.405  -3.913   4.452  1.00  0.00     0.029 A 
ATOM     64  C   UNL     1     -13.167  -3.397   3.410  1.00  0.00     0.049 A 
ATOM     65  H   UNL     1     -12.482  -2.726   1.538  1.00  0.00     0.167 HD
ATOM     66  C   UNL     1     -15.397  -3.463   4.221  1.00  0.00     0.074 A 
ATOM     67  C   UNL     1     -15.103  -4.416   5.283  1.00  0.00     0.031 C 
ATOM     68  C   UNL     1     -14.555  -3.027   3.252  1.00  0.00     0.034 A 
BRANCH  55  69
ATOM     69  C   UNL     1     -10.089  -1.435   1.288  1.00  0.00     0.023 A 
ATOM     70  C   UNL     1      -9.240  -1.732   0.219  1.00  0.00     0.031 A 
ATOM     71  C   UNL     1     -10.954  -0.321   1.149  1.00  0.00     0.131 A 
ATOM     72  C   UNL     1      -9.215  -0.886  -0.903  1.00  0.00     0.055 A 
ATOM     73  C   UNL     1     -10.871   0.555   0.071  1.00  0.00     0.041 A 
ATOM     74  F   UNL     1     -11.918  -0.076   2.052  1.00  0.00    -0.206 F 
ATOM     75  C   UNL     1      -9.988   0.279  -0.963  1.00  0.00     0.022 A 
BRANCH  72  76
ATOM     76  S   UNL     1      -8.196  -1.366  -2.320  1.00  0.00     0.124 S 
ATOM     77  O   UNL     1      -6.843  -1.260  -1.783  1.00  0.00    -0.237 OA
ATOM     78  O   UNL     1      -8.661  -2.723  -2.591  1.00  0.00    -0.237 OA
ATOM     79  O   UNL     1      -8.537  -0.381  -3.345  1.00  0.00    -0.744 OA
ENDBRANCH  72  76
ENDBRANCH  55  69
BRANCH  56  80
ATOM     80  C   UNL     1     -17.331  -1.825   7.716  1.00  0.00     0.023 A 
ATOM     81  C   UNL     1     -18.151  -3.012   7.360  1.00  0.00     0.031 A 
ATOM     82  C   UNL     1     -17.641  -1.343   8.995  1.00  0.00     0.131 A 
ATOM     83  C   UNL     1     -19.098  -3.645   8.245  1.00  0.00     0.055 A 
ATOM     84  C   UNL     1     -18.595  -1.969   9.863  1.00  0.00     0.041 A 
ATOM     85  F   UNL     1     -16.968  -0.303   9.502  1.00  0.00    -0.206 F 
ATOM     86  C   UNL     1     -19.299  -3.123   9.511  1.00  0.00     0.022 A 
BRANCH  83  87
ATOM     87  S   UNL     1     -19.938  -5.278   7.900  1.00  0.00     0.124 S 
ATOM     88  O   UNL     1     -21.192  -4.876   7.272  1.00  0.00    -0.237 OA
ATOM     89  O   UNL     1     -18.983  -5.982   7.053  1.00  0.00    -0.237 OA
ATOM     90  O   UNL     1     -20.096  -5.864   9.235  1.00  0.00    -0.744 OA
ENDBRANCH  83  87
ENDBRANCH  56  80
BRANCH  68  91
ATOM     91  C   UNL     1     -15.122  -2.076   2.208  1.00  0.00     0.023 A 
ATOM     92  C   UNL     1     -15.867  -0.888   2.447  1.00  0.00     0.031 A 
ATOM     93  C   UNL     1     -14.966  -2.458   0.868  1.00  0.00     0.131 A 
ATOM     94  C   UNL     1     -16.430  -0.160   1.374  1.00  0.00     0.055 A 
ATOM     95  C   UNL     1     -15.494  -1.723  -0.193  1.00  0.00     0.041 A 
ATOM     96  F   UNL     1     -14.291  -3.578   0.564  1.00  0.00    -0.206 F 
ATOM     97  C   UNL     1     -16.238  -0.576   0.056  1.00  0.00     0.022 A 
BRANCH  94  98
ATOM     98  S   UNL     1     -17.460   1.319   1.681  1.00  0.00     0.124 S 
ATOM     99  O   UNL     1     -18.498   0.826   2.579  1.00  0.00    -0.237 OA
ATOM    100  O   UNL     1     -16.509   2.261   2.265  1.00  0.00    -0.237 OA
ATOM    101  O   UNL     1     -17.939   1.687   0.348  1.00  0.00    -0.744 OA
ENDBRANCH  94  98
ENDBRANCH  68  91
ENDBRANCH  42  43
ENDBRANCH  35  37
ENDBRANCH  34  35
ENDBRANCH  33  34
ENDBRANCH   1  33
TORSDOF 20
