REMARK SMILES COc1ccc(CCc2nnc(NC(=O)[C@@H]3[C@@H](C(=O)OCCOC(=O)c4ccc(-c5c6nc(c(-c7cc(S(=O)(=O)[O-])ccc7F)c7ccc([nH]7)c(-c7cc(S(=O)(=O)[O-])ccc7F)c7nc(c(-c8cc(S(=O)(=O)[O-])ccc8F)c8ccc5[nH]8)C=C7)C=C6)cc4)C3(C)C)s2)cc1
REMARK SMILES IDX 20 1 18 2 19 3 17 4 16 5 89 6 90 7 91 8 14 9 13 10 15 12
REMARK SMILES IDX 12 13 9 14 10 15 92 16 11 17 8 18 7 19 6 20 3 21 4 22 94 23
REMARK SMILES IDX 5 24 93 25 2 26 1 27 21 28 22 29 23 30 24 31 25 32 26 33
REMARK SMILES IDX 27 34 88 35 28 36 87 37 29 38 30 39 31 40 81 41 32 42 86 43
REMARK SMILES IDX 80 44 82 45 33 46 85 47 79 48 78 49 34 51 66 52 46 53 65 54
REMARK SMILES IDX 47 55 50 56 64 57 83 58 48 59 49 60 63 62 84 63 51 64 35 65
REMARK SMILES IDX 36 66 44 67 37 68 43 69 45 70 42 71 38 72 39 73 40 74 41 75
REMARK SMILES IDX 67 76 68 77 76 78 69 79 75 80 77 81 74 82 70 83 71 84 72 85
REMARK SMILES IDX 73 86 52 87 53 88 61 89 54 90 60 91 62 92 59 93 55 94 56 95
REMARK SMILES IDX 57 96 58 97
REMARK H PARENT 13 11 82 50 50 61
REMARK Flexibility Score: inf
ROOT
ATOM      1  O   UNL     1      -6.560   7.816   3.347  1.00  0.00    -0.462 OA
ENDROOT
BRANCH   1   2
ATOM      2  C   UNL     1      -5.657   6.944   3.860  1.00  0.00     0.310 C 
ATOM      3  O   UNL     1      -5.236   6.945   5.009  1.00  0.00    -0.252 OA
BRANCH   2   4
ATOM      4  C   UNL     1      -5.203   5.910   2.893  1.00  0.00     0.118 C 
ATOM      5  C   UNL     1      -3.784   6.072   2.417  1.00  0.00     0.100 C 
ATOM      6  C   UNL     1      -4.938   6.082   1.407  1.00  0.00    -0.009 C 
ATOM      7  C   UNL     1      -5.286   7.371   0.713  1.00  0.00     0.013 C 
ATOM      8  C   UNL     1      -5.167   4.872   0.523  1.00  0.00     0.013 C 
BRANCH   5   9
ATOM      9  C   UNL     1      -2.642   5.128   2.271  1.00  0.00     0.230 C 
ATOM     10  N   UNL     1      -2.671   3.769   2.382  1.00  0.00    -0.300 N 
ATOM     11  H   UNL     1      -1.888   3.305   2.009  1.00  0.00     0.172 HD
ATOM     12  O   UNL     1      -1.580   5.623   1.882  1.00  0.00    -0.274 OA
BRANCH  10  13
ATOM     13  C   UNL     1      -3.611   2.958   2.927  1.00  0.00     0.212 A 
ATOM     14  C   UNL     1      -5.146   1.173   3.069  1.00  0.00     0.119 A 
ATOM     15  N   UNL     1      -5.391   2.125   3.949  1.00  0.00    -0.142 NA
ATOM     16  S   UNL     1      -3.640   1.385   2.259  1.00  0.00    -0.080 S 
ATOM     17  N   UNL     1      -4.516   3.186   3.839  1.00  0.00    -0.120 NA
BRANCH  14  18
ATOM     18  C   UNL     1      -6.039   0.014   2.749  1.00  0.00     0.074 C 
BRANCH  18  19
ATOM     19  C   UNL     1      -7.532   0.304   2.943  1.00  0.00     0.043 C 
BRANCH  19  20
ATOM     20  C   UNL     1      -8.205   1.230   1.948  1.00  0.00    -0.047 A 
ATOM     21  C   UNL     1      -9.605   2.963   0.197  1.00  0.00     0.118 A 
ATOM     22  C   UNL     1      -8.618   3.456   1.046  1.00  0.00     0.046 A 
ATOM     23  C   UNL     1      -9.893   1.601   0.222  1.00  0.00     0.046 A 
ATOM     24  C   UNL     1      -7.937   2.603   1.920  1.00  0.00     0.007 A 
ATOM     25  C   UNL     1      -9.196   0.743   1.086  1.00  0.00     0.007 A 
BRANCH  21  26
ATOM     26  O   UNL     1     -10.182   3.892  -0.625  1.00  0.00    -0.497 OA
ATOM     27  C   UNL     1     -11.502   3.589  -1.064  1.00  0.00     0.278 C 
ENDBRANCH  21  26
ENDBRANCH  19  20
ENDBRANCH  18  19
ENDBRANCH  14  18
ENDBRANCH  10  13
ENDBRANCH   5   9
ENDBRANCH   2   4
ENDBRANCH   1   2
BRANCH   1  28
ATOM     28  C   UNL     1      -7.096   8.784   4.269  1.00  0.00     0.274 C 
BRANCH  28  29
ATOM     29  C   UNL     1      -8.587   8.539   4.489  1.00  0.00     0.275 C 
BRANCH  29  30
ATOM     30  O   UNL     1      -8.801   7.273   5.139  1.00  0.00    -0.458 OA
BRANCH  30  31
ATOM     31  C   UNL     1      -9.092   6.253   4.298  1.00  0.00     0.338 C 
ATOM     32  O   UNL     1      -9.242   6.315   3.090  1.00  0.00    -0.246 OA
BRANCH  31  33
ATOM     33  C   UNL     1      -9.136   4.990   5.045  1.00  0.00     0.060 A 
ATOM     34  C   UNL     1      -7.954   4.281   5.208  1.00  0.00     0.016 A 
ATOM     35  C   UNL     1     -10.354   4.423   5.423  1.00  0.00     0.016 A 
ATOM     36  C   UNL     1      -8.007   2.959   5.639  1.00  0.00     0.010 A 
ATOM     37  C   UNL     1     -10.385   3.112   5.931  1.00  0.00     0.010 A 
ATOM     38  C   UNL     1      -9.218   2.332   5.979  1.00  0.00    -0.014 A 
BRANCH  38  39
ATOM     39  C   UNL     1      -9.231   0.852   6.244  1.00  0.00     0.031 A 
ATOM     40  C   UNL     1     -10.069  -0.080   5.386  1.00  0.00     0.074 A 
ATOM     41  C   UNL     1      -8.372   0.302   7.132  1.00  0.00     0.049 A 
ATOM     42  N   UNL     1     -10.165  -1.389   5.433  1.00  0.00    -0.248 NA
ATOM     43  C   UNL     1     -10.878   0.529   4.320  1.00  0.00     0.031 C 
ATOM     44  C   UNL     1      -7.433   1.051   7.971  1.00  0.00     0.029 A 
ATOM     45  N   UNL     1      -8.111  -1.013   7.447  1.00  0.00    -0.354 N 
ATOM     46  C   UNL     1     -11.048  -1.751   4.419  1.00  0.00     0.074 A 
ATOM     47  C   UNL     1     -11.487  -0.523   3.793  1.00  0.00     0.031 C 
ATOM     48  C   UNL     1      -6.659   0.190   8.646  1.00  0.00     0.029 A 
ATOM     49  C   UNL     1      -7.113  -1.172   8.384  1.00  0.00     0.049 A 
ATOM     50  H   UNL     1      -8.593  -1.769   7.041  1.00  0.00     0.167 HD
ATOM     51  C   UNL     1     -11.446  -2.987   4.024  1.00  0.00     0.034 A 
ATOM     52  C   UNL     1      -6.638  -2.272   9.006  1.00  0.00     0.034 A 
ATOM     53  C   UNL     1     -11.013  -4.221   4.634  1.00  0.00     0.049 A 
ATOM     54  C   UNL     1      -7.230  -3.617   8.673  1.00  0.00     0.074 A 
ATOM     55  C   UNL     1     -11.377  -5.517   4.306  1.00  0.00     0.029 A 
ATOM     56  N   UNL     1     -10.135  -4.319   5.703  1.00  0.00    -0.354 N 
ATOM     57  N   UNL     1      -8.107  -3.928   7.748  1.00  0.00    -0.248 NA
ATOM     58  C   UNL     1      -6.782  -4.756   9.486  1.00  0.00     0.031 C 
ATOM     59  C   UNL     1     -10.780  -6.389   5.222  1.00  0.00     0.029 A 
ATOM     60  C   UNL     1      -9.982  -5.647   6.076  1.00  0.00     0.049 A 
ATOM     61  H   UNL     1      -9.685  -3.557   6.135  1.00  0.00     0.167 HD
ATOM     62  C   UNL     1      -8.310  -5.301   7.866  1.00  0.00     0.074 A 
ATOM     63  C   UNL     1      -7.441  -5.761   8.928  1.00  0.00     0.031 C 
ATOM     64  C   UNL     1      -9.144  -6.105   7.159  1.00  0.00     0.034 A 
BRANCH  51  65
ATOM     65  C   UNL     1     -12.454  -3.064   2.902  1.00  0.00     0.023 A 
ATOM     66  C   UNL     1     -12.125  -2.720   1.580  1.00  0.00     0.031 A 
ATOM     67  C   UNL     1     -13.769  -3.487   3.168  1.00  0.00     0.131 A 
ATOM     68  C   UNL     1     -13.113  -2.756   0.582  1.00  0.00     0.055 A 
ATOM     69  C   UNL     1     -14.729  -3.583   2.160  1.00  0.00     0.041 A 
ATOM     70  F   UNL     1     -14.141  -3.812   4.416  1.00  0.00    -0.206 F 
ATOM     71  C   UNL     1     -14.406  -3.206   0.860  1.00  0.00     0.022 A 
BRANCH  68  72
ATOM     72  S   UNL     1     -12.715  -2.107  -1.064  1.00  0.00     0.124 S 
ATOM     73  O   UNL     1     -12.345  -0.727  -0.758  1.00  0.00    -0.237 OA
ATOM     74  O   UNL     1     -11.626  -2.977  -1.491  1.00  0.00    -0.237 OA
ATOM     75  O   UNL     1     -13.965  -2.256  -1.805  1.00  0.00    -0.744 OA
ENDBRANCH  68  72
ENDBRANCH  51  65
BRANCH  52  76
ATOM     76  C   UNL     1      -5.616  -2.145  10.090  1.00  0.00     0.023 A 
ATOM     77  C   UNL     1      -4.369  -2.785  10.009  1.00  0.00     0.031 A 
ATOM     78  C   UNL     1      -5.910  -1.425  11.265  1.00  0.00     0.131 A 
ATOM     79  C   UNL     1      -3.478  -2.718  11.094  1.00  0.00     0.055 A 
ATOM     80  C   UNL     1      -4.995  -1.307  12.310  1.00  0.00     0.041 A 
ATOM     81  F   UNL     1      -7.096  -0.814  11.409  1.00  0.00    -0.206 F 
ATOM     82  C   UNL     1      -3.774  -1.966  12.234  1.00  0.00     0.022 A 
BRANCH  79  83
ATOM     83  S   UNL     1      -1.959  -3.710  11.040  1.00  0.00     0.124 S 
ATOM     84  O   UNL     1      -2.491  -5.059  10.878  1.00  0.00    -0.237 OA
ATOM     85  O   UNL     1      -1.269  -3.149   9.884  1.00  0.00    -0.237 OA
ATOM     86  O   UNL     1      -1.329  -3.439  12.331  1.00  0.00    -0.744 OA
ENDBRANCH  79  83
ENDBRANCH  52  76
BRANCH  64  87
ATOM     87  C   UNL     1      -9.139  -7.573   7.509  1.00  0.00     0.023 A 
ATOM     88  C   UNL     1      -9.605  -8.032   8.755  1.00  0.00     0.031 A 
ATOM     89  C   UNL     1      -8.635  -8.523   6.604  1.00  0.00     0.131 A 
ATOM     90  C   UNL     1      -9.503  -9.393   9.084  1.00  0.00     0.055 A 
ATOM     91  C   UNL     1      -8.591  -9.884   6.913  1.00  0.00     0.041 A 
ATOM     92  F   UNL     1      -8.172  -8.143   5.402  1.00  0.00    -0.206 F 
ATOM     93  C   UNL     1      -9.014 -10.324   8.164  1.00  0.00     0.022 A 
BRANCH  90  94
ATOM     94  S   UNL     1      -9.927  -9.917  10.768  1.00  0.00     0.124 S 
ATOM     95  O   UNL     1      -9.019  -9.109  11.575  1.00  0.00    -0.237 OA
ATOM     96  O   UNL     1     -11.341  -9.569  10.857  1.00  0.00    -0.237 OA
ATOM     97  O   UNL     1      -9.642 -11.351  10.763  1.00  0.00    -0.744 OA
ENDBRANCH  90  94
ENDBRANCH  64  87
ENDBRANCH  38  39
ENDBRANCH  31  33
ENDBRANCH  30  31
ENDBRANCH  29  30
ENDBRANCH  28  29
ENDBRANCH   1  28
TORSDOF 20
