REMARK SMILES Cc1c(/C=C2/SC(=S)N(CCC(=O)OCCOC(=O)c3ccc(-c4c5nc(c(-c6cc(S(=O)(=O)[O-])ccc6F)c6ccc([nH]6)c(-c6cc(S(=O)(=O)[O-])ccc6F)c6nc(c(-c7cc(S(=O)(=O)[O-])ccc7F)c7ccc4[nH]7)C=C6)C=C5)cc3)C2=O)c(N2C[C@@H](C)C[C@H](C)C2)n(C)c(=O)c1C#N
REMARK SMILES IDX 15 1 14 2 12 3 13 4 11 5 10 6 9 7 4 8 5 9 6 10 83 11 7 12
REMARK SMILES IDX 84 13 8 14 3 15 1 16 2 17 98 18 85 19 96 20 94 21 97 22
REMARK SMILES IDX 95 23 99 24 100 25 86 26 87 27 93 28 88 29 91 30 89 31 90 32
REMARK SMILES IDX 92 33 16 34 17 35 18 36 19 37 20 38 21 39 82 40 22 41 81 42
REMARK SMILES IDX 23 43 24 44 25 45 75 46 26 47 80 48 74 49 76 50 27 51 79 52
REMARK SMILES IDX 73 53 72 54 28 56 60 57 40 58 59 59 41 60 44 61 58 62 77 63
REMARK SMILES IDX 42 64 43 65 57 67 78 68 45 69 29 70 30 71 38 72 31 73 37 74
REMARK SMILES IDX 39 75 36 76 32 77 33 78 34 79 35 80 61 81 62 82 70 83 63 84
REMARK SMILES IDX 69 85 71 86 68 87 64 88 65 89 66 90 67 91 46 92 47 93 55 94
REMARK SMILES IDX 48 95 54 96 56 97 53 98 49 99 50 100 51 101 52 102
REMARK H PARENT 76 55 44 66
REMARK Flexibility Score: inf
ROOT
ATOM      1  C   UNL     1       3.754   1.366   1.144  1.00  0.00     0.274 C 
ENDROOT
BRANCH   1   2
ATOM      2  O   UNL     1       4.377   0.107   0.846  1.00  0.00    -0.462 OA
BRANCH   2   3
ATOM      3  C   UNL     1       4.285  -0.349  -0.423  1.00  0.00     0.307 C 
ATOM      4  O   UNL     1       3.776   0.255  -1.357  1.00  0.00    -0.252 OA
BRANCH   3   5
ATOM      5  C   UNL     1       4.933  -1.704  -0.565  1.00  0.00     0.144 C 
BRANCH   5   6
ATOM      6  C   UNL     1       4.652  -2.657   0.601  1.00  0.00     0.139 C 
BRANCH   6   7
ATOM      7  N   UNL     1       3.241  -3.075   0.683  1.00  0.00    -0.292 N 
ATOM      8  C   UNL     1      -0.113  -2.168   1.739  1.00  0.00     0.033 C 
ATOM      9  C   UNL     1       0.985  -2.835   1.341  1.00  0.00     0.081 C 
ATOM     10  S   UNL     1       0.978  -4.304   0.449  1.00  0.00    -0.054 SA
ATOM     11  C   UNL     1       2.387  -2.388   1.524  1.00  0.00     0.266 C 
ATOM     12  C   UNL     1       2.693  -4.161   0.036  1.00  0.00     0.148 C 
ATOM     13  O   UNL     1       2.704  -1.557   2.355  1.00  0.00    -0.268 OA
ATOM     14  S   UNL     1       3.444  -5.231  -0.999  1.00  0.00    -0.052 S 
BRANCH   8  15
ATOM     15  C   UNL     1      -0.141  -0.798   2.297  1.00  0.00     0.021 A 
ATOM     16  C   UNL     1       0.266   0.099  -0.065  1.00  0.00     0.047 C 
ATOM     17  C   UNL     1       0.187   0.354   1.425  1.00  0.00    -0.017 A 
ATOM     18  C   UNL     1       0.375   1.580   1.953  1.00  0.00     0.121 A 
ATOM     19  C   UNL     1      -0.493  -0.576   3.603  1.00  0.00     0.118 A 
ATOM     20  C   UNL     1      -0.007   1.837   3.352  1.00  0.00     0.270 A 
ATOM     21  N   UNL     1      -0.505   0.753   4.075  1.00  0.00    -0.296 N 
ATOM     22  O   UNL     1       0.085   2.980   3.797  1.00  0.00    -0.268 OA
ATOM     23  C   UNL     1      -0.959   1.063   5.420  1.00  0.00     0.155 C 
BRANCH  18  24
ATOM     24  C   UNL     1       0.790   2.760   1.090  1.00  0.00     0.105 C 
ATOM     25  N   UNL     1       1.135   3.739   0.374  1.00  0.00    -0.192 NA
ENDBRANCH  18  24
BRANCH  19  26
ATOM     26  N   UNL     1      -0.797  -1.638   4.480  1.00  0.00    -0.357 N 
ATOM     27  C   UNL     1       0.164  -2.721   4.754  1.00  0.00     0.121 C 
ATOM     28  C   UNL     1      -2.156  -1.915   4.957  1.00  0.00     0.121 C 
ATOM     29  C   UNL     1       0.242  -3.046   6.252  1.00  0.00     0.006 C 
ATOM     30  C   UNL     1      -2.131  -2.117   6.481  1.00  0.00     0.006 C 
ATOM     31  C   UNL     1       1.057  -1.999   7.013  1.00  0.00     0.009 C 
ATOM     32  C   UNL     1      -1.157  -3.245   6.857  1.00  0.00     0.010 C 
ATOM     33  C   UNL     1      -3.530  -2.405   7.020  1.00  0.00     0.009 C 
ENDBRANCH  19  26
ENDBRANCH   8  15
ENDBRANCH   6   7
ENDBRANCH   5   6
ENDBRANCH   3   5
ENDBRANCH   2   3
ENDBRANCH   1   2
BRANCH   1  34
ATOM     34  C   UNL     1       3.408   1.462   2.646  1.00  0.00     0.275 C 
BRANCH  34  35
ATOM     35  O   UNL     1       4.533   1.698   3.483  1.00  0.00    -0.458 OA
BRANCH  35  36
ATOM     36  C   UNL     1       5.498   0.758   3.398  1.00  0.00     0.338 C 
ATOM     37  O   UNL     1       5.400  -0.447   3.385  1.00  0.00    -0.246 OA
BRANCH  36  38
ATOM     38  C   UNL     1       6.650   1.537   2.944  1.00  0.00     0.060 A 
ATOM     39  C   UNL     1       7.202   1.218   1.698  1.00  0.00     0.016 A 
ATOM     40  C   UNL     1       7.052   2.654   3.678  1.00  0.00     0.016 A 
ATOM     41  C   UNL     1       8.220   2.000   1.194  1.00  0.00     0.010 A 
ATOM     42  C   UNL     1       8.084   3.425   3.188  1.00  0.00     0.010 A 
ATOM     43  C   UNL     1       8.695   3.055   1.979  1.00  0.00    -0.014 A 
BRANCH  43  44
ATOM     44  C   UNL     1      10.033   3.578   1.713  1.00  0.00     0.031 A 
ATOM     45  C   UNL     1      11.156   2.937   2.465  1.00  0.00     0.074 A 
ATOM     46  C   UNL     1      10.194   4.597   0.863  1.00  0.00     0.049 A 
ATOM     47  N   UNL     1      12.410   3.278   2.518  1.00  0.00    -0.248 NA
ATOM     48  C   UNL     1      10.813   1.758   3.287  1.00  0.00     0.031 C 
ATOM     49  C   UNL     1       9.124   5.220   0.087  1.00  0.00     0.029 A 
ATOM     50  N   UNL     1      11.317   5.296   0.533  1.00  0.00    -0.354 N 
ATOM     51  C   UNL     1      13.003   2.359   3.374  1.00  0.00     0.074 A 
ATOM     52  C   UNL     1      11.970   1.478   3.860  1.00  0.00     0.031 C 
ATOM     53  C   UNL     1       9.644   6.237  -0.619  1.00  0.00     0.029 A 
ATOM     54  C   UNL     1      11.068   6.348  -0.310  1.00  0.00     0.049 A 
ATOM     55  H   UNL     1      12.215   5.069   0.867  1.00  0.00     0.167 HD
ATOM     56  C   UNL     1      14.307   2.262   3.705  1.00  0.00     0.034 A 
ATOM     57  C   UNL     1      11.909   7.301  -0.753  1.00  0.00     0.034 A 
ATOM     58  C   UNL     1      15.290   3.188   3.219  1.00  0.00     0.049 A 
ATOM     59  C   UNL     1      13.351   7.216  -0.328  1.00  0.00     0.074 A 
ATOM     60  C   UNL     1      16.642   3.228   3.489  1.00  0.00     0.029 A 
ATOM     61  N   UNL     1      15.014   4.243   2.355  1.00  0.00    -0.354 N 
ATOM     62  N   UNL     1      13.920   6.340   0.471  1.00  0.00    -0.248 NA
ATOM     63  C   UNL     1      14.267   8.228  -0.861  1.00  0.00     0.031 C 
ATOM     64  C   UNL     1      17.176   4.332   2.823  1.00  0.00     0.029 A 
ATOM     65  C   UNL     1      16.170   4.948   2.087  1.00  0.00     0.049 A 
ATOM     66  H   UNL     1      14.125   4.455   1.989  1.00  0.00     0.167 HD
ATOM     67  C   UNL     1      15.266   6.680   0.523  1.00  0.00     0.074 A 
ATOM     68  C   UNL     1      15.425   7.838  -0.339  1.00  0.00     0.031 C 
ATOM     69  C   UNL     1      16.279   6.095   1.214  1.00  0.00     0.034 A 
BRANCH  56  70
ATOM     70  C   UNL     1      14.722   1.141   4.618  1.00  0.00     0.023 A 
ATOM     71  C   UNL     1      15.232   1.418   5.897  1.00  0.00     0.031 A 
ATOM     72  C   UNL     1      14.646  -0.203   4.207  1.00  0.00     0.131 A 
ATOM     73  C   UNL     1      15.664   0.366   6.714  1.00  0.00     0.055 A 
ATOM     74  C   UNL     1      15.043  -1.250   5.038  1.00  0.00     0.041 A 
ATOM     75  F   UNL     1      14.145  -0.520   3.001  1.00  0.00    -0.206 F 
ATOM     76  C   UNL     1      15.564  -0.966   6.296  1.00  0.00     0.022 A 
BRANCH  73  77
ATOM     77  S   UNL     1      16.392   0.683   8.344  1.00  0.00     0.124 S 
ATOM     78  O   UNL     1      15.552  -0.137   9.215  1.00  0.00    -0.237 OA
ATOM     79  O   UNL     1      17.758   0.203   8.163  1.00  0.00    -0.237 OA
ATOM     80  O   UNL     1      16.244   2.123   8.520  1.00  0.00    -0.744 OA
ENDBRANCH  73  77
ENDBRANCH  56  70
BRANCH  57  81
ATOM     81  C   UNL     1      11.379   8.330  -1.686  1.00  0.00     0.023 A 
ATOM     82  C   UNL     1      10.400   9.250  -1.265  1.00  0.00     0.031 A 
ATOM     83  C   UNL     1      11.701   8.278  -3.051  1.00  0.00     0.131 A 
ATOM     84  C   UNL     1       9.721  10.024  -2.216  1.00  0.00     0.055 A 
ATOM     85  C   UNL     1      11.061   9.092  -3.987  1.00  0.00     0.041 A 
ATOM     86  F   UNL     1      12.615   7.402  -3.496  1.00  0.00    -0.206 F 
ATOM     87  C   UNL     1      10.053   9.957  -3.573  1.00  0.00     0.022 A 
BRANCH  84  88
ATOM     88  S   UNL     1       8.304  11.053  -1.740  1.00  0.00     0.124 S 
ATOM     89  O   UNL     1       8.652  12.345  -2.323  1.00  0.00    -0.237 OA
ATOM     90  O   UNL     1       7.199  10.348  -2.385  1.00  0.00    -0.237 OA
ATOM     91  O   UNL     1       8.315  11.000  -0.282  1.00  0.00    -0.744 OA
ENDBRANCH  84  88
ENDBRANCH  57  81
BRANCH  69  92
ATOM     92  C   UNL     1      17.658   6.680   1.076  1.00  0.00     0.023 A 
ATOM     93  C   UNL     1      18.677   5.918   0.476  1.00  0.00     0.031 A 
ATOM     94  C   UNL     1      17.998   7.893   1.695  1.00  0.00     0.131 A 
ATOM     95  C   UNL     1      20.003   6.355   0.554  1.00  0.00     0.055 A 
ATOM     96  C   UNL     1      19.315   8.348   1.728  1.00  0.00     0.041 A 
ATOM     97  F   UNL     1      17.055   8.642   2.290  1.00  0.00    -0.206 F 
ATOM     98  C   UNL     1      20.326   7.569   1.169  1.00  0.00     0.022 A 
BRANCH  95  99
ATOM     99  S   UNL     1      21.360   5.324  -0.063  1.00  0.00     0.124 S 
ATOM    100  O   UNL     1      22.027   6.228  -0.997  1.00  0.00    -0.237 OA
ATOM    101  O   UNL     1      22.101   5.031   1.160  1.00  0.00    -0.237 OA
ATOM    102  O   UNL     1      20.686   4.185  -0.679  1.00  0.00    -0.744 OA
ENDBRANCH  95  99
ENDBRANCH  69  92
ENDBRANCH  43  44
ENDBRANCH  36  38
ENDBRANCH  35  36
ENDBRANCH  34  35
ENDBRANCH   1  34
TORSDOF 19
