REMARK SMILES C/C=C/C=C/C(=O)N[C@@H](C)CC(=O)OCCOC(=O)c1ccc(-c2c3nc(c(-c4cc(S(=O)(=O)[O-])ccc4F)c4ccc([nH]4)c(-c4cc(S(=O)(=O)[O-])ccc4F)c4nc(c(-c5cc(S(=O)(=O)[O-])ccc5F)c5ccc2[nH]5)C=C4)C=C3)cc1
REMARK SMILES IDX 15 1 14 2 12 3 13 4 11 5 9 6 10 7 8 8 6 9 7 10 5 12 4 13
REMARK SMILES IDX 3 14 1 15 2 16 16 17 17 18 18 19 19 20 20 21 21 22 82 23
REMARK SMILES IDX 22 24 81 25 23 26 24 27 25 28 75 29 26 30 80 31 74 32 76 33
REMARK SMILES IDX 27 34 79 35 73 36 72 37 28 39 60 40 40 41 59 42 41 43 44 44
REMARK SMILES IDX 58 45 77 46 42 47 43 48 57 50 78 51 45 52 29 53 30 54 38 55
REMARK SMILES IDX 31 56 37 57 39 58 36 59 32 60 33 61 34 62 35 63 61 64 62 65
REMARK SMILES IDX 70 66 63 67 69 68 71 69 68 70 64 71 65 72 66 73 67 74 46 75
REMARK SMILES IDX 47 76 55 77 48 78 54 79 56 80 53 81 49 82 50 83 51 84 52 85
REMARK H PARENT 8 11 76 38 44 49
REMARK Flexibility Score: inf
ROOT
ATOM      1  C   UNL     1      -5.186   4.164   1.424  1.00  0.00     0.274 C 
ENDROOT
BRANCH   1   2
ATOM      2  O   UNL     1      -4.027   4.992   1.195  1.00  0.00    -0.462 OA
BRANCH   2   3
ATOM      3  C   UNL     1      -3.293   5.304   2.294  1.00  0.00     0.307 C 
ATOM      4  O   UNL     1      -3.534   4.909   3.428  1.00  0.00    -0.252 OA
BRANCH   3   5
ATOM      5  C   UNL     1      -2.187   6.289   1.998  1.00  0.00     0.147 C 
BRANCH   5   6
ATOM      6  C   UNL     1      -1.174   5.815   0.949  1.00  0.00     0.090 C 
ATOM      7  C   UNL     1       0.190   6.457   1.222  1.00  0.00     0.031 C 
BRANCH   6   8
ATOM      8  N   UNL     1      -1.592   6.188  -0.405  1.00  0.00    -0.350 N 
ATOM      9  C   UNL     1      -1.633   5.479  -1.564  1.00  0.00     0.244 C 
ATOM     10  O   UNL     1      -2.104   6.014  -2.569  1.00  0.00    -0.270 OA
ATOM     11  H   UNL     1      -1.898   7.119  -0.490  1.00  0.00     0.164 HD
BRANCH   9  12
ATOM     12  C   UNL     1      -1.234   4.058  -1.632  1.00  0.00     0.071 C 
ATOM     13  C   UNL     1      -0.137   3.504  -1.094  1.00  0.00     0.005 C 
BRANCH  13  14
ATOM     14  C   UNL     1       0.098   2.076  -1.148  1.00  0.00    -0.004 C 
ATOM     15  C   UNL     1       1.092  -0.046  -0.269  1.00  0.00     0.035 C 
ATOM     16  C   UNL     1       0.911   1.439  -0.292  1.00  0.00    -0.030 C 
ENDBRANCH  13  14
ENDBRANCH   9  12
ENDBRANCH   6   8
ENDBRANCH   5   6
ENDBRANCH   3   5
ENDBRANCH   2   3
ENDBRANCH   1   2
BRANCH   1  17
ATOM     17  C   UNL     1      -4.932   2.676   1.150  1.00  0.00     0.275 C 
BRANCH  17  18
ATOM     18  O   UNL     1      -4.072   2.071   2.136  1.00  0.00    -0.458 OA
BRANCH  18  19
ATOM     19  C   UNL     1      -2.762   2.133   1.816  1.00  0.00     0.338 C 
ATOM     20  O   UNL     1      -2.304   2.620   0.794  1.00  0.00    -0.246 OA
BRANCH  19  21
ATOM     21  C   UNL     1      -1.895   1.641   2.892  1.00  0.00     0.060 A 
ATOM     22  C   UNL     1      -0.985   2.537   3.463  1.00  0.00     0.016 A 
ATOM     23  C   UNL     1      -1.879   0.291   3.245  1.00  0.00     0.016 A 
ATOM     24  C   UNL     1      -0.054   2.085   4.394  1.00  0.00     0.010 A 
ATOM     25  C   UNL     1      -0.947  -0.159   4.188  1.00  0.00     0.010 A 
ATOM     26  C   UNL     1      -0.028   0.734   4.765  1.00  0.00    -0.014 A 
BRANCH  26  27
ATOM     27  C   UNL     1       0.960   0.274   5.773  1.00  0.00     0.031 A 
ATOM     28  C   UNL     1       2.177  -0.499   5.353  1.00  0.00     0.074 A 
ATOM     29  C   UNL     1       0.765   0.588   7.067  1.00  0.00     0.049 A 
ATOM     30  N   UNL     1       3.129  -1.006   6.092  1.00  0.00    -0.248 NA
ATOM     31  C   UNL     1       2.344  -0.730   3.911  1.00  0.00     0.031 C 
ATOM     32  C   UNL     1      -0.363   1.367   7.582  1.00  0.00     0.029 A 
ATOM     33  N   UNL     1       1.508   0.298   8.183  1.00  0.00    -0.354 N 
ATOM     34  C   UNL     1       4.013  -1.618   5.210  1.00  0.00     0.074 A 
ATOM     35  C   UNL     1       3.463  -1.442   3.881  1.00  0.00     0.031 C 
ATOM     36  C   UNL     1      -0.232   1.499   8.912  1.00  0.00     0.029 A 
ATOM     37  C   UNL     1       0.959   0.777   9.349  1.00  0.00     0.049 A 
ATOM     38  H   UNL     1       2.353  -0.206   8.152  1.00  0.00     0.167 HD
ATOM     39  C   UNL     1       5.176  -2.260   5.487  1.00  0.00     0.034 A 
ATOM     40  C   UNL     1       1.358   0.632  10.627  1.00  0.00     0.034 A 
ATOM     41  C   UNL     1       5.703  -2.439   6.820  1.00  0.00     0.049 A 
ATOM     42  C   UNL     1       2.616  -0.147  10.911  1.00  0.00     0.074 A 
ATOM     43  C   UNL     1       6.865  -3.083   7.212  1.00  0.00     0.029 A 
ATOM     44  N   UNL     1       5.099  -1.978   7.984  1.00  0.00    -0.354 N 
ATOM     45  N   UNL     1       3.433  -0.733  10.067  1.00  0.00    -0.248 NA
ATOM     46  C   UNL     1       3.007  -0.280  12.320  1.00  0.00     0.031 C 
ATOM     47  C   UNL     1       6.935  -3.058   8.610  1.00  0.00     0.029 A 
ATOM     48  C   UNL     1       5.850  -2.343   9.091  1.00  0.00     0.049 A 
ATOM     49  H   UNL     1       4.258  -1.466   8.017  1.00  0.00     0.167 HD
ATOM     50  C   UNL     1       4.448  -1.284  10.844  1.00  0.00     0.074 A 
ATOM     51  C   UNL     1       4.150  -0.941  12.220  1.00  0.00     0.031 C 
ATOM     52  C   UNL     1       5.529  -2.008  10.458  1.00  0.00     0.034 A 
BRANCH  39  53
ATOM     53  C   UNL     1       5.931  -2.857   4.325  1.00  0.00     0.023 A 
ATOM     54  C   UNL     1       6.525  -2.051   3.338  1.00  0.00     0.031 A 
ATOM     55  C   UNL     1       6.049  -4.252   4.196  1.00  0.00     0.131 A 
ATOM     56  C   UNL     1       7.161  -2.647   2.238  1.00  0.00     0.055 A 
ATOM     57  C   UNL     1       6.742  -4.838   3.135  1.00  0.00     0.041 A 
ATOM     58  F   UNL     1       5.484  -5.071   5.097  1.00  0.00    -0.206 F 
ATOM     59  C   UNL     1       7.293  -4.034   2.141  1.00  0.00     0.022 A 
BRANCH  56  60
ATOM     60  S   UNL     1       7.713  -1.586   0.874  1.00  0.00     0.124 S 
ATOM     61  O   UNL     1       6.454  -0.981   0.445  1.00  0.00    -0.237 OA
ATOM     62  O   UNL     1       8.661  -0.694   1.531  1.00  0.00    -0.237 OA
ATOM     63  O   UNL     1       8.299  -2.529  -0.077  1.00  0.00    -0.744 OA
ENDBRANCH  56  60
ENDBRANCH  39  53
BRANCH  40  64
ATOM     64  C   UNL     1       0.547   1.197  11.742  1.00  0.00     0.023 A 
ATOM     65  C   UNL     1       1.062   2.198  12.579  1.00  0.00     0.031 A 
ATOM     66  C   UNL     1      -0.740   0.701  12.019  1.00  0.00     0.131 A 
ATOM     67  C   UNL     1       0.315   2.639  13.682  1.00  0.00     0.055 A 
ATOM     68  C   UNL     1      -1.501   1.180  13.086  1.00  0.00     0.041 A 
ATOM     69  F   UNL     1      -1.279  -0.257  11.248  1.00  0.00    -0.206 F 
ATOM     70  C   UNL     1      -0.968   2.145  13.934  1.00  0.00     0.022 A 
BRANCH  67  71
ATOM     71  S   UNL     1       1.084   3.801  14.843  1.00  0.00     0.124 S 
ATOM     72  O   UNL     1       2.299   3.087  15.219  1.00  0.00    -0.237 OA
ATOM     73  O   UNL     1       1.266   4.984  14.008  1.00  0.00    -0.237 OA
ATOM     74  O   UNL     1       0.086   3.935  15.902  1.00  0.00    -0.744 OA
ENDBRANCH  67  71
ENDBRANCH  40  64
BRANCH  52  75
ATOM     75  C   UNL     1       6.479  -2.436  11.549  1.00  0.00     0.023 A 
ATOM     76  C   UNL     1       6.104  -3.380  12.522  1.00  0.00     0.031 A 
ATOM     77  C   UNL     1       7.757  -1.860  11.641  1.00  0.00     0.131 A 
ATOM     78  C   UNL     1       6.975  -3.672  13.582  1.00  0.00     0.055 A 
ATOM     79  C   UNL     1       8.641  -2.196  12.668  1.00  0.00     0.041 A 
ATOM     80  F   UNL     1       8.164  -0.952  10.739  1.00  0.00    -0.206 F 
ATOM     81  C   UNL     1       8.246  -3.095  13.654  1.00  0.00     0.022 A 
BRANCH  78  82
ATOM     82  S   UNL     1       6.385  -4.741  14.924  1.00  0.00     0.124 S 
ATOM     83  O   UNL     1       5.200  -4.025  15.386  1.00  0.00    -0.237 OA
ATOM     84  O   UNL     1       6.138  -6.002  14.232  1.00  0.00    -0.237 OA
ATOM     85  O   UNL     1       7.503  -4.761  15.865  1.00  0.00    -0.744 OA
ENDBRANCH  78  82
ENDBRANCH  52  75
ENDBRANCH  26  27
ENDBRANCH  19  21
ENDBRANCH  18  19
ENDBRANCH  17  18
ENDBRANCH   1  17
TORSDOF 18
