REMARK SMILES O=C(OCCOC(=O)c1ccc(-c2c3nc(c(-c4cc(S(=O)(=O)[O-])ccc4F)c4ccc([nH]4)c(-c4cc(S(=O)(=O)[O-])ccc4F)c4nc(c(-c5cc(S(=O)(=O)[O-])ccc5F)c5ccc2[nH]5)C=C4)C=C3)cc1)C1=Cc2cc(S(F)(F)(F)(F)F)cc(Br)c2O[C@@H]1C(F)(F)F
REMARK SMILES IDX 5 1 4 2 3 3 2 4 1 5 72 6 73 7 88 8 74 9 87 10 75 11 86 12
REMARK SMILES IDX 76 13 84 14 83 15 85 16 89 17 90 18 91 19 92 20 77 21 78 22
REMARK SMILES IDX 79 23 80 24 81 25 82 26 6 27 7 28 8 29 9 30 10 31 71 32
REMARK SMILES IDX 11 33 70 34 12 35 13 36 14 37 64 38 15 39 69 40 63 41 65 42
REMARK SMILES IDX 16 43 68 44 62 45 61 46 17 48 49 49 29 50 48 51 30 52 33 53
REMARK SMILES IDX 47 54 66 55 31 56 32 57 46 59 67 60 34 61 18 62 19 63 27 64
REMARK SMILES IDX 20 65 26 66 28 67 25 68 21 69 22 70 23 71 24 72 50 73 51 74
REMARK SMILES IDX 59 75 52 76 58 77 60 78 57 79 53 80 54 81 55 82 56 83 35 84
REMARK SMILES IDX 36 85 44 86 37 87 43 88 45 89 42 90 38 91 39 92 40 93 41 94
REMARK H PARENT 65 47 33 58
REMARK Flexibility Score: inf
ROOT
ATOM      1  C   UNL     1       4.866   0.460  -1.240  1.00  0.00     0.275 C 
ENDROOT
BRANCH   1   2
ATOM      2  C   UNL     1       4.359  -0.878  -0.726  1.00  0.00     0.275 C 
BRANCH   2   3
ATOM      3  O   UNL     1       2.939  -0.878  -0.726  1.00  0.00    -0.459 OA
BRANCH   3   4
ATOM      4  C   UNL     1       2.229   0.077   0.048  1.00  0.00     0.338 C 
ATOM      5  O   UNL     1       0.958   0.077   0.048  1.00  0.00    -0.246 OA
BRANCH   4   6
ATOM      6  C   UNL     1       2.989   1.100   0.876  1.00  0.00     0.087 C 
ATOM      7  C   UNL     1       4.350   1.100   0.876  1.00  0.00     0.027 C 
ATOM      8  C   UNL     1       2.229   2.123   1.705  1.00  0.00     0.316 C 
ATOM      9  C   UNL     1       5.110   0.077   0.048  1.00  0.00     0.020 A 
ATOM     10  O   UNL     1       3.670   0.376  -1.819  1.00  0.00    -0.474 OA
ATOM     11  C   UNL     1       6.106  -0.604   0.728  1.00  0.00     0.036 A 
ATOM     12  C   UNL     1       4.799  -0.229  -1.207  1.00  0.00     0.142 A 
ATOM     13  C   UNL     1       6.922  -1.407  -0.104  1.00  0.00     0.109 A 
ATOM     14  C   UNL     1       5.561  -1.125  -1.917  1.00  0.00     0.062 A 
ATOM     15  C   UNL     1       6.598  -1.791  -1.325  1.00  0.00     0.044 A 
ATOM     16  Br  UNL     1       5.155  -1.453  -3.806  1.00  0.00    -0.047 Br
BRANCH   8  17
ATOM     17  C   UNL     1       2.596   3.524   1.242  1.00  0.00     0.430 C 
ATOM     18  F   UNL     1       2.275   3.665  -0.041  1.00  0.00    -0.167 F 
ATOM     19  F   UNL     1       1.931   4.419   1.967  1.00  0.00    -0.167 F 
ATOM     20  F   UNL     1       3.904   3.712   1.395  1.00  0.00    -0.167 F 
ENDBRANCH   8  17
BRANCH  13  21
ATOM     21  S   UNL     1       8.521  -1.944   0.552  1.00  0.00     0.310 S 
ATOM     22  F   UNL     1       7.979  -1.893   2.042  1.00  0.00    -0.094 F 
ATOM     23  F   UNL     1       8.940  -0.436   0.725  1.00  0.00    -0.094 F 
ATOM     24  F   UNL     1       9.884  -2.418   1.130  1.00  0.00    -0.094 F 
ATOM     25  F   UNL     1       8.029  -3.445   0.503  1.00  0.00    -0.094 F 
ATOM     26  F   UNL     1       7.090  -1.475   0.070  1.00  0.00    -0.094 F 
ENDBRANCH  13  21
ENDBRANCH   4   6
ENDBRANCH   3   4
ENDBRANCH   2   3
ENDBRANCH   1   2
BRANCH   1  27
ATOM     27  O   UNL     1       4.393   1.500  -0.397  1.00  0.00    -0.458 OA
BRANCH  27  28
ATOM     28  C   UNL     1       2.996   1.702  -0.234  1.00  0.00     0.338 C 
ATOM     29  O   UNL     1       2.171   0.951  -0.842  1.00  0.00    -0.246 OA
BRANCH  28  30
ATOM     30  C   UNL     1       2.490   2.815   0.668  1.00  0.00     0.060 A 
ATOM     31  C   UNL     1       1.350   2.567   1.415  1.00  0.00     0.016 A 
ATOM     32  C   UNL     1       3.026   4.029   0.612  1.00  0.00     0.016 A 
ATOM     33  C   UNL     1       0.677   3.737   1.839  1.00  0.00     0.010 A 
ATOM     34  C   UNL     1       2.378   5.106   1.167  1.00  0.00     0.010 A 
ATOM     35  C   UNL     1       1.216   4.942   1.869  1.00  0.00    -0.014 A 
BRANCH  35  36
ATOM     36  C   UNL     1       0.579   6.087   2.640  1.00  0.00     0.031 A 
ATOM     37  C   UNL     1       0.169   7.263   2.010  1.00  0.00     0.074 A 
ATOM     38  C   UNL     1       0.336   5.797   3.972  1.00  0.00     0.049 A 
ATOM     39  N   UNL     1      -0.532   8.267   2.538  1.00  0.00    -0.248 NA
ATOM     40  C   UNL     1       0.455   7.587   0.605  1.00  0.00     0.031 C 
ATOM     41  C   UNL     1       0.738   4.609   4.613  1.00  0.00     0.029 A 
ATOM     42  N   UNL     1      -0.319   6.576   4.901  1.00  0.00    -0.354 N 
ATOM     43  C   UNL     1      -0.749   9.211   1.619  1.00  0.00     0.074 A 
ATOM     44  C   UNL     1      -0.112   8.790   0.364  1.00  0.00     0.031 C 
ATOM     45  C   UNL     1       0.343   4.676   5.912  1.00  0.00     0.029 A 
ATOM     46  C   UNL     1      -0.314   5.906   6.104  1.00  0.00     0.049 A 
ATOM     47  H   UNL     1      -0.720   7.459   4.733  1.00  0.00     0.167 HD
ATOM     48  C   UNL     1      -1.454  10.405   1.779  1.00  0.00     0.034 A 
ATOM     49  C   UNL     1      -0.846   6.328   7.312  1.00  0.00     0.034 A 
ATOM     50  C   UNL     1      -2.024  10.807   2.976  1.00  0.00     0.049 A 
ATOM     51  C   UNL     1      -1.502   7.550   7.486  1.00  0.00     0.074 A 
ATOM     52  C   UNL     1      -2.745  12.003   3.152  1.00  0.00     0.029 A 
ATOM     53  N   UNL     1      -1.998  10.148   4.186  1.00  0.00    -0.354 N 
ATOM     54  N   UNL     1      -1.752   8.474   6.558  1.00  0.00    -0.248 NA
ATOM     55  C   UNL     1      -2.040   8.021   8.769  1.00  0.00     0.031 C 
ATOM     56  C   UNL     1      -3.141  12.070   4.451  1.00  0.00     0.029 A 
ATOM     57  C   UNL     1      -2.672  10.917   5.109  1.00  0.00     0.049 A 
ATOM     58  H   UNL     1      -1.571   9.278   4.360  1.00  0.00     0.167 HD
ATOM     59  C   UNL     1      -2.417   9.498   7.098  1.00  0.00     0.074 A 
ATOM     60  C   UNL     1      -2.606   9.225   8.529  1.00  0.00     0.031 C 
ATOM     61  C   UNL     1      -2.878  10.647   6.453  1.00  0.00     0.034 A 
BRANCH  48  62
ATOM     62  C   UNL     1      -1.607  11.314   0.571  1.00  0.00     0.023 A 
ATOM     63  C   UNL     1      -2.326  10.805  -0.498  1.00  0.00     0.031 A 
ATOM     64  C   UNL     1      -1.144  12.559   0.559  1.00  0.00     0.131 A 
ATOM     65  C   UNL     1      -2.257  11.601  -1.666  1.00  0.00     0.055 A 
ATOM     66  C   UNL     1      -1.233  13.328  -0.576  1.00  0.00     0.041 A 
ATOM     67  F   UNL     1      -0.591  13.066   1.657  1.00  0.00    -0.206 F 
ATOM     68  C   UNL     1      -1.878  12.866  -1.690  1.00  0.00     0.022 A 
BRANCH  65  69
ATOM     69  S   UNL     1      -2.723  10.832  -3.237  1.00  0.00     0.124 S 
ATOM     70  O   UNL     1      -1.806   9.637  -3.512  1.00  0.00    -0.237 OA
ATOM     71  O   UNL     1      -4.175  10.355  -3.162  1.00  0.00    -0.237 OA
ATOM     72  O   UNL     1      -2.563  11.974  -4.500  1.00  0.00    -0.744 OA
ENDBRANCH  65  69
ENDBRANCH  48  62
BRANCH  49  73
ATOM     73  C   UNL     1      -0.708   5.411   8.516  1.00  0.00     0.023 A 
ATOM     74  C   UNL     1      -1.816   4.989   9.233  1.00  0.00     0.031 A 
ATOM     75  C   UNL     1       0.523   5.093   8.900  1.00  0.00     0.131 A 
ATOM     76  C   UNL     1      -1.508   4.474  10.514  1.00  0.00     0.055 A 
ATOM     77  C   UNL     1       0.740   4.468  10.105  1.00  0.00     0.041 A 
ATOM     78  F   UNL     1       1.555   5.383   8.113  1.00  0.00    -0.206 F 
ATOM     79  C   UNL     1      -0.307   4.076  10.892  1.00  0.00     0.022 A 
BRANCH  76  80
ATOM     80  S   UNL     1      -2.853   4.353  11.718  1.00  0.00     0.124 S 
ATOM     81  O   UNL     1      -3.436   5.744  11.975  1.00  0.00    -0.237 OA
ATOM     82  O   UNL     1      -3.948   3.435  11.169  1.00  0.00    -0.237 OA
ATOM     83  O   UNL     1      -2.251   3.708  13.183  1.00  0.00    -0.744 OA
ENDBRANCH  76  80
ENDBRANCH  49  73
BRANCH  61  84
ATOM     84  C   UNL     1      -3.652  11.665   7.275  1.00  0.00     0.023 A 
ATOM     85  C   UNL     1      -3.035  12.133   8.424  1.00  0.00     0.031 A 
ATOM     86  C   UNL     1      -4.901  12.002   6.978  1.00  0.00     0.131 A 
ATOM     87  C   UNL     1      -3.924  12.725   9.351  1.00  0.00     0.055 A 
ATOM     88  C   UNL     1      -5.670  12.700   7.878  1.00  0.00     0.041 A 
ATOM     89  F   UNL     1      -5.413  11.662   5.798  1.00  0.00    -0.206 F 
ATOM     90  C   UNL     1      -5.143  13.142   9.059  1.00  0.00     0.022 A 
BRANCH  87  91
ATOM     91  S   UNL     1      -3.353  12.924  11.057  1.00  0.00     0.124 S 
ATOM     92  O   UNL     1      -3.014  11.552  11.645  1.00  0.00    -0.237 OA
ATOM     93  O   UNL     1      -2.104  13.809  11.076  1.00  0.00    -0.237 OA
ATOM     94  O   UNL     1      -4.585  13.655  11.989  1.00  0.00    -0.744 OA
ENDBRANCH  87  91
ENDBRANCH  61  84
ENDBRANCH  35  36
ENDBRANCH  28  30
ENDBRANCH  27  28
ENDBRANCH   1  27
TORSDOF 16
