REMARK SMILES Cc1nc(-c2ccc(C3CC3)cc2)sc1C(=O)OCCOC(=O)c1ccc(-c2c3nc(c(-c4cc(S(=O)(=O)[O-])ccc4F)c4ccc([nH]4)c(-c4cc(S(=O)(=O)[O-])ccc4F)c4nc(c(-c5cc(S(=O)(=O)[O-])ccc5F)c5ccc2[nH]5)C=C4)C=C3)cc1
REMARK SMILES IDX 20 1 19 2 18 3 16 4 17 5 15 6 1 7 2 8 3 9 4 10 14 11 5 12
REMARK SMILES IDX 6 13 13 14 7 15 12 16 8 17 9 18 10 19 11 20 21 21 22 22
REMARK SMILES IDX 23 23 24 24 25 25 86 26 26 27 85 28 27 29 28 30 29 31 79 32
REMARK SMILES IDX 30 33 84 34 78 35 80 36 31 37 83 38 77 39 76 40 32 42 64 43
REMARK SMILES IDX 44 44 63 45 45 46 48 47 62 48 81 49 46 50 47 51 61 53 82 54
REMARK SMILES IDX 49 55 33 56 34 57 42 58 35 59 41 60 43 61 40 62 36 63 37 64
REMARK SMILES IDX 38 65 39 66 65 67 66 68 74 69 67 70 73 71 75 72 72 73 68 74
REMARK SMILES IDX 69 75 70 76 71 77 50 78 51 79 59 80 52 81 58 82 60 83 57 84
REMARK SMILES IDX 53 85 54 86 55 87 56 88
REMARK H PARENT 80 41 48 52
REMARK Flexibility Score: inf
ROOT
ATOM      1  C   UNL     1      -1.079  -4.946  -1.038  1.00  0.00     0.275 C 
ENDROOT
BRANCH   1   2
ATOM      2  C   UNL     1      -1.635  -4.275   0.222  1.00  0.00     0.275 C 
BRANCH   2   3
ATOM      3  O   UNL     1      -1.586  -2.836   0.128  1.00  0.00    -0.458 OA
BRANCH   3   4
ATOM      4  C   UNL     1      -0.630  -2.199   0.869  1.00  0.00     0.350 C 
ATOM      5  O   UNL     1       0.134  -2.783   1.626  1.00  0.00    -0.245 OA
BRANCH   4   6
ATOM      6  C   UNL     1      -0.608  -0.777   0.579  1.00  0.00     0.135 A 
ATOM      7  C   UNL     1      -2.991  -0.145  -0.219  1.00  0.00     0.068 C 
ATOM      8  C   UNL     1      -1.553   0.100   0.065  1.00  0.00     0.064 A 
ATOM      9  N   UNL     1      -1.089   1.396  -0.163  1.00  0.00    -0.240 NA
ATOM     10  C   UNL     1       0.177   1.498   0.178  1.00  0.00     0.124 A 
ATOM     11  S   UNL     1       0.824   0.114   0.947  1.00  0.00    -0.106 S 
BRANCH  10  12
ATOM     12  C   UNL     1       1.005   2.699   0.080  1.00  0.00     0.010 A 
ATOM     13  C   UNL     1       0.879   3.701   1.042  1.00  0.00     0.011 A 
ATOM     14  C   UNL     1       1.967   2.851  -0.925  1.00  0.00     0.011 A 
ATOM     15  C   UNL     1       1.731   4.810   1.026  1.00  0.00     0.005 A 
ATOM     16  C   UNL     1       2.816   3.970  -0.934  1.00  0.00     0.005 A 
ATOM     17  C   UNL     1       2.737   4.966   0.054  1.00  0.00    -0.045 A 
BRANCH  17  18
ATOM     18  C   UNL     1       3.682   6.147   0.162  1.00  0.00     0.019 C 
ATOM     19  C   UNL     1       4.831   6.393  -0.783  1.00  0.00     0.009 C 
ATOM     20  C   UNL     1       3.612   7.265  -0.850  1.00  0.00     0.009 C 
ENDBRANCH  17  18
ENDBRANCH  10  12
ENDBRANCH   4   6
ENDBRANCH   3   4
ENDBRANCH   2   3
ENDBRANCH   1   2
BRANCH   1  21
ATOM     21  O   UNL     1       0.351  -4.810  -1.123  1.00  0.00    -0.458 OA
BRANCH  21  22
ATOM     22  C   UNL     1       0.775  -3.750  -1.850  1.00  0.00     0.338 C 
ATOM     23  O   UNL     1       0.078  -2.945  -2.444  1.00  0.00    -0.246 OA
BRANCH  22  24
ATOM     24  C   UNL     1       2.226  -3.585  -1.692  1.00  0.00     0.060 A 
ATOM     25  C   UNL     1       2.653  -2.548  -0.869  1.00  0.00     0.016 A 
ATOM     26  C   UNL     1       3.152  -4.335  -2.412  1.00  0.00     0.016 A 
ATOM     27  C   UNL     1       3.996  -2.206  -0.794  1.00  0.00     0.010 A 
ATOM     28  C   UNL     1       4.516  -4.027  -2.297  1.00  0.00     0.010 A 
ATOM     29  C   UNL     1       4.948  -2.945  -1.503  1.00  0.00    -0.014 A 
BRANCH  29  30
ATOM     30  C   UNL     1       6.379  -2.543  -1.437  1.00  0.00     0.031 A 
ATOM     31  C   UNL     1       7.077  -2.048  -2.674  1.00  0.00     0.074 A 
ATOM     32  C   UNL     1       7.035  -2.576  -0.260  1.00  0.00     0.049 A 
ATOM     33  N   UNL     1       8.340  -1.760  -2.855  1.00  0.00    -0.248 NA
ATOM     34  C   UNL     1       6.240  -1.859  -3.869  1.00  0.00     0.031 C 
ATOM     35  C   UNL     1       6.447  -2.970   1.023  1.00  0.00     0.029 A 
ATOM     36  N   UNL     1       8.336  -2.269   0.055  1.00  0.00    -0.354 N 
ATOM     37  C   UNL     1       8.458  -1.385  -4.189  1.00  0.00     0.074 A 
ATOM     38  C   UNL     1       7.141  -1.512  -4.777  1.00  0.00     0.031 C 
ATOM     39  C   UNL     1       7.376  -2.862   1.985  1.00  0.00     0.029 A 
ATOM     40  C   UNL     1       8.646  -2.477   1.380  1.00  0.00     0.049 A 
ATOM     41  H   UNL     1       8.985  -1.932  -0.604  1.00  0.00     0.167 HD
ATOM     42  C   UNL     1       9.565  -0.971  -4.857  1.00  0.00     0.034 A 
ATOM     43  C   UNL     1       9.827  -2.413   2.026  1.00  0.00     0.034 A 
ATOM     44  C   UNL     1      10.866  -0.839  -4.245  1.00  0.00     0.049 A 
ATOM     45  C   UNL     1      11.060  -2.038   1.243  1.00  0.00     0.074 A 
ATOM     46  C   UNL     1      12.055  -0.431  -4.826  1.00  0.00     0.029 A 
ATOM     47  N   UNL     1      11.153  -1.114  -2.913  1.00  0.00    -0.354 N 
ATOM     48  N   UNL     1      11.168  -1.730  -0.030  1.00  0.00    -0.248 NA
ATOM     49  C   UNL     1      12.328  -2.006   1.980  1.00  0.00     0.031 C 
ATOM     50  C   UNL     1      13.070  -0.532  -3.869  1.00  0.00     0.029 A 
ATOM     51  C   UNL     1      12.503  -0.916  -2.664  1.00  0.00     0.049 A 
ATOM     52  H   UNL     1      10.494  -1.407  -2.243  1.00  0.00     0.167 HD
ATOM     53  C   UNL     1      12.513  -1.440  -0.236  1.00  0.00     0.074 A 
ATOM     54  C   UNL     1      13.171  -1.592   1.046  1.00  0.00     0.031 C 
ATOM     55  C   UNL     1      13.148  -1.080  -1.381  1.00  0.00     0.034 A 
BRANCH  42  56
ATOM     56  C   UNL     1       9.424  -0.692  -6.336  1.00  0.00     0.023 A 
ATOM     57  C   UNL     1       8.600   0.335  -6.827  1.00  0.00     0.031 A 
ATOM     58  C   UNL     1      10.107  -1.489  -7.273  1.00  0.00     0.131 A 
ATOM     59  C   UNL     1       8.424   0.491  -8.211  1.00  0.00     0.055 A 
ATOM     60  C   UNL     1       9.994  -1.274  -8.648  1.00  0.00     0.041 A 
ATOM     61  F   UNL     1      10.891  -2.501  -6.867  1.00  0.00    -0.206 F 
ATOM     62  C   UNL     1       9.136  -0.289  -9.125  1.00  0.00     0.022 A 
BRANCH  59  63
ATOM     63  S   UNL     1       7.138   1.628  -8.800  1.00  0.00     0.124 S 
ATOM     64  O   UNL     1       5.943   1.072  -8.169  1.00  0.00    -0.237 OA
ATOM     65  O   UNL     1       7.593   2.913  -8.285  1.00  0.00    -0.237 OA
ATOM     66  O   UNL     1       7.191   1.482 -10.253  1.00  0.00    -0.744 OA
ENDBRANCH  59  63
ENDBRANCH  42  56
BRANCH  43  67
ATOM     67  C   UNL     1       9.920  -2.778   3.471  1.00  0.00     0.023 A 
ATOM     68  C   UNL     1      10.358  -1.853   4.431  1.00  0.00     0.031 A 
ATOM     69  C   UNL     1       9.620  -4.083   3.906  1.00  0.00     0.131 A 
ATOM     70  C   UNL     1      10.528  -2.256   5.766  1.00  0.00     0.055 A 
ATOM     71  C   UNL     1       9.727  -4.461   5.245  1.00  0.00     0.041 A 
ATOM     72  F   UNL     1       9.204  -5.013   3.031  1.00  0.00    -0.206 F 
ATOM     73  C   UNL     1      10.198  -3.548   6.182  1.00  0.00     0.022 A 
BRANCH  70  74
ATOM     74  S   UNL     1      11.289  -1.096   6.934  1.00  0.00     0.124 S 
ATOM     75  O   UNL     1      12.562  -0.811   6.282  1.00  0.00    -0.237 OA
ATOM     76  O   UNL     1      10.319  -0.006   6.955  1.00  0.00    -0.237 OA
ATOM     77  O   UNL     1      11.380  -1.870   8.171  1.00  0.00    -0.744 OA
ENDBRANCH  70  74
ENDBRANCH  43  67
BRANCH  55  78
ATOM     78  C   UNL     1      14.623  -0.774  -1.279  1.00  0.00     0.023 A 
ATOM     79  C   UNL     1      15.568  -1.765  -0.959  1.00  0.00     0.031 A 
ATOM     80  C   UNL     1      15.087   0.537  -1.491  1.00  0.00     0.131 A 
ATOM     81  C   UNL     1      16.918  -1.418  -0.801  1.00  0.00     0.055 A 
ATOM     82  C   UNL     1      16.441   0.863  -1.399  1.00  0.00     0.041 A 
ATOM     83  F   UNL     1      14.230   1.525  -1.794  1.00  0.00    -0.206 F 
ATOM     84  C   UNL     1      17.363  -0.115  -1.038  1.00  0.00     0.022 A 
BRANCH  81  85
ATOM     85  S   UNL     1      18.073  -2.671  -0.179  1.00  0.00     0.124 S 
ATOM     86  O   UNL     1      17.470  -3.030   1.100  1.00  0.00    -0.237 OA
ATOM     87  O   UNL     1      18.015  -3.692  -1.220  1.00  0.00    -0.237 OA
ATOM     88  O   UNL     1      19.342  -1.952  -0.087  1.00  0.00    -0.744 OA
ENDBRANCH  81  85
ENDBRANCH  55  78
ENDBRANCH  29  30
ENDBRANCH  22  24
ENDBRANCH  21  22
ENDBRANCH   1  21
TORSDOF 16
