REMARK SMILES CCCC(=O)Nc1ccc(Cl)c(NC(=O)/C=C/C(=O)OCCOC(=O)c2ccc(-c3c4nc(c(-c5cc(S(=O)(=O)[O-])ccc5F)c5ccc([nH]5)c(-c5cc(S(=O)(=O)[O-])ccc5F)c5nc(c(-c6cc(S(=O)(=O)[O-])ccc6F)c6ccc3[nH]6)C=C5)C=C4)cc2)c1
REMARK SMILES IDX 21 1 20 2 18 3 19 4 17 5 16 6 14 7 13 8 15 10 12 11 7 12
REMARK SMILES IDX 8 13 89 14 9 15 10 16 11 17 6 18 4 19 5 20 3 22 2 23 1 24
REMARK SMILES IDX 22 25 23 26 24 27 25 28 26 29 27 30 88 31 28 32 87 33 29 34
REMARK SMILES IDX 30 35 31 36 81 37 32 38 86 39 80 40 82 41 33 42 85 43 79 44
REMARK SMILES IDX 78 45 34 47 66 48 46 49 65 50 47 51 50 52 64 53 83 54 48 55
REMARK SMILES IDX 49 56 63 58 84 59 51 60 35 61 36 62 44 63 37 64 43 65 45 66
REMARK SMILES IDX 42 67 38 68 39 69 40 70 41 71 67 72 68 73 76 74 69 75 75 76
REMARK SMILES IDX 77 77 74 78 70 79 71 80 72 81 73 82 52 83 53 84 61 85 54 86
REMARK SMILES IDX 60 87 62 88 59 89 55 90 56 91 57 92 58 93
REMARK H PARENT 13 9 6 21 82 46 50 57
REMARK Flexibility Score: inf
ROOT
ATOM      1  C   UNL     1       0.839  -2.092   6.673  1.00  0.00     0.275 C 
ENDROOT
BRANCH   1   2
ATOM      2  O   UNL     1       1.571  -0.852   6.612  1.00  0.00    -0.459 OA
BRANCH   2   3
ATOM      3  C   UNL     1       2.501  -0.775   5.640  1.00  0.00     0.331 C 
ATOM      4  O   UNL     1       2.808  -1.661   4.855  1.00  0.00    -0.247 OA
BRANCH   3   5
ATOM      5  C   UNL     1       3.113   0.566   5.602  1.00  0.00     0.099 C 
ATOM      6  C   UNL     1       4.445   0.610   5.444  1.00  0.00     0.079 C 
BRANCH   6   7
ATOM      7  C   UNL     1       5.150   1.827   4.990  1.00  0.00     0.248 C 
ATOM      8  N   UNL     1       5.050   2.236   3.683  1.00  0.00    -0.321 N 
ATOM      9  H   UNL     1       5.561   3.051   3.475  1.00  0.00     0.170 HD
ATOM     10  O   UNL     1       5.848   2.444   5.792  1.00  0.00    -0.270 OA
BRANCH   8  11
ATOM     11  C   UNL     1       4.346   1.696   2.579  1.00  0.00     0.062 A 
ATOM     12  C   UNL     1       2.921  -0.039   1.653  1.00  0.00     0.043 A 
ATOM     13  C   UNL     1       2.577   0.793   0.597  1.00  0.00     0.028 A 
ATOM     14  C   UNL     1       3.856   0.395   2.579  1.00  0.00     0.053 A 
ATOM     15  C   UNL     1       3.182   2.050   0.475  1.00  0.00     0.025 A 
ATOM     16  C   UNL     1       4.061   2.501   1.465  1.00  0.00     0.064 A 
ATOM     17  Cl  UNL     1       4.727   4.089   1.320  1.00  0.00    -0.082 Cl
BRANCH  12  18
ATOM     18  N   UNL     1       2.241  -1.219   1.971  1.00  0.00    -0.326 N 
ATOM     19  C   UNL     1       1.756  -2.196   1.154  1.00  0.00     0.224 C 
ATOM     20  O   UNL     1       0.807  -2.891   1.521  1.00  0.00    -0.275 OA
ATOM     21  H   UNL     1       2.090  -1.367   2.933  1.00  0.00     0.169 HD
BRANCH  19  22
ATOM     22  C   UNL     1       2.604  -2.561  -0.048  1.00  0.00     0.100 C 
BRANCH  22  23
ATOM     23  C   UNL     1       1.895  -2.406  -1.374  1.00  0.00     0.006 C 
ATOM     24  C   UNL     1       2.218  -1.134  -2.135  1.00  0.00     0.004 C 
ENDBRANCH  22  23
ENDBRANCH  19  22
ENDBRANCH  12  18
ENDBRANCH   8  11
ENDBRANCH   6   7
ENDBRANCH   3   5
ENDBRANCH   2   3
ENDBRANCH   1   2
BRANCH   1  25
ATOM     25  C   UNL     1      -0.658  -1.843   6.480  1.00  0.00     0.275 C 
BRANCH  25  26
ATOM     26  O   UNL     1      -1.019  -1.682   5.093  1.00  0.00    -0.458 OA
BRANCH  26  27
ATOM     27  C   UNL     1      -0.894  -0.430   4.586  1.00  0.00     0.338 C 
ATOM     28  O   UNL     1      -0.447   0.539   5.179  1.00  0.00    -0.246 OA
BRANCH  27  29
ATOM     29  C   UNL     1      -1.308  -0.384   3.160  1.00  0.00     0.060 A 
ATOM     30  C   UNL     1      -0.698   0.570   2.343  1.00  0.00     0.016 A 
ATOM     31  C   UNL     1      -2.286  -1.226   2.618  1.00  0.00     0.016 A 
ATOM     32  C   UNL     1      -1.019   0.640   0.984  1.00  0.00     0.010 A 
ATOM     33  C   UNL     1      -2.640  -1.119   1.260  1.00  0.00     0.010 A 
ATOM     34  C   UNL     1      -1.994  -0.201   0.419  1.00  0.00    -0.014 A 
BRANCH  34  35
ATOM     35  C   UNL     1      -2.310  -0.054  -1.038  1.00  0.00     0.031 A 
ATOM     36  C   UNL     1      -2.827   1.262  -1.552  1.00  0.00     0.074 A 
ATOM     37  C   UNL     1      -2.031  -1.036  -1.921  1.00  0.00     0.049 A 
ATOM     38  N   UNL     1      -2.973   1.673  -2.785  1.00  0.00    -0.248 NA
ATOM     39  C   UNL     1      -3.247   2.238  -0.536  1.00  0.00     0.031 C 
ATOM     40  C   UNL     1      -1.551  -2.363  -1.564  1.00  0.00     0.029 A 
ATOM     41  N   UNL     1      -2.020  -1.047  -3.301  1.00  0.00    -0.354 N 
ATOM     42  C   UNL     1      -3.529   2.943  -2.697  1.00  0.00     0.074 A 
ATOM     43  C   UNL     1      -3.636   3.256  -1.287  1.00  0.00     0.031 C 
ATOM     44  C   UNL     1      -1.150  -3.000  -2.677  1.00  0.00     0.029 A 
ATOM     45  C   UNL     1      -1.397  -2.159  -3.840  1.00  0.00     0.049 A 
ATOM     46  H   UNL     1      -2.418  -0.333  -3.850  1.00  0.00     0.167 HD
ATOM     47  C   UNL     1      -3.980   3.745  -3.695  1.00  0.00     0.034 A 
ATOM     48  C   UNL     1      -1.041  -2.449  -5.113  1.00  0.00     0.034 A 
ATOM     49  C   UNL     1      -3.977   3.378  -5.089  1.00  0.00     0.049 A 
ATOM     50  C   UNL     1      -1.529  -1.525  -6.207  1.00  0.00     0.074 A 
ATOM     51  C   UNL     1      -4.541   4.051  -6.160  1.00  0.00     0.029 A 
ATOM     52  N   UNL     1      -3.407   2.222  -5.605  1.00  0.00    -0.354 N 
ATOM     53  N   UNL     1      -2.105  -0.350  -6.104  1.00  0.00    -0.248 NA
ATOM     54  C   UNL     1      -1.386  -2.004  -7.591  1.00  0.00     0.031 C 
ATOM     55  C   UNL     1      -4.377   3.266  -7.308  1.00  0.00     0.029 A 
ATOM     56  C   UNL     1      -3.635   2.146  -6.971  1.00  0.00     0.049 A 
ATOM     57  H   UNL     1      -2.913   1.553  -5.078  1.00  0.00     0.167 HD
ATOM     58  C   UNL     1      -2.437   0.022  -7.404  1.00  0.00     0.074 A 
ATOM     59  C   UNL     1      -1.918  -1.006  -8.280  1.00  0.00     0.031 C 
ATOM     60  C   UNL     1      -3.151   1.093  -7.832  1.00  0.00     0.034 A 
BRANCH  47  61
ATOM     61  C   UNL     1      -4.666   5.016  -3.267  1.00  0.00     0.023 A 
ATOM     62  C   UNL     1      -3.968   6.067  -2.648  1.00  0.00     0.031 A 
ATOM     63  C   UNL     1      -6.064   5.126  -3.383  1.00  0.00     0.131 A 
ATOM     64  C   UNL     1      -4.680   7.142  -2.095  1.00  0.00     0.055 A 
ATOM     65  C   UNL     1      -6.757   6.236  -2.902  1.00  0.00     0.041 A 
ATOM     66  F   UNL     1      -6.783   4.134  -3.932  1.00  0.00    -0.206 F 
ATOM     67  C   UNL     1      -6.067   7.245  -2.238  1.00  0.00     0.022 A 
BRANCH  64  68
ATOM     68  S   UNL     1      -3.792   8.313  -1.032  1.00  0.00     0.124 S 
ATOM     69  O   UNL     1      -3.269   7.429   0.007  1.00  0.00    -0.237 OA
ATOM     70  O   UNL     1      -2.806   8.882  -1.943  1.00  0.00    -0.237 OA
ATOM     71  O   UNL     1      -4.837   9.233  -0.588  1.00  0.00    -0.744 OA
ENDBRANCH  64  68
ENDBRANCH  47  61
BRANCH  48  72
ATOM     72  C   UNL     1      -0.238  -3.668  -5.474  1.00  0.00     0.023 A 
ATOM     73  C   UNL     1       0.934  -3.555  -6.251  1.00  0.00     0.031 A 
ATOM     74  C   UNL     1      -0.664  -4.968  -5.147  1.00  0.00     0.131 A 
ATOM     75  C   UNL     1       1.600  -4.707  -6.708  1.00  0.00     0.055 A 
ATOM     76  C   UNL     1       0.052  -6.107  -5.527  1.00  0.00     0.041 A 
ATOM     77  F   UNL     1      -1.801  -5.161  -4.460  1.00  0.00    -0.206 F 
ATOM     78  C   UNL     1       1.182  -5.982  -6.325  1.00  0.00     0.022 A 
BRANCH  75  79
ATOM     79  S   UNL     1       2.932  -4.531  -7.931  1.00  0.00     0.124 S 
ATOM     80  O   UNL     1       2.246  -3.840  -9.017  1.00  0.00    -0.237 OA
ATOM     81  O   UNL     1       3.922  -3.751  -7.196  1.00  0.00    -0.237 OA
ATOM     82  O   UNL     1       3.318  -5.911  -8.218  1.00  0.00    -0.744 OA
ENDBRANCH  75  79
ENDBRANCH  48  72
BRANCH  60  83
ATOM     83  C   UNL     1      -3.445   1.179  -9.310  1.00  0.00     0.023 A 
ATOM     84  C   UNL     1      -4.282   0.242  -9.945  1.00  0.00     0.031 A 
ATOM     85  C   UNL     1      -2.896   2.210 -10.091  1.00  0.00     0.131 A 
ATOM     86  C   UNL     1      -4.511   0.329 -11.327  1.00  0.00     0.055 A 
ATOM     87  C   UNL     1      -3.169   2.322 -11.455  1.00  0.00     0.041 A 
ATOM     88  F   UNL     1      -2.090   3.130  -9.537  1.00  0.00    -0.206 F 
ATOM     89  C   UNL     1      -3.972   1.373 -12.082  1.00  0.00     0.022 A 
BRANCH  86  90
ATOM     90  S   UNL     1      -5.469  -0.980 -12.140  1.00  0.00     0.124 S 
ATOM     91  O   UNL     1      -4.678  -2.169 -11.841  1.00  0.00    -0.237 OA
ATOM     92  O   UNL     1      -6.760  -0.887 -11.467  1.00  0.00    -0.237 OA
ATOM     93  O   UNL     1      -5.475  -0.578 -13.546  1.00  0.00    -0.744 OA
ENDBRANCH  86  90
ENDBRANCH  60  83
ENDBRANCH  34  35
ENDBRANCH  27  29
ENDBRANCH  26  27
ENDBRANCH  25  26
ENDBRANCH   1  25
TORSDOF 19
