REMARK SMILES Cc1ccc(S(=O)(=O)Nc2ccc(C(=O)CCC(=O)OCCOC(=O)c3ccc(-c4c5nc(c(-c6cc(S(=O)(=O)[O-])ccc6F)c6ccc([nH]6)c(-c6cc(S(=O)(=O)[O-])ccc6F)c6nc(c(-c7cc(S(=O)(=O)[O-])ccc7F)c7ccc4[nH]7)C=C6)C=C5)cc3)cc2)c(C)c1
REMARK SMILES IDX 20 1 18 2 19 3 17 4 16 5 14 6 15 7 13 8 10 9 11 10 90 11
REMARK SMILES IDX 12 12 89 13 9 14 6 16 7 17 8 18 5 19 1 20 2 21 3 22 93 23
REMARK SMILES IDX 4 24 91 25 92 26 21 27 22 28 23 29 24 30 25 31 26 32 27 33
REMARK SMILES IDX 88 34 28 35 87 36 29 37 30 38 31 39 81 40 32 41 86 42 80 43
REMARK SMILES IDX 82 44 33 45 85 46 79 47 78 48 34 50 66 51 46 52 65 53 47 54
REMARK SMILES IDX 50 55 64 56 83 57 48 58 49 59 63 61 84 62 51 63 35 64 36 65
REMARK SMILES IDX 44 66 37 67 43 68 45 69 42 70 38 71 39 72 40 73 41 74 67 75
REMARK SMILES IDX 68 76 76 77 69 78 75 79 77 80 74 81 70 82 71 83 72 84 73 85
REMARK SMILES IDX 52 86 53 87 61 88 54 89 60 90 62 91 59 92 55 93 56 94 57 95
REMARK SMILES IDX 58 96
REMARK H PARENT 9 15 82 49 50 60
REMARK Flexibility Score: inf
ROOT
ATOM      1  O   UNL     1       2.209  -3.259   1.060  1.00  0.00    -0.462 OA
ENDROOT
BRANCH   1   2
ATOM      2  C   UNL     1       3.291  -3.172   0.256  1.00  0.00     0.306 C 
ATOM      3  O   UNL     1       3.587  -2.192  -0.414  1.00  0.00    -0.252 OA
BRANCH   2   4
ATOM      4  C   UNL     1       4.112  -4.443   0.281  1.00  0.00     0.131 C 
BRANCH   4   5
ATOM      5  C   UNL     1       3.432  -5.659   0.919  1.00  0.00     0.093 C 
BRANCH   5   6
ATOM      6  C   UNL     1       2.491  -6.348  -0.056  1.00  0.00     0.163 C 
ATOM      7  O   UNL     1       2.898  -7.208  -0.837  1.00  0.00    -0.294 OA
BRANCH   6   8
ATOM      8  C   UNL     1       1.091  -5.858  -0.204  1.00  0.00     0.018 A 
ATOM      9  C   UNL     1      -1.295  -4.453  -0.672  1.00  0.00     0.049 A 
ATOM     10  C   UNL     1      -0.583  -5.013  -1.734  1.00  0.00     0.027 A 
ATOM     11  C   UNL     1      -0.924  -4.786   0.629  1.00  0.00     0.027 A 
ATOM     12  C   UNL     1       0.609  -5.703  -1.506  1.00  0.00     0.014 A 
ATOM     13  C   UNL     1       0.285  -5.471   0.869  1.00  0.00     0.014 A 
BRANCH   9  14
ATOM     14  N   UNL     1      -2.415  -3.650  -1.018  1.00  0.00    -0.280 N 
ATOM     15  H   UNL     1      -3.007  -3.994  -1.726  1.00  0.00     0.180 HD
BRANCH  14  16
ATOM     16  S   UNL     1      -2.830  -2.172  -0.337  1.00  0.00     0.262 S 
ATOM     17  O   UNL     1      -2.743  -2.301   1.103  1.00  0.00    -0.201 OA
ATOM     18  O   UNL     1      -4.075  -1.810  -0.983  1.00  0.00    -0.201 OA
BRANCH  16  19
ATOM     19  C   UNL     1      -1.634  -0.919  -0.821  1.00  0.00     0.090 A 
ATOM     20  C   UNL     1       1.944   1.462  -0.650  1.00  0.00     0.044 C 
ATOM     21  C   UNL     1       0.652   0.719  -0.846  1.00  0.00    -0.051 A 
ATOM     22  C   UNL     1       0.591  -0.422  -1.653  1.00  0.00     0.005 A 
ATOM     23  C   UNL     1      -0.508   1.139  -0.192  1.00  0.00     0.008 A 
ATOM     24  C   UNL     1      -0.549  -1.242  -1.642  1.00  0.00     0.023 A 
ATOM     25  C   UNL     1      -1.667   0.339  -0.179  1.00  0.00    -0.030 A 
ATOM     26  C   UNL     1      -2.897   0.932   0.452  1.00  0.00     0.046 C 
ENDBRANCH  16  19
ENDBRANCH  14  16
ENDBRANCH   9  14
ENDBRANCH   6   8
ENDBRANCH   5   6
ENDBRANCH   4   5
ENDBRANCH   2   4
ENDBRANCH   1   2
BRANCH   1  27
ATOM     27  C   UNL     1       1.275  -2.173   1.020  1.00  0.00     0.274 C 
BRANCH  27  28
ATOM     28  C   UNL     1       0.403  -2.127   2.273  1.00  0.00     0.275 C 
BRANCH  28  29
ATOM     29  O   UNL     1       1.208  -1.733   3.375  1.00  0.00    -0.458 OA
BRANCH  29  30
ATOM     30  C   UNL     1       1.996  -2.724   3.845  1.00  0.00     0.338 C 
ATOM     31  O   UNL     1       1.916  -3.928   3.661  1.00  0.00    -0.246 OA
BRANCH  30  32
ATOM     32  C   UNL     1       3.126  -2.033   4.438  1.00  0.00     0.060 A 
ATOM     33  C   UNL     1       4.382  -2.139   3.831  1.00  0.00     0.016 A 
ATOM     34  C   UNL     1       2.894  -1.238   5.558  1.00  0.00     0.016 A 
ATOM     35  C   UNL     1       5.455  -1.484   4.407  1.00  0.00     0.010 A 
ATOM     36  C   UNL     1       3.961  -0.569   6.119  1.00  0.00     0.010 A 
ATOM     37  C   UNL     1       5.243  -0.733   5.570  1.00  0.00    -0.014 A 
BRANCH  37  38
ATOM     38  C   UNL     1       6.387  -0.236   6.341  1.00  0.00     0.031 A 
ATOM     39  C   UNL     1       6.737  -0.962   7.601  1.00  0.00     0.074 A 
ATOM     40  C   UNL     1       7.025   0.865   5.923  1.00  0.00     0.049 A 
ATOM     41  N   UNL     1       7.585  -0.639   8.536  1.00  0.00    -0.248 NA
ATOM     42  C   UNL     1       5.996  -2.210   7.857  1.00  0.00     0.031 C 
ATOM     43  C   UNL     1       6.717   1.599   4.694  1.00  0.00     0.029 A 
ATOM     44  N   UNL     1       8.041   1.570   6.497  1.00  0.00    -0.354 N 
ATOM     45  C   UNL     1       7.469  -1.634   9.501  1.00  0.00     0.074 A 
ATOM     46  C   UNL     1       6.426  -2.534   9.065  1.00  0.00     0.031 C 
ATOM     47  C   UNL     1       7.524   2.669   4.615  1.00  0.00     0.029 A 
ATOM     48  C   UNL     1       8.362   2.713   5.809  1.00  0.00     0.049 A 
ATOM     49  H   UNL     1       8.498   1.288   7.322  1.00  0.00     0.167 HD
ATOM     50  C   UNL     1       8.189  -1.775  10.640  1.00  0.00     0.034 A 
ATOM     51  C   UNL     1       9.216   3.697   6.140  1.00  0.00     0.034 A 
ATOM     52  C   UNL     1       9.198  -0.822  11.031  1.00  0.00     0.049 A 
ATOM     53  C   UNL     1       9.984   3.544   7.426  1.00  0.00     0.074 A 
ATOM     54  C   UNL     1      10.004  -0.816  12.153  1.00  0.00     0.029 A 
ATOM     55  N   UNL     1       9.529   0.317  10.298  1.00  0.00    -0.354 N 
ATOM     56  N   UNL     1       9.885   2.599   8.338  1.00  0.00    -0.248 NA
ATOM     57  C   UNL     1      10.987   4.568   7.718  1.00  0.00     0.031 C 
ATOM     58  C   UNL     1      10.773   0.355  12.129  1.00  0.00     0.029 A 
ATOM     59  C   UNL     1      10.511   1.042  10.951  1.00  0.00     0.049 A 
ATOM     60  H   UNL     1       9.123   0.570   9.437  1.00  0.00     0.167 HD
ATOM     61  C   UNL     1      10.834   2.904   9.307  1.00  0.00     0.074 A 
ATOM     62  C   UNL     1      11.503   4.111   8.850  1.00  0.00     0.031 C 
ATOM     63  C   UNL     1      11.132   2.255  10.464  1.00  0.00     0.034 A 
BRANCH  50  64
ATOM     64  C   UNL     1       7.847  -2.952  11.527  1.00  0.00     0.023 A 
ATOM     65  C   UNL     1       7.923  -4.278  11.058  1.00  0.00     0.031 A 
ATOM     66  C   UNL     1       7.341  -2.749  12.823  1.00  0.00     0.131 A 
ATOM     67  C   UNL     1       7.401  -5.330  11.827  1.00  0.00     0.055 A 
ATOM     68  C   UNL     1       6.914  -3.812  13.624  1.00  0.00     0.041 A 
ATOM     69  F   UNL     1       7.214  -1.510  13.322  1.00  0.00    -0.206 F 
ATOM     70  C   UNL     1       6.920  -5.110  13.119  1.00  0.00     0.022 A 
BRANCH  67  71
ATOM     71  S   UNL     1       7.177  -6.950  11.040  1.00  0.00     0.124 S 
ATOM     72  O   UNL     1       6.310  -6.613   9.913  1.00  0.00    -0.237 OA
ATOM     73  O   UNL     1       8.544  -7.329  10.702  1.00  0.00    -0.237 OA
ATOM     74  O   UNL     1       6.545  -7.755  12.083  1.00  0.00    -0.744 OA
ENDBRANCH  67  71
ENDBRANCH  50  64
BRANCH  51  75
ATOM     75  C   UNL     1       9.359   4.883   5.254  1.00  0.00     0.023 A 
ATOM     76  C   UNL     1      10.550   5.132   4.557  1.00  0.00     0.031 A 
ATOM     77  C   UNL     1       8.283   5.769   5.059  1.00  0.00     0.131 A 
ATOM     78  C   UNL     1      10.645   6.250   3.713  1.00  0.00     0.055 A 
ATOM     79  C   UNL     1       8.367   6.854   4.185  1.00  0.00     0.041 A 
ATOM     80  F   UNL     1       7.114   5.568   5.690  1.00  0.00    -0.206 F 
ATOM     81  C   UNL     1       9.558   7.104   3.511  1.00  0.00     0.022 A 
BRANCH  78  82
ATOM     82  S   UNL     1      12.234   6.602   2.913  1.00  0.00     0.124 S 
ATOM     83  O   UNL     1      13.125   6.726   4.061  1.00  0.00    -0.237 OA
ATOM     84  O   UNL     1      12.422   5.418   2.081  1.00  0.00    -0.237 OA
ATOM     85  O   UNL     1      11.980   7.841   2.182  1.00  0.00    -0.744 OA
ENDBRANCH  78  82
ENDBRANCH  51  75
BRANCH  63  86
ATOM     86  C   UNL     1      12.258   2.836  11.281  1.00  0.00     0.023 A 
ATOM     87  C   UNL     1      12.149   4.095  11.893  1.00  0.00     0.031 A 
ATOM     88  C   UNL     1      13.462   2.126  11.427  1.00  0.00     0.131 A 
ATOM     89  C   UNL     1      13.252   4.639  12.564  1.00  0.00     0.055 A 
ATOM     90  C   UNL     1      14.531   2.640  12.159  1.00  0.00     0.041 A 
ATOM     91  F   UNL     1      13.618   0.919  10.859  1.00  0.00    -0.206 F 
ATOM     92  C   UNL     1      14.436   3.912  12.718  1.00  0.00     0.022 A 
BRANCH  89  93
ATOM     93  S   UNL     1      13.161   6.360  13.126  1.00  0.00     0.124 S 
ATOM     94  O   UNL     1      12.877   7.068  11.881  1.00  0.00    -0.237 OA
ATOM     95  O   UNL     1      12.071   6.314  14.095  1.00  0.00    -0.237 OA
ATOM     96  O   UNL     1      14.485   6.606  13.692  1.00  0.00    -0.744 OA
ENDBRANCH  89  93
ENDBRANCH  63  86
ENDBRANCH  37  38
ENDBRANCH  30  32
ENDBRANCH  29  30
ENDBRANCH  28  29
ENDBRANCH  27  28
ENDBRANCH   1  27
TORSDOF 20
