REMARK SMILES C[C@@H](CC(=O)OCCOC(=O)c1ccc(-c2c3nc(c(-c4cc(S(=O)(=O)[O-])ccc4F)c4ccc([nH]4)c(-c4cc(S(=O)(=O)[O-])ccc4F)c4nc(c(-c5cc(S(=O)(=O)[O-])ccc5F)c5ccc2[nH]5)C=C4)C=C3)cc1)Cc1nnc(C2C(C)(C)C2(C)C)o1
REMARK SMILES IDX 7 1 6 2 4 3 5 4 3 5 2 6 1 7 75 8 76 9 77 10 87 11 78 12
REMARK SMILES IDX 79 13 80 14 81 15 84 16 82 17 83 18 85 19 86 20 8 21 9 22
REMARK SMILES IDX 10 23 11 24 12 25 13 26 74 27 14 28 73 29 15 30 16 31 17 32
REMARK SMILES IDX 67 33 18 34 72 35 66 36 68 37 19 38 71 39 65 40 64 41 20 43
REMARK SMILES IDX 52 44 32 45 51 46 33 47 36 48 50 49 69 50 34 51 35 52 49 54
REMARK SMILES IDX 70 55 37 56 21 57 22 58 30 59 23 60 29 61 31 62 28 63 24 64
REMARK SMILES IDX 25 65 26 66 27 67 53 68 54 69 62 70 55 71 61 72 63 73 60 74
REMARK SMILES IDX 56 75 57 76 58 77 59 78 38 79 39 80 47 81 40 82 46 83 48 84
REMARK SMILES IDX 45 85 41 86 42 87 43 88 44 89
REMARK H PARENT 68 42 36 53
REMARK Flexibility Score: inf
ROOT
ATOM      1  C   UNL     1       0.488   3.488   1.316  1.00  0.00     0.274 C 
ENDROOT
BRANCH   1   2
ATOM      2  O   UNL     1       0.726   2.079   1.121  1.00  0.00    -0.462 OA
BRANCH   2   3
ATOM      3  C   UNL     1       1.226   1.405   2.184  1.00  0.00     0.306 C 
ATOM      4  O   UNL     1       1.435   1.901   3.285  1.00  0.00    -0.252 OA
BRANCH   3   5
ATOM      5  C   UNL     1       1.610  -0.030   1.874  1.00  0.00     0.126 C 
BRANCH   5   6
ATOM      6  C   UNL     1       0.955  -0.770   0.693  1.00  0.00     0.006 C 
ATOM      7  C   UNL     1       1.291  -0.127  -0.658  1.00  0.00     0.009 C 
BRANCH   6   8
ATOM      8  C   UNL     1      -0.553  -0.985   0.919  1.00  0.00     0.103 C 
BRANCH   8   9
ATOM      9  C   UNL     1      -1.201  -1.708  -0.199  1.00  0.00     0.216 A 
ATOM     10  N   UNL     1      -1.374  -2.994  -0.406  1.00  0.00    -0.113 NA
ATOM     11  O   UNL     1      -1.669  -0.939  -1.222  1.00  0.00    -0.425 OA
ATOM     12  N   UNL     1      -2.032  -3.098  -1.618  1.00  0.00    -0.113 NA
ATOM     13  C   UNL     1      -2.189  -1.871  -2.074  1.00  0.00     0.220 A 
BRANCH  13  14
ATOM     14  C   UNL     1      -2.857  -1.564  -3.407  1.00  0.00     0.090 C 
ATOM     15  C   UNL     1      -3.503  -0.203  -3.699  1.00  0.00    -0.017 C 
ATOM     16  C   UNL     1      -2.217  -0.609  -4.422  1.00  0.00    -0.017 C 
ATOM     17  C   UNL     1      -4.828  -0.238  -4.436  1.00  0.00     0.012 C 
ATOM     18  C   UNL     1      -3.481   0.932  -2.694  1.00  0.00     0.012 C 
ATOM     19  C   UNL     1      -0.897   0.064  -4.112  1.00  0.00     0.012 C 
ATOM     20  C   UNL     1      -2.291  -1.014  -5.881  1.00  0.00     0.012 C 
ENDBRANCH  13  14
ENDBRANCH   8   9
ENDBRANCH   6   8
ENDBRANCH   5   6
ENDBRANCH   3   5
ENDBRANCH   2   3
ENDBRANCH   1   2
BRANCH   1  21
ATOM     21  C   UNL     1      -0.987   3.777   1.578  1.00  0.00     0.275 C 
BRANCH  21  22
ATOM     22  O   UNL     1      -1.412   3.114   2.778  1.00  0.00    -0.458 OA
BRANCH  22  23
ATOM     23  C   UNL     1      -2.368   2.173   2.612  1.00  0.00     0.338 C 
ATOM     24  O   UNL     1      -2.945   1.875   1.582  1.00  0.00    -0.246 OA
BRANCH  23  25
ATOM     25  C   UNL     1      -2.615   1.502   3.894  1.00  0.00     0.060 A 
ATOM     26  C   UNL     1      -1.729   0.517   4.337  1.00  0.00     0.016 A 
ATOM     27  C   UNL     1      -3.795   1.766   4.589  1.00  0.00     0.016 A 
ATOM     28  C   UNL     1      -2.050  -0.248   5.456  1.00  0.00     0.010 A 
ATOM     29  C   UNL     1      -4.095   1.025   5.734  1.00  0.00     0.010 A 
ATOM     30  C   UNL     1      -3.243  -0.011   6.155  1.00  0.00    -0.014 A 
BRANCH  30  31
ATOM     31  C   UNL     1      -3.642  -0.902   7.273  1.00  0.00     0.031 A 
ATOM     32  C   UNL     1      -4.792  -1.857   7.088  1.00  0.00     0.074 A 
ATOM     33  C   UNL     1      -2.978  -0.860   8.443  1.00  0.00     0.049 A 
ATOM     34  N   UNL     1      -5.362  -2.649   7.958  1.00  0.00    -0.248 NA
ATOM     35  C   UNL     1      -5.385  -1.913   5.743  1.00  0.00     0.031 C 
ATOM     36  C   UNL     1      -1.834   0.007   8.733  1.00  0.00     0.029 A 
ATOM     37  N   UNL     1      -3.172  -1.558   9.608  1.00  0.00    -0.354 N 
ATOM     38  C   UNL     1      -6.399  -3.279   7.278  1.00  0.00     0.074 A 
ATOM     39  C   UNL     1      -6.390  -2.758   5.926  1.00  0.00     0.031 C 
ATOM     40  C   UNL     1      -1.429  -0.212   9.995  1.00  0.00     0.029 A 
ATOM     41  C   UNL     1      -2.308  -1.200  10.615  1.00  0.00     0.049 A 
ATOM     42  H   UNL     1      -3.865  -2.249   9.712  1.00  0.00     0.167 HD
ATOM     43  C   UNL     1      -7.277  -4.205   7.738  1.00  0.00     0.034 A 
ATOM     44  C   UNL     1      -2.247  -1.604  11.899  1.00  0.00     0.034 A 
ATOM     45  C   UNL     1      -7.265  -4.726   9.084  1.00  0.00     0.049 A 
ATOM     46  C   UNL     1      -3.233  -2.634  12.387  1.00  0.00     0.074 A 
ATOM     47  C   UNL     1      -8.105  -5.667   9.655  1.00  0.00     0.029 A 
ATOM     48  N   UNL     1      -6.361  -4.353  10.071  1.00  0.00    -0.354 N 
ATOM     49  N   UNL     1      -4.222  -3.205  11.738  1.00  0.00    -0.248 NA
ATOM     50  C   UNL     1      -3.086  -3.082  13.777  1.00  0.00     0.031 C 
ATOM     51  C   UNL     1      -7.739  -5.828  10.998  1.00  0.00     0.029 A 
ATOM     52  C   UNL     1      -6.632  -5.034  11.249  1.00  0.00     0.049 A 
ATOM     53  H   UNL     1      -5.635  -3.700   9.953  1.00  0.00     0.167 HD
ATOM     54  C   UNL     1      -4.800  -4.096  12.637  1.00  0.00     0.074 A 
ATOM     55  C   UNL     1      -4.037  -4.000  13.865  1.00  0.00     0.031 C 
ATOM     56  C   UNL     1      -5.866  -4.919  12.467  1.00  0.00     0.034 A 
BRANCH  43  57
ATOM     57  C   UNL     1      -8.358  -4.664   6.790  1.00  0.00     0.023 A 
ATOM     58  C   UNL     1      -8.067  -5.407   5.632  1.00  0.00     0.031 A 
ATOM     59  C   UNL     1      -9.700  -4.324   7.035  1.00  0.00     0.131 A 
ATOM     60  C   UNL     1      -9.095  -5.730   4.733  1.00  0.00     0.055 A 
ATOM     61  C   UNL     1     -10.728  -4.709   6.172  1.00  0.00     0.041 A 
ATOM     62  F   UNL     1     -10.034  -3.596   8.113  1.00  0.00    -0.206 F 
ATOM     63  C   UNL     1     -10.427  -5.405   5.006  1.00  0.00     0.022 A 
BRANCH  60  64
ATOM     64  S   UNL     1      -8.656  -6.474   3.137  1.00  0.00     0.124 S 
ATOM     65  O   UNL     1      -7.816  -5.433   2.550  1.00  0.00    -0.237 OA
ATOM     66  O   UNL     1      -7.974  -7.699   3.537  1.00  0.00    -0.237 OA
ATOM     67  O   UNL     1      -9.949  -6.666   2.481  1.00  0.00    -0.744 OA
ENDBRANCH  60  64
ENDBRANCH  43  57
BRANCH  44  68
ATOM     68  C   UNL     1      -1.245  -1.012  12.828  1.00  0.00     0.023 A 
ATOM     69  C   UNL     1      -0.210  -1.789  13.372  1.00  0.00     0.031 A 
ATOM     70  C   UNL     1      -1.337   0.335  13.218  1.00  0.00     0.131 A 
ATOM     71  C   UNL     1       0.666  -1.224  14.312  1.00  0.00     0.055 A 
ATOM     72  C   UNL     1      -0.435   0.905  14.117  1.00  0.00     0.041 A 
ATOM     73  F   UNL     1      -2.306   1.121  12.722  1.00  0.00    -0.206 F 
ATOM     74  C   UNL     1       0.567   0.120  14.680  1.00  0.00     0.022 A 
BRANCH  71  75
ATOM     75  S   UNL     1       1.893  -2.295  15.109  1.00  0.00     0.124 S 
ATOM     76  O   UNL     1       1.050  -3.325  15.705  1.00  0.00    -0.237 OA
ATOM     77  O   UNL     1       2.711  -2.712  13.975  1.00  0.00    -0.237 OA
ATOM     78  O   UNL     1       2.557  -1.404  16.059  1.00  0.00    -0.744 OA
ENDBRANCH  71  75
ENDBRANCH  44  68
BRANCH  56  79
ATOM     79  C   UNL     1      -6.226  -5.810  13.629  1.00  0.00     0.023 A 
ATOM     80  C   UNL     1      -6.740  -5.287  14.829  1.00  0.00     0.031 A 
ATOM     81  C   UNL     1      -6.012  -7.197  13.547  1.00  0.00     0.131 A 
ATOM     82  C   UNL     1      -6.964  -6.138  15.921  1.00  0.00     0.055 A 
ATOM     83  C   UNL     1      -6.287  -8.046  14.620  1.00  0.00     0.041 A 
ATOM     84  F   UNL     1      -5.522  -7.747  12.425  1.00  0.00    -0.206 F 
ATOM     85  C   UNL     1      -6.750  -7.515  15.821  1.00  0.00     0.022 A 
BRANCH  82  86
ATOM     86  S   UNL     1      -7.434  -5.407  17.514  1.00  0.00     0.124 S 
ATOM     87  O   UNL     1      -6.369  -4.432  17.730  1.00  0.00    -0.237 OA
ATOM     88  O   UNL     1      -8.754  -4.855  17.224  1.00  0.00    -0.237 OA
ATOM     89  O   UNL     1      -7.426  -6.546  18.430  1.00  0.00    -0.744 OA
ENDBRANCH  82  86
ENDBRANCH  56  79
ENDBRANCH  30  31
ENDBRANCH  23  25
ENDBRANCH  22  23
ENDBRANCH  21  22
ENDBRANCH   1  21
TORSDOF 18
