REMARK SMILES CCC[C@@]1(C(=O)OCCOC(=O)c2ccc(-c3c4nc(c(-c5cc(S(=O)(=O)[O-])ccc5F)c5ccc([nH]5)c(-c5cc(S(=O)(=O)[O-])ccc5F)c5nc(c(-c6cc(S(=O)(=O)[O-])ccc6F)c6ccc3[nH]6)C=C5)C=C4)cc2)CCCN(C(=O)CCn2cncn2)C1
REMARK SMILES IDX 8 1 7 2 5 3 6 4 4 5 76 6 89 7 77 8 79 9 78 10 3 11 2 12 1 13
REMARK SMILES IDX 80 14 81 15 82 16 83 17 84 18 85 19 88 20 86 21 87 22 9 23
REMARK SMILES IDX 10 24 11 25 12 26 13 27 14 28 75 29 15 30 74 31 16 32 17 33
REMARK SMILES IDX 18 34 68 35 19 36 73 37 67 38 69 39 20 40 72 41 66 42 65 43
REMARK SMILES IDX 21 45 53 46 33 47 52 48 34 49 37 50 51 51 70 52 35 53 36 54
REMARK SMILES IDX 50 56 71 57 38 58 22 59 23 60 31 61 24 62 30 63 32 64 29 65
REMARK SMILES IDX 25 66 26 67 27 68 28 69 54 70 55 71 63 72 56 73 62 74 64 75
REMARK SMILES IDX 61 76 57 77 58 78 59 79 60 80 39 81 40 82 48 83 41 84 47 85
REMARK SMILES IDX 49 86 46 87 42 88 43 89 44 90 45 91
REMARK H PARENT 69 44 37 55
REMARK Flexibility Score: inf
ROOT
ATOM      1  C   UNL     1       1.978  -3.647   0.035  1.00  0.00     0.274 C 
ENDROOT
BRANCH   1   2
ATOM      2  O   UNL     1       1.304  -3.396   1.292  1.00  0.00    -0.462 OA
BRANCH   2   3
ATOM      3  C   UNL     1       1.016  -2.093   1.574  1.00  0.00     0.314 C 
ATOM      4  O   UNL     1       1.127  -1.183   0.761  1.00  0.00    -0.252 OA
BRANCH   3   5
ATOM      5  C   UNL     1       0.626  -1.882   3.048  1.00  0.00     0.086 C 
ATOM      6  C   UNL     1       0.467  -0.363   3.354  1.00  0.00     0.022 C 
ATOM      7  C   UNL     1       1.760  -2.445   3.932  1.00  0.00     0.138 C 
ATOM      8  C   UNL     1       1.795   0.409   3.359  1.00  0.00     0.023 C 
ATOM      9  N   UNL     1       3.001  -1.686   3.815  1.00  0.00    -0.341 N 
ATOM     10  C   UNL     1       2.877  -0.278   4.190  1.00  0.00     0.119 C 
BRANCH   5  11
ATOM     11  C   UNL     1      -0.665  -2.642   3.456  1.00  0.00     0.020 C 
BRANCH  11  12
ATOM     12  C   UNL     1      -1.923  -2.408   2.620  1.00  0.00    -0.002 C 
ATOM     13  C   UNL     1      -2.116  -3.513   1.598  1.00  0.00     0.004 C 
ENDBRANCH  11  12
ENDBRANCH   5  11
BRANCH   9  14
ATOM     14  C   UNL     1       4.130  -2.339   3.363  1.00  0.00     0.224 C 
ATOM     15  O   UNL     1       4.089  -3.491   2.917  1.00  0.00    -0.275 OA
BRANCH  14  16
ATOM     16  C   UNL     1       5.468  -1.646   3.389  1.00  0.00     0.124 C 
BRANCH  16  17
ATOM     17  C   UNL     1       5.844  -1.200   1.985  1.00  0.00     0.156 C 
BRANCH  17  18
ATOM     18  N   UNL     1       5.346   0.118   1.663  1.00  0.00    -0.252 N 
ATOM     19  C   UNL     1       4.420   0.467   0.734  1.00  0.00     0.219 A 
ATOM     20  N   UNL     1       5.826   1.200   2.306  1.00  0.00    -0.160 NA
ATOM     21  N   UNL     1       4.267   1.771   0.746  1.00  0.00    -0.224 NA
ATOM     22  C   UNL     1       5.133   2.179   1.717  1.00  0.00     0.246 A 
ENDBRANCH  17  18
ENDBRANCH  16  17
ENDBRANCH  14  16
ENDBRANCH   9  14
ENDBRANCH   3   5
ENDBRANCH   2   3
ENDBRANCH   1   2
BRANCH   1  23
ATOM     23  C   UNL     1       1.037  -4.278  -0.990  1.00  0.00     0.275 C 
BRANCH  23  24
ATOM     24  O   UNL     1       0.076  -3.290  -1.374  1.00  0.00    -0.458 OA
BRANCH  24  25
ATOM     25  C   UNL     1      -1.079  -3.746  -1.909  1.00  0.00     0.338 C 
ATOM     26  O   UNL     1      -1.268  -4.872  -2.354  1.00  0.00    -0.246 OA
BRANCH  25  27
ATOM     27  C   UNL     1      -2.134  -2.711  -1.733  1.00  0.00     0.060 A 
ATOM     28  C   UNL     1      -1.860  -1.521  -1.046  1.00  0.00     0.016 A 
ATOM     29  C   UNL     1      -3.447  -2.981  -2.128  1.00  0.00     0.016 A 
ATOM     30  C   UNL     1      -2.889  -0.648  -0.702  1.00  0.00     0.010 A 
ATOM     31  C   UNL     1      -4.460  -2.046  -1.875  1.00  0.00     0.010 A 
ATOM     32  C   UNL     1      -4.190  -0.861  -1.168  1.00  0.00    -0.014 A 
BRANCH  32  33
ATOM     33  C   UNL     1      -5.243   0.183  -1.007  1.00  0.00     0.031 A 
ATOM     34  C   UNL     1      -6.577  -0.155  -0.401  1.00  0.00     0.074 A 
ATOM     35  C   UNL     1      -5.025   1.430  -1.476  1.00  0.00     0.049 A 
ATOM     36  N   UNL     1      -7.718   0.474  -0.512  1.00  0.00    -0.248 NA
ATOM     37  C   UNL     1      -6.634  -1.363   0.434  1.00  0.00     0.031 C 
ATOM     38  C   UNL     1      -3.755   1.935  -2.005  1.00  0.00     0.029 A 
ATOM     39  N   UNL     1      -5.880   2.499  -1.610  1.00  0.00    -0.354 N 
ATOM     40  C   UNL     1      -8.648  -0.292   0.184  1.00  0.00     0.074 A 
ATOM     41  C   UNL     1      -7.926  -1.423   0.733  1.00  0.00     0.031 C 
ATOM     42  C   UNL     1      -3.908   3.207  -2.393  1.00  0.00     0.029 A 
ATOM     43  C   UNL     1      -5.314   3.560  -2.283  1.00  0.00     0.049 A 
ATOM     44  H   UNL     1      -6.800   2.506  -1.262  1.00  0.00     0.167 HD
ATOM     45  C   UNL     1      -9.979  -0.072   0.324  1.00  0.00     0.034 A 
ATOM     46  C   UNL     1      -5.868   4.647  -2.854  1.00  0.00     0.034 A 
ATOM     47  C   UNL     1     -10.660   1.087  -0.208  1.00  0.00     0.049 A 
ATOM     48  C   UNL     1      -7.359   4.807  -2.803  1.00  0.00     0.074 A 
ATOM     49  C   UNL     1     -11.998   1.430  -0.099  1.00  0.00     0.029 A 
ATOM     50  N   UNL     1     -10.057   2.093  -0.953  1.00  0.00    -0.354 N 
ATOM     51  N   UNL     1      -8.251   4.034  -2.230  1.00  0.00    -0.248 NA
ATOM     52  C   UNL     1      -7.921   5.968  -3.504  1.00  0.00     0.031 C 
ATOM     53  C   UNL     1     -12.215   2.601  -0.835  1.00  0.00     0.029 A 
ATOM     54  C   UNL     1     -11.001   3.031  -1.345  1.00  0.00     0.049 A 
ATOM     55  H   UNL     1      -9.098   2.135  -1.171  1.00  0.00     0.167 HD
ATOM     56  C   UNL     1      -9.483   4.621  -2.496  1.00  0.00     0.074 A 
ATOM     57  C   UNL     1      -9.216   5.821  -3.264  1.00  0.00     0.031 C 
ATOM     58  C   UNL     1     -10.723   4.206  -2.135  1.00  0.00     0.034 A 
BRANCH  45  59
ATOM     59  C   UNL     1     -10.808  -1.139   1.001  1.00  0.00     0.023 A 
ATOM     60  C   UNL     1     -10.679  -1.448   2.365  1.00  0.00     0.031 A 
ATOM     61  C   UNL     1     -11.761  -1.855   0.252  1.00  0.00     0.131 A 
ATOM     62  C   UNL     1     -11.458  -2.476   2.926  1.00  0.00     0.055 A 
ATOM     63  C   UNL     1     -12.578  -2.828   0.829  1.00  0.00     0.041 A 
ATOM     64  F   UNL     1     -11.915  -1.618  -1.061  1.00  0.00    -0.206 F 
ATOM     65  C   UNL     1     -12.422  -3.151   2.172  1.00  0.00     0.022 A 
BRANCH  62  66
ATOM     66  S   UNL     1     -11.117  -2.999   4.629  1.00  0.00     0.124 S 
ATOM     67  O   UNL     1      -9.707  -3.371   4.550  1.00  0.00    -0.237 OA
ATOM     68  O   UNL     1     -11.418  -1.796   5.395  1.00  0.00    -0.237 OA
ATOM     69  O   UNL     1     -12.037  -4.116   4.836  1.00  0.00    -0.744 OA
ENDBRANCH  62  66
ENDBRANCH  45  59
BRANCH  46  70
ATOM     70  C   UNL     1      -5.019   5.590  -3.638  1.00  0.00     0.023 A 
ATOM     71  C   UNL     1      -4.859   6.922  -3.235  1.00  0.00     0.031 A 
ATOM     72  C   UNL     1      -4.363   5.169  -4.811  1.00  0.00     0.131 A 
ATOM     73  C   UNL     1      -4.077   7.793  -4.009  1.00  0.00     0.055 A 
ATOM     74  C   UNL     1      -3.539   6.023  -5.543  1.00  0.00     0.041 A 
ATOM     75  F   UNL     1      -4.490   3.904  -5.246  1.00  0.00    -0.206 F 
ATOM     76  C   UNL     1      -3.400   7.348  -5.148  1.00  0.00     0.022 A 
BRANCH  73  77
ATOM     77  S   UNL     1      -4.016   9.545  -3.546  1.00  0.00     0.124 S 
ATOM     78  O   UNL     1      -5.426   9.915  -3.595  1.00  0.00    -0.237 OA
ATOM     79  O   UNL     1      -3.415   9.486  -2.217  1.00  0.00    -0.237 OA
ATOM     80  O   UNL     1      -3.177  10.142  -4.582  1.00  0.00    -0.744 OA
ENDBRANCH  73  77
ENDBRANCH  46  70
BRANCH  58  81
ATOM     81  C   UNL     1     -11.872   5.088  -2.547  1.00  0.00     0.023 A 
ATOM     82  C   UNL     1     -12.266   5.201  -3.891  1.00  0.00     0.031 A 
ATOM     83  C   UNL     1     -12.557   5.850  -1.585  1.00  0.00     0.131 A 
ATOM     84  C   UNL     1     -13.285   6.097  -4.245  1.00  0.00     0.055 A 
ATOM     85  C   UNL     1     -13.606   6.700  -1.937  1.00  0.00     0.041 A 
ATOM     86  F   UNL     1     -12.215   5.783  -0.289  1.00  0.00    -0.206 F 
ATOM     87  C   UNL     1     -13.968   6.836  -3.274  1.00  0.00     0.022 A 
BRANCH  84  88
ATOM     88  S   UNL     1     -13.658   6.344  -6.003  1.00  0.00     0.124 S 
ATOM     89  O   UNL     1     -12.401   6.888  -6.505  1.00  0.00    -0.237 OA
ATOM     90  O   UNL     1     -13.992   4.995  -6.446  1.00  0.00    -0.237 OA
ATOM     91  O   UNL     1     -14.778   7.284  -5.986  1.00  0.00    -0.744 OA
ENDBRANCH  84  88
ENDBRANCH  58  81
ENDBRANCH  32  33
ENDBRANCH  25  27
ENDBRANCH  24  25
ENDBRANCH  23  24
ENDBRANCH   1  23
TORSDOF 20
