REMARK SMILES O=C(OCCOC(=O)c1cc(F)ccc1N1CCCc2ccccc21)c1ccc(-c2c3nc(c(-c4cc(S(=O)(=O)[O-])ccc4F)c4ccc([nH]4)c(-c4cc(S(=O)(=O)[O-])ccc4F)c4nc(c(-c5cc(S(=O)(=O)[O-])ccc5F)c5ccc2[nH]5)C=C4)C=C3)cc1
REMARK SMILES IDX 4 1 3 2 2 3 1 4 26 5 27 6 88 7 28 8 87 9 29 10 30 11 31 12
REMARK SMILES IDX 81 13 32 14 86 15 80 16 82 17 33 18 85 19 79 20 78 21 34 23
REMARK SMILES IDX 66 24 46 25 65 26 47 27 50 28 64 29 83 30 48 31 49 32 63 34
REMARK SMILES IDX 84 35 51 36 35 37 36 38 44 39 37 40 43 41 45 42 42 43 38 44
REMARK SMILES IDX 39 45 40 46 41 47 67 48 68 49 76 50 69 51 75 52 77 53 74 54
REMARK SMILES IDX 70 55 71 56 72 57 73 58 52 59 53 60 61 61 54 62 60 63 62 64
REMARK SMILES IDX 59 65 55 66 56 67 57 68 58 69 5 70 6 71 7 72 8 73 9 74 10 75
REMARK SMILES IDX 15 76 11 77 14 78 12 79 13 80 16 81 17 82 25 83 18 84 20 85
REMARK SMILES IDX 24 86 19 87 21 88 23 89 22 90
REMARK H PARENT 82 22 50 33
REMARK Flexibility Score: inf
ROOT
ATOM      1  C   UNL     1       4.894  -1.178  -1.722  1.00  0.00     0.275 C 
ENDROOT
BRANCH   1   2
ATOM      2  O   UNL     1       5.333  -0.932  -0.389  1.00  0.00    -0.458 OA
BRANCH   2   3
ATOM      3  C   UNL     1       4.369  -0.689   0.530  1.00  0.00     0.338 C 
ATOM      4  O   UNL     1       3.333  -1.308   0.646  1.00  0.00    -0.246 OA
BRANCH   3   5
ATOM      5  C   UNL     1       4.725   0.611   1.175  1.00  0.00     0.060 A 
ATOM      6  C   UNL     1       5.878   1.285   0.753  1.00  0.00     0.016 A 
ATOM      7  C   UNL     1       3.864   1.234   2.083  1.00  0.00     0.016 A 
ATOM      8  C   UNL     1       6.182   2.526   1.265  1.00  0.00     0.010 A 
ATOM      9  C   UNL     1       4.084   2.538   2.490  1.00  0.00     0.010 A 
ATOM     10  C   UNL     1       5.292   3.134   2.149  1.00  0.00    -0.014 A 
BRANCH  10  11
ATOM     11  C   UNL     1       5.784   4.263   2.934  1.00  0.00     0.031 A 
ATOM     12  C   UNL     1       6.206   3.967   4.343  1.00  0.00     0.074 A 
ATOM     13  C   UNL     1       5.948   5.439   2.313  1.00  0.00     0.049 A 
ATOM     14  N   UNL     1       6.850   4.727   5.179  1.00  0.00    -0.248 NA
ATOM     15  C   UNL     1       5.866   2.636   4.891  1.00  0.00     0.031 C 
ATOM     16  C   UNL     1       5.534   5.728   0.935  1.00  0.00     0.029 A 
ATOM     17  N   UNL     1       6.538   6.590   2.735  1.00  0.00    -0.354 N 
ATOM     18  C   UNL     1       7.014   3.958   6.325  1.00  0.00     0.074 A 
ATOM     19  C   UNL     1       6.324   2.712   6.127  1.00  0.00     0.031 C 
ATOM     20  C   UNL     1       5.912   6.975   0.617  1.00  0.00     0.029 A 
ATOM     21  C   UNL     1       6.591   7.562   1.764  1.00  0.00     0.049 A 
ATOM     22  H   UNL     1       6.892   6.715   3.645  1.00  0.00     0.167 HD
ATOM     23  C   UNL     1       7.737   4.261   7.423  1.00  0.00     0.034 A 
ATOM     24  C   UNL     1       7.160   8.779   1.816  1.00  0.00     0.034 A 
ATOM     25  C   UNL     1       8.424   5.513   7.545  1.00  0.00     0.049 A 
ATOM     26  C   UNL     1       7.917   9.112   3.072  1.00  0.00     0.074 A 
ATOM     27  C   UNL     1       9.200   5.977   8.585  1.00  0.00     0.029 A 
ATOM     28  N   UNL     1       8.407   6.504   6.567  1.00  0.00    -0.354 N 
ATOM     29  N   UNL     1       8.102   8.363   4.139  1.00  0.00    -0.248 NA
ATOM     30  C   UNL     1       8.558  10.426   3.134  1.00  0.00     0.031 C 
ATOM     31  C   UNL     1       9.611   7.272   8.256  1.00  0.00     0.029 A 
ATOM     32  C   UNL     1       9.138   7.593   6.989  1.00  0.00     0.049 A 
ATOM     33  H   UNL     1       7.942   6.436   5.702  1.00  0.00     0.167 HD
ATOM     34  C   UNL     1       8.889   9.112   5.001  1.00  0.00     0.074 A 
ATOM     35  C   UNL     1       9.159  10.366   4.316  1.00  0.00     0.031 C 
ATOM     36  C   UNL     1       9.349   8.810   6.242  1.00  0.00     0.034 A 
BRANCH  23  37
ATOM     37  C   UNL     1       7.800   3.241   8.525  1.00  0.00     0.023 A 
ATOM     38  C   UNL     1       8.468   2.014   8.353  1.00  0.00     0.031 A 
ATOM     39  C   UNL     1       7.161   3.479   9.752  1.00  0.00     0.131 A 
ATOM     40  C   UNL     1       8.450   1.056   9.378  1.00  0.00     0.055 A 
ATOM     41  C   UNL     1       7.196   2.546  10.791  1.00  0.00     0.041 A 
ATOM     42  F   UNL     1       6.479   4.617   9.956  1.00  0.00    -0.206 F 
ATOM     43  C   UNL     1       7.839   1.325  10.605  1.00  0.00     0.022 A 
BRANCH  40  44
ATOM     44  S   UNL     1       9.181  -0.575   9.069  1.00  0.00     0.124 S 
ATOM     45  O   UNL     1       8.236  -1.144   8.113  1.00  0.00    -0.237 OA
ATOM     46  O   UNL     1      10.499  -0.241   8.540  1.00  0.00    -0.237 OA
ATOM     47  O   UNL     1       9.182  -1.204  10.388  1.00  0.00    -0.744 OA
ENDBRANCH  40  44
ENDBRANCH  23  37
BRANCH  24  48
ATOM     48  C   UNL     1       7.048   9.703   0.656  1.00  0.00     0.023 A 
ATOM     49  C   UNL     1       8.167  10.053  -0.113  1.00  0.00     0.031 A 
ATOM     50  C   UNL     1       5.795  10.214   0.267  1.00  0.00     0.131 A 
ATOM     51  C   UNL     1       8.015  10.900  -1.224  1.00  0.00     0.055 A 
ATOM     52  C   UNL     1       5.644  11.030  -0.856  1.00  0.00     0.041 A 
ATOM     53  F   UNL     1       4.689   9.897   0.959  1.00  0.00    -0.206 F 
ATOM     54  C   UNL     1       6.760  11.382  -1.606  1.00  0.00     0.022 A 
BRANCH  51  55
ATOM     55  S   UNL     1       9.493  11.389  -2.156  1.00  0.00     0.124 S 
ATOM     56  O   UNL     1      10.301  12.027  -1.122  1.00  0.00    -0.237 OA
ATOM     57  O   UNL     1       9.978  10.104  -2.649  1.00  0.00    -0.237 OA
ATOM     58  O   UNL     1       8.968  12.289  -3.181  1.00  0.00    -0.744 OA
ENDBRANCH  51  55
ENDBRANCH  24  48
BRANCH  36  59
ATOM     59  C   UNL     1      10.165   9.863   6.924  1.00  0.00     0.023 A 
ATOM     60  C   UNL     1       9.544  11.001   7.457  1.00  0.00     0.031 A 
ATOM     61  C   UNL     1      11.542   9.679   7.124  1.00  0.00     0.131 A 
ATOM     62  C   UNL     1      10.310  11.935   8.158  1.00  0.00     0.055 A 
ATOM     63  C   UNL     1      12.290  10.588   7.867  1.00  0.00     0.041 A 
ATOM     64  F   UNL     1      12.164   8.592   6.639  1.00  0.00    -0.206 F 
ATOM     65  C   UNL     1      11.675  11.726   8.385  1.00  0.00     0.022 A 
BRANCH  62  66
ATOM     66  S   UNL     1       9.497  13.437   8.755  1.00  0.00     0.124 S 
ATOM     67  O   UNL     1       9.152  14.107   7.505  1.00  0.00    -0.237 OA
ATOM     68  O   UNL     1       8.375  12.906   9.523  1.00  0.00    -0.237 OA
ATOM     69  O   UNL     1      10.534  14.093   9.548  1.00  0.00    -0.744 OA
ENDBRANCH  62  66
ENDBRANCH  36  59
ENDBRANCH  10  11
ENDBRANCH   3   5
ENDBRANCH   2   3
ENDBRANCH   1   2
BRANCH   1  70
ATOM     70  C   UNL     1       4.036  -0.074  -2.384  1.00  0.00     0.275 C 
BRANCH  70  71
ATOM     71  O   UNL     1       3.445   0.876  -1.478  1.00  0.00    -0.458 OA
BRANCH  71  72
ATOM     72  C   UNL     1       2.093   1.014  -1.486  1.00  0.00     0.340 C 
ATOM     73  O   UNL     1       1.307   0.408  -2.195  1.00  0.00    -0.246 OA
BRANCH  72  74
ATOM     74  C   UNL     1       1.726   2.120  -0.567  1.00  0.00     0.086 A 
ATOM     75  C   UNL     1       2.309   3.375  -0.835  1.00  0.00     0.057 A 
ATOM     76  C   UNL     1       0.765   1.983   0.462  1.00  0.00     0.056 A 
ATOM     77  C   UNL     1       1.964   4.480  -0.069  1.00  0.00     0.124 A 
ATOM     78  C   UNL     1       0.473   3.127   1.239  1.00  0.00     0.030 A 
ATOM     79  F   UNL     1       2.488   5.676  -0.362  1.00  0.00    -0.207 F 
ATOM     80  C   UNL     1       1.067   4.365   0.981  1.00  0.00     0.041 A 
BRANCH  76  81
ATOM     81  N   UNL     1       0.057   0.800   0.744  1.00  0.00    -0.341 N 
ATOM     82  C   UNL     1       0.688  -0.248   1.538  1.00  0.00     0.123 C 
ATOM     83  C   UNL     1      -1.330   0.584   0.588  1.00  0.00     0.044 A 
ATOM     84  C   UNL     1       0.029  -0.313   2.907  1.00  0.00     0.027 C 
ATOM     85  C   UNL     1      -2.037  -0.269   1.472  1.00  0.00    -0.024 A 
ATOM     86  C   UNL     1      -2.006   1.158  -0.492  1.00  0.00     0.026 A 
ATOM     87  C   UNL     1      -1.376  -0.859   2.700  1.00  0.00     0.039 C 
ATOM     88  C   UNL     1      -3.363  -0.611   1.191  1.00  0.00     0.006 A 
ATOM     89  C   UNL     1      -3.330   0.820  -0.755  1.00  0.00     0.002 A 
ATOM     90  C   UNL     1      -3.999  -0.080   0.072  1.00  0.00     0.000 A 
ENDBRANCH  76  81
ENDBRANCH  72  74
ENDBRANCH  71  72
ENDBRANCH  70  71
ENDBRANCH   1  70
TORSDOF 15
