REMARK SMILES O=C(OCCOC(=O)c1cccc2c(C(F)(F)F)cc(Br)nc12)c1ccc(-c2c3nc(c(-c4cc(S(=O)(=O)[O-])ccc4F)c4ccc([nH]4)c(-c4cc(S(=O)(=O)[O-])ccc4F)c4nc(c(-c5cc(S(=O)(=O)[O-])ccc5F)c5ccc2[nH]5)C=C4)C=C3)cc1
REMARK SMILES IDX 4 1 3 2 2 3 1 4 24 5 25 6 86 7 26 8 85 9 27 10 28 11 29 12
REMARK SMILES IDX 79 13 30 14 84 15 78 16 80 17 31 18 83 19 77 20 76 21 32 23
REMARK SMILES IDX 64 24 44 25 63 26 45 27 48 28 62 29 81 30 46 31 47 32 61 34
REMARK SMILES IDX 82 35 49 36 33 37 34 38 42 39 35 40 41 41 43 42 40 43 36 44
REMARK SMILES IDX 37 45 38 46 39 47 65 48 66 49 74 50 67 51 73 52 75 53 72 54
REMARK SMILES IDX 68 55 69 56 70 57 71 58 50 59 51 60 59 61 52 62 58 63 60 64
REMARK SMILES IDX 57 65 53 66 54 67 55 68 56 69 5 70 6 71 7 72 8 73 9 74 10 75
REMARK SMILES IDX 23 76 11 77 13 78 22 79 12 80 14 81 20 82 19 83 21 84 15 85
REMARK SMILES IDX 16 86 17 87 18 88
REMARK H PARENT 80 22 48 33
REMARK Flexibility Score: inf
ROOT
ATOM      1  C   UNL     1       4.159   1.169  -0.759  1.00  0.00     0.275 C 
ENDROOT
BRANCH   1   2
ATOM      2  O   UNL     1       3.080   0.241  -0.956  1.00  0.00    -0.458 OA
BRANCH   2   3
ATOM      3  C   UNL     1       3.130  -1.082  -0.643  1.00  0.00     0.338 C 
ATOM      4  O   UNL     1       2.503  -1.907  -1.301  1.00  0.00    -0.246 OA
BRANCH   3   5
ATOM      5  C   UNL     1       3.730  -1.491   0.656  1.00  0.00     0.060 A 
ATOM      6  C   UNL     1       2.922  -2.249   1.512  1.00  0.00     0.016 A 
ATOM      7  C   UNL     1       5.030  -1.180   1.061  1.00  0.00     0.016 A 
ATOM      8  C   UNL     1       3.349  -2.556   2.805  1.00  0.00     0.010 A 
ATOM      9  C   UNL     1       5.467  -1.493   2.350  1.00  0.00     0.010 A 
ATOM     10  C   UNL     1       4.624  -2.164   3.241  1.00  0.00    -0.014 A 
BRANCH  10  11
ATOM     11  C   UNL     1       5.174  -2.691   4.511  1.00  0.00     0.031 A 
ATOM     12  C   UNL     1       5.451  -1.835   5.708  1.00  0.00     0.074 A 
ATOM     13  C   UNL     1       5.504  -3.994   4.523  1.00  0.00     0.049 A 
ATOM     14  N   UNL     1       5.761  -2.210   6.922  1.00  0.00    -0.248 NA
ATOM     15  C   UNL     1       5.368  -0.379   5.537  1.00  0.00     0.031 C 
ATOM     16  C   UNL     1       5.366  -4.890   3.373  1.00  0.00     0.029 A 
ATOM     17  N   UNL     1       6.043  -4.780   5.503  1.00  0.00    -0.354 N 
ATOM     18  C   UNL     1       5.821  -1.048   7.681  1.00  0.00     0.074 A 
ATOM     19  C   UNL     1       5.586   0.055   6.774  1.00  0.00     0.031 C 
ATOM     20  C   UNL     1       5.816  -6.102   3.711  1.00  0.00     0.029 A 
ATOM     21  C   UNL     1       6.304  -6.061   5.085  1.00  0.00     0.049 A 
ATOM     22  H   UNL     1       6.226  -4.460   6.416  1.00  0.00     0.167 HD
ATOM     23  C   UNL     1       6.047  -0.925   9.011  1.00  0.00     0.034 A 
ATOM     24  C   UNL     1       6.886  -7.090   5.727  1.00  0.00     0.034 A 
ATOM     25  C   UNL     1       6.465  -2.026   9.848  1.00  0.00     0.049 A 
ATOM     26  C   UNL     1       7.242  -6.917   7.174  1.00  0.00     0.074 A 
ATOM     27  C   UNL     1       6.742  -2.019  11.203  1.00  0.00     0.029 A 
ATOM     28  N   UNL     1       6.734  -3.314   9.397  1.00  0.00    -0.354 N 
ATOM     29  N   UNL     1       7.103  -5.854   7.932  1.00  0.00    -0.248 NA
ATOM     30  C   UNL     1       7.800  -8.083   7.865  1.00  0.00     0.031 C 
ATOM     31  C   UNL     1       7.280  -3.263  11.545  1.00  0.00     0.029 A 
ATOM     32  C   UNL     1       7.241  -4.087  10.431  1.00  0.00     0.049 A 
ATOM     33  H   UNL     1       6.586  -3.631   8.477  1.00  0.00     0.167 HD
ATOM     34  C   UNL     1       7.551  -6.223   9.195  1.00  0.00     0.074 A 
ATOM     35  C   UNL     1       7.923  -7.622   9.103  1.00  0.00     0.031 C 
ATOM     36  C   UNL     1       7.648  -5.472  10.323  1.00  0.00     0.034 A 
BRANCH  23  37
ATOM     37  C   UNL     1       5.847   0.426   9.659  1.00  0.00     0.023 A 
ATOM     38  C   UNL     1       6.906   1.079  10.318  1.00  0.00     0.031 A 
ATOM     39  C   UNL     1       4.560   0.991   9.754  1.00  0.00     0.131 A 
ATOM     40  C   UNL     1       6.652   2.233  11.074  1.00  0.00     0.055 A 
ATOM     41  C   UNL     1       4.318   2.156  10.485  1.00  0.00     0.041 A 
ATOM     42  F   UNL     1       3.514   0.412   9.141  1.00  0.00    -0.206 F 
ATOM     43  C   UNL     1       5.365   2.775  11.160  1.00  0.00     0.022 A 
BRANCH  40  44
ATOM     44  S   UNL     1       7.966   3.046  12.025  1.00  0.00     0.124 S 
ATOM     45  O   UNL     1       7.949   4.395  11.464  1.00  0.00    -0.237 OA
ATOM     46  O   UNL     1       7.468   2.933  13.393  1.00  0.00    -0.237 OA
ATOM     47  O   UNL     1       9.156   2.261  11.716  1.00  0.00    -0.744 OA
ENDBRANCH  40  44
ENDBRANCH  23  37
BRANCH  24  48
ATOM     48  C   UNL     1       7.070  -8.362   4.975  1.00  0.00     0.023 A 
ATOM     49  C   UNL     1       7.865  -8.387   3.812  1.00  0.00     0.031 A 
ATOM     50  C   UNL     1       6.292  -9.490   5.273  1.00  0.00     0.131 A 
ATOM     51  C   UNL     1       7.774  -9.471   2.933  1.00  0.00     0.055 A 
ATOM     52  C   UNL     1       6.271 -10.606   4.435  1.00  0.00     0.041 A 
ATOM     53  F   UNL     1       5.502  -9.500   6.358  1.00  0.00    -0.206 F 
ATOM     54  C   UNL     1       6.994 -10.589   3.244  1.00  0.00     0.022 A 
BRANCH  51  55
ATOM     55  S   UNL     1       8.501  -9.377   1.271  1.00  0.00     0.124 S 
ATOM     56  O   UNL     1       9.431 -10.501   1.282  1.00  0.00    -0.237 OA
ATOM     57  O   UNL     1       7.323  -9.539   0.422  1.00  0.00    -0.237 OA
ATOM     58  O   UNL     1       9.111  -8.052   1.236  1.00  0.00    -0.744 OA
ENDBRANCH  51  55
ENDBRANCH  24  48
BRANCH  36  59
ATOM     59  C   UNL     1       8.223  -6.126  11.559  1.00  0.00     0.023 A 
ATOM     60  C   UNL     1       7.458  -6.211  12.737  1.00  0.00     0.031 A 
ATOM     61  C   UNL     1       9.561  -6.559  11.605  1.00  0.00     0.131 A 
ATOM     62  C   UNL     1       8.045  -6.683  13.918  1.00  0.00     0.055 A 
ATOM     63  C   UNL     1      10.122  -7.088  12.768  1.00  0.00     0.041 A 
ATOM     64  F   UNL     1      10.340  -6.485  10.514  1.00  0.00    -0.206 F 
ATOM     65  C   UNL     1       9.367  -7.137  13.935  1.00  0.00     0.022 A 
BRANCH  62  66
ATOM     66  S   UNL     1       7.147  -6.634  15.493  1.00  0.00     0.124 S 
ATOM     67  O   UNL     1       7.068  -8.051  15.838  1.00  0.00    -0.237 OA
ATOM     68  O   UNL     1       8.040  -5.837  16.330  1.00  0.00    -0.237 OA
ATOM     69  O   UNL     1       5.876  -6.002  15.154  1.00  0.00    -0.744 OA
ENDBRANCH  62  66
ENDBRANCH  36  59
ENDBRANCH  10  11
ENDBRANCH   3   5
ENDBRANCH   2   3
ENDBRANCH   1   2
BRANCH   1  70
ATOM     70  C   UNL     1       4.056   2.027   0.506  1.00  0.00     0.275 C 
BRANCH  70  71
ATOM     71  O   UNL     1       3.496   1.340   1.633  1.00  0.00    -0.458 OA
BRANCH  71  72
ATOM     72  C   UNL     1       2.157   1.499   1.809  1.00  0.00     0.340 C 
ATOM     73  O   UNL     1       1.417   2.206   1.139  1.00  0.00    -0.246 OA
BRANCH  72  74
ATOM     74  C   UNL     1       1.734   0.727   2.994  1.00  0.00     0.086 A 
ATOM     75  C   UNL     1       2.368   0.996   4.215  1.00  0.00     0.018 A 
ATOM     76  C   UNL     1       0.725  -0.237   2.871  1.00  0.00     0.087 A 
ATOM     77  C   UNL     1       1.995   0.293   5.349  1.00  0.00     0.002 A 
ATOM     78  C   UNL     1       0.339  -0.945   4.037  1.00  0.00     0.013 A 
ATOM     79  N   UNL     1       0.177  -0.522   1.671  1.00  0.00    -0.240 NA
ATOM     80  C   UNL     1       0.990  -0.665   5.262  1.00  0.00     0.011 A 
ATOM     81  C   UNL     1      -0.676  -1.929   3.915  1.00  0.00     0.068 A 
ATOM     82  C   UNL     1      -0.738  -1.503   1.568  1.00  0.00     0.107 A 
ATOM     83  C   UNL     1      -1.195  -2.222   2.648  1.00  0.00     0.049 A 
ATOM     84  Br  UNL     1      -1.395  -1.922  -0.159  1.00  0.00    -0.029 Br
BRANCH  81  85
ATOM     85  C   UNL     1      -1.232  -2.660   5.113  1.00  0.00     0.417 C 
ATOM     86  F   UNL     1      -0.309  -3.431   5.743  1.00  0.00    -0.166 F 
ATOM     87  F   UNL     1      -1.733  -1.810   6.052  1.00  0.00    -0.166 F 
ATOM     88  F   UNL     1      -2.263  -3.496   4.799  1.00  0.00    -0.166 F 
ENDBRANCH  81  85
ENDBRANCH  72  74
ENDBRANCH  71  72
ENDBRANCH  70  71
ENDBRANCH   1  70
TORSDOF 15
