REMARK SMILES O=C(OCCOC(=O)[C@@H](CCCCO)c1cccc(Cl)c1)c1ccc(-c2c3nc(c(-c4cc(S(=O)(=O)[O-])ccc4F)c4ccc([nH]4)c(-c4cc(S(=O)(=O)[O-])ccc4F)c4nc(c(-c5cc(S(=O)(=O)[O-])ccc5F)c5ccc2[nH]5)C=C4)C=C3)cc1
REMARK SMILES IDX 5 1 4 2 3 3 2 4 1 5 22 6 23 7 84 8 24 9 83 10 25 11 26 12
REMARK SMILES IDX 27 13 77 14 28 15 82 16 76 17 78 18 29 19 81 20 75 21 74 22
REMARK SMILES IDX 30 24 62 25 42 26 61 27 43 28 46 29 60 30 79 31 44 32 45 33
REMARK SMILES IDX 59 35 80 36 47 37 31 38 32 39 40 40 33 41 39 42 41 43 38 44
REMARK SMILES IDX 34 45 35 46 36 47 37 48 63 49 64 50 72 51 65 52 71 53 73 54
REMARK SMILES IDX 70 55 66 56 67 57 68 58 69 59 48 60 49 61 57 62 50 63 56 64
REMARK SMILES IDX 58 65 55 66 51 67 52 68 53 69 54 70 6 71 7 72 8 73 9 74
REMARK SMILES IDX 10 75 11 76 12 77 13 78 14 79 15 81 16 82 21 83 17 84 19 85
REMARK SMILES IDX 18 86 20 87
REMARK H PARENT 78 23 46 34 14 80
REMARK Flexibility Score: inf
ROOT
ATOM      1  C   UNL     1       3.768   2.029   0.654  1.00  0.00     0.274 C 
ENDROOT
BRANCH   1   2
ATOM      2  C   UNL     1       3.865   1.487  -0.778  1.00  0.00     0.275 C 
BRANCH   2   3
ATOM      3  O   UNL     1       3.004   0.390  -1.083  1.00  0.00    -0.458 OA
BRANCH   3   4
ATOM      4  C   UNL     1       3.148  -0.923  -0.799  1.00  0.00     0.338 C 
ATOM      5  O   UNL     1       2.246  -1.680  -1.160  1.00  0.00    -0.246 OA
BRANCH   4   6
ATOM      6  C   UNL     1       4.263  -1.495   0.030  1.00  0.00     0.060 A 
ATOM      7  C   UNL     1       5.492  -0.908   0.359  1.00  0.00     0.016 A 
ATOM      8  C   UNL     1       3.977  -2.736   0.609  1.00  0.00     0.016 A 
ATOM      9  C   UNL     1       6.342  -1.466   1.336  1.00  0.00     0.010 A 
ATOM     10  C   UNL     1       4.782  -3.249   1.628  1.00  0.00     0.010 A 
ATOM     11  C   UNL     1       5.969  -2.612   2.032  1.00  0.00    -0.014 A 
BRANCH  11  12
ATOM     12  C   UNL     1       6.755  -3.187   3.173  1.00  0.00     0.031 A 
ATOM     13  C   UNL     1       7.050  -4.667   3.142  1.00  0.00     0.074 A 
ATOM     14  C   UNL     1       7.022  -2.482   4.300  1.00  0.00     0.049 A 
ATOM     15  N   UNL     1       7.480  -5.448   4.098  1.00  0.00    -0.248 NA
ATOM     16  C   UNL     1       6.743  -5.374   1.884  1.00  0.00     0.031 C 
ATOM     17  C   UNL     1       6.719  -1.062   4.535  1.00  0.00     0.029 A 
ATOM     18  N   UNL     1       7.503  -2.900   5.523  1.00  0.00    -0.354 N 
ATOM     19  C   UNL     1       7.551  -6.707   3.516  1.00  0.00     0.074 A 
ATOM     20  C   UNL     1       6.843  -6.636   2.261  1.00  0.00     0.031 C 
ATOM     21  C   UNL     1       6.886  -0.774   5.839  1.00  0.00     0.029 A 
ATOM     22  C   UNL     1       7.371  -1.961   6.529  1.00  0.00     0.049 A 
ATOM     23  H   UNL     1       7.904  -3.787   5.667  1.00  0.00     0.167 HD
ATOM     24  C   UNL     1       8.310  -7.768   3.881  1.00  0.00     0.034 A 
ATOM     25  C   UNL     1       7.612  -2.052   7.853  1.00  0.00     0.034 A 
ATOM     26  C   UNL     1       9.050  -7.812   5.108  1.00  0.00     0.049 A 
ATOM     27  C   UNL     1       8.305  -3.295   8.354  1.00  0.00     0.074 A 
ATOM     28  C   UNL     1       9.933  -8.771   5.563  1.00  0.00     0.029 A 
ATOM     29  N   UNL     1       8.979  -6.831   6.088  1.00  0.00    -0.354 N 
ATOM     30  N   UNL     1       8.552  -4.415   7.714  1.00  0.00    -0.248 NA
ATOM     31  C   UNL     1       8.844  -3.248   9.719  1.00  0.00     0.031 C 
ATOM     32  C   UNL     1      10.365  -8.388   6.839  1.00  0.00     0.029 A 
ATOM     33  C   UNL     1       9.793  -7.164   7.154  1.00  0.00     0.049 A 
ATOM     34  H   UNL     1       8.430  -6.016   6.032  1.00  0.00     0.167 HD
ATOM     35  C   UNL     1       9.373  -5.158   8.559  1.00  0.00     0.074 A 
ATOM     36  C   UNL     1       9.540  -4.373   9.766  1.00  0.00     0.031 C 
ATOM     37  C   UNL     1       9.969  -6.358   8.337  1.00  0.00     0.034 A 
BRANCH  24  38
ATOM     38  C   UNL     1       8.447  -8.865   2.854  1.00  0.00     0.023 A 
ATOM     39  C   UNL     1       8.958  -8.562   1.573  1.00  0.00     0.031 A 
ATOM     40  C   UNL     1       7.983 -10.165   3.083  1.00  0.00     0.131 A 
ATOM     41  C   UNL     1       8.858  -9.495   0.535  1.00  0.00     0.055 A 
ATOM     42  C   UNL     1       7.985 -11.128   2.068  1.00  0.00     0.041 A 
ATOM     43  F   UNL     1       7.479 -10.512   4.278  1.00  0.00    -0.206 F 
ATOM     44  C   UNL     1       8.399 -10.788   0.780  1.00  0.00     0.022 A 
BRANCH  41  45
ATOM     45  S   UNL     1       9.160  -8.921  -1.159  1.00  0.00     0.124 S 
ATOM     46  O   UNL     1       8.087  -7.941  -1.332  1.00  0.00    -0.237 OA
ATOM     47  O   UNL     1      10.507  -8.382  -1.081  1.00  0.00    -0.237 OA
ATOM     48  O   UNL     1       9.016 -10.139  -1.961  1.00  0.00    -0.744 OA
ENDBRANCH  41  45
ENDBRANCH  24  38
BRANCH  25  49
ATOM     49  C   UNL     1       7.283  -0.943   8.801  1.00  0.00     0.023 A 
ATOM     50  C   UNL     1       8.292  -0.169   9.398  1.00  0.00     0.031 A 
ATOM     51  C   UNL     1       5.957  -0.718   9.212  1.00  0.00     0.131 A 
ATOM     52  C   UNL     1       7.973   0.735  10.426  1.00  0.00     0.055 A 
ATOM     53  C   UNL     1       5.639   0.209  10.211  1.00  0.00     0.041 A 
ATOM     54  F   UNL     1       4.949  -1.418   8.666  1.00  0.00    -0.206 F 
ATOM     55  C   UNL     1       6.653   0.929  10.837  1.00  0.00     0.022 A 
BRANCH  52  56
ATOM     56  S   UNL     1       9.327   1.577  11.296  1.00  0.00     0.124 S 
ATOM     57  O   UNL     1      10.138   0.452  11.743  1.00  0.00    -0.237 OA
ATOM     58  O   UNL     1       9.898   2.398  10.233  1.00  0.00    -0.237 OA
ATOM     59  O   UNL     1       8.644   2.318  12.354  1.00  0.00    -0.744 OA
ENDBRANCH  52  56
ENDBRANCH  25  49
BRANCH  37  60
ATOM     60  C   UNL     1      10.947  -6.836   9.376  1.00  0.00     0.023 A 
ATOM     61  C   UNL     1      10.540  -7.174  10.675  1.00  0.00     0.031 A 
ATOM     62  C   UNL     1      12.315  -6.928   9.060  1.00  0.00     0.131 A 
ATOM     63  C   UNL     1      11.502  -7.518  11.634  1.00  0.00     0.055 A 
ATOM     64  C   UNL     1      13.257  -7.350   9.997  1.00  0.00     0.041 A 
ATOM     65  F   UNL     1      12.757  -6.608   7.833  1.00  0.00    -0.206 F 
ATOM     66  C   UNL     1      12.854  -7.632  11.299  1.00  0.00     0.022 A 
BRANCH  63  67
ATOM     67  S   UNL     1      10.971  -7.695  13.357  1.00  0.00     0.124 S 
ATOM     68  O   UNL     1      10.412  -6.376  13.635  1.00  0.00    -0.237 OA
ATOM     69  O   UNL     1      10.010  -8.790  13.277  1.00  0.00    -0.237 OA
ATOM     70  O   UNL     1      12.210  -8.008  14.066  1.00  0.00    -0.744 OA
ENDBRANCH  63  67
ENDBRANCH  37  60
ENDBRANCH  11  12
ENDBRANCH   4   6
ENDBRANCH   3   4
ENDBRANCH   2   3
ENDBRANCH   1   2
BRANCH   1  71
ATOM     71  O   UNL     1       3.179   1.153   1.637  1.00  0.00    -0.462 OA
BRANCH  71  72
ATOM     72  C   UNL     1       1.871   1.400   1.943  1.00  0.00     0.313 C 
ATOM     73  O   UNL     1       1.167   2.177   1.302  1.00  0.00    -0.252 OA
BRANCH  72  74
ATOM     74  C   UNL     1       1.379   0.728   3.244  1.00  0.00     0.129 C 
BRANCH  74  75
ATOM     75  C   UNL     1       1.341  -0.816   3.155  1.00  0.00     0.020 C 
BRANCH  75  76
ATOM     76  C   UNL     1       2.664  -1.566   3.233  1.00  0.00     0.004 C 
BRANCH  76  77
ATOM     77  C   UNL     1       3.478  -1.684   4.518  1.00  0.00     0.028 C 
BRANCH  77  78
ATOM     78  C   UNL     1       3.031  -2.717   5.534  1.00  0.00     0.156 C 
BRANCH  78  79
ATOM     79  O   UNL     1       3.094  -4.015   4.953  1.00  0.00    -0.396 OA
ATOM     80  H   UNL     1       2.511  -4.051   4.179  1.00  0.00     0.210 HD
ENDBRANCH  78  79
ENDBRANCH  77  78
ENDBRANCH  76  77
ENDBRANCH  75  76
ENDBRANCH  74  75
BRANCH  74  81
ATOM     81  C   UNL     1       1.945   1.298   4.542  1.00  0.00    -0.032 A 
ATOM     82  C   UNL     1       1.757   0.612   5.759  1.00  0.00     0.005 A 
ATOM     83  C   UNL     1       2.637   2.516   4.590  1.00  0.00     0.025 A 
ATOM     84  C   UNL     1       2.398   1.015   6.932  1.00  0.00     0.002 A 
ATOM     85  C   UNL     1       3.226   2.952   5.782  1.00  0.00     0.041 A 
ATOM     86  C   UNL     1       3.147   2.184   6.941  1.00  0.00     0.020 A 
ATOM     87  Cl  UNL     1       4.061   4.456   5.813  1.00  0.00    -0.084 Cl
ENDBRANCH  74  81
ENDBRANCH  72  74
ENDBRANCH  71  72
ENDBRANCH   1  71
TORSDOF 20
