REMARK SMILES Cn1ccnc1N1[C@@H]2CC[C@H]1C[C@H](CC(=O)OCCOC(=O)c1ccc(-c3c4nc(c(-c5cc(S(=O)(=O)[O-])ccc5F)c5ccc([nH]5)c(-c5cc(S(=O)(=O)[O-])ccc5F)c5nc(c(-c6cc(S(=O)(=O)[O-])ccc6F)c6ccc3[nH]6)C=C5)C=C4)cc1)C2
REMARK SMILES IDX 19 1 18 2 17 3 15 4 16 5 14 6 13 7 7 8 8 9 11 10 9 11 86 12
REMARK SMILES IDX 10 13 12 14 6 15 1 16 2 17 3 18 4 19 5 20 20 21 21 22 22 23
REMARK SMILES IDX 23 24 24 25 85 26 25 27 84 28 26 29 27 30 28 31 78 32 29 33
REMARK SMILES IDX 83 34 77 35 79 36 30 37 82 38 76 39 75 40 31 42 63 43 43 44
REMARK SMILES IDX 62 45 44 46 47 47 61 48 80 49 45 50 46 51 60 53 81 54 48 55
REMARK SMILES IDX 32 56 33 57 41 58 34 59 40 60 42 61 39 62 35 63 36 64 37 65
REMARK SMILES IDX 38 66 64 67 65 68 73 69 66 70 72 71 74 72 71 73 67 74 68 75
REMARK SMILES IDX 69 76 70 77 49 78 50 79 58 80 51 81 57 82 59 83 56 84 52 85
REMARK SMILES IDX 53 86 54 87 55 88
REMARK H PARENT 79 41 47 52
REMARK Flexibility Score: inf
ROOT
ATOM      1  C   UNL     1       3.796   6.943  -3.942  1.00  0.00     0.275 C 
ENDROOT
BRANCH   1   2
ATOM      2  C   UNL     1       4.421   6.760  -2.557  1.00  0.00     0.274 C 
BRANCH   2   3
ATOM      3  O   UNL     1       3.534   6.054  -1.668  1.00  0.00    -0.462 OA
BRANCH   3   4
ATOM      4  C   UNL     1       2.798   6.809  -0.814  1.00  0.00     0.306 C 
ATOM      5  O   UNL     1       2.888   8.025  -0.706  1.00  0.00    -0.252 OA
BRANCH   4   6
ATOM      6  C   UNL     1       1.896   5.969   0.067  1.00  0.00     0.126 C 
BRANCH   6   7
ATOM      7  C   UNL     1       1.043   4.913  -0.658  1.00  0.00     0.004 C 
ATOM      8  N   UNL     1       0.193   2.149  -0.290  1.00  0.00    -0.336 N 
ATOM      9  C   UNL     1      -0.842   3.195  -0.252  1.00  0.00     0.086 C 
ATOM     10  C   UNL     1       0.992   2.473  -1.475  1.00  0.00     0.086 C 
ATOM     11  C   UNL     1      -1.286   3.296  -1.720  1.00  0.00     0.027 C 
ATOM     12  C   UNL     1      -0.151   4.486   0.234  1.00  0.00     0.029 C 
ATOM     13  C   UNL     1      -0.071   2.821  -2.529  1.00  0.00     0.027 C 
ATOM     14  C   UNL     1       1.867   3.682  -1.102  1.00  0.00     0.029 C 
BRANCH   8  15
ATOM     15  C   UNL     1      -0.174   0.865  -0.038  1.00  0.00     0.205 A 
ATOM     16  C   UNL     1       2.168  -0.043   0.252  1.00  0.00     0.153 C 
ATOM     17  N   UNL     1       0.736  -0.152   0.149  1.00  0.00    -0.320 N 
ATOM     18  C   UNL     1       0.038  -1.323   0.298  1.00  0.00     0.109 A 
ATOM     19  C   UNL     1      -1.282  -0.950   0.267  1.00  0.00     0.133 A 
ATOM     20  N   UNL     1      -1.398   0.400   0.086  1.00  0.00    -0.221 NA
ENDBRANCH   8  15
ENDBRANCH   6   7
ENDBRANCH   4   6
ENDBRANCH   3   4
ENDBRANCH   2   3
ENDBRANCH   1   2
BRANCH   1  21
ATOM     21  O   UNL     1       2.741   7.920  -3.912  1.00  0.00    -0.458 OA
BRANCH  21  22
ATOM     22  C   UNL     1       1.488   7.418  -3.803  1.00  0.00     0.338 C 
ATOM     23  O   UNL     1       1.167   6.243  -3.794  1.00  0.00    -0.246 OA
BRANCH  22  24
ATOM     24  C   UNL     1       0.542   8.523  -3.581  1.00  0.00     0.060 A 
ATOM     25  C   UNL     1      -0.103   8.614  -2.344  1.00  0.00     0.016 A 
ATOM     26  C   UNL     1       0.253   9.429  -4.602  1.00  0.00     0.016 A 
ATOM     27  C   UNL     1      -1.048   9.616  -2.125  1.00  0.00     0.010 A 
ATOM     28  C   UNL     1      -0.692  10.435  -4.378  1.00  0.00     0.010 A 
ATOM     29  C   UNL     1      -1.355  10.530  -3.141  1.00  0.00    -0.014 A 
BRANCH  29  30
ATOM     30  C   UNL     1      -2.402  11.562  -2.928  1.00  0.00     0.031 A 
ATOM     31  C   UNL     1      -3.742  11.412  -3.592  1.00  0.00     0.074 A 
ATOM     32  C   UNL     1      -2.145  12.631  -2.151  1.00  0.00     0.049 A 
ATOM     33  N   UNL     1      -4.754  12.240  -3.613  1.00  0.00    -0.248 NA
ATOM     34  C   UNL     1      -3.967  10.165  -4.339  1.00  0.00     0.031 C 
ATOM     35  C   UNL     1      -0.891  12.869  -1.434  1.00  0.00     0.029 A 
ATOM     36  N   UNL     1      -2.917  13.724  -1.845  1.00  0.00    -0.354 N 
ATOM     37  C   UNL     1      -5.731  11.627  -4.390  1.00  0.00     0.074 A 
ATOM     38  C   UNL     1      -5.180  10.365  -4.838  1.00  0.00     0.031 C 
ATOM     39  C   UNL     1      -0.976  14.041  -0.783  1.00  0.00     0.029 A 
ATOM     40  C   UNL     1      -2.268  14.658  -1.071  1.00  0.00     0.049 A 
ATOM     41  H   UNL     1      -3.848  13.829  -2.149  1.00  0.00     0.167 HD
ATOM     42  C   UNL     1      -6.972  12.079  -4.699  1.00  0.00     0.034 A 
ATOM     43  C   UNL     1      -2.655  15.887  -0.672  1.00  0.00     0.034 A 
ATOM     44  C   UNL     1      -7.510  13.336  -4.237  1.00  0.00     0.049 A 
ATOM     45  C   UNL     1      -4.024  16.385  -1.068  1.00  0.00     0.074 A 
ATOM     46  C   UNL     1      -8.768  13.870  -4.462  1.00  0.00     0.029 A 
ATOM     47  N   UNL     1      -6.820  14.262  -3.466  1.00  0.00    -0.354 N 
ATOM     48  N   UNL     1      -4.943  15.788  -1.792  1.00  0.00    -0.248 NA
ATOM     49  C   UNL     1      -4.409  17.719  -0.589  1.00  0.00     0.031 C 
ATOM     50  C   UNL     1      -8.815  15.143  -3.882  1.00  0.00     0.029 A 
ATOM     51  C   UNL     1      -7.613  15.376  -3.234  1.00  0.00     0.049 A 
ATOM     52  H   UNL     1      -5.901  14.145  -3.132  1.00  0.00     0.167 HD
ATOM     53  C   UNL     1      -6.024  16.665  -1.831  1.00  0.00     0.074 A 
ATOM     54  C   UNL     1      -5.648  17.823  -1.046  1.00  0.00     0.031 C 
ATOM     55  C   UNL     1      -7.220  16.526  -2.456  1.00  0.00     0.034 A 
BRANCH  42  56
ATOM     56  C   UNL     1      -7.812  11.233  -5.624  1.00  0.00     0.023 A 
ATOM     57  C   UNL     1      -8.295   9.969  -5.246  1.00  0.00     0.031 A 
ATOM     58  C   UNL     1      -8.127  11.702  -6.912  1.00  0.00     0.131 A 
ATOM     59  C   UNL     1      -9.022   9.195  -6.165  1.00  0.00     0.055 A 
ATOM     60  C   UNL     1      -8.908  10.957  -7.797  1.00  0.00     0.041 A 
ATOM     61  F   UNL     1      -7.675  12.893  -7.334  1.00  0.00    -0.206 F 
ATOM     62  C   UNL     1      -9.351   9.690  -7.429  1.00  0.00     0.022 A 
BRANCH  59  63
ATOM     63  S   UNL     1      -9.437   7.484  -5.727  1.00  0.00     0.124 S 
ATOM     64  O   UNL     1      -8.113   6.901  -5.530  1.00  0.00    -0.237 OA
ATOM     65  O   UNL     1     -10.247   7.654  -4.526  1.00  0.00    -0.237 OA
ATOM     66  O   UNL     1     -10.157   6.995  -6.901  1.00  0.00    -0.744 OA
ENDBRANCH  59  63
ENDBRANCH  42  56
BRANCH  43  67
ATOM     67  C   UNL     1      -1.724  16.761   0.098  1.00  0.00     0.023 A 
ATOM     68  C   UNL     1      -2.021  17.172   1.406  1.00  0.00     0.031 A 
ATOM     69  C   UNL     1      -0.544  17.248  -0.494  1.00  0.00     0.131 A 
ATOM     70  C   UNL     1      -1.176  18.081   2.062  1.00  0.00     0.055 A 
ATOM     71  C   UNL     1       0.322  18.108   0.183  1.00  0.00     0.041 A 
ATOM     72  F   UNL     1      -0.212  16.888  -1.744  1.00  0.00    -0.206 F 
ATOM     73  C   UNL     1      -0.001  18.542   1.464  1.00  0.00     0.022 A 
BRANCH  70  74
ATOM     74  S   UNL     1      -1.687  18.734   3.676  1.00  0.00     0.124 S 
ATOM     75  O   UNL     1      -2.996  19.300   3.369  1.00  0.00    -0.237 OA
ATOM     76  O   UNL     1      -1.686  17.531   4.502  1.00  0.00    -0.237 OA
ATOM     77  O   UNL     1      -0.645  19.708   3.995  1.00  0.00    -0.744 OA
ENDBRANCH  70  74
ENDBRANCH  43  67
BRANCH  55  78
ATOM     78  C   UNL     1      -8.222  17.639  -2.271  1.00  0.00     0.023 A 
ATOM     79  C   UNL     1      -8.022  18.916  -2.825  1.00  0.00     0.031 A 
ATOM     80  C   UNL     1      -9.388  17.420  -1.516  1.00  0.00     0.131 A 
ATOM     81  C   UNL     1      -8.948  19.939  -2.572  1.00  0.00     0.055 A 
ATOM     82  C   UNL     1     -10.333  18.426  -1.314  1.00  0.00     0.041 A 
ATOM     83  F   UNL     1      -9.628  16.220  -0.963  1.00  0.00    -0.206 F 
ATOM     84  C   UNL     1     -10.109  19.698  -1.833  1.00  0.00     0.022 A 
BRANCH  81  85
ATOM     85  S   UNL     1      -8.576  21.616  -3.155  1.00  0.00     0.124 S 
ATOM     86  O   UNL     1      -7.312  21.899  -2.482  1.00  0.00    -0.237 OA
ATOM     87  O   UNL     1      -8.501  21.436  -4.601  1.00  0.00    -0.237 OA
ATOM     88  O   UNL     1      -9.716  22.403  -2.688  1.00  0.00    -0.744 OA
ENDBRANCH  81  85
ENDBRANCH  55  78
ENDBRANCH  29  30
ENDBRANCH  22  24
ENDBRANCH  21  22
ENDBRANCH   1  21
TORSDOF 16
