REMARK SMILES Cc1ccc(/C=C2/SC(=O)N(CC(=O)OCCOC(=O)c3ccc(-c4c5nc(c(-c6cc(S(=O)(=O)[O-])ccc6F)c6ccc([nH]6)c(-c6cc(S(=O)(=O)[O-])ccc6F)c6nc(c(-c7cc(S(=O)(=O)[O-])ccc7F)c7ccc4[nH]7)C=C6)C=C5)cc3)C2=O)cc1
REMARK SMILES IDX 17 1 16 2 15 3 13 4 14 5 12 6 11 7 6 8 7 9 8 10 84 11 9 12
REMARK SMILES IDX 85 13 10 14 5 15 1 16 2 17 3 18 87 19 4 20 86 21 18 22 19 23
REMARK SMILES IDX 20 24 21 25 22 26 83 27 23 28 82 29 24 30 25 31 26 32 76 33
REMARK SMILES IDX 27 34 81 35 75 36 77 37 28 38 80 39 74 40 73 41 29 43 61 44
REMARK SMILES IDX 41 45 60 46 42 47 45 48 59 49 78 50 43 51 44 52 58 54 79 55
REMARK SMILES IDX 46 56 30 57 31 58 39 59 32 60 38 61 40 62 37 63 33 64 34 65
REMARK SMILES IDX 35 66 36 67 62 68 63 69 71 70 64 71 70 72 72 73 69 74 65 75
REMARK SMILES IDX 66 76 67 77 68 78 47 79 48 80 56 81 49 82 55 83 57 84 54 85
REMARK SMILES IDX 50 86 51 87 52 88 53 89
REMARK H PARENT 77 42 45 53
REMARK Flexibility Score: inf
ROOT
ATOM      1  C   UNL     1      -1.467   4.593  -1.005  1.00  0.00     0.275 C 
ENDROOT
BRANCH   1   2
ATOM      2  C   UNL     1      -2.720   5.442  -1.349  1.00  0.00     0.274 C 
BRANCH   2   3
ATOM      3  O   UNL     1      -3.687   4.767  -2.166  1.00  0.00    -0.461 OA
BRANCH   3   4
ATOM      4  C   UNL     1      -4.430   3.828  -1.538  1.00  0.00     0.326 C 
ATOM      5  O   UNL     1      -4.527   3.720  -0.320  1.00  0.00    -0.250 OA
BRANCH   4   6
ATOM      6  C   UNL     1      -5.109   2.912  -2.554  1.00  0.00     0.252 C 
BRANCH   6   7
ATOM      7  N   UNL     1      -5.236   1.643  -1.868  1.00  0.00    -0.257 N 
ATOM      8  C   UNL     1      -3.481  -0.603   0.305  1.00  0.00     0.029 C 
ATOM      9  C   UNL     1      -4.385  -0.052  -0.519  1.00  0.00     0.083 C 
ATOM     10  S   UNL     1      -6.095  -0.152  -0.261  1.00  0.00    -0.022 SA
ATOM     11  C   UNL     1      -4.141   0.836  -1.682  1.00  0.00     0.268 C 
ATOM     12  C   UNL     1      -6.398   1.243  -1.288  1.00  0.00     0.294 C 
ATOM     13  O   UNL     1      -3.156   0.808  -2.395  1.00  0.00    -0.268 OA
ATOM     14  O   UNL     1      -7.508   1.735  -1.435  1.00  0.00    -0.261 OA
BRANCH   8  15
ATOM     15  C   UNL     1      -2.021  -0.430   0.271  1.00  0.00    -0.024 A 
ATOM     16  C   UNL     1       2.277   0.008   0.044  1.00  0.00     0.044 C 
ATOM     17  C   UNL     1       0.792  -0.149   0.201  1.00  0.00    -0.051 A 
ATOM     18  C   UNL     1       0.199  -1.412   0.113  1.00  0.00     0.004 A 
ATOM     19  C   UNL     1      -0.030   0.965   0.382  1.00  0.00     0.004 A 
ATOM     20  C   UNL     1      -1.194  -1.551   0.149  1.00  0.00     0.008 A 
ATOM     21  C   UNL     1      -1.425   0.824   0.425  1.00  0.00     0.008 A 
ENDBRANCH   8  15
ENDBRANCH   6   7
ENDBRANCH   4   6
ENDBRANCH   3   4
ENDBRANCH   2   3
ENDBRANCH   1   2
BRANCH   1  22
ATOM     22  O   UNL     1      -1.482   3.203  -1.438  1.00  0.00    -0.458 OA
BRANCH  22  23
ATOM     23  C   UNL     1      -0.835   2.700  -2.546  1.00  0.00     0.338 C 
ATOM     24  O   UNL     1      -0.226   1.641  -2.566  1.00  0.00    -0.246 OA
BRANCH  23  25
ATOM     25  C   UNL     1      -1.334   3.308  -3.780  1.00  0.00     0.060 A 
ATOM     26  C   UNL     1      -2.062   2.571  -4.730  1.00  0.00     0.016 A 
ATOM     27  C   UNL     1      -1.250   4.676  -3.859  1.00  0.00     0.016 A 
ATOM     28  C   UNL     1      -2.800   3.252  -5.700  1.00  0.00     0.010 A 
ATOM     29  C   UNL     1      -2.200   5.324  -4.582  1.00  0.00     0.010 A 
ATOM     30  C   UNL     1      -2.892   4.639  -5.584  1.00  0.00    -0.014 A 
BRANCH  30  31
ATOM     31  C   UNL     1      -3.417   5.564  -6.573  1.00  0.00     0.031 A 
ATOM     32  C   UNL     1      -4.835   5.712  -6.892  1.00  0.00     0.074 A 
ATOM     33  C   UNL     1      -2.478   6.409  -7.059  1.00  0.00     0.049 A 
ATOM     34  N   UNL     1      -5.265   6.061  -8.053  1.00  0.00    -0.248 NA
ATOM     35  C   UNL     1      -5.901   5.511  -5.916  1.00  0.00     0.031 C 
ATOM     36  C   UNL     1      -2.585   7.624  -7.837  1.00  0.00     0.029 A 
ATOM     37  N   UNL     1      -1.107   6.216  -6.968  1.00  0.00    -0.354 N 
ATOM     38  C   UNL     1      -6.563   6.487  -7.887  1.00  0.00     0.074 A 
ATOM     39  C   UNL     1      -6.958   5.994  -6.585  1.00  0.00     0.031 C 
ATOM     40  C   UNL     1      -1.377   7.886  -8.382  1.00  0.00     0.029 A 
ATOM     41  C   UNL     1      -0.486   6.772  -8.063  1.00  0.00     0.049 A 
ATOM     42  H   UNL     1      -0.648   5.752  -6.231  1.00  0.00     0.167 HD
ATOM     43  C   UNL     1      -7.082   7.392  -8.768  1.00  0.00     0.034 A 
ATOM     44  C   UNL     1       0.099   5.884  -8.922  1.00  0.00     0.034 A 
ATOM     45  C   UNL     1      -6.056   7.830  -9.719  1.00  0.00     0.049 A 
ATOM     46  C   UNL     1      -0.679   5.836 -10.214  1.00  0.00     0.074 A 
ATOM     47  C   UNL     1      -5.280   8.977  -9.776  1.00  0.00     0.029 A 
ATOM     48  N   UNL     1      -5.467   6.916 -10.586  1.00  0.00    -0.354 N 
ATOM     49  N   UNL     1      -1.923   6.214 -10.332  1.00  0.00    -0.248 NA
ATOM     50  C   UNL     1      -0.092   5.433 -11.481  1.00  0.00     0.031 C 
ATOM     51  C   UNL     1      -4.170   8.714 -10.623  1.00  0.00     0.029 A 
ATOM     52  C   UNL     1      -4.288   7.421 -11.103  1.00  0.00     0.049 A 
ATOM     53  H   UNL     1      -5.838   6.030 -10.801  1.00  0.00     0.167 HD
ATOM     54  C   UNL     1      -2.286   6.208 -11.650  1.00  0.00     0.074 A 
ATOM     55  C   UNL     1      -1.101   5.700 -12.329  1.00  0.00     0.031 C 
ATOM     56  C   UNL     1      -3.514   6.648 -12.066  1.00  0.00     0.034 A 
BRANCH  43  57
ATOM     57  C   UNL     1      -8.383   8.142  -8.575  1.00  0.00     0.023 A 
ATOM     58  C   UNL     1      -8.530   9.430  -9.136  1.00  0.00     0.031 A 
ATOM     59  C   UNL     1      -9.507   7.657  -7.879  1.00  0.00     0.131 A 
ATOM     60  C   UNL     1      -9.684  10.204  -8.927  1.00  0.00     0.055 A 
ATOM     61  C   UNL     1     -10.646   8.442  -7.637  1.00  0.00     0.041 A 
ATOM     62  F   UNL     1      -9.568   6.390  -7.445  1.00  0.00    -0.206 F 
ATOM     63  C   UNL     1     -10.736   9.728  -8.152  1.00  0.00     0.022 A 
BRANCH  60  64
ATOM     64  S   UNL     1      -9.793  11.842  -9.702  1.00  0.00     0.124 S 
ATOM     65  O   UNL     1      -8.672  12.548  -9.089  1.00  0.00    -0.237 OA
ATOM     66  O   UNL     1      -9.658  11.525 -11.120  1.00  0.00    -0.237 OA
ATOM     67  O   UNL     1     -11.116  12.320  -9.302  1.00  0.00    -0.744 OA
ENDBRANCH  60  64
ENDBRANCH  43  57
BRANCH  44  68
ATOM     68  C   UNL     1       0.747   4.713  -8.211  1.00  0.00     0.023 A 
ATOM     69  C   UNL     1       1.616   5.024  -7.135  1.00  0.00     0.031 A 
ATOM     70  C   UNL     1       0.276   3.394  -8.279  1.00  0.00     0.131 A 
ATOM     71  C   UNL     1       1.830   4.113  -6.085  1.00  0.00     0.055 A 
ATOM     72  C   UNL     1       0.580   2.451  -7.277  1.00  0.00     0.041 A 
ATOM     73  F   UNL     1      -0.564   3.016  -9.253  1.00  0.00    -0.206 F 
ATOM     74  C   UNL     1       1.325   2.818  -6.152  1.00  0.00     0.022 A 
BRANCH  71  75
ATOM     75  S   UNL     1       2.484   4.781  -4.520  1.00  0.00     0.124 S 
ATOM     76  O   UNL     1       3.900   4.957  -4.821  1.00  0.00    -0.237 OA
ATOM     77  O   UNL     1       1.706   6.011  -4.363  1.00  0.00    -0.237 OA
ATOM     78  O   UNL     1       2.170   3.756  -3.530  1.00  0.00    -0.744 OA
ENDBRANCH  71  75
ENDBRANCH  44  68
BRANCH  56  79
ATOM     79  C   UNL     1      -4.081   6.486 -13.457  1.00  0.00     0.023 A 
ATOM     80  C   UNL     1      -3.526   5.623 -14.405  1.00  0.00     0.031 A 
ATOM     81  C   UNL     1      -5.268   7.151 -13.856  1.00  0.00     0.131 A 
ATOM     82  C   UNL     1      -4.059   5.523 -15.698  1.00  0.00     0.055 A 
ATOM     83  C   UNL     1      -5.861   6.967 -15.107  1.00  0.00     0.041 A 
ATOM     84  F   UNL     1      -5.917   8.003 -13.048  1.00  0.00    -0.206 F 
ATOM     85  C   UNL     1      -5.242   6.164 -16.049  1.00  0.00     0.022 A 
BRANCH  82  86
ATOM     86  S   UNL     1      -3.105   4.601 -16.925  1.00  0.00     0.124 S 
ATOM     87  O   UNL     1      -1.879   5.391 -17.003  1.00  0.00    -0.237 OA
ATOM     88  O   UNL     1      -2.972   3.289 -16.300  1.00  0.00    -0.237 OA
ATOM     89  O   UNL     1      -3.948   4.642 -18.118  1.00  0.00    -0.744 OA
ENDBRANCH  82  86
ENDBRANCH  56  79
ENDBRANCH  30  31
ENDBRANCH  23  25
ENDBRANCH  22  23
ENDBRANCH   1  22
TORSDOF 16
