REMARK SMILES Cc1cc(C(=O)OCCOC(=O)c2ccc(-c3c4nc(c(-c5cc(S(=O)(=O)[O-])ccc5F)c5ccc([nH]5)c(-c5cc(S(=O)(=O)[O-])ccc5F)c5nc(c(-c6cc(S(=O)(=O)[O-])ccc6F)c6ccc3[nH]6)C=C5)C=C4)cc2)cc(C)c1OC[C@H]1C[N@@H+](C)CCO1
REMARK SMILES IDX 8 1 7 2 5 3 6 4 4 5 1 6 2 7 3 8 79 9 77 10 76 11 78 12 80 13
REMARK SMILES IDX 81 14 82 15 83 16 88 17 84 18 87 19 85 20 86 21 9 23 10 24
REMARK SMILES IDX 11 25 12 26 13 27 14 28 75 29 15 30 74 31 16 32 17 33 18 34
REMARK SMILES IDX 68 35 19 36 73 37 67 38 69 39 20 40 72 41 66 42 65 43 21 45
REMARK SMILES IDX 53 46 33 47 52 48 34 49 37 50 51 51 70 52 35 53 36 54 50 56
REMARK SMILES IDX 71 57 38 58 22 59 23 60 31 61 24 62 30 63 32 64 29 65 25 66
REMARK SMILES IDX 26 67 27 68 28 69 54 70 55 71 63 72 56 73 62 74 64 75 61 76
REMARK SMILES IDX 57 77 58 78 59 79 60 80 39 81 40 82 48 83 41 84 47 85 49 86
REMARK SMILES IDX 46 87 42 88 43 89 44 90 45 91
REMARK H PARENT 84 22 69 44 37 55
REMARK Flexibility Score: inf
ROOT
ATOM      1  C   UNL     1       9.696  -4.626   3.452  1.00  0.00     0.275 C 
ENDROOT
BRANCH   1   2
ATOM      2  O   UNL     1       8.812  -4.543   2.315  1.00  0.00    -0.458 OA
BRANCH   2   3
ATOM      3  C   UNL     1       7.827  -3.627   2.438  1.00  0.00     0.338 C 
ATOM      4  O   UNL     1       7.568  -2.949   3.426  1.00  0.00    -0.246 OA
BRANCH   3   5
ATOM      5  C   UNL     1       7.151  -3.416   1.152  1.00  0.00     0.060 A 
ATOM      6  C   UNL     1       7.136  -0.515  -1.216  1.00  0.00     0.048 C 
ATOM      7  C   UNL     1       6.660  -1.815  -0.640  1.00  0.00    -0.008 A 
ATOM      8  C   UNL     1       7.382  -2.216   0.497  1.00  0.00     0.023 A 
ATOM      9  C   UNL     1       5.614  -2.632  -1.085  1.00  0.00     0.125 A 
ATOM     10  C   UNL     1       5.469  -3.925  -0.501  1.00  0.00    -0.008 A 
ATOM     11  C   UNL     1       6.235  -4.308   0.623  1.00  0.00     0.023 A 
ATOM     12  C   UNL     1       4.548  -4.966  -1.087  1.00  0.00     0.048 C 
BRANCH   9  13
ATOM     13  O   UNL     1       4.686  -2.353  -2.051  1.00  0.00    -0.490 OA
BRANCH  13  14
ATOM     14  C   UNL     1       4.282  -1.018  -2.406  1.00  0.00     0.267 C 
BRANCH  14  15
ATOM     15  C   UNL     1       3.733  -0.140  -1.261  1.00  0.00     0.210 C 
ATOM     16  C   UNL     1       4.218   1.321  -1.407  1.00  0.00     0.298 C 
ATOM     17  O   UNL     1       2.280  -0.123  -1.312  1.00  0.00    -0.363 OA
ATOM     18  N   UNL     1       3.806   2.062  -0.203  1.00  0.00    -0.333 N 
ATOM     19  C   UNL     1       1.740   0.692  -0.249  1.00  0.00     0.222 C 
ATOM     20  C   UNL     1       4.409   3.391  -0.147  1.00  0.00     0.332 C 
ATOM     21  C   UNL     1       2.335   2.116  -0.198  1.00  0.00     0.290 C 
ATOM     22  H   UNL     1       4.137   1.583   0.634  1.00  0.00     0.348 HD
ENDBRANCH  14  15
ENDBRANCH  13  14
ENDBRANCH   9  13
ENDBRANCH   3   5
ENDBRANCH   2   3
ENDBRANCH   1   2
BRANCH   1  23
ATOM     23  C   UNL     1      10.969  -3.820   3.200  1.00  0.00     0.275 C 
BRANCH  23  24
ATOM     24  O   UNL     1      10.659  -2.418   3.077  1.00  0.00    -0.458 OA
BRANCH  24  25
ATOM     25  C   UNL     1      11.256  -1.781   2.044  1.00  0.00     0.338 C 
ATOM     26  O   UNL     1      12.029  -2.279   1.233  1.00  0.00    -0.246 OA
BRANCH  25  27
ATOM     27  C   UNL     1      10.879  -0.352   1.997  1.00  0.00     0.060 A 
ATOM     28  C   UNL     1       9.566   0.064   2.210  1.00  0.00     0.016 A 
ATOM     29  C   UNL     1      11.836   0.580   1.591  1.00  0.00     0.016 A 
ATOM     30  C   UNL     1       9.181   1.359   1.846  1.00  0.00     0.010 A 
ATOM     31  C   UNL     1      11.473   1.916   1.383  1.00  0.00     0.010 A 
ATOM     32  C   UNL     1      10.128   2.318   1.448  1.00  0.00    -0.014 A 
BRANCH  32  33
ATOM     33  C   UNL     1       9.728   3.719   1.082  1.00  0.00     0.031 A 
ATOM     34  C   UNL     1      10.205   4.345  -0.212  1.00  0.00     0.074 A 
ATOM     35  C   UNL     1       8.950   4.455   1.904  1.00  0.00     0.049 A 
ATOM     36  N   UNL     1      10.172   5.600  -0.592  1.00  0.00    -0.248 NA
ATOM     37  C   UNL     1      10.825   3.445  -1.195  1.00  0.00     0.031 C 
ATOM     38  C   UNL     1       8.384   4.000   3.175  1.00  0.00     0.029 A 
ATOM     39  N   UNL     1       8.494   5.748   1.791  1.00  0.00    -0.354 N 
ATOM     40  C   UNL     1      10.837   5.651  -1.816  1.00  0.00     0.074 A 
ATOM     41  C   UNL     1      11.264   4.298  -2.109  1.00  0.00     0.031 C 
ATOM     42  C   UNL     1       7.612   4.968   3.690  1.00  0.00     0.029 A 
ATOM     43  C   UNL     1       7.720   6.156   2.854  1.00  0.00     0.049 A 
ATOM     44  H   UNL     1       8.701   6.327   1.022  1.00  0.00     0.167 HD
ATOM     45  C   UNL     1      11.072   6.723  -2.617  1.00  0.00     0.034 A 
ATOM     46  C   UNL     1       7.199   7.359   3.166  1.00  0.00     0.034 A 
ATOM     47  C   UNL     1      10.579   8.055  -2.354  1.00  0.00     0.049 A 
ATOM     48  C   UNL     1       7.477   8.535   2.272  1.00  0.00     0.074 A 
ATOM     49  C   UNL     1      10.728   9.199  -3.122  1.00  0.00     0.029 A 
ATOM     50  N   UNL     1       9.826   8.423  -1.247  1.00  0.00    -0.354 N 
ATOM     51  N   UNL     1       8.178   8.581   1.164  1.00  0.00    -0.248 NA
ATOM     52  C   UNL     1       6.911   9.825   2.685  1.00  0.00     0.031 C 
ATOM     53  C   UNL     1      10.110  10.265  -2.457  1.00  0.00     0.029 A 
ATOM     54  C   UNL     1       9.519   9.776  -1.304  1.00  0.00     0.049 A 
ATOM     55  H   UNL     1       9.549   7.813  -0.526  1.00  0.00     0.167 HD
ATOM     56  C   UNL     1       8.136   9.908   0.748  1.00  0.00     0.074 A 
ATOM     57  C   UNL     1       7.319  10.621   1.708  1.00  0.00     0.031 C 
ATOM     58  C   UNL     1       8.726  10.484  -0.329  1.00  0.00     0.034 A 
BRANCH  45  59
ATOM     59  C   UNL     1      11.950   6.510  -3.830  1.00  0.00     0.023 A 
ATOM     60  C   UNL     1      11.566   5.685  -4.900  1.00  0.00     0.031 A 
ATOM     61  C   UNL     1      13.210   7.134  -3.903  1.00  0.00     0.131 A 
ATOM     62  C   UNL     1      12.461   5.444  -5.956  1.00  0.00     0.055 A 
ATOM     63  C   UNL     1      14.063   6.954  -4.994  1.00  0.00     0.041 A 
ATOM     64  F   UNL     1      13.640   7.923  -2.905  1.00  0.00    -0.206 F 
ATOM     65  C   UNL     1      13.697   6.091  -6.022  1.00  0.00     0.022 A 
BRANCH  62  66
ATOM     66  S   UNL     1      12.045   4.161  -7.168  1.00  0.00     0.124 S 
ATOM     67  O   UNL     1      11.868   2.991  -6.311  1.00  0.00    -0.237 OA
ATOM     68  O   UNL     1      10.834   4.690  -7.784  1.00  0.00    -0.237 OA
ATOM     69  O   UNL     1      13.219   4.115  -8.037  1.00  0.00    -0.744 OA
ENDBRANCH  62  66
ENDBRANCH  45  59
BRANCH  46  70
ATOM     70  C   UNL     1       6.425   7.531   4.428  1.00  0.00     0.023 A 
ATOM     71  C   UNL     1       5.056   7.834   4.400  1.00  0.00     0.031 A 
ATOM     72  C   UNL     1       7.051   7.405   5.682  1.00  0.00     0.131 A 
ATOM     73  C   UNL     1       4.360   8.023   5.604  1.00  0.00     0.055 A 
ATOM     74  C   UNL     1       6.344   7.543   6.876  1.00  0.00     0.041 A 
ATOM     75  F   UNL     1       8.360   7.115   5.761  1.00  0.00    -0.206 F 
ATOM     76  C   UNL     1       4.991   7.862   6.841  1.00  0.00     0.022 A 
BRANCH  73  77
ATOM     77  S   UNL     1       2.623   8.539   5.531  1.00  0.00     0.124 S 
ATOM     78  O   UNL     1       2.721   9.814   4.831  1.00  0.00    -0.237 OA
ATOM     79  O   UNL     1       2.012   7.443   4.785  1.00  0.00    -0.237 OA
ATOM     80  O   UNL     1       2.234   8.625   6.937  1.00  0.00    -0.744 OA
ENDBRANCH  73  77
ENDBRANCH  46  70
BRANCH  58  81
ATOM     81  C   UNL     1       8.473  11.956  -0.531  1.00  0.00     0.023 A 
ATOM     82  C   UNL     1       9.018  12.921   0.335  1.00  0.00     0.031 A 
ATOM     83  C   UNL     1       7.644  12.395  -1.577  1.00  0.00     0.131 A 
ATOM     84  C   UNL     1       8.684  14.274   0.170  1.00  0.00     0.055 A 
ATOM     85  C   UNL     1       7.355  13.747  -1.766  1.00  0.00     0.041 A 
ATOM     86  F   UNL     1       7.095  11.513  -2.428  1.00  0.00    -0.206 F 
ATOM     87  C   UNL     1       7.866  14.694  -0.882  1.00  0.00     0.022 A 
BRANCH  84  88
ATOM     88  S   UNL     1       9.262  15.471   1.405  1.00  0.00     0.124 S 
ATOM     89  O   UNL     1       8.671  14.950   2.633  1.00  0.00    -0.237 OA
ATOM     90  O   UNL     1      10.712  15.357   1.295  1.00  0.00    -0.237 OA
ATOM     91  O   UNL     1       8.704  16.740   0.939  1.00  0.00    -0.744 OA
ENDBRANCH  84  88
ENDBRANCH  58  81
ENDBRANCH  32  33
ENDBRANCH  25  27
ENDBRANCH  24  25
ENDBRANCH  23  24
ENDBRANCH   1  23
TORSDOF 17
