REMARK SMILES O=C(OCCOC(=O)[C@H]1CC2(CC[NH+](C(=O)c3cccc(O)c3)CC2)CN1C(=O)C1CC1)c1ccc(-c2c3nc(c(-c4cc(S(=O)(=O)[O-])ccc4F)c4ccc([nH]4)c(-c4cc(S(=O)(=O)[O-])ccc4F)c4nc(c(-c5cc(S(=O)(=O)[O-])ccc5F)c5ccc2[nH]5)C=C4)C=C3)cc1
REMARK SMILES IDX 4 1 3 2 2 3 1 4 33 5 34 6 95 7 35 8 94 9 36 10 37 11 38 12
REMARK SMILES IDX 88 13 39 14 93 15 87 16 89 17 40 18 92 19 86 20 85 21 41 23
REMARK SMILES IDX 73 24 53 25 72 26 54 27 57 28 71 29 90 30 55 31 56 32 70 34
REMARK SMILES IDX 91 35 58 36 42 37 43 38 51 39 44 40 50 41 52 42 49 43 45 44
REMARK SMILES IDX 46 45 47 46 48 47 74 48 75 49 83 50 76 51 82 52 84 53 81 54
REMARK SMILES IDX 77 55 78 56 79 57 80 58 59 59 60 60 68 61 61 62 67 63 69 64
REMARK SMILES IDX 66 65 62 66 63 67 64 68 65 69 5 70 6 71 7 72 8 73 9 74 10 75
REMARK SMILES IDX 27 76 11 77 26 78 12 79 25 80 13 81 24 82 14 83 28 85 29 86
REMARK SMILES IDX 30 87 31 88 32 89 15 90 16 91 17 92 18 93 23 94 19 95 21 96
REMARK SMILES IDX 20 97 22 98
REMARK H PARENT 89 22 57 33 14 84 22 99
REMARK Flexibility Score: inf
ROOT
ATOM      1  C   UNL     1       5.572  -2.575  -5.018  1.00  0.00     0.275 C 
ENDROOT
BRANCH   1   2
ATOM      2  O   UNL     1       4.545  -1.728  -5.536  1.00  0.00    -0.458 OA
BRANCH   2   3
ATOM      3  C   UNL     1       3.212  -1.802  -5.328  1.00  0.00     0.338 C 
ATOM      4  O   UNL     1       2.569  -0.766  -5.511  1.00  0.00    -0.246 OA
BRANCH   3   5
ATOM      5  C   UNL     1       2.452  -3.029  -4.867  1.00  0.00     0.060 A 
ATOM      6  C   UNL     1       2.913  -4.318  -4.564  1.00  0.00     0.016 A 
ATOM      7  C   UNL     1       1.086  -2.823  -4.682  1.00  0.00     0.016 A 
ATOM      8  C   UNL     1       2.084  -5.301  -3.931  1.00  0.00     0.010 A 
ATOM      9  C   UNL     1       0.287  -3.786  -4.051  1.00  0.00     0.010 A 
ATOM     10  C   UNL     1       0.783  -5.005  -3.536  1.00  0.00    -0.014 A 
BRANCH  10  11
ATOM     11  C   UNL     1      -0.184  -5.934  -2.797  1.00  0.00     0.031 A 
ATOM     12  C   UNL     1      -1.418  -6.263  -3.600  1.00  0.00     0.074 A 
ATOM     13  C   UNL     1      -0.167  -6.357  -1.496  1.00  0.00     0.049 A 
ATOM     14  N   UNL     1      -2.580  -6.705  -3.207  1.00  0.00    -0.248 NA
ATOM     15  C   UNL     1      -1.349  -5.940  -5.038  1.00  0.00     0.031 C 
ATOM     16  C   UNL     1       0.900  -6.207  -0.518  1.00  0.00     0.029 A 
ATOM     17  N   UNL     1      -1.140  -6.990  -0.720  1.00  0.00    -0.354 N 
ATOM     18  C   UNL     1      -3.377  -6.652  -4.340  1.00  0.00     0.074 A 
ATOM     19  C   UNL     1      -2.626  -5.969  -5.365  1.00  0.00     0.031 C 
ATOM     20  C   UNL     1       0.515  -6.578   0.711  1.00  0.00     0.029 A 
ATOM     21  C   UNL     1      -0.826  -7.108   0.632  1.00  0.00     0.049 A 
ATOM     22  H   UNL     1      -1.984  -7.326  -1.099  1.00  0.00     0.167 HD
ATOM     23  C   UNL     1      -4.584  -7.219  -4.552  1.00  0.00     0.034 A 
ATOM     24  C   UNL     1      -1.482  -7.611   1.704  1.00  0.00     0.034 A 
ATOM     25  C   UNL     1      -5.251  -8.038  -3.583  1.00  0.00     0.049 A 
ATOM     26  C   UNL     1      -2.807  -8.264   1.457  1.00  0.00     0.074 A 
ATOM     27  C   UNL     1      -6.373  -8.823  -3.759  1.00  0.00     0.029 A 
ATOM     28  N   UNL     1      -4.845  -8.200  -2.266  1.00  0.00    -0.354 N 
ATOM     29  N   UNL     1      -3.484  -8.312   0.335  1.00  0.00    -0.248 NA
ATOM     30  C   UNL     1      -3.436  -8.971   2.580  1.00  0.00     0.031 C 
ATOM     31  C   UNL     1      -6.679  -9.421  -2.534  1.00  0.00     0.029 A 
ATOM     32  C   UNL     1      -5.717  -9.049  -1.609  1.00  0.00     0.049 A 
ATOM     33  H   UNL     1      -4.054  -7.775  -1.861  1.00  0.00     0.167 HD
ATOM     34  C   UNL     1      -4.598  -9.089   0.606  1.00  0.00     0.074 A 
ATOM     35  C   UNL     1      -4.499  -9.499   1.993  1.00  0.00     0.031 C 
ATOM     36  C   UNL     1      -5.608  -9.437  -0.227  1.00  0.00     0.034 A 
BRANCH  23  37
ATOM     37  C   UNL     1      -5.203  -7.013  -5.907  1.00  0.00     0.023 A 
ATOM     38  C   UNL     1      -4.569  -7.458  -7.081  1.00  0.00     0.031 A 
ATOM     39  C   UNL     1      -6.406  -6.302  -6.030  1.00  0.00     0.131 A 
ATOM     40  C   UNL     1      -5.083  -7.095  -8.330  1.00  0.00     0.055 A 
ATOM     41  C   UNL     1      -6.971  -6.038  -7.278  1.00  0.00     0.041 A 
ATOM     42  F   UNL     1      -7.032  -5.825  -4.943  1.00  0.00    -0.206 F 
ATOM     43  C   UNL     1      -6.299  -6.418  -8.438  1.00  0.00     0.022 A 
BRANCH  40  44
ATOM     44  S   UNL     1      -4.058  -7.379  -9.799  1.00  0.00     0.124 S 
ATOM     45  O   UNL     1      -2.929  -6.487  -9.542  1.00  0.00    -0.237 OA
ATOM     46  O   UNL     1      -3.771  -8.806  -9.716  1.00  0.00    -0.237 OA
ATOM     47  O   UNL     1      -4.927  -6.978 -10.902  1.00  0.00    -0.744 OA
ENDBRANCH  40  44
ENDBRANCH  23  37
BRANCH  24  48
ATOM     48  C   UNL     1      -0.905  -7.556   3.096  1.00  0.00     0.023 A 
ATOM     49  C   UNL     1      -0.536  -8.717   3.804  1.00  0.00     0.031 A 
ATOM     50  C   UNL     1      -0.762  -6.324   3.763  1.00  0.00     0.131 A 
ATOM     51  C   UNL     1      -0.085  -8.626   5.137  1.00  0.00     0.055 A 
ATOM     52  C   UNL     1      -0.273  -6.235   5.072  1.00  0.00     0.041 A 
ATOM     53  F   UNL     1      -1.093  -5.178   3.147  1.00  0.00    -0.206 F 
ATOM     54  C   UNL     1       0.057  -7.392   5.771  1.00  0.00     0.022 A 
BRANCH  51  55
ATOM     55  S   UNL     1       0.231 -10.154   6.072  1.00  0.00     0.124 S 
ATOM     56  O   UNL     1      -1.016 -10.888   5.883  1.00  0.00    -0.237 OA
ATOM     57  O   UNL     1       1.402 -10.690   5.386  1.00  0.00    -0.237 OA
ATOM     58  O   UNL     1       0.473  -9.678   7.433  1.00  0.00    -0.744 OA
ENDBRANCH  51  55
ENDBRANCH  24  48
BRANCH  36  59
ATOM     59  C   UNL     1      -6.667 -10.325   0.348  1.00  0.00     0.023 A 
ATOM     60  C   UNL     1      -7.546  -9.850   1.332  1.00  0.00     0.031 A 
ATOM     61  C   UNL     1      -6.782 -11.660  -0.073  1.00  0.00     0.131 A 
ATOM     62  C   UNL     1      -8.470 -10.725   1.910  1.00  0.00     0.055 A 
ATOM     63  C   UNL     1      -7.751 -12.508   0.458  1.00  0.00     0.041 A 
ATOM     64  F   UNL     1      -5.954 -12.156  -1.007  1.00  0.00    -0.206 F 
ATOM     65  C   UNL     1      -8.594 -12.044   1.465  1.00  0.00     0.022 A 
BRANCH  62  66
ATOM     66  S   UNL     1      -9.445 -10.134   3.316  1.00  0.00     0.124 S 
ATOM     67  O   UNL     1      -8.411  -9.894   4.317  1.00  0.00    -0.237 OA
ATOM     68  O   UNL     1     -10.093  -8.944   2.772  1.00  0.00    -0.237 OA
ATOM     69  O   UNL     1     -10.342 -11.251   3.602  1.00  0.00    -0.744 OA
ENDBRANCH  62  66
ENDBRANCH  36  59
ENDBRANCH  10  11
ENDBRANCH   3   5
ENDBRANCH   2   3
ENDBRANCH   1   2
BRANCH   1  70
ATOM     70  C   UNL     1       5.794  -2.432  -3.515  1.00  0.00     0.274 C 
BRANCH  70  71
ATOM     71  O   UNL     1       4.576  -2.366  -2.758  1.00  0.00    -0.461 OA
BRANCH  71  72
ATOM     72  C   UNL     1       4.292  -1.217  -2.083  1.00  0.00     0.328 C 
ATOM     73  O   UNL     1       4.859  -0.149  -2.290  1.00  0.00    -0.250 OA
BRANCH  72  74
ATOM     74  C   UNL     1       3.156  -1.372  -1.034  1.00  0.00     0.195 C 
ATOM     75  C   UNL     1       1.795  -0.874  -1.590  1.00  0.00     0.046 C 
ATOM     76  N   UNL     1       2.855  -2.662  -0.437  1.00  0.00    -0.328 N 
ATOM     77  C   UNL     1       0.667  -1.533  -0.745  1.00  0.00     0.001 C 
ATOM     78  C   UNL     1       1.429  -2.700  -0.047  1.00  0.00     0.128 C 
ATOM     79  C   UNL     1      -0.538  -2.132  -1.506  1.00  0.00     0.071 C 
ATOM     80  C   UNL     1      -0.038  -0.512   0.185  1.00  0.00     0.071 C 
ATOM     81  C   UNL     1      -1.274  -1.142  -2.396  1.00  0.00     0.271 C 
ATOM     82  C   UNL     1      -0.979   0.483  -0.571  1.00  0.00     0.271 C 
ATOM     83  N   UNL     1      -1.891  -0.131  -1.555  1.00  0.00    -0.267 N 
ATOM     84  H   UNL     1      -1.046   0.122  -1.118  1.00  0.00     0.357 HD
BRANCH  76  85
ATOM     85  C   UNL     1       3.498  -3.804  -0.891  1.00  0.00     0.226 C 
ATOM     86  O   UNL     1       2.954  -4.588  -1.637  1.00  0.00    -0.275 OA
BRANCH  85  87
ATOM     87  C   UNL     1       4.915  -4.147  -0.605  1.00  0.00     0.079 C 
ATOM     88  C   UNL     1       5.984  -3.303   0.003  1.00  0.00     0.014 C 
ATOM     89  C   UNL     1       5.353  -4.406   0.808  1.00  0.00     0.014 C 
ENDBRANCH  85  87
ENDBRANCH  76  85
BRANCH  83  90
ATOM     90  C   UNL     1      -3.137   0.476  -1.813  1.00  0.00     0.344 C 
ATOM     91  O   UNL     1      -3.493   1.497  -1.221  1.00  0.00    -0.226 OA
BRANCH  90  92
ATOM     92  C   UNL     1      -4.087  -0.057  -2.849  1.00  0.00     0.083 A 
ATOM     93  C   UNL     1      -4.503  -1.395  -2.884  1.00  0.00     0.018 A 
ATOM     94  C   UNL     1      -4.680   0.856  -3.739  1.00  0.00     0.064 A 
ATOM     95  C   UNL     1      -5.441  -1.824  -3.837  1.00  0.00     0.005 A 
ATOM     96  C   UNL     1      -5.623   0.422  -4.673  1.00  0.00     0.116 A 
ATOM     97  C   UNL     1      -6.000  -0.916  -4.738  1.00  0.00     0.046 A 
BRANCH  96  98
ATOM     98  O   UNL     1      -6.173   1.348  -5.513  1.00  0.00    -0.508 OA
ATOM     99  H   UNL     1      -6.808   1.084  -6.150  1.00  0.00     0.293 HD
ENDBRANCH  96  98
ENDBRANCH  90  92
ENDBRANCH  83  90
ENDBRANCH  72  74
ENDBRANCH  71  72
ENDBRANCH  70  71
ENDBRANCH   1  70
TORSDOF 19
