REMARK SMILES Cc1cccc(OCC(=O)Nc2cc(C(=O)OCCOC(=O)c3ccc(-c4c5nc(c(-c6cc(S(=O)(=O)[O-])ccc6F)c6ccc([nH]6)c(-c6cc(S(=O)(=O)[O-])ccc6F)c6nc(c(-c7cc(S(=O)(=O)[O-])ccc7F)c7ccc4[nH]7)C=C6)C=C5)cc3)c(Cl)cc2Cl)c1
REMARK SMILES IDX 18 1 17 2 15 3 16 4 14 5 12 6 13 7 89 8 88 9 90 10 86 11
REMARK SMILES IDX 87 12 11 13 9 14 10 15 8 17 7 18 6 19 1 20 2 21 3 22 91 23
REMARK SMILES IDX 4 24 5 25 19 26 20 27 21 28 22 29 23 30 24 31 85 32 25 33
REMARK SMILES IDX 84 34 26 35 27 36 28 37 78 38 29 39 83 40 77 41 79 42 30 43
REMARK SMILES IDX 82 44 76 45 75 46 31 48 63 49 43 50 62 51 44 52 47 53 61 54
REMARK SMILES IDX 80 55 45 56 46 57 60 59 81 60 48 61 32 62 33 63 41 64 34 65
REMARK SMILES IDX 40 66 42 67 39 68 35 69 36 70 37 71 38 72 64 73 65 74 73 75
REMARK SMILES IDX 66 76 72 77 74 78 71 79 67 80 68 81 69 82 70 83 49 84 50 85
REMARK SMILES IDX 58 86 51 87 57 88 59 89 56 90 52 91 53 92 54 93 55 94
REMARK H PARENT 11 16 79 47 47 58
REMARK Flexibility Score: inf
ROOT
ATOM      1  C   UNL     1      -5.494  -1.074  -0.380  1.00  0.00     0.275 C 
ENDROOT
BRANCH   1   2
ATOM      2  O   UNL     1      -4.825   0.175  -0.421  1.00  0.00    -0.458 OA
BRANCH   2   3
ATOM      3  C   UNL     1      -4.182   0.404   0.716  1.00  0.00     0.339 C 
ATOM      4  O   UNL     1      -3.432  -0.388   1.270  1.00  0.00    -0.246 OA
BRANCH   3   5
ATOM      5  C   UNL     1      -4.459   1.814   1.238  1.00  0.00     0.080 A 
ATOM      6  C   UNL     1      -2.238   3.501   2.500  1.00  0.00     0.061 A 
ATOM      7  C   UNL     1      -2.716   2.227   1.458  1.00  0.00     0.045 A 
ATOM      8  C   UNL     1      -3.369   4.452   3.418  1.00  0.00     0.066 A 
ATOM      9  C   UNL     1      -5.085   4.260   3.346  1.00  0.00     0.044 A 
ATOM     10  Cl  UNL     1      -2.739   5.620   4.529  1.00  0.00    -0.082 Cl
ATOM     11  C   UNL     1      -5.783   2.921   2.334  1.00  0.00     0.057 A 
ATOM     12  Cl  UNL     1      -7.064   2.496   3.846  1.00  0.00    -0.083 Cl
BRANCH   6  13
ATOM     13  N   UNL     1      -0.859   3.732   2.608  1.00  0.00    -0.322 N 
ATOM     14  C   UNL     1       0.073   3.542   1.608  1.00  0.00     0.262 C 
ATOM     15  O   UNL     1       1.274   3.587   1.895  1.00  0.00    -0.271 OA
ATOM     16  H   UNL     1      -0.527   4.061   3.475  1.00  0.00     0.170 HD
BRANCH  14  17
ATOM     17  C   UNL     1      -0.394   3.487   0.112  1.00  0.00     0.329 C 
BRANCH  17  18
ATOM     18  O   UNL     1      -0.908   2.355  -0.576  1.00  0.00    -0.484 OA
BRANCH  18  19
ATOM     19  C   UNL     1      -0.257   1.165  -0.481  1.00  0.00     0.120 A 
ATOM     20  C   UNL     1       3.161  -0.294   0.067  1.00  0.00     0.044 C 
ATOM     21  C   UNL     1       1.677  -0.199  -0.069  1.00  0.00    -0.047 A 
ATOM     22  C   UNL     1       0.875  -1.349  -0.053  1.00  0.00     0.003 A 
ATOM     23  C   UNL     1       1.099   1.058  -0.261  1.00  0.00     0.049 A 
ATOM     24  C   UNL     1      -0.485  -1.248  -0.316  1.00  0.00     0.004 A 
ATOM     25  C   UNL     1      -1.031   0.004  -0.593  1.00  0.00     0.046 A 
ENDBRANCH  18  19
ENDBRANCH  17  18
ENDBRANCH  14  17
ENDBRANCH   6  13
ENDBRANCH   3   5
ENDBRANCH   2   3
ENDBRANCH   1   2
BRANCH   1  26
ATOM     26  C   UNL     1      -5.597  -1.894   0.971  1.00  0.00     0.275 C 
BRANCH  26  27
ATOM     27  O   UNL     1      -5.884  -1.435   2.394  1.00  0.00    -0.458 OA
BRANCH  27  28
ATOM     28  C   UNL     1      -5.381  -0.534   3.327  1.00  0.00     0.338 C 
ATOM     29  O   UNL     1      -5.254  -0.792   4.514  1.00  0.00    -0.246 OA
BRANCH  28  30
ATOM     30  C   UNL     1      -5.348   0.873   2.874  1.00  0.00     0.060 A 
ATOM     31  C   UNL     1      -4.171   2.295   3.002  1.00  0.00     0.016 A 
ATOM     32  C   UNL     1      -6.543   0.918   1.616  1.00  0.00     0.016 A 
ATOM     33  C   UNL     1      -4.285   3.653   1.486  1.00  0.00     0.010 A 
ATOM     34  C   UNL     1      -6.543   2.032   0.398  1.00  0.00     0.010 A 
ATOM     35  C   UNL     1      -5.530   3.395   0.205  1.00  0.00    -0.014 A 
BRANCH  35  36
ATOM     36  C   UNL     1      -5.668   3.867  -1.224  1.00  0.00     0.031 A 
ATOM     37  C   UNL     1      -4.475   4.437  -1.893  1.00  0.00     0.074 A 
ATOM     38  C   UNL     1      -6.831   3.597  -1.919  1.00  0.00     0.049 A 
ATOM     39  N   UNL     1      -4.327   5.631  -2.363  1.00  0.00    -0.248 NA
ATOM     40  C   UNL     1      -3.243   3.653  -1.992  1.00  0.00     0.031 C 
ATOM     41  C   UNL     1      -7.193   3.691  -3.336  1.00  0.00     0.029 A 
ATOM     42  N   UNL     1      -8.067   3.171  -1.381  1.00  0.00    -0.354 N 
ATOM     43  C   UNL     1      -3.194   5.571  -3.172  1.00  0.00     0.074 A 
ATOM     44  C   UNL     1      -2.418   4.477  -2.654  1.00  0.00     0.031 C 
ATOM     45  C   UNL     1      -8.544   3.693  -3.472  1.00  0.00     0.029 A 
ATOM     46  C   UNL     1      -9.142   3.592  -2.156  1.00  0.00     0.049 A 
ATOM     47  H   UNL     1      -8.155   2.639  -0.557  1.00  0.00     0.167 HD
ATOM     48  C   UNL     1      -3.220   6.027  -4.465  1.00  0.00     0.034 A 
ATOM     49  C   UNL     1     -10.082   4.361  -1.544  1.00  0.00     0.034 A 
ATOM     50  C   UNL     1      -4.607   6.279  -4.847  1.00  0.00     0.049 A 
ATOM     51  C   UNL     1      -9.713   5.783  -1.898  1.00  0.00     0.074 A 
ATOM     52  C   UNL     1      -5.498   5.597  -5.658  1.00  0.00     0.029 A 
ATOM     53  N   UNL     1      -5.359   7.166  -4.102  1.00  0.00    -0.354 N 
ATOM     54  N   UNL     1      -8.574   6.108  -2.451  1.00  0.00    -0.248 NA
ATOM     55  C   UNL     1     -10.628   6.906  -1.794  1.00  0.00     0.031 C 
ATOM     56  C   UNL     1      -6.808   6.071  -5.351  1.00  0.00     0.029 A 
ATOM     57  C   UNL     1      -6.705   7.022  -4.348  1.00  0.00     0.049 A 
ATOM     58  H   UNL     1      -4.979   7.821  -3.473  1.00  0.00     0.167 HD
ATOM     59  C   UNL     1      -8.635   7.378  -2.926  1.00  0.00     0.074 A 
ATOM     60  C   UNL     1      -9.942   7.842  -2.472  1.00  0.00     0.031 C 
ATOM     61  C   UNL     1      -7.638   7.925  -3.689  1.00  0.00     0.034 A 
BRANCH  48  62
ATOM     62  C   UNL     1      -2.109   5.945  -5.508  1.00  0.00     0.023 A 
ATOM     63  C   UNL     1      -2.431   6.145  -6.872  1.00  0.00     0.031 A 
ATOM     64  C   UNL     1      -0.733   5.793  -5.241  1.00  0.00     0.131 A 
ATOM     65  C   UNL     1      -1.452   6.138  -7.887  1.00  0.00     0.055 A 
ATOM     66  C   UNL     1       0.245   5.761  -6.256  1.00  0.00     0.041 A 
ATOM     67  F   UNL     1      -0.267   5.719  -3.985  1.00  0.00    -0.206 F 
ATOM     68  C   UNL     1      -0.112   5.933  -7.588  1.00  0.00     0.022 A 
BRANCH  65  69
ATOM     69  S   UNL     1      -1.967   6.445  -9.602  1.00  0.00     0.124 S 
ATOM     70  O   UNL     1      -2.851   5.314  -9.864  1.00  0.00    -0.237 OA
ATOM     71  O   UNL     1      -2.603   7.754  -9.506  1.00  0.00    -0.237 OA
ATOM     72  O   UNL     1      -0.707   6.428 -10.345  1.00  0.00    -0.744 OA
ENDBRANCH  65  69
ENDBRANCH  48  62
BRANCH  49  73
ATOM     73  C   UNL     1     -10.378   3.800  -0.174  1.00  0.00     0.023 A 
ATOM     74  C   UNL     1     -10.858   2.453  -0.095  1.00  0.00     0.031 A 
ATOM     75  C   UNL     1      -9.684   4.305   0.921  1.00  0.00     0.131 A 
ATOM     76  C   UNL     1     -10.432   1.599   0.941  1.00  0.00     0.055 A 
ATOM     77  C   UNL     1      -9.330   3.468   1.969  1.00  0.00     0.041 A 
ATOM     78  F   UNL     1      -9.157   5.537   0.912  1.00  0.00    -0.206 F 
ATOM     79  C   UNL     1      -9.652   2.104   1.968  1.00  0.00     0.022 A 
BRANCH  76  80
ATOM     80  S   UNL     1     -10.587  -0.216   0.754  1.00  0.00     0.124 S 
ATOM     81  O   UNL     1     -11.991  -0.445   1.069  1.00  0.00    -0.237 OA
ATOM     82  O   UNL     1     -10.194  -0.412  -0.640  1.00  0.00    -0.237 OA
ATOM     83  O   UNL     1      -9.629  -0.756   1.717  1.00  0.00    -0.744 OA
ENDBRANCH  76  80
ENDBRANCH  49  73
BRANCH  61  84
ATOM     84  C   UNL     1      -7.488   9.399  -3.950  1.00  0.00     0.023 A 
ATOM     85  C   UNL     1      -8.264  10.332  -3.273  1.00  0.00     0.031 A 
ATOM     86  C   UNL     1      -6.512   9.937  -4.825  1.00  0.00     0.131 A 
ATOM     87  C   UNL     1      -8.206  11.688  -3.588  1.00  0.00     0.055 A 
ATOM     88  C   UNL     1      -6.346  11.306  -5.022  1.00  0.00     0.041 A 
ATOM     89  F   UNL     1      -5.660   9.172  -5.521  1.00  0.00    -0.206 F 
ATOM     90  C   UNL     1      -7.229  12.194  -4.435  1.00  0.00     0.022 A 
BRANCH  87  91
ATOM     91  S   UNL     1      -9.535  12.716  -2.938  1.00  0.00     0.124 S 
ATOM     92  O   UNL     1     -10.708  12.119  -3.575  1.00  0.00    -0.237 OA
ATOM     93  O   UNL     1      -9.425  12.497  -1.500  1.00  0.00    -0.237 OA
ATOM     94  O   UNL     1      -9.186  14.055  -3.400  1.00  0.00    -0.744 OA
ENDBRANCH  87  91
ENDBRANCH  61  84
ENDBRANCH  35  36
ENDBRANCH  28  30
ENDBRANCH  27  28
ENDBRANCH  26  27
ENDBRANCH   1  26
TORSDOF 18
