REMARK SMILES CCc1ccccc1NC(=O)CCN1C[C@H](C(=O)OCCOC(=O)c2ccc(-c3c4nc(c(-c5cc(S(=O)(=O)[O-])ccc5F)c5ccc([nH]5)c(-c5cc(S(=O)(=O)[O-])ccc5F)c5nc(c(-c6cc(S(=O)(=O)[O-])ccc6F)c6ccc3[nH]6)C=C5)C=C4)cc2)CC1=O
REMARK SMILES IDX 20 1 19 2 17 3 18 4 16 5 14 6 15 7 89 8 88 9 90 10 13 11
REMARK SMILES IDX 12 12 10 13 9 14 11 16 8 17 3 18 4 19 5 20 7 21 6 22 2 23
REMARK SMILES IDX 1 24 21 25 22 26 23 27 24 28 25 29 26 30 87 31 27 32 86 33
REMARK SMILES IDX 28 34 29 35 30 36 80 37 31 38 85 39 79 40 81 41 32 42 84 43
REMARK SMILES IDX 78 44 77 45 33 47 65 48 45 49 64 50 46 51 49 52 63 53 82 54
REMARK SMILES IDX 47 55 48 56 62 58 83 59 50 60 34 61 35 62 43 63 36 64 42 65
REMARK SMILES IDX 44 66 41 67 37 68 38 69 39 70 40 71 66 72 67 73 75 74 68 75
REMARK SMILES IDX 74 76 76 77 73 78 69 79 70 80 71 81 72 82 51 83 52 84 60 85
REMARK SMILES IDX 53 86 59 87 61 88 58 89 54 90 55 91 56 92 57 93
REMARK H PARENT 9 15 81 46 49 57
REMARK Flexibility Score: inf
ROOT
ATOM      1  C   UNL     1       4.068  -5.212  -0.989  1.00  0.00     0.274 C 
ENDROOT
BRANCH   1   2
ATOM      2  O   UNL     1       2.925  -5.397  -0.105  1.00  0.00    -0.462 OA
BRANCH   2   3
ATOM      3  C   UNL     1       2.167  -4.230   0.353  1.00  0.00     0.311 C 
ATOM      4  O   UNL     1       2.721  -3.271  -0.265  1.00  0.00    -0.252 OA
BRANCH   3   5
ATOM      5  C   UNL     1       0.538  -4.260   1.811  1.00  0.00     0.128 C 
ATOM      6  N   UNL     1       0.228  -3.128   4.021  1.00  0.00    -0.341 N 
ATOM      7  C   UNL     1       0.482  -4.441   3.489  1.00  0.00     0.135 C 
ATOM      8  C   UNL     1      -0.588  -2.375   3.195  1.00  0.00     0.223 C 
ATOM      9  C   UNL     1      -0.898  -3.222   1.992  1.00  0.00     0.117 C 
ATOM     10  O   UNL     1      -0.956  -1.228   3.377  1.00  0.00    -0.275 OA
BRANCH   6  11
ATOM     11  C   UNL     1       0.975  -2.567   5.123  1.00  0.00     0.129 C 
BRANCH  11  12
ATOM     12  C   UNL     1       2.425  -2.205   4.805  1.00  0.00     0.122 C 
BRANCH  12  13
ATOM     13  C   UNL     1       2.638  -1.205   3.689  1.00  0.00     0.226 C 
ATOM     14  N   UNL     1       2.413  -1.518   2.383  1.00  0.00    -0.326 N 
ATOM     15  H   UNL     1       2.573  -0.782   1.748  1.00  0.00     0.169 HD
ATOM     16  O   UNL     1       3.018  -0.060   3.958  1.00  0.00    -0.275 OA
BRANCH  14  17
ATOM     17  C   UNL     1       1.993  -2.713   1.798  1.00  0.00     0.044 A 
ATOM     18  C   UNL     1       0.802  -2.661   0.435  1.00  0.00    -0.025 A 
ATOM     19  C   UNL     1       0.191  -4.247  -0.247  1.00  0.00     0.006 A 
ATOM     20  C   UNL     1       0.772  -5.829   0.368  1.00  0.00     0.000 A 
ATOM     21  C   UNL     1       2.610  -4.295   2.371  1.00  0.00     0.026 A 
ATOM     22  C   UNL     1       1.935  -5.842   1.743  1.00  0.00     0.002 A 
BRANCH  18  23
ATOM     23  C   UNL     1       0.486  -1.384  -0.346  1.00  0.00     0.034 C 
ATOM     24  C   UNL     1       0.838  -0.005   0.175  1.00  0.00     0.009 C 
ENDBRANCH  18  23
ENDBRANCH  14  17
ENDBRANCH  12  13
ENDBRANCH  11  12
ENDBRANCH   6  11
ENDBRANCH   3   5
ENDBRANCH   2   3
ENDBRANCH   1   2
BRANCH   1  25
ATOM     25  C   UNL     1       3.711  -5.479  -2.453  1.00  0.00     0.275 C 
BRANCH  25  26
ATOM     26  O   UNL     1       2.881  -4.456  -3.044  1.00  0.00    -0.458 OA
BRANCH  26  27
ATOM     27  C   UNL     1       1.708  -4.887  -3.570  1.00  0.00     0.338 C 
ATOM     28  O   UNL     1       1.261  -6.023  -3.524  1.00  0.00    -0.246 OA
BRANCH  27  29
ATOM     29  C   UNL     1       0.905  -3.760  -4.092  1.00  0.00     0.060 A 
ATOM     30  C   UNL     1       0.179  -3.078  -3.140  1.00  0.00     0.016 A 
ATOM     31  C   UNL     1       0.654  -3.482  -5.424  1.00  0.00     0.016 A 
ATOM     32  C   UNL     1      -0.871  -2.233  -3.432  1.00  0.00     0.010 A 
ATOM     33  C   UNL     1      -0.310  -2.501  -5.749  1.00  0.00     0.010 A 
ATOM     34  C   UNL     1      -1.088  -1.880  -4.748  1.00  0.00    -0.014 A 
BRANCH  34  35
ATOM     35  C   UNL     1      -2.194  -0.930  -5.013  1.00  0.00     0.031 A 
ATOM     36  C   UNL     1      -3.414  -1.442  -5.707  1.00  0.00     0.074 A 
ATOM     37  C   UNL     1      -2.182   0.315  -4.489  1.00  0.00     0.049 A 
ATOM     38  N   UNL     1      -4.395  -0.781  -6.252  1.00  0.00    -0.248 NA
ATOM     39  C   UNL     1      -3.551  -2.906  -5.780  1.00  0.00     0.031 C 
ATOM     40  C   UNL     1      -1.161   0.845  -3.576  1.00  0.00     0.029 A 
ATOM     41  N   UNL     1      -3.062   1.359  -4.624  1.00  0.00    -0.354 N 
ATOM     42  C   UNL     1      -5.245  -1.744  -6.779  1.00  0.00     0.074 A 
ATOM     43  C   UNL     1      -4.665  -3.036  -6.484  1.00  0.00     0.031 C 
ATOM     44  C   UNL     1      -1.475   2.106  -3.239  1.00  0.00     0.029 A 
ATOM     45  C   UNL     1      -2.639   2.519  -4.009  1.00  0.00     0.049 A 
ATOM     46  H   UNL     1      -3.913   1.288  -5.114  1.00  0.00     0.167 HD
ATOM     47  C   UNL     1      -6.397  -1.545  -7.461  1.00  0.00     0.034 A 
ATOM     48  C   UNL     1      -3.090   3.784  -4.133  1.00  0.00     0.034 A 
ATOM     49  C   UNL     1      -6.927  -0.232  -7.722  1.00  0.00     0.049 A 
ATOM     50  C   UNL     1      -4.251   4.010  -5.076  1.00  0.00     0.074 A 
ATOM     51  C   UNL     1      -8.013   0.128  -8.497  1.00  0.00     0.029 A 
ATOM     52  N   UNL     1      -6.404   0.944  -7.194  1.00  0.00    -0.354 N 
ATOM     53  N   UNL     1      -4.962   3.121  -5.736  1.00  0.00    -0.248 NA
ATOM     54  C   UNL     1      -4.660   5.399  -5.311  1.00  0.00     0.031 C 
ATOM     55  C   UNL     1      -8.101   1.524  -8.496  1.00  0.00     0.029 A 
ATOM     56  C   UNL     1      -7.131   2.031  -7.644  1.00  0.00     0.049 A 
ATOM     57  H   UNL     1      -5.629   0.995  -6.590  1.00  0.00     0.167 HD
ATOM     58  C   UNL     1      -5.928   3.844  -6.428  1.00  0.00     0.074 A 
ATOM     59  C   UNL     1      -5.718   5.237  -6.090  1.00  0.00     0.031 C 
ATOM     60  C   UNL     1      -6.901   3.406  -7.267  1.00  0.00     0.034 A 
BRANCH  47  61
ATOM     61  C   UNL     1      -7.070  -2.756  -8.046  1.00  0.00     0.023 A 
ATOM     62  C   UNL     1      -7.620  -3.765  -7.238  1.00  0.00     0.031 A 
ATOM     63  C   UNL     1      -7.103  -2.935  -9.441  1.00  0.00     0.131 A 
ATOM     64  C   UNL     1      -8.114  -4.938  -7.829  1.00  0.00     0.055 A 
ATOM     65  C   UNL     1      -7.675  -4.066 -10.025  1.00  0.00     0.041 A 
ATOM     66  F   UNL     1      -6.556  -2.023 -10.260  1.00  0.00    -0.206 F 
ATOM     67  C   UNL     1      -8.174  -5.082  -9.217  1.00  0.00     0.022 A 
BRANCH  64  68
ATOM     68  S   UNL     1      -8.535  -6.336  -6.753  1.00  0.00     0.124 S 
ATOM     69  O   UNL     1      -7.248  -6.617  -6.120  1.00  0.00    -0.237 OA
ATOM     70  O   UNL     1      -9.563  -5.773  -5.886  1.00  0.00    -0.237 OA
ATOM     71  O   UNL     1      -8.998  -7.360  -7.687  1.00  0.00    -0.744 OA
ENDBRANCH  64  68
ENDBRANCH  47  61
BRANCH  48  72
ATOM     72  C   UNL     1      -2.394   4.943  -3.486  1.00  0.00     0.023 A 
ATOM     73  C   UNL     1      -3.102   5.867  -2.700  1.00  0.00     0.031 A 
ATOM     74  C   UNL     1      -1.040   5.226  -3.753  1.00  0.00     0.131 A 
ATOM     75  C   UNL     1      -2.485   7.061  -2.288  1.00  0.00     0.055 A 
ATOM     76  C   UNL     1      -0.406   6.371  -3.265  1.00  0.00     0.041 A 
ATOM     77  F   UNL     1      -0.306   4.402  -4.519  1.00  0.00    -0.206 F 
ATOM     78  C   UNL     1      -1.137   7.311  -2.549  1.00  0.00     0.022 A 
BRANCH  75  79
ATOM     79  S   UNL     1      -3.522   8.367  -1.570  1.00  0.00     0.124 S 
ATOM     80  O   UNL     1      -4.534   8.539  -2.606  1.00  0.00    -0.237 OA
ATOM     81  O   UNL     1      -3.973   7.747  -0.329  1.00  0.00    -0.237 OA
ATOM     82  O   UNL     1      -2.596   9.486  -1.408  1.00  0.00    -0.744 OA
ENDBRANCH  75  79
ENDBRANCH  48  72
BRANCH  60  83
ATOM     83  C   UNL     1      -7.856   4.441  -7.802  1.00  0.00     0.023 A 
ATOM     84  C   UNL     1      -7.437   5.461  -8.670  1.00  0.00     0.031 A 
ATOM     85  C   UNL     1      -9.212   4.397  -7.431  1.00  0.00     0.131 A 
ATOM     86  C   UNL     1      -8.353   6.435  -9.089  1.00  0.00     0.055 A 
ATOM     87  C   UNL     1     -10.135   5.320  -7.916  1.00  0.00     0.041 A 
ATOM     88  F   UNL     1      -9.663   3.445  -6.597  1.00  0.00    -0.206 F 
ATOM     89  C   UNL     1      -9.704   6.356  -8.739  1.00  0.00     0.022 A 
BRANCH  86  90
ATOM     90  S   UNL     1      -7.731   7.870 -10.004  1.00  0.00     0.124 S 
ATOM     91  O   UNL     1      -6.755   8.424  -9.072  1.00  0.00    -0.237 OA
ATOM     92  O   UNL     1      -7.184   7.258 -11.211  1.00  0.00    -0.237 OA
ATOM     93  O   UNL     1      -8.926   8.687 -10.211  1.00  0.00    -0.744 OA
ENDBRANCH  86  90
ENDBRANCH  60  83
ENDBRANCH  34  35
ENDBRANCH  27  29
ENDBRANCH  26  27
ENDBRANCH  25  26
ENDBRANCH   1  25
TORSDOF 19
