REMARK SMILES Cc1ccc(C[C@H](C(=O)OCCOC(=O)c2ccc(-c3c4nc(c(-c5cc(S(=O)(=O)[O-])ccc5F)c5ccc([nH]5)c(-c5cc(S(=O)(=O)[O-])ccc5F)c5nc(c(-c6cc(S(=O)(=O)[O-])ccc6F)c6ccc3[nH]6)C=C5)C=C4)cc2)[C@@H]2CCCC[C@@H]2O)cc1
REMARK SMILES IDX 12 1 11 2 10 3 8 4 9 5 7 6 6 7 5 8 1 9 2 10 3 11 87 12 4 13
REMARK SMILES IDX 86 14 79 15 80 16 84 17 81 18 83 19 82 20 85 21 13 23 14 24
REMARK SMILES IDX 15 25 16 26 17 27 78 28 18 29 77 30 19 31 20 32 21 33 71 34
REMARK SMILES IDX 22 35 76 36 70 37 72 38 23 39 75 40 69 41 68 42 24 44 56 45
REMARK SMILES IDX 36 46 55 47 37 48 40 49 54 50 73 51 38 52 39 53 53 55 74 56
REMARK SMILES IDX 41 57 25 58 26 59 34 60 27 61 33 62 35 63 32 64 28 65 29 66
REMARK SMILES IDX 30 67 31 68 57 69 58 70 66 71 59 72 65 73 67 74 64 75 60 76
REMARK SMILES IDX 61 77 62 78 63 79 42 80 43 81 51 82 44 83 50 84 52 85 49 86
REMARK SMILES IDX 45 87 46 88 47 89 48 90
REMARK H PARENT 85 22 72 43 40 54
REMARK Flexibility Score: inf
ROOT
ATOM      1  C   UNL     1      -1.602  -2.715  -0.701  1.00  0.00     0.275 C 
ENDROOT
BRANCH   1   2
ATOM      2  C   UNL     1      -3.129  -2.909  -0.700  1.00  0.00     0.274 C 
BRANCH   2   3
ATOM      3  O   UNL     1      -3.842  -1.655  -0.719  1.00  0.00    -0.462 OA
BRANCH   3   4
ATOM      4  C   UNL     1      -5.178  -1.776  -0.480  1.00  0.00     0.309 C 
ATOM      5  O   UNL     1      -5.725  -2.811  -0.105  1.00  0.00    -0.252 OA
BRANCH   4   6
ATOM      6  C   UNL     1      -6.000  -0.597  -0.983  1.00  0.00     0.109 C 
BRANCH   6   7
ATOM      7  C   UNL     1      -6.246   0.535   0.039  1.00  0.00     0.051 C 
BRANCH   7   8
ATOM      8  C   UNL     1      -5.486   1.838   0.125  1.00  0.00    -0.047 A 
ATOM      9  C   UNL     1      -3.443   5.496   1.249  1.00  0.00     0.044 C 
ATOM     10  C   UNL     1      -4.154   4.259   0.786  1.00  0.00    -0.051 A 
ATOM     11  C   UNL     1      -3.437   3.091   0.502  1.00  0.00     0.004 A 
ATOM     12  C   UNL     1      -5.546   4.220   0.707  1.00  0.00     0.004 A 
ATOM     13  C   UNL     1      -4.097   1.903   0.149  1.00  0.00     0.004 A 
ATOM     14  C   UNL     1      -6.200   3.023   0.391  1.00  0.00     0.004 A 
ENDBRANCH   7   8
ENDBRANCH   6   7
BRANCH   6  15
ATOM     15  C   UNL     1      -5.659  -0.315  -2.470  1.00  0.00     0.032 C 
ATOM     16  C   UNL     1      -6.327   0.935  -3.057  1.00  0.00     0.007 C 
ATOM     17  C   UNL     1      -6.043  -1.519  -3.394  1.00  0.00     0.118 C 
ATOM     18  C   UNL     1      -7.843   0.793  -3.175  1.00  0.00     0.001 C 
ATOM     19  C   UNL     1      -7.559  -1.714  -3.507  1.00  0.00     0.032 C 
ATOM     20  C   UNL     1      -8.252  -0.442  -3.975  1.00  0.00     0.003 C 
BRANCH  17  21
ATOM     21  O   UNL     1      -5.442  -2.749  -3.011  1.00  0.00    -0.393 OA
ATOM     22  H   UNL     1      -5.780  -3.019  -2.143  1.00  0.00     0.210 HD
ENDBRANCH  17  21
ENDBRANCH   6  15
ENDBRANCH   4   6
ENDBRANCH   3   4
ENDBRANCH   2   3
ENDBRANCH   1   2
BRANCH   1  23
ATOM     23  O   UNL     1      -0.976  -2.199   0.492  1.00  0.00    -0.458 OA
BRANCH  23  24
ATOM     24  C   UNL     1      -1.609  -1.174   1.120  1.00  0.00     0.338 C 
ATOM     25  O   UNL     1      -1.558  -0.014   0.727  1.00  0.00    -0.246 OA
BRANCH  24  26
ATOM     26  C   UNL     1      -2.565  -1.751   2.099  1.00  0.00     0.060 A 
ATOM     27  C   UNL     1      -3.773  -1.092   2.358  1.00  0.00     0.016 A 
ATOM     28  C   UNL     1      -2.389  -3.086   2.477  1.00  0.00     0.016 A 
ATOM     29  C   UNL     1      -4.855  -1.807   2.872  1.00  0.00     0.010 A 
ATOM     30  C   UNL     1      -3.472  -3.813   2.913  1.00  0.00     0.010 A 
ATOM     31  C   UNL     1      -4.706  -3.178   3.106  1.00  0.00    -0.014 A 
BRANCH  31  32
ATOM     32  C   UNL     1      -5.633  -3.938   3.928  1.00  0.00     0.031 A 
ATOM     33  C   UNL     1      -6.866  -4.578   3.444  1.00  0.00     0.074 A 
ATOM     34  C   UNL     1      -5.229  -4.029   5.212  1.00  0.00     0.049 A 
ATOM     35  N   UNL     1      -7.911  -4.741   4.186  1.00  0.00    -0.248 NA
ATOM     36  C   UNL     1      -7.042  -5.086   2.085  1.00  0.00     0.031 C 
ATOM     37  C   UNL     1      -5.753  -4.825   6.302  1.00  0.00     0.029 A 
ATOM     38  N   UNL     1      -4.322  -3.164   5.834  1.00  0.00    -0.354 N 
ATOM     39  C   UNL     1      -8.714  -5.655   3.545  1.00  0.00     0.074 A 
ATOM     40  C   UNL     1      -8.212  -5.733   2.192  1.00  0.00     0.031 C 
ATOM     41  C   UNL     1      -5.436  -4.198   7.452  1.00  0.00     0.029 A 
ATOM     42  C   UNL     1      -4.859  -2.906   7.086  1.00  0.00     0.049 A 
ATOM     43  H   UNL     1      -3.481  -2.813   5.462  1.00  0.00     0.167 HD
ATOM     44  C   UNL     1      -9.576  -6.425   4.266  1.00  0.00     0.034 A 
ATOM     45  C   UNL     1      -5.350  -1.677   7.422  1.00  0.00     0.034 A 
ATOM     46  C   UNL     1      -9.482  -6.147   5.694  1.00  0.00     0.049 A 
ATOM     47  C   UNL     1      -6.769  -1.790   7.930  1.00  0.00     0.074 A 
ATOM     48  C   UNL     1      -8.813  -6.791   6.723  1.00  0.00     0.029 A 
ATOM     49  N   UNL     1      -9.849  -4.902   6.187  1.00  0.00    -0.354 N 
ATOM     50  N   UNL     1      -7.622  -2.699   7.544  1.00  0.00    -0.248 NA
ATOM     51  C   UNL     1      -7.325  -0.872   8.910  1.00  0.00     0.031 C 
ATOM     52  C   UNL     1      -8.764  -5.915   7.836  1.00  0.00     0.029 A 
ATOM     53  C   UNL     1      -9.418  -4.746   7.492  1.00  0.00     0.049 A 
ATOM     54  H   UNL     1     -10.348  -4.223   5.677  1.00  0.00     0.167 HD
ATOM     55  C   UNL     1      -8.768  -2.595   8.298  1.00  0.00     0.074 A 
ATOM     56  C   UNL     1      -8.559  -1.379   9.070  1.00  0.00     0.031 C 
ATOM     57  C   UNL     1      -9.754  -3.547   8.246  1.00  0.00     0.034 A 
BRANCH  44  58
ATOM     58  C   UNL     1     -10.200  -7.674   3.700  1.00  0.00     0.023 A 
ATOM     59  C   UNL     1     -10.179  -8.866   4.452  1.00  0.00     0.031 A 
ATOM     60  C   UNL     1     -10.793  -7.757   2.428  1.00  0.00     0.131 A 
ATOM     61  C   UNL     1     -10.646 -10.080   3.923  1.00  0.00     0.055 A 
ATOM     62  C   UNL     1     -11.249  -8.973   1.890  1.00  0.00     0.041 A 
ATOM     63  F   UNL     1     -10.947  -6.662   1.665  1.00  0.00    -0.206 F 
ATOM     64  C   UNL     1     -11.163 -10.146   2.633  1.00  0.00     0.022 A 
BRANCH  61  65
ATOM     65  S   UNL     1     -10.536 -11.574   4.949  1.00  0.00     0.124 S 
ATOM     66  O   UNL     1      -9.101 -11.670   5.201  1.00  0.00    -0.237 OA
ATOM     67  O   UNL     1     -11.367 -11.227   6.096  1.00  0.00    -0.237 OA
ATOM     68  O   UNL     1     -11.081 -12.620   4.085  1.00  0.00    -0.744 OA
ENDBRANCH  61  65
ENDBRANCH  44  58
BRANCH  45  69
ATOM     69  C   UNL     1      -4.814  -0.477   6.690  1.00  0.00     0.023 A 
ATOM     70  C   UNL     1      -3.417  -0.340   6.507  1.00  0.00     0.031 A 
ATOM     71  C   UNL     1      -5.634   0.417   5.982  1.00  0.00     0.131 A 
ATOM     72  C   UNL     1      -2.895   0.568   5.569  1.00  0.00     0.055 A 
ATOM     73  C   UNL     1      -5.105   1.361   5.086  1.00  0.00     0.041 A 
ATOM     74  F   UNL     1      -6.969   0.351   6.082  1.00  0.00    -0.206 F 
ATOM     75  C   UNL     1      -3.733   1.424   4.856  1.00  0.00     0.022 A 
BRANCH  72  76
ATOM     76  S   UNL     1      -1.130   0.455   5.138  1.00  0.00     0.124 S 
ATOM     77  O   UNL     1      -0.493   1.052   6.307  1.00  0.00    -0.237 OA
ATOM     78  O   UNL     1      -0.945  -0.984   4.973  1.00  0.00    -0.237 OA
ATOM     79  O   UNL     1      -1.031   1.231   3.906  1.00  0.00    -0.744 OA
ENDBRANCH  72  76
ENDBRANCH  45  69
BRANCH  57  80
ATOM     80  C   UNL     1     -11.094  -3.537   8.960  1.00  0.00     0.023 A 
ATOM     81  C   UNL     1     -11.435  -2.639   9.978  1.00  0.00     0.031 A 
ATOM     82  C   UNL     1     -12.106  -4.481   8.632  1.00  0.00     0.131 A 
ATOM     83  C   UNL     1     -12.710  -2.644  10.568  1.00  0.00     0.055 A 
ATOM     84  C   UNL     1     -13.365  -4.506   9.241  1.00  0.00     0.041 A 
ATOM     85  F   UNL     1     -11.933  -5.420   7.692  1.00  0.00    -0.206 F 
ATOM     86  C   UNL     1     -13.682  -3.571  10.208  1.00  0.00     0.022 A 
BRANCH  83  87
ATOM     87  S   UNL     1     -13.067  -1.381  11.815  1.00  0.00     0.124 S 
ATOM     88  O   UNL     1     -12.057  -1.659  12.832  1.00  0.00    -0.237 OA
ATOM     89  O   UNL     1     -12.880  -0.147  11.058  1.00  0.00    -0.237 OA
ATOM     90  O   UNL     1     -14.445  -1.665  12.210  1.00  0.00    -0.744 OA
ENDBRANCH  83  87
ENDBRANCH  57  80
ENDBRANCH  31  32
ENDBRANCH  24  26
ENDBRANCH  23  24
ENDBRANCH   1  23
TORSDOF 18
