REMARK SMILES CC(C)C[C@H](NC(N)=O)C(=O)N[C@@H](C(=O)OCCOC(=O)c1ccc(-c2c3nc(c(-c4cc(S(=O)(=O)[O-])ccc4F)c4ccc([nH]4)c(-c4cc(S(=O)(=O)[O-])ccc4F)c4nc(c(-c5cc(S(=O)(=O)[O-])ccc5F)c5ccc2[nH]5)C=C4)C=C3)cc1)C(C)C
REMARK SMILES IDX 17 1 16 2 14 3 15 4 13 5 12 6 10 7 11 8 5 10 4 11 2 12 1 13
REMARK SMILES IDX 3 14 6 15 7 16 8 18 9 19 85 22 86 23 87 24 18 25 19 26 20 27
REMARK SMILES IDX 21 28 22 29 23 30 84 31 24 32 83 33 25 34 26 35 27 36 77 37
REMARK SMILES IDX 28 38 82 39 76 40 78 41 29 42 81 43 75 44 74 45 30 47 62 48
REMARK SMILES IDX 42 49 61 50 43 51 46 52 60 53 79 54 44 55 45 56 59 58 80 59
REMARK SMILES IDX 47 60 31 61 32 62 40 63 33 64 39 65 41 66 38 67 34 68 35 69
REMARK SMILES IDX 36 70 37 71 63 72 64 73 72 74 65 75 71 76 73 77 70 78 66 79
REMARK SMILES IDX 67 80 68 81 69 82 48 83 49 84 57 85 50 86 56 87 58 88 55 89
REMARK SMILES IDX 51 90 52 91 53 92 54 93
REMARK H PARENT 12 9 6 17 8 20 8 21 78 46 46 57
REMARK Flexibility Score: inf
ROOT
ATOM      1  C   UNL     1      -3.837  -2.712   3.888  1.00  0.00     0.274 C 
ENDROOT
BRANCH   1   2
ATOM      2  O   UNL     1      -3.625  -2.689   2.461  1.00  0.00    -0.461 OA
BRANCH   2   3
ATOM      3  C   UNL     1      -2.948  -3.753   1.936  1.00  0.00     0.329 C 
ATOM      4  O   UNL     1      -2.492  -4.663   2.620  1.00  0.00    -0.250 OA
BRANCH   3   5
ATOM      5  C   UNL     1      -2.816  -3.689   0.387  1.00  0.00     0.194 C 
BRANCH   5   6
ATOM      6  N   UNL     1      -3.447  -2.484  -0.156  1.00  0.00    -0.341 N 
ATOM      7  C   UNL     1      -2.885  -1.300  -0.532  1.00  0.00     0.243 C 
ATOM      8  O   UNL     1      -3.647  -0.380  -0.849  1.00  0.00    -0.273 OA
ATOM      9  H   UNL     1      -4.424  -2.537  -0.267  1.00  0.00     0.164 HD
BRANCH   7  10
ATOM     10  C   UNL     1      -1.352  -1.074  -0.591  1.00  0.00     0.173 C 
BRANCH  10  11
ATOM     11  C   UNL     1      -0.573  -1.633  -1.810  1.00  0.00     0.038 C 
BRANCH  11  12
ATOM     12  C   UNL     1      -1.153  -2.859  -2.533  1.00  0.00    -0.015 C 
ATOM     13  C   UNL     1      -2.294  -2.488  -3.490  1.00  0.00     0.007 C 
ATOM     14  C   UNL     1      -0.090  -3.662  -3.283  1.00  0.00     0.007 C 
ENDBRANCH  11  12
ENDBRANCH  10  11
BRANCH  10  15
ATOM     15  N   UNL     1      -0.767  -1.249   0.748  1.00  0.00    -0.327 N 
ATOM     16  C   UNL     1       0.054  -2.235   1.182  1.00  0.00     0.312 C 
ATOM     17  H   UNL     1      -1.002  -0.562   1.413  1.00  0.00     0.166 HD
ATOM     18  N   UNL     1       0.234  -2.212   2.523  1.00  0.00    -0.352 N 
ATOM     19  O   UNL     1       0.563  -3.111   0.499  1.00  0.00    -0.249 OA
ATOM     20  H   UNL     1      -0.181  -1.501   3.063  1.00  0.00     0.161 HD
ATOM     21  H   UNL     1       0.780  -2.906   2.959  1.00  0.00     0.161 HD
ENDBRANCH  10  15
ENDBRANCH   7  10
ENDBRANCH   5   6
BRANCH   5  22
ATOM     22  C   UNL     1      -3.353  -4.996  -0.255  1.00  0.00     0.017 C 
ATOM     23  C   UNL     1      -3.804  -4.970  -1.717  1.00  0.00     0.010 C 
ATOM     24  C   UNL     1      -2.336  -6.138  -0.089  1.00  0.00     0.010 C 
ENDBRANCH   5  22
ENDBRANCH   3   5
ENDBRANCH   2   3
ENDBRANCH   1   2
BRANCH   1  25
ATOM     25  C   UNL     1      -5.295  -3.021   4.227  1.00  0.00     0.275 C 
BRANCH  25  26
ATOM     26  O   UNL     1      -5.649  -4.350   3.805  1.00  0.00    -0.458 OA
BRANCH  26  27
ATOM     27  C   UNL     1      -6.374  -4.402   2.663  1.00  0.00     0.338 C 
ATOM     28  O   UNL     1      -6.746  -3.457   1.986  1.00  0.00    -0.246 OA
BRANCH  27  29
ATOM     29  C   UNL     1      -6.592  -5.795   2.244  1.00  0.00     0.060 A 
ATOM     30  C   UNL     1      -5.492  -6.533   1.833  1.00  0.00     0.016 A 
ATOM     31  C   UNL     1      -7.877  -6.260   1.980  1.00  0.00     0.016 A 
ATOM     32  C   UNL     1      -5.674  -7.591   0.945  1.00  0.00     0.010 A 
ATOM     33  C   UNL     1      -8.044  -7.456   1.268  1.00  0.00     0.010 A 
ATOM     34  C   UNL     1      -6.946  -8.108   0.674  1.00  0.00    -0.014 A 
BRANCH  34  35
ATOM     35  C   UNL     1      -7.148  -9.288  -0.233  1.00  0.00     0.031 A 
ATOM     36  C   UNL     1      -8.256  -9.263  -1.262  1.00  0.00     0.074 A 
ATOM     37  C   UNL     1      -6.376 -10.395  -0.151  1.00  0.00     0.049 A 
ATOM     38  N   UNL     1      -8.883 -10.258  -1.837  1.00  0.00    -0.248 NA
ATOM     39  C   UNL     1      -8.738  -7.936  -1.677  1.00  0.00     0.031 C 
ATOM     40  C   UNL     1      -5.184 -10.559   0.686  1.00  0.00     0.029 A 
ATOM     41  N   UNL     1      -6.491 -11.615  -0.780  1.00  0.00    -0.354 N 
ATOM     42  C   UNL     1      -9.890  -9.682  -2.610  1.00  0.00     0.074 A 
ATOM     43  C   UNL     1      -9.782  -8.249  -2.432  1.00  0.00     0.031 C 
ATOM     44  C   UNL     1      -4.660 -11.775   0.489  1.00  0.00     0.029 A 
ATOM     45  C   UNL     1      -5.570 -12.543  -0.345  1.00  0.00     0.049 A 
ATOM     46  H   UNL     1      -7.165 -11.805  -1.472  1.00  0.00     0.167 HD
ATOM     47  C   UNL     1     -10.823 -10.302  -3.377  1.00  0.00     0.034 A 
ATOM     48  C   UNL     1      -5.508 -13.881  -0.497  1.00  0.00     0.034 A 
ATOM     49  C   UNL     1     -10.863 -11.732  -3.582  1.00  0.00     0.049 A 
ATOM     50  C   UNL     1      -6.607 -14.569  -1.260  1.00  0.00     0.074 A 
ATOM     51  C   UNL     1     -11.773 -12.480  -4.310  1.00  0.00     0.029 A 
ATOM     52  N   UNL     1      -9.931 -12.631  -3.075  1.00  0.00    -0.354 N 
ATOM     53  N   UNL     1      -7.654 -14.043  -1.852  1.00  0.00    -0.248 NA
ATOM     54  C   UNL     1      -6.530 -16.032  -1.356  1.00  0.00     0.031 C 
ATOM     55  C   UNL     1     -11.427 -13.831  -4.194  1.00  0.00     0.029 A 
ATOM     56  C   UNL     1     -10.254 -13.922  -3.463  1.00  0.00     0.049 A 
ATOM     57  H   UNL     1      -9.156 -12.386  -2.521  1.00  0.00     0.167 HD
ATOM     58  C   UNL     1      -8.338 -15.111  -2.425  1.00  0.00     0.074 A 
ATOM     59  C   UNL     1      -7.585 -16.307  -2.108  1.00  0.00     0.031 C 
ATOM     60  C   UNL     1      -9.482 -15.101  -3.153  1.00  0.00     0.034 A 
BRANCH  47  61
ATOM     61  C   UNL     1     -11.919  -9.452  -3.983  1.00  0.00     0.023 A 
ATOM     62  C   UNL     1     -11.662  -8.455  -4.939  1.00  0.00     0.031 A 
ATOM     63  C   UNL     1     -13.254  -9.633  -3.570  1.00  0.00     0.131 A 
ATOM     64  C   UNL     1     -12.707  -7.632  -5.391  1.00  0.00     0.055 A 
ATOM     65  C   UNL     1     -14.301  -8.868  -4.088  1.00  0.00     0.041 A 
ATOM     66  F   UNL     1     -13.564 -10.554  -2.643  1.00  0.00    -0.206 F 
ATOM     67  C   UNL     1     -14.028  -7.849  -4.993  1.00  0.00     0.022 A 
BRANCH  64  68
ATOM     68  S   UNL     1     -12.295  -6.178  -6.394  1.00  0.00     0.124 S 
ATOM     69  O   UNL     1     -11.400  -5.448  -5.498  1.00  0.00    -0.237 OA
ATOM     70  O   UNL     1     -11.675  -6.772  -7.572  1.00  0.00    -0.237 OA
ATOM     71  O   UNL     1     -13.590  -5.540  -6.624  1.00  0.00    -0.744 OA
ENDBRANCH  64  68
ENDBRANCH  47  61
BRANCH  48  72
ATOM     72  C   UNL     1      -4.435 -14.672   0.177  1.00  0.00     0.023 A 
ATOM     73  C   UNL     1      -3.532 -15.443  -0.568  1.00  0.00     0.031 A 
ATOM     74  C   UNL     1      -4.322 -14.704   1.581  1.00  0.00     0.131 A 
ATOM     75  C   UNL     1      -2.587 -16.245   0.091  1.00  0.00     0.055 A 
ATOM     76  C   UNL     1      -3.334 -15.445   2.229  1.00  0.00     0.041 A 
ATOM     77  F   UNL     1      -5.165 -13.993   2.349  1.00  0.00    -0.206 F 
ATOM     78  C   UNL     1      -2.467 -16.235   1.482  1.00  0.00     0.022 A 
BRANCH  75  79
ATOM     79  S   UNL     1      -1.585 -17.389  -0.896  1.00  0.00     0.124 S 
ATOM     80  O   UNL     1      -2.612 -18.177  -1.566  1.00  0.00    -0.237 OA
ATOM     81  O   UNL     1      -0.824 -16.474  -1.740  1.00  0.00    -0.237 OA
ATOM     82  O   UNL     1      -0.802 -18.107   0.107  1.00  0.00    -0.744 OA
ENDBRANCH  75  79
ENDBRANCH  48  72
BRANCH  60  83
ATOM     83  C   UNL     1      -9.932 -16.415  -3.738  1.00  0.00     0.023 A 
ATOM     84  C   UNL     1     -10.419 -17.462  -2.938  1.00  0.00     0.031 A 
ATOM     85  C   UNL     1      -9.868 -16.614  -5.129  1.00  0.00     0.131 A 
ATOM     86  C   UNL     1     -10.782 -18.680  -3.533  1.00  0.00     0.055 A 
ATOM     87  C   UNL     1     -10.284 -17.806  -5.720  1.00  0.00     0.041 A 
ATOM     88  F   UNL     1      -9.405 -15.645  -5.936  1.00  0.00    -0.206 F 
ATOM     89  C   UNL     1     -10.735 -18.851  -4.920  1.00  0.00     0.022 A 
BRANCH  86  90
ATOM     90  S   UNL     1     -11.252 -20.068  -2.465  1.00  0.00     0.124 S 
ATOM     91  O   UNL     1     -10.043 -20.261  -1.669  1.00  0.00    -0.237 OA
ATOM     92  O   UNL     1     -12.407 -19.536  -1.749  1.00  0.00    -0.237 OA
ATOM     93  O   UNL     1     -11.551 -21.143  -3.409  1.00  0.00    -0.744 OA
ENDBRANCH  86  90
ENDBRANCH  60  83
ENDBRANCH  34  35
ENDBRANCH  27  29
ENDBRANCH  26  27
ENDBRANCH  25  26
ENDBRANCH   1  25
TORSDOF 20
