REMARK SMILES CCCN1CCC[C@@]2(CCN(c3ccc(C(=O)OCCOC(=O)c4ccc(-c5c6nc(c(-c7cc(S(=O)(=O)[O-])ccc7F)c7ccc([nH]7)c(-c7cc(S(=O)(=O)[O-])ccc7F)c7nc(c(-c8cc(S(=O)(=O)[O-])ccc8F)c8ccc5[nH]8)C=C7)C=C6)cc4)cn3)C2)C1=O
REMARK SMILES IDX 19 1 18 2 16 3 17 4 15 5 12 6 13 7 88 8 14 9 87 10 11 11
REMARK SMILES IDX 4 12 5 13 90 14 6 15 8 16 91 17 7 18 9 19 89 20 10 21 3 22
REMARK SMILES IDX 2 23 1 24 20 25 21 26 22 27 23 28 24 29 25 30 86 31 26 32
REMARK SMILES IDX 85 33 27 34 28 35 29 36 79 37 30 38 84 39 78 40 80 41 31 42
REMARK SMILES IDX 83 43 77 44 76 45 32 47 64 48 44 49 63 50 45 51 48 52 62 53
REMARK SMILES IDX 81 54 46 55 47 56 61 58 82 59 49 60 33 61 34 62 42 63 35 64
REMARK SMILES IDX 41 65 43 66 40 67 36 68 37 69 38 70 39 71 65 72 66 73 74 74
REMARK SMILES IDX 67 75 73 76 75 77 72 78 68 79 69 80 70 81 71 82 50 83 51 84
REMARK SMILES IDX 59 85 52 86 58 87 60 88 57 89 53 90 54 91 55 92 56 93
REMARK H PARENT 80 46 48 57
REMARK Flexibility Score: inf
ROOT
ATOM      1  C   UNL     1       4.911  -1.616 -12.599  1.00  0.00     0.275 C 
ENDROOT
BRANCH   1   2
ATOM      2  O   UNL     1       4.036  -2.081 -11.551  1.00  0.00    -0.458 OA
BRANCH   2   3
ATOM      3  C   UNL     1       3.791  -1.196 -10.552  1.00  0.00     0.339 C 
ATOM      4  O   UNL     1       4.271  -0.084 -10.434  1.00  0.00    -0.246 OA
BRANCH   3   5
ATOM      5  C   UNL     1       2.794  -1.740  -9.614  1.00  0.00     0.078 A 
ATOM      6  C   UNL     1       0.931  -2.537  -7.739  1.00  0.00     0.128 A 
ATOM      7  C   UNL     1       1.920  -3.428  -8.163  1.00  0.00     0.048 A 
ATOM      8  N   UNL     1       0.861  -1.290  -8.226  1.00  0.00    -0.238 NA
ATOM      9  C   UNL     1       2.852  -3.037  -9.127  1.00  0.00     0.021 A 
ATOM     10  C   UNL     1       1.801  -0.911  -9.117  1.00  0.00     0.129 A 
BRANCH   6  11
ATOM     11  N   UNL     1       0.095  -2.889  -6.695  1.00  0.00    -0.356 N 
ATOM     12  N   UNL     1       0.584  -1.300  -2.651  1.00  0.00    -0.342 N 
ATOM     13  C   UNL     1       0.855  -2.432  -1.780  1.00  0.00     0.119 C 
ATOM     14  C   UNL     1      -0.402  -1.381  -3.633  1.00  0.00     0.230 C 
ATOM     15  C   UNL     1       0.877  -3.764  -2.510  1.00  0.00     0.023 C 
ATOM     16  C   UNL     1      -0.457  -2.720  -4.377  1.00  0.00     0.069 C 
ATOM     17  O   UNL     1      -1.070  -0.410  -3.978  1.00  0.00    -0.274 OA
ATOM     18  C   UNL     1      -0.355  -3.897  -3.401  1.00  0.00     0.021 C 
ATOM     19  C   UNL     1      -1.715  -2.820  -5.269  1.00  0.00     0.040 C 
ATOM     20  C   UNL     1       0.721  -2.724  -5.385  1.00  0.00     0.135 C 
ATOM     21  C   UNL     1      -1.242  -2.308  -6.630  1.00  0.00     0.119 C 
BRANCH  12  22
ATOM     22  C   UNL     1       1.114   0.018  -2.303  1.00  0.00     0.119 C 
BRANCH  22  23
ATOM     23  C   UNL     1       0.482   0.690  -1.085  1.00  0.00     0.018 C 
ATOM     24  C   UNL     1       1.013   0.167   0.241  1.00  0.00     0.006 C 
ENDBRANCH  22  23
ENDBRANCH  12  22
ENDBRANCH   6  11
ENDBRANCH   3   5
ENDBRANCH   2   3
ENDBRANCH   1   2
BRANCH   1  25
ATOM     25  C   UNL     1       4.128  -1.210 -13.850  1.00  0.00     0.275 C 
BRANCH  25  26
ATOM     26  O   UNL     1       3.386   0.004 -13.626  1.00  0.00    -0.458 OA
BRANCH  26  27
ATOM     27  C   UNL     1       2.068  -0.177 -13.382  1.00  0.00     0.338 C 
ATOM     28  O   UNL     1       1.464  -1.237 -13.363  1.00  0.00    -0.246 OA
BRANCH  27  29
ATOM     29  C   UNL     1       1.431   1.095 -13.014  1.00  0.00     0.060 A 
ATOM     30  C   UNL     1       1.547   1.505 -11.694  1.00  0.00     0.016 A 
ATOM     31  C   UNL     1       0.556   1.755 -13.870  1.00  0.00     0.016 A 
ATOM     32  C   UNL     1       0.673   2.450 -11.172  1.00  0.00     0.010 A 
ATOM     33  C   UNL     1      -0.206   2.828 -13.380  1.00  0.00     0.010 A 
ATOM     34  C   UNL     1      -0.193   3.161 -12.011  1.00  0.00    -0.014 A 
BRANCH  34  35
ATOM     35  C   UNL     1      -1.065   4.234 -11.441  1.00  0.00     0.031 A 
ATOM     36  C   UNL     1      -2.558   4.217 -11.667  1.00  0.00     0.074 A 
ATOM     37  C   UNL     1      -0.520   5.222 -10.697  1.00  0.00     0.049 A 
ATOM     38  N   UNL     1      -3.448   5.140 -11.400  1.00  0.00    -0.248 NA
ATOM     39  C   UNL     1      -3.122   3.012 -12.296  1.00  0.00     0.031 C 
ATOM     40  C   UNL     1       0.901   5.341 -10.356  1.00  0.00     0.029 A 
ATOM     41  N   UNL     1      -1.090   6.309 -10.078  1.00  0.00    -0.354 N 
ATOM     42  C   UNL     1      -4.664   4.653 -11.873  1.00  0.00     0.074 A 
ATOM     43  C   UNL     1      -4.390   3.360 -12.464  1.00  0.00     0.031 C 
ATOM     44  C   UNL     1       1.081   6.395  -9.550  1.00  0.00     0.029 A 
ATOM     45  C   UNL     1      -0.181   7.108  -9.420  1.00  0.00     0.049 A 
ATOM     46  H   UNL     1      -2.056   6.499 -10.102  1.00  0.00     0.167 HD
ATOM     47  C   UNL     1      -5.890   5.234 -11.819  1.00  0.00     0.034 A 
ATOM     48  C   UNL     1      -0.320   8.312  -8.830  1.00  0.00     0.034 A 
ATOM     49  C   UNL     1      -6.146   6.508 -11.185  1.00  0.00     0.049 A 
ATOM     50  C   UNL     1      -1.675   8.964  -8.841  1.00  0.00     0.074 A 
ATOM     51  C   UNL     1      -7.353   7.175 -11.050  1.00  0.00     0.029 A 
ATOM     52  N   UNL     1      -5.186   7.308 -10.578  1.00  0.00    -0.354 N 
ATOM     53  N   UNL     1      -2.804   8.514  -9.338  1.00  0.00    -0.248 NA
ATOM     54  C   UNL     1      -1.774  10.291  -8.222  1.00  0.00     0.031 C 
ATOM     55  C   UNL     1      -7.109   8.409 -10.440  1.00  0.00     0.029 A 
ATOM     56  C   UNL     1      -5.766   8.477 -10.105  1.00  0.00     0.049 A 
ATOM     57  H   UNL     1      -4.232   7.079 -10.495  1.00  0.00     0.167 HD
ATOM     58  C   UNL     1      -3.752   9.496  -9.071  1.00  0.00     0.074 A 
ATOM     59  C   UNL     1      -3.067  10.546  -8.346  1.00  0.00     0.031 C 
ATOM     60  C   UNL     1      -5.069   9.528  -9.399  1.00  0.00     0.034 A 
BRANCH  47  61
ATOM     61  C   UNL     1      -7.035   4.535 -12.519  1.00  0.00     0.023 A 
ATOM     62  C   UNL     1      -7.509   3.272 -12.121  1.00  0.00     0.031 A 
ATOM     63  C   UNL     1      -7.664   5.152 -13.618  1.00  0.00     0.131 A 
ATOM     64  C   UNL     1      -8.530   2.643 -12.854  1.00  0.00     0.055 A 
ATOM     65  C   UNL     1      -8.733   4.558 -14.291  1.00  0.00     0.041 A 
ATOM     66  F   UNL     1      -7.244   6.348 -14.062  1.00  0.00    -0.206 F 
ATOM     67  C   UNL     1      -9.163   3.289 -13.918  1.00  0.00     0.022 A 
BRANCH  64  68
ATOM     68  S   UNL     1      -8.927   0.911 -12.487  1.00  0.00     0.124 S 
ATOM     69  O   UNL     1      -7.637   0.260 -12.701  1.00  0.00    -0.237 OA
ATOM     70  O   UNL     1      -9.389   0.979 -11.106  1.00  0.00    -0.237 OA
ATOM     71  O   UNL     1      -9.955   0.578 -13.472  1.00  0.00    -0.744 OA
ENDBRANCH  64  68
ENDBRANCH  47  61
BRANCH  48  72
ATOM     72  C   UNL     1       0.868   9.018  -8.261  1.00  0.00     0.023 A 
ATOM     73  C   UNL     1       0.929   9.365  -6.902  1.00  0.00     0.031 A 
ATOM     74  C   UNL     1       1.946   9.398  -9.084  1.00  0.00     0.131 A 
ATOM     75  C   UNL     1       2.018  10.107  -6.418  1.00  0.00     0.055 A 
ATOM     76  C   UNL     1       3.061  10.071  -8.582  1.00  0.00     0.041 A 
ATOM     77  F   UNL     1       1.941   9.103 -10.394  1.00  0.00    -0.206 F 
ATOM     78  C   UNL     1       3.094  10.444  -7.244  1.00  0.00     0.022 A 
BRANCH  75  79
ATOM     79  S   UNL     1       1.961  10.724  -4.713  1.00  0.00     0.124 S 
ATOM     80  O   UNL     1       0.722  11.493  -4.718  1.00  0.00    -0.237 OA
ATOM     81  O   UNL     1       1.946   9.486  -3.942  1.00  0.00    -0.237 OA
ATOM     82  O   UNL     1       3.186  11.513  -4.596  1.00  0.00    -0.744 OA
ENDBRANCH  75  79
ENDBRANCH  48  72
BRANCH  60  83
ATOM     83  C   UNL     1      -5.856  10.728  -8.930  1.00  0.00     0.023 A 
ATOM     84  C   UNL     1      -5.583  12.023  -9.405  1.00  0.00     0.031 A 
ATOM     85  C   UNL     1      -6.868  10.578  -7.965  1.00  0.00     0.131 A 
ATOM     86  C   UNL     1      -6.262  13.124  -8.861  1.00  0.00     0.055 A 
ATOM     87  C   UNL     1      -7.592  11.669  -7.483  1.00  0.00     0.041 A 
ATOM     88  F   UNL     1      -7.168   9.366  -7.470  1.00  0.00    -0.206 F 
ATOM     89  C   UNL     1      -7.279  12.953  -7.919  1.00  0.00     0.022 A 
BRANCH  86  90
ATOM     90  S   UNL     1      -5.713  14.793  -9.312  1.00  0.00     0.124 S 
ATOM     91  O   UNL     1      -4.312  14.772  -8.905  1.00  0.00    -0.237 OA
ATOM     92  O   UNL     1      -5.958  14.825 -10.751  1.00  0.00    -0.237 OA
ATOM     93  O   UNL     1      -6.577  15.665  -8.518  1.00  0.00    -0.744 OA
ENDBRANCH  86  90
ENDBRANCH  60  83
ENDBRANCH  34  35
ENDBRANCH  27  29
ENDBRANCH  26  27
ENDBRANCH  25  26
ENDBRANCH   1  25
TORSDOF 17
