REMARK SMILES O=C(OCCOC(=O)C1([C@H]2CCC[C@H]2O)CCCCC1)c1ccc(-c2c3nc(c(-c4cc(S(=O)(=O)[O-])ccc4F)c4ccc([nH]4)c(-c4cc(S(=O)(=O)[O-])ccc4F)c4nc(c(-c5cc(S(=O)(=O)[O-])ccc5F)c5ccc2[nH]5)C=C4)C=C3)cc1
REMARK SMILES IDX 4 1 3 2 2 3 1 4 21 5 22 6 83 7 23 8 82 9 24 10 25 11 26 12
REMARK SMILES IDX 76 13 27 14 81 15 75 16 77 17 28 18 80 19 74 20 73 21 29 23
REMARK SMILES IDX 61 24 41 25 60 26 42 27 45 28 59 29 78 30 43 31 44 32 58 34
REMARK SMILES IDX 79 35 46 36 30 37 31 38 39 39 32 40 38 41 40 42 37 43 33 44
REMARK SMILES IDX 34 45 35 46 36 47 62 48 63 49 71 50 64 51 70 52 72 53 69 54
REMARK SMILES IDX 65 55 66 56 67 57 68 58 47 59 48 60 56 61 49 62 55 63 57 64
REMARK SMILES IDX 54 65 50 66 51 67 52 68 53 69 5 70 6 71 7 72 8 73 9 74 16 75
REMARK SMILES IDX 20 76 17 77 19 78 18 79 10 80 11 81 14 82 12 83 13 84 15 85
REMARK H PARENT 77 22 45 33 15 86
REMARK Flexibility Score: inf
ROOT
ATOM      1  C   UNL     1       4.010   1.311  -0.907  1.00  0.00     0.275 C 
ENDROOT
BRANCH   1   2
ATOM      2  O   UNL     1       3.062   0.265  -1.155  1.00  0.00    -0.458 OA
BRANCH   2   3
ATOM      3  C   UNL     1       3.113  -1.042  -0.810  1.00  0.00     0.338 C 
ATOM      4  O   UNL     1       2.235  -1.790  -1.240  1.00  0.00    -0.246 OA
BRANCH   3   5
ATOM      5  C   UNL     1       4.082  -1.596   0.192  1.00  0.00     0.060 A 
ATOM      6  C   UNL     1       5.322  -1.058   0.551  1.00  0.00     0.016 A 
ATOM      7  C   UNL     1       3.639  -2.724   0.896  1.00  0.00     0.016 A 
ATOM      8  C   UNL     1       6.016  -1.511   1.682  1.00  0.00     0.010 A 
ATOM      9  C   UNL     1       4.309  -3.150   2.047  1.00  0.00     0.010 A 
ATOM     10  C   UNL     1       5.488  -2.520   2.482  1.00  0.00    -0.014 A 
BRANCH  10  11
ATOM     11  C   UNL     1       6.196  -2.989   3.705  1.00  0.00     0.031 A 
ATOM     12  C   UNL     1       6.602  -4.434   3.761  1.00  0.00     0.074 A 
ATOM     13  C   UNL     1       6.446  -2.174   4.756  1.00  0.00     0.049 A 
ATOM     14  N   UNL     1       7.183  -5.094   4.728  1.00  0.00    -0.248 NA
ATOM     15  C   UNL     1       6.299  -5.252   2.573  1.00  0.00     0.031 C 
ATOM     16  C   UNL     1       6.111  -0.749   4.837  1.00  0.00     0.029 A 
ATOM     17  N   UNL     1       7.001  -2.433   5.989  1.00  0.00    -0.354 N 
ATOM     18  C   UNL     1       7.374  -6.371   4.220  1.00  0.00     0.074 A 
ATOM     19  C   UNL     1       6.644  -6.458   2.980  1.00  0.00     0.031 C 
ATOM     20  C   UNL     1       6.377  -0.289   6.074  1.00  0.00     0.029 A 
ATOM     21  C   UNL     1       6.946  -1.369   6.868  1.00  0.00     0.049 A 
ATOM     22  H   UNL     1       7.401  -3.301   6.223  1.00  0.00     0.167 HD
ATOM     23  C   UNL     1       8.211  -7.338   4.661  1.00  0.00     0.034 A 
ATOM     24  C   UNL     1       7.323  -1.280   8.161  1.00  0.00     0.034 A 
ATOM     25  C   UNL     1       8.934  -7.244   5.895  1.00  0.00     0.049 A 
ATOM     26  C   UNL     1       8.079  -2.449   8.749  1.00  0.00     0.074 A 
ATOM     27  C   UNL     1       9.804  -8.153   6.463  1.00  0.00     0.029 A 
ATOM     28  N   UNL     1       8.851  -6.163   6.765  1.00  0.00    -0.354 N 
ATOM     29  N   UNL     1       8.354  -3.610   8.199  1.00  0.00    -0.248 NA
ATOM     30  C   UNL     1       8.646  -2.267  10.090  1.00  0.00     0.031 C 
ATOM     31  C   UNL     1      10.204  -7.646   7.705  1.00  0.00     0.029 A 
ATOM     32  C   UNL     1       9.637  -6.391   7.879  1.00  0.00     0.049 A 
ATOM     33  H   UNL     1       8.313  -5.354   6.610  1.00  0.00     0.167 HD
ATOM     34  C   UNL     1       9.201  -4.260   9.092  1.00  0.00     0.074 A 
ATOM     35  C   UNL     1       9.375  -3.365  10.219  1.00  0.00     0.031 C 
ATOM     36  C   UNL     1       9.804  -5.472   8.980  1.00  0.00     0.034 A 
BRANCH  23  37
ATOM     37  C   UNL     1       8.390  -8.517   3.741  1.00  0.00     0.023 A 
ATOM     38  C   UNL     1       8.910  -8.328   2.443  1.00  0.00     0.031 A 
ATOM     39  C   UNL     1       7.920  -9.790   4.086  1.00  0.00     0.131 A 
ATOM     40  C   UNL     1       8.830  -9.360   1.500  1.00  0.00     0.055 A 
ATOM     41  C   UNL     1       7.933 -10.844   3.168  1.00  0.00     0.041 A 
ATOM     42  F   UNL     1       7.390 -10.018   5.298  1.00  0.00    -0.206 F 
ATOM     43  C   UNL     1       8.368 -10.626   1.861  1.00  0.00     0.022 A 
BRANCH  40  44
ATOM     44  S   UNL     1       9.155  -8.963  -0.241  1.00  0.00     0.124 S 
ATOM     45  O   UNL     1       8.085  -8.008  -0.528  1.00  0.00    -0.237 OA
ATOM     46  O   UNL     1      10.503  -8.418  -0.199  1.00  0.00    -0.237 OA
ATOM     47  O   UNL     1       9.022 -10.256  -0.915  1.00  0.00    -0.744 OA
ENDBRANCH  40  44
ENDBRANCH  23  37
BRANCH  24  48
ATOM     48  C   UNL     1       7.048  -0.062   8.988  1.00  0.00     0.023 A 
ATOM     49  C   UNL     1       8.086   0.743   9.488  1.00  0.00     0.031 A 
ATOM     50  C   UNL     1       5.735   0.248   9.389  1.00  0.00     0.131 A 
ATOM     51  C   UNL     1       7.806   1.764  10.416  1.00  0.00     0.055 A 
ATOM     52  C   UNL     1       5.457   1.292  10.278  1.00  0.00     0.041 A 
ATOM     53  F   UNL     1       4.699  -0.478   8.939  1.00  0.00    -0.206 F 
ATOM     54  C   UNL     1       6.498   2.045  10.812  1.00  0.00     0.022 A 
BRANCH  51  55
ATOM     55  S   UNL     1       9.194   2.646  11.189  1.00  0.00     0.124 S 
ATOM     56  O   UNL     1       9.980   1.546  11.733  1.00  0.00    -0.237 OA
ATOM     57  O   UNL     1       9.774   3.349  10.049  1.00  0.00    -0.237 OA
ATOM     58  O   UNL     1       8.544   3.501  12.181  1.00  0.00    -0.744 OA
ENDBRANCH  51  55
ENDBRANCH  24  48
BRANCH  36  59
ATOM     59  C   UNL     1      10.769  -5.856  10.070  1.00  0.00     0.023 A 
ATOM     60  C   UNL     1      10.343  -6.076  11.389  1.00  0.00     0.031 A 
ATOM     61  C   UNL     1      12.138  -5.996   9.780  1.00  0.00     0.131 A 
ATOM     62  C   UNL     1      11.287  -6.356  12.385  1.00  0.00     0.055 A 
ATOM     63  C   UNL     1      13.062  -6.353  10.760  1.00  0.00     0.041 A 
ATOM     64  F   UNL     1      12.598  -5.792   8.534  1.00  0.00    -0.206 F 
ATOM     65  C   UNL     1      12.640  -6.519  12.076  1.00  0.00     0.022 A 
BRANCH  62  66
ATOM     66  S   UNL     1      10.733  -6.389  14.110  1.00  0.00     0.124 S 
ATOM     67  O   UNL     1      10.178  -5.049  14.273  1.00  0.00    -0.237 OA
ATOM     68  O   UNL     1       9.767  -7.482  14.106  1.00  0.00    -0.237 OA
ATOM     69  O   UNL     1      11.961  -6.649  14.858  1.00  0.00    -0.744 OA
ENDBRANCH  62  66
ENDBRANCH  36  59
ENDBRANCH  10  11
ENDBRANCH   3   5
ENDBRANCH   2   3
ENDBRANCH   1   2
BRANCH   1  70
ATOM     70  C   UNL     1       3.881   2.022   0.447  1.00  0.00     0.274 C 
BRANCH  70  71
ATOM     71  O   UNL     1       3.491   1.203   1.567  1.00  0.00    -0.462 OA
BRANCH  71  72
ATOM     72  C   UNL     1       2.152   1.198   1.845  1.00  0.00     0.312 C 
ATOM     73  O   UNL     1       1.323   1.683   1.081  1.00  0.00    -0.252 OA
BRANCH  72  74
ATOM     74  C   UNL     1       1.786   0.501   3.201  1.00  0.00     0.073 C 
ATOM     75  C   UNL     1       2.075  -0.999   3.033  1.00  0.00     0.019 C 
ATOM     76  C   UNL     1       2.738   0.989   4.318  1.00  0.00     0.019 C 
ATOM     77  C   UNL     1       1.982  -1.879   4.276  1.00  0.00     0.001 C 
ATOM     78  C   UNL     1       2.623   0.229   5.639  1.00  0.00     0.001 C 
ATOM     79  C   UNL     1       2.675  -1.294   5.500  1.00  0.00     0.000 C 
BRANCH  74  80
ATOM     80  C   UNL     1       0.249   0.733   3.412  1.00  0.00     0.035 C 
ATOM     81  C   UNL     1      -0.507  -0.055   4.502  1.00  0.00     0.007 C 
ATOM     82  C   UNL     1      -0.239   2.185   3.580  1.00  0.00     0.118 C 
ATOM     83  C   UNL     1      -1.567   0.875   5.074  1.00  0.00     0.003 C 
ATOM     84  C   UNL     1      -1.669   2.015   4.078  1.00  0.00     0.032 C 
BRANCH  82  85
ATOM     85  O   UNL     1       0.508   2.933   4.524  1.00  0.00    -0.393 OA
ATOM     86  H   UNL     1       0.465   2.496   5.389  1.00  0.00     0.210 HD
ENDBRANCH  82  85
ENDBRANCH  74  80
ENDBRANCH  72  74
ENDBRANCH  71  72
ENDBRANCH  70  71
ENDBRANCH   1  70
TORSDOF 16
