REMARK SMILES C/C=C(\C)[C@@H]1C(C)=C[C@@H]2[C@H]([C@@H]1/C=C/C=C/C(=O)OCCOC(=O)c1ccc(-c3c4nc(c(-c5cc(S(=O)(=O)[O-])ccc5F)c5ccc([nH]5)c(-c5cc(S(=O)(=O)[O-])ccc5F)c5nc(c(-c6cc(S(=O)(=O)[O-])ccc6F)c6ccc3[nH]6)C=C5)C=C4)cc1)[C@@H](C)CC[C@@H]2O
REMARK SMILES IDX 19 1 18 2 16 3 17 4 15 5 14 6 13 7 12 8 11 9 5 10 6 11 7 12
REMARK SMILES IDX 8 13 10 14 9 15 87 16 91 17 88 18 89 19 90 20 3 21 1 22 2 23
REMARK SMILES IDX 4 24 92 25 20 27 21 28 22 29 23 30 24 31 25 32 86 33 26 34
REMARK SMILES IDX 85 35 27 36 28 37 29 38 79 39 30 40 84 41 78 42 80 43 31 44
REMARK SMILES IDX 83 45 77 46 76 47 32 49 64 50 44 51 63 52 45 53 48 54 62 55
REMARK SMILES IDX 81 56 46 57 47 58 61 60 82 61 49 62 33 63 34 64 42 65 35 66
REMARK SMILES IDX 41 67 43 68 40 69 36 70 37 71 38 72 39 73 65 74 66 75 74 76
REMARK SMILES IDX 67 77 73 78 75 79 72 80 68 81 69 82 70 83 71 84 50 85 51 86
REMARK SMILES IDX 59 87 52 88 58 89 60 90 57 91 53 92 54 93 55 94 56 95
REMARK H PARENT 92 26 80 48 48 59
REMARK Flexibility Score: inf
ROOT
ATOM      1  C   UNL     1       3.470   2.009  -9.486  1.00  0.00     0.275 C 
ENDROOT
BRANCH   1   2
ATOM      2  O   UNL     1       2.758   1.573  -8.316  1.00  0.00    -0.459 OA
BRANCH   2   3
ATOM      3  C   UNL     1       3.342   1.864  -7.130  1.00  0.00     0.330 C 
ATOM      4  O   UNL     1       4.456   2.341  -6.973  1.00  0.00    -0.247 OA
BRANCH   3   5
ATOM      5  C   UNL     1       2.468   1.563  -5.980  1.00  0.00     0.093 C 
ATOM      6  C   UNL     1       1.204   1.122  -6.066  1.00  0.00     0.007 C 
BRANCH   6   7
ATOM      7  C   UNL     1       0.432   0.806  -4.887  1.00  0.00    -0.004 C 
ATOM      8  C   UNL     1      -0.677   0.050  -4.934  1.00  0.00    -0.022 C 
BRANCH   8   9
ATOM      9  C   UNL     1      -1.341  -0.514  -3.683  1.00  0.00     0.027 C 
ATOM     10  C   UNL     1      -0.673  -1.868  -3.177  1.00  0.00     0.047 C 
ATOM     11  C   UNL     1      -1.648  -3.004  -2.913  1.00  0.00    -0.069 C 
ATOM     12  C   UNL     1      -1.213  -4.068  -1.944  1.00  0.00     0.040 C 
ATOM     13  C   UNL     1      -2.846  -3.056  -3.521  1.00  0.00    -0.021 C 
ATOM     14  C   UNL     1      -2.892  -0.581  -3.889  1.00  0.00     0.009 C 
ATOM     15  C   UNL     1      -3.301  -1.963  -4.466  1.00  0.00     0.044 C 
ATOM     16  C   UNL     1      -3.732  -0.249  -2.608  1.00  0.00    -0.010 C 
ATOM     17  C   UNL     1      -4.816  -1.980  -4.761  1.00  0.00     0.121 C 
ATOM     18  C   UNL     1      -3.463   1.161  -2.067  1.00  0.00     0.008 C 
ATOM     19  C   UNL     1      -5.246  -0.368  -2.892  1.00  0.00     0.006 C 
ATOM     20  C   UNL     1      -5.646  -1.699  -3.516  1.00  0.00     0.033 C 
BRANCH  10  21
ATOM     21  C   UNL     1       0.523  -2.374  -4.021  1.00  0.00    -0.070 C 
ATOM     22  C   UNL     1       1.380  -3.265  -6.276  1.00  0.00     0.035 C 
ATOM     23  C   UNL     1       0.351  -2.866  -5.268  1.00  0.00    -0.031 C 
ATOM     24  C   UNL     1       1.865  -2.200  -3.359  1.00  0.00     0.040 C 
ENDBRANCH  10  21
BRANCH  17  25
ATOM     25  O   UNL     1      -5.223  -3.208  -5.365  1.00  0.00    -0.393 OA
ATOM     26  H   UNL     1      -5.068  -3.940  -4.748  1.00  0.00     0.210 HD
ENDBRANCH  17  25
ENDBRANCH   8   9
ENDBRANCH   6   7
ENDBRANCH   3   5
ENDBRANCH   2   3
ENDBRANCH   1   2
BRANCH   1  27
ATOM     27  C   UNL     1       2.879   3.309 -10.037  1.00  0.00     0.275 C 
BRANCH  27  28
ATOM     28  O   UNL     1       3.084   4.416  -9.139  1.00  0.00    -0.458 OA
BRANCH  28  29
ATOM     29  C   UNL     1       2.091   4.617  -8.237  1.00  0.00     0.338 C 
ATOM     30  O   UNL     1       1.052   3.986  -8.142  1.00  0.00    -0.246 OA
BRANCH  29  31
ATOM     31  C   UNL     1       2.495   5.659  -7.276  1.00  0.00     0.060 A 
ATOM     32  C   UNL     1       2.422   5.366  -5.910  1.00  0.00     0.016 A 
ATOM     33  C   UNL     1       2.877   6.931  -7.707  1.00  0.00     0.016 A 
ATOM     34  C   UNL     1       2.729   6.347  -4.968  1.00  0.00     0.010 A 
ATOM     35  C   UNL     1       3.180   7.916  -6.760  1.00  0.00     0.010 A 
ATOM     36  C   UNL     1       3.097   7.633  -5.385  1.00  0.00    -0.014 A 
BRANCH  36  37
ATOM     37  C   UNL     1       3.325   8.704  -4.383  1.00  0.00     0.031 A 
ATOM     38  C   UNL     1       2.276   9.761  -4.177  1.00  0.00     0.074 A 
ATOM     39  C   UNL     1       4.459   8.724  -3.659  1.00  0.00     0.049 A 
ATOM     40  N   UNL     1       2.308  10.827  -3.420  1.00  0.00    -0.248 NA
ATOM     41  C   UNL     1       1.025   9.592  -4.930  1.00  0.00     0.031 C 
ATOM     42  C   UNL     1       5.526   7.726  -3.740  1.00  0.00     0.029 A 
ATOM     43  N   UNL     1       4.906   9.618  -2.719  1.00  0.00    -0.354 N 
ATOM     44  C   UNL     1       1.087  11.465  -3.611  1.00  0.00     0.074 A 
ATOM     45  C   UNL     1       0.352  10.679  -4.581  1.00  0.00     0.031 C 
ATOM     46  C   UNL     1       6.506   8.066  -2.887  1.00  0.00     0.029 A 
ATOM     47  C   UNL     1       6.162   9.329  -2.238  1.00  0.00     0.049 A 
ATOM     48  H   UNL     1       4.379  10.393  -2.418  1.00  0.00     0.167 HD
ATOM     49  C   UNL     1       0.624  12.598  -3.026  1.00  0.00     0.034 A 
ATOM     50  C   UNL     1       6.956  10.021  -1.396  1.00  0.00     0.034 A 
ATOM     51  C   UNL     1       1.376  13.373  -2.068  1.00  0.00     0.049 A 
ATOM     52  C   UNL     1       6.454  11.324  -0.824  1.00  0.00     0.074 A 
ATOM     53  C   UNL     1       1.002  14.534  -1.412  1.00  0.00     0.029 A 
ATOM     54  N   UNL     1       2.662  13.073  -1.635  1.00  0.00    -0.354 N 
ATOM     55  N   UNL     1       5.303  11.925  -1.021  1.00  0.00    -0.248 NA
ATOM     56  C   UNL     1       7.358  12.042   0.085  1.00  0.00     0.031 C 
ATOM     57  C   UNL     1       2.082  14.969  -0.636  1.00  0.00     0.029 A 
ATOM     58  C   UNL     1       3.105  14.040  -0.745  1.00  0.00     0.049 A 
ATOM     59  H   UNL     1       3.182  12.287  -1.918  1.00  0.00     0.167 HD
ATOM     60  C   UNL     1       5.334  13.073  -0.234  1.00  0.00     0.074 A 
ATOM     61  C   UNL     1       6.613  13.077   0.445  1.00  0.00     0.031 C 
ATOM     62  C   UNL     1       4.387  14.035  -0.080  1.00  0.00     0.034 A 
BRANCH  49  63
ATOM     63  C   UNL     1      -0.737  13.091  -3.457  1.00  0.00     0.023 A 
ATOM     64  C   UNL     1      -1.907  12.351  -3.210  1.00  0.00     0.031 A 
ATOM     65  C   UNL     1      -0.862  14.306  -4.155  1.00  0.00     0.131 A 
ATOM     66  C   UNL     1      -3.137  12.796  -3.720  1.00  0.00     0.055 A 
ATOM     67  C   UNL     1      -2.100  14.781  -4.591  1.00  0.00     0.041 A 
ATOM     68  F   UNL     1       0.222  15.046  -4.439  1.00  0.00    -0.206 F 
ATOM     69  C   UNL     1      -3.245  14.018  -4.388  1.00  0.00     0.022 A 
BRANCH  66  70
ATOM     70  S   UNL     1      -4.569  11.686  -3.623  1.00  0.00     0.124 S 
ATOM     71  O   UNL     1      -4.084  10.513  -4.347  1.00  0.00    -0.237 OA
ATOM     72  O   UNL     1      -4.744  11.521  -2.184  1.00  0.00    -0.237 OA
ATOM     73  O   UNL     1      -5.628  12.432  -4.299  1.00  0.00    -0.744 OA
ENDBRANCH  66  70
ENDBRANCH  49  63
BRANCH  50  74
ATOM     74  C   UNL     1       8.326   9.528  -1.075  1.00  0.00     0.023 A 
ATOM     75  C   UNL     1       8.681   9.164   0.234  1.00  0.00     0.031 A 
ATOM     76  C   UNL     1       9.319   9.462  -2.070  1.00  0.00     0.131 A 
ATOM     77  C   UNL     1      10.003   8.790   0.521  1.00  0.00     0.055 A 
ATOM     78  C   UNL     1      10.619   9.038  -1.789  1.00  0.00     0.041 A 
ATOM     79  F   UNL     1       9.034   9.802  -3.337  1.00  0.00    -0.206 F 
ATOM     80  C   UNL     1      10.970   8.712  -0.483  1.00  0.00     0.022 A 
BRANCH  77  81
ATOM     81  S   UNL     1      10.465   8.488   2.249  1.00  0.00     0.124 S 
ATOM     82  O   UNL     1      10.133   9.764   2.873  1.00  0.00    -0.237 OA
ATOM     83  O   UNL     1       9.608   7.360   2.599  1.00  0.00    -0.237 OA
ATOM     84  O   UNL     1      11.892   8.184   2.172  1.00  0.00    -0.744 OA
ENDBRANCH  77  81
ENDBRANCH  50  74
BRANCH  62  85
ATOM     85  C   UNL     1       4.684  15.139   0.904  1.00  0.00     0.023 A 
ATOM     86  C   UNL     1       5.686  16.097   0.670  1.00  0.00     0.031 A 
ATOM     87  C   UNL     1       3.950  15.229   2.101  1.00  0.00     0.131 A 
ATOM     88  C   UNL     1       5.960  17.073   1.640  1.00  0.00     0.055 A 
ATOM     89  C   UNL     1       4.189  16.235   3.037  1.00  0.00     0.041 A 
ATOM     90  F   UNL     1       2.982  14.340   2.377  1.00  0.00    -0.206 F 
ATOM     91  C   UNL     1       5.208  17.158   2.815  1.00  0.00     0.022 A 
BRANCH  88  92
ATOM     92  S   UNL     1       7.369  18.187   1.386  1.00  0.00     0.124 S 
ATOM     93  O   UNL     1       8.484  17.251   1.290  1.00  0.00    -0.237 OA
ATOM     94  O   UNL     1       7.006  18.874   0.150  1.00  0.00    -0.237 OA
ATOM     95  O   UNL     1       7.365  19.026   2.583  1.00  0.00    -0.744 OA
ENDBRANCH  88  92
ENDBRANCH  62  85
ENDBRANCH  36  37
ENDBRANCH  29  31
ENDBRANCH  28  29
ENDBRANCH  27  28
ENDBRANCH   1  27
TORSDOF 18
