REMARK SMILES CC(C)[C@H](NS(=O)(=O)CCC(=O)OCCOC(=O)c1ccc(-c2c3nc(c(-c4cc(S(=O)(=O)[O-])ccc4F)c4ccc([nH]4)c(-c4cc(S(=O)(=O)[O-])ccc4F)c4nc(c(-c5cc(S(=O)(=O)[O-])ccc5F)c5ccc2[nH]5)C=C4)C=C3)cc1)c1ccccc1
REMARK SMILES IDX 14 1 13 2 11 3 12 4 10 5 9 6 6 7 7 8 8 9 5 10 4 12 2 13 1 14
REMARK SMILES IDX 3 15 82 16 83 17 87 18 84 19 86 20 85 21 15 22 16 23 17 24
REMARK SMILES IDX 18 25 19 26 20 27 81 28 21 29 80 30 22 31 23 32 24 33 74 34
REMARK SMILES IDX 25 35 79 36 73 37 75 38 26 39 78 40 72 41 71 42 27 44 59 45
REMARK SMILES IDX 39 46 58 47 40 48 43 49 57 50 76 51 41 52 42 53 56 55 77 56
REMARK SMILES IDX 44 57 28 58 29 59 37 60 30 61 36 62 38 63 35 64 31 65 32 66
REMARK SMILES IDX 33 67 34 68 60 69 61 70 69 71 62 72 68 73 70 74 67 75 63 76
REMARK SMILES IDX 64 77 65 78 66 79 45 80 46 81 54 82 47 83 53 84 55 85 52 86
REMARK SMILES IDX 48 87 49 88 50 89 51 90
REMARK H PARENT 5 11 75 43 43 54
REMARK Flexibility Score: inf
ROOT
ATOM      1  C   UNL     1      -3.433  -0.554  -0.730  1.00  0.00     0.274 C 
ENDROOT
BRANCH   1   2
ATOM      2  O   UNL     1      -2.457  -1.028   0.263  1.00  0.00    -0.462 OA
BRANCH   2   3
ATOM      3  C   UNL     1      -2.836  -1.542   1.457  1.00  0.00     0.306 C 
ATOM      4  O   UNL     1      -4.001  -1.857   1.678  1.00  0.00    -0.252 OA
BRANCH   3   5
ATOM      5  C   UNL     1      -1.741  -1.626   2.583  1.00  0.00     0.140 C 
BRANCH   5   6
ATOM      6  C   UNL     1      -0.193  -1.434   2.437  1.00  0.00     0.165 C 
BRANCH   6   7
ATOM      7  S   UNL     1       0.664  -0.086   3.462  1.00  0.00     0.212 S 
ATOM      8  O   UNL     1       2.028  -0.550   3.648  1.00  0.00    -0.212 OA
ATOM      9  O   UNL     1      -0.150   0.219   4.616  1.00  0.00    -0.212 OA
BRANCH   7  10
ATOM     10  N   UNL     1       0.929   1.369   2.671  1.00  0.00    -0.207 NA
ATOM     11  H   UNL     1       1.329   1.976   3.386  1.00  0.00     0.141 HD
BRANCH  10  12
ATOM     12  C   UNL     1      -0.034   2.232   1.955  1.00  0.00     0.102 C 
BRANCH  12  13
ATOM     13  C   UNL     1      -1.134   1.350   1.404  1.00  0.00     0.005 C 
ATOM     14  C   UNL     1      -2.584   1.846   1.427  1.00  0.00     0.009 C 
ATOM     15  C   UNL     1      -0.511   0.789   0.120  1.00  0.00     0.009 C 
ENDBRANCH  12  13
BRANCH  12  16
ATOM     16  C   UNL     1      -0.552   3.543   2.492  1.00  0.00    -0.030 A 
ATOM     17  C   UNL     1      -0.840   4.562   1.545  1.00  0.00     0.005 A 
ATOM     18  C   UNL     1      -1.011   3.694   3.797  1.00  0.00     0.005 A 
ATOM     19  C   UNL     1      -1.600   5.677   1.886  1.00  0.00     0.000 A 
ATOM     20  C   UNL     1      -1.780   4.813   4.134  1.00  0.00     0.000 A 
ATOM     21  C   UNL     1      -2.080   5.795   3.183  1.00  0.00     0.000 A 
ENDBRANCH  12  16
ENDBRANCH  10  12
ENDBRANCH   7  10
ENDBRANCH   6   7
ENDBRANCH   5   6
ENDBRANCH   3   5
ENDBRANCH   2   3
ENDBRANCH   1   2
BRANCH   1  22
ATOM     22  C   UNL     1      -2.789  -0.335  -2.121  1.00  0.00     0.275 C 
BRANCH  22  23
ATOM     23  O   UNL     1      -2.433  -1.595  -2.689  1.00  0.00    -0.458 OA
BRANCH  23  24
ATOM     24  C   UNL     1      -1.219  -2.063  -2.308  1.00  0.00     0.338 C 
ATOM     25  O   UNL     1      -0.216  -1.424  -2.031  1.00  0.00    -0.246 OA
BRANCH  24  26
ATOM     26  C   UNL     1      -1.479  -3.454  -1.934  1.00  0.00     0.060 A 
ATOM     27  C   UNL     1      -1.339  -3.801  -0.587  1.00  0.00     0.016 A 
ATOM     28  C   UNL     1      -2.055  -4.324  -2.857  1.00  0.00     0.016 A 
ATOM     29  C   UNL     1      -1.853  -5.005  -0.132  1.00  0.00     0.010 A 
ATOM     30  C   UNL     1      -2.538  -5.544  -2.408  1.00  0.00     0.010 A 
ATOM     31  C   UNL     1      -2.451  -5.878  -1.045  1.00  0.00    -0.014 A 
BRANCH  31  32
ATOM     32  C   UNL     1      -2.860  -7.223  -0.608  1.00  0.00     0.031 A 
ATOM     33  C   UNL     1      -1.943  -8.361  -0.927  1.00  0.00     0.074 A 
ATOM     34  C   UNL     1      -4.017  -7.406   0.052  1.00  0.00     0.049 A 
ATOM     35  N   UNL     1      -2.139  -9.643  -0.802  1.00  0.00    -0.248 NA
ATOM     36  C   UNL     1      -0.625  -7.996  -1.474  1.00  0.00     0.031 C 
ATOM     37  C   UNL     1      -4.933  -6.344   0.469  1.00  0.00     0.029 A 
ATOM     38  N   UNL     1      -4.623  -8.559   0.476  1.00  0.00    -0.354 N 
ATOM     39  C   UNL     1      -0.973 -10.243  -1.259  1.00  0.00     0.074 A 
ATOM     40  C   UNL     1      -0.091  -9.185  -1.700  1.00  0.00     0.031 C 
ATOM     41  C   UNL     1      -5.996  -6.900   1.076  1.00  0.00     0.029 A 
ATOM     42  C   UNL     1      -5.862  -8.354   1.036  1.00  0.00     0.049 A 
ATOM     43  H   UNL     1      -4.211  -9.449   0.388  1.00  0.00     0.167 HD
ATOM     44  C   UNL     1      -0.672 -11.561  -1.297  1.00  0.00     0.034 A 
ATOM     45  C   UNL     1      -6.791  -9.249   1.427  1.00  0.00     0.034 A 
ATOM     46  C   UNL     1      -1.585 -12.589  -0.868  1.00  0.00     0.049 A 
ATOM     47  C   UNL     1      -6.471 -10.719   1.273  1.00  0.00     0.074 A 
ATOM     48  C   UNL     1      -1.414 -13.960  -0.891  1.00  0.00     0.029 A 
ATOM     49  N   UNL     1      -2.849 -12.354  -0.337  1.00  0.00    -0.354 N 
ATOM     50  N   UNL     1      -5.379 -11.286   0.805  1.00  0.00    -0.248 NA
ATOM     51  C   UNL     1      -7.503 -11.668   1.704  1.00  0.00     0.031 C 
ATOM     52  C   UNL     1      -2.596 -14.555  -0.439  1.00  0.00     0.029 A 
ATOM     53  C   UNL     1      -3.476 -13.556  -0.051  1.00  0.00     0.049 A 
ATOM     54  H   UNL     1      -3.240 -11.464  -0.186  1.00  0.00     0.167 HD
ATOM     55  C   UNL     1      -5.587 -12.659   0.917  1.00  0.00     0.074 A 
ATOM     56  C   UNL     1      -6.891 -12.828   1.525  1.00  0.00     0.031 C 
ATOM     57  C   UNL     1      -4.783 -13.691   0.547  1.00  0.00     0.034 A 
BRANCH  44  58
ATOM     58  C   UNL     1       0.665 -11.947  -1.873  1.00  0.00     0.023 A 
ATOM     59  C   UNL     1       1.871 -11.571  -1.256  1.00  0.00     0.031 A 
ATOM     60  C   UNL     1       0.737 -12.667  -3.078  1.00  0.00     0.131 A 
ATOM     61  C   UNL     1       3.094 -11.865  -1.876  1.00  0.00     0.055 A 
ATOM     62  C   UNL     1       1.958 -13.026  -3.648  1.00  0.00     0.041 A 
ATOM     63  F   UNL     1      -0.382 -13.020  -3.731  1.00  0.00    -0.206 F 
ATOM     64  C   UNL     1       3.147 -12.615  -3.053  1.00  0.00     0.022 A 
BRANCH  61  65
ATOM     65  S   UNL     1       4.609 -11.138  -1.193  1.00  0.00     0.124 S 
ATOM     66  O   UNL     1       4.332  -9.709  -1.317  1.00  0.00    -0.237 OA
ATOM     67  O   UNL     1       4.631 -11.670   0.164  1.00  0.00    -0.237 OA
ATOM     68  O   UNL     1       5.659 -11.641  -2.078  1.00  0.00    -0.744 OA
ENDBRANCH  61  65
ENDBRANCH  44  58
BRANCH  45  69
ATOM     69  C   UNL     1      -8.126  -8.807   1.929  1.00  0.00     0.023 A 
ATOM     70  C   UNL     1      -8.583  -9.173   3.206  1.00  0.00     0.031 A 
ATOM     71  C   UNL     1      -9.008  -8.087   1.102  1.00  0.00     0.131 A 
ATOM     72  C   UNL     1      -9.902  -8.883   3.590  1.00  0.00     0.055 A 
ATOM     73  C   UNL     1     -10.296  -7.738   1.516  1.00  0.00     0.041 A 
ATOM     74  F   UNL     1      -8.634  -7.716  -0.134  1.00  0.00    -0.206 F 
ATOM     75  C   UNL     1     -10.756  -8.155   2.760  1.00  0.00     0.022 A 
BRANCH  72  76
ATOM     76  S   UNL     1     -10.531  -9.592   5.138  1.00  0.00     0.124 S 
ATOM     77  O   UNL     1     -10.287 -11.015   4.932  1.00  0.00    -0.237 OA
ATOM     78  O   UNL     1      -9.692  -8.934   6.134  1.00  0.00    -0.237 OA
ATOM     79  O   UNL     1     -11.937  -9.194   5.147  1.00  0.00    -0.744 OA
ENDBRANCH  72  76
ENDBRANCH  45  69
BRANCH  57  80
ATOM     80  C   UNL     1      -5.290 -15.084   0.841  1.00  0.00     0.023 A 
ATOM     81  C   UNL     1      -6.452 -15.589   0.233  1.00  0.00     0.031 A 
ATOM     82  C   UNL     1      -4.623 -15.900   1.772  1.00  0.00     0.131 A 
ATOM     83  C   UNL     1      -6.960 -16.835   0.627  1.00  0.00     0.055 A 
ATOM     84  C   UNL     1      -5.088 -17.174   2.098  1.00  0.00     0.041 A 
ATOM     85  F   UNL     1      -3.508 -15.470   2.385  1.00  0.00    -0.206 F 
ATOM     86  C   UNL     1      -6.275 -17.640   1.540  1.00  0.00     0.022 A 
BRANCH  83  87
ATOM     87  S   UNL     1      -8.602 -17.325   0.034  1.00  0.00     0.124 S 
ATOM     88  O   UNL     1      -9.429 -16.208   0.479  1.00  0.00    -0.237 OA
ATOM     89  O   UNL     1      -8.396 -17.430  -1.406  1.00  0.00    -0.237 OA
ATOM     90  O   UNL     1      -8.849 -18.592   0.719  1.00  0.00    -0.744 OA
ENDBRANCH  83  87
ENDBRANCH  57  80
ENDBRANCH  31  32
ENDBRANCH  24  26
ENDBRANCH  23  24
ENDBRANCH  22  23
ENDBRANCH   1  22
TORSDOF 20
