REMARK SMILES Cc1ccc(-c2c[nH]c(=O)cc2C(=O)OCCOC(=O)c2ccc(-c3c4nc(c(-c5cc(S(=O)(=O)[O-])ccc5F)c5ccc([nH]5)c(-c5cc(S(=O)(=O)[O-])ccc5F)c5nc(c(-c6cc(S(=O)(=O)[O-])ccc6F)c6ccc3[nH]6)C=C5)C=C4)cc2)cc1Cl
REMARK SMILES IDX 17 1 16 2 15 3 13 4 14 5 12 6 6 7 7 8 8 9 11 10 9 11 10 13
REMARK SMILES IDX 5 14 1 15 2 16 3 17 85 18 4 19 84 20 86 21 18 22 19 23 20 24
REMARK SMILES IDX 21 25 22 26 83 27 23 28 82 29 24 30 25 31 26 32 76 33 27 34
REMARK SMILES IDX 81 35 75 36 77 37 28 38 80 39 74 40 73 41 29 43 61 44 41 45
REMARK SMILES IDX 60 46 42 47 45 48 59 49 78 50 43 51 44 52 58 54 79 55 46 56
REMARK SMILES IDX 30 57 31 58 39 59 32 60 38 61 40 62 37 63 33 64 34 65 35 66
REMARK SMILES IDX 36 67 62 68 63 69 71 70 64 71 70 72 72 73 69 74 65 75 66 76
REMARK SMILES IDX 67 77 68 78 47 79 48 80 56 81 49 82 55 83 57 84 54 85 50 86
REMARK SMILES IDX 51 87 52 88 53 89
REMARK H PARENT 8 12 77 42 45 53
REMARK Flexibility Score: inf
ROOT
ATOM      1  C   UNL     1      -5.186  -0.283  -4.302  1.00  0.00     0.275 C 
ENDROOT
BRANCH   1   2
ATOM      2  C   UNL     1      -4.924  -1.785  -4.319  1.00  0.00     0.275 C 
BRANCH   2   3
ATOM      3  O   UNL     1      -4.968  -2.313  -2.975  1.00  0.00    -0.458 OA
BRANCH   3   4
ATOM      4  C   UNL     1      -3.787  -2.771  -2.482  1.00  0.00     0.339 C 
ATOM      5  O   UNL     1      -2.735  -2.836  -3.100  1.00  0.00    -0.246 OA
BRANCH   4   6
ATOM      6  C   UNL     1      -3.942  -3.272  -1.096  1.00  0.00     0.074 A 
ATOM      7  C   UNL     1      -3.185  -2.740   0.046  1.00  0.00     0.013 A 
ATOM      8  C   UNL     1      -3.194  -3.448   1.188  1.00  0.00     0.095 A 
ATOM      9  N   UNL     1      -3.923  -4.610   1.287  1.00  0.00    -0.328 N 
ATOM     10  C   UNL     1      -4.670  -4.396  -1.001  1.00  0.00     0.087 A 
ATOM     11  C   UNL     1      -4.683  -5.140   0.275  1.00  0.00     0.248 A 
ATOM     12  H   UNL     1      -3.898  -5.095   2.144  1.00  0.00     0.169 HD
ATOM     13  O   UNL     1      -5.308  -6.189   0.379  1.00  0.00    -0.270 OA
BRANCH   7  14
ATOM     14  C   UNL     1      -2.266  -1.595  -0.053  1.00  0.00    -0.015 A 
ATOM     15  C   UNL     1       0.943   2.135  -1.768  1.00  0.00     0.046 C 
ATOM     16  C   UNL     1      -0.064   1.085  -1.424  1.00  0.00    -0.032 A 
ATOM     17  C   UNL     1      -1.513   1.570  -0.489  1.00  0.00     0.005 A 
ATOM     18  C   UNL     1       0.243  -0.626  -1.628  1.00  0.00     0.044 A 
ATOM     19  C   UNL     1      -2.700   0.130   0.298  1.00  0.00     0.009 A 
ATOM     20  C   UNL     1      -0.797  -1.906  -0.988  1.00  0.00     0.029 A 
ATOM     21  Cl  UNL     1       1.700  -1.131  -2.410  1.00  0.00    -0.084 Cl
ENDBRANCH   7  14
ENDBRANCH   4   6
ENDBRANCH   3   4
ENDBRANCH   2   3
ENDBRANCH   1   2
BRANCH   1  22
ATOM     22  O   UNL     1      -4.138   0.358  -3.555  1.00  0.00    -0.458 OA
BRANCH  22  23
ATOM     23  C   UNL     1      -4.513   0.760  -2.324  1.00  0.00     0.338 C 
ATOM     24  O   UNL     1      -5.643   0.775  -1.863  1.00  0.00    -0.246 OA
BRANCH  23  25
ATOM     25  C   UNL     1      -3.351   1.097  -1.502  1.00  0.00     0.060 A 
ATOM     26  C   UNL     1      -1.937  -0.008  -1.430  1.00  0.00     0.016 A 
ATOM     27  C   UNL     1      -3.659   2.141  -0.127  1.00  0.00     0.016 A 
ATOM     28  C   UNL     1      -0.829  -0.022   0.264  1.00  0.00     0.010 A 
ATOM     29  C   UNL     1      -2.637   2.174   1.324  1.00  0.00     0.010 A 
ATOM     30  C   UNL     1      -1.216   1.142   1.588  1.00  0.00    -0.014 A 
BRANCH  30  31
ATOM     31  C   UNL     1      -0.225   1.478   2.708  1.00  0.00     0.031 A 
ATOM     32  C   UNL     1      -0.694   2.189   3.975  1.00  0.00     0.074 A 
ATOM     33  C   UNL     1       1.119   1.326   2.572  1.00  0.00     0.049 A 
ATOM     34  N   UNL     1      -0.011   2.899   4.846  1.00  0.00    -0.248 NA
ATOM     35  C   UNL     1      -2.131   2.147   4.265  1.00  0.00     0.031 C 
ATOM     36  C   UNL     1       1.823   0.698   1.463  1.00  0.00     0.029 A 
ATOM     37  N   UNL     1       2.170   1.734   3.378  1.00  0.00    -0.354 N 
ATOM     38  C   UNL     1      -0.948   3.450   5.722  1.00  0.00     0.074 A 
ATOM     39  C   UNL     1      -2.247   3.079   5.199  1.00  0.00     0.031 C 
ATOM     40  C   UNL     1       3.142   0.737   1.637  1.00  0.00     0.029 A 
ATOM     41  C   UNL     1       3.419   1.481   2.839  1.00  0.00     0.049 A 
ATOM     42  H   UNL     1       2.040   2.164   4.254  1.00  0.00     0.167 HD
ATOM     43  C   UNL     1      -0.760   4.140   6.881  1.00  0.00     0.034 A 
ATOM     44  C   UNL     1       4.673   1.812   3.196  1.00  0.00     0.034 A 
ATOM     45  C   UNL     1       0.538   4.388   7.471  1.00  0.00     0.049 A 
ATOM     46  C   UNL     1       4.876   2.549   4.473  1.00  0.00     0.074 A 
ATOM     47  C   UNL     1       0.837   4.962   8.697  1.00  0.00     0.029 A 
ATOM     48  N   UNL     1       1.756   4.047   6.895  1.00  0.00    -0.354 N 
ATOM     49  N   UNL     1       3.972   3.050   5.278  1.00  0.00    -0.248 NA
ATOM     50  C   UNL     1       6.261   2.720   4.917  1.00  0.00     0.031 C 
ATOM     51  C   UNL     1       2.229   5.006   8.843  1.00  0.00     0.029 A 
ATOM     52  C   UNL     1       2.803   4.403   7.736  1.00  0.00     0.049 A 
ATOM     53  H   UNL     1       1.862   3.615   6.016  1.00  0.00     0.167 HD
ATOM     54  C   UNL     1       4.679   3.550   6.360  1.00  0.00     0.074 A 
ATOM     55  C   UNL     1       6.082   3.287   6.100  1.00  0.00     0.031 C 
ATOM     56  C   UNL     1       4.200   4.156   7.474  1.00  0.00     0.034 A 
BRANCH  43  57
ATOM     57  C   UNL     1      -1.995   4.651   7.609  1.00  0.00     0.023 A 
ATOM     58  C   UNL     1      -3.019   3.782   8.027  1.00  0.00     0.031 A 
ATOM     59  C   UNL     1      -2.178   6.025   7.852  1.00  0.00     0.131 A 
ATOM     60  C   UNL     1      -4.226   4.298   8.524  1.00  0.00     0.055 A 
ATOM     61  C   UNL     1      -3.337   6.524   8.458  1.00  0.00     0.041 A 
ATOM     62  F   UNL     1      -1.243   6.917   7.488  1.00  0.00    -0.206 F 
ATOM     63  C   UNL     1      -4.383   5.661   8.771  1.00  0.00     0.022 A 
BRANCH  60  64
ATOM     64  S   UNL     1      -5.649   3.179   8.641  1.00  0.00     0.124 S 
ATOM     65  O   UNL     1      -5.787   2.737   7.254  1.00  0.00    -0.237 OA
ATOM     66  O   UNL     1      -5.183   2.171   9.587  1.00  0.00    -0.237 OA
ATOM     67  O   UNL     1      -6.726   4.041   9.123  1.00  0.00    -0.744 OA
ENDBRANCH  60  64
ENDBRANCH  43  57
BRANCH  44  68
ATOM     68  C   UNL     1       5.824   1.399   2.337  1.00  0.00     0.023 A 
ATOM     69  C   UNL     1       6.707   0.392   2.756  1.00  0.00     0.031 A 
ATOM     70  C   UNL     1       6.019   1.957   1.059  1.00  0.00     0.131 A 
ATOM     71  C   UNL     1       7.761  -0.009   1.920  1.00  0.00     0.055 A 
ATOM     72  C   UNL     1       7.040   1.521   0.211  1.00  0.00     0.041 A 
ATOM     73  F   UNL     1       5.183   2.900   0.595  1.00  0.00    -0.206 F 
ATOM     74  C   UNL     1       7.925   0.539   0.645  1.00  0.00     0.022 A 
BRANCH  71  75
ATOM     75  S   UNL     1       8.948  -1.226   2.547  1.00  0.00     0.124 S 
ATOM     76  O   UNL     1       9.389  -0.604   3.790  1.00  0.00    -0.237 OA
ATOM     77  O   UNL     1       8.115  -2.416   2.685  1.00  0.00    -0.237 OA
ATOM     78  O   UNL     1       9.957  -1.293   1.491  1.00  0.00    -0.744 OA
ENDBRANCH  71  75
ENDBRANCH  44  68
BRANCH  56  79
ATOM     79  C   UNL     1       5.220   4.514   8.520  1.00  0.00     0.023 A 
ATOM     80  C   UNL     1       6.216   5.474   8.273  1.00  0.00     0.031 A 
ATOM     81  C   UNL     1       5.250   3.822   9.742  1.00  0.00     0.131 A 
ATOM     82  C   UNL     1       7.253   5.653   9.199  1.00  0.00     0.055 A 
ATOM     83  C   UNL     1       6.242   4.061  10.694  1.00  0.00     0.041 A 
ATOM     84  F   UNL     1       4.328   2.886  10.021  1.00  0.00    -0.206 F 
ATOM     85  C   UNL     1       7.262   4.967  10.416  1.00  0.00     0.022 A 
BRANCH  82  86
ATOM     86  S   UNL     1       8.660   6.692   8.725  1.00  0.00     0.124 S 
ATOM     87  O   UNL     1       9.161   5.997   7.543  1.00  0.00    -0.237 OA
ATOM     88  O   UNL     1       8.027   7.984   8.484  1.00  0.00    -0.237 OA
ATOM     89  O   UNL     1       9.534   6.639   9.895  1.00  0.00    -0.744 OA
ENDBRANCH  82  86
ENDBRANCH  56  79
ENDBRANCH  30  31
ENDBRANCH  23  25
ENDBRANCH  22  23
ENDBRANCH   1  22
TORSDOF 15
