REMARK SMILES COc1cc([N+](=O)[O-])cc2c1=N[C@H](C(=O)OCCOC(=O)c1ccc(-c3c4nc(c(-c5cc(S(=O)(=O)[O-])ccc5F)c5ccc([nH]5)c(-c5cc(S(=O)(=O)[O-])ccc5F)c5nc(c(-c6cc(S(=O)(=O)[O-])ccc6F)c6ccc3[nH]6)C=C5)C=C4)cc1)C=2CC[NH3+]
REMARK SMILES IDX 17 1 16 2 14 3 15 4 13 5 3 6 4 7 11 8 5 9 10 10 12 11 9 12
REMARK SMILES IDX 85 13 2 14 1 15 6 16 7 17 8 18 86 19 87 20 88 21 18 25 19 26
REMARK SMILES IDX 20 27 21 28 22 29 23 30 84 31 24 32 83 33 25 34 26 35 27 36
REMARK SMILES IDX 77 37 28 38 82 39 76 40 78 41 29 42 81 43 75 44 74 45 30 47
REMARK SMILES IDX 62 48 42 49 61 50 43 51 46 52 60 53 79 54 44 55 45 56 59 58
REMARK SMILES IDX 80 59 47 60 31 61 32 62 40 63 33 64 39 65 41 66 38 67 34 68
REMARK SMILES IDX 35 69 36 70 37 71 63 72 64 73 72 74 65 75 71 76 73 77 70 78
REMARK SMILES IDX 66 79 67 80 68 81 69 82 48 83 49 84 57 85 50 86 56 87 58 88
REMARK SMILES IDX 55 89 51 90 52 91 53 92 54 93
REMARK H PARENT 88 22 88 23 88 24 78 46 46 57
REMARK Flexibility Score: inf
ROOT
ATOM      1  C   UNL     1      -4.177   1.944  -6.585  1.00  0.00     0.274 C 
ENDROOT
BRANCH   1   2
ATOM      2  O   UNL     1      -3.490   2.763  -5.610  1.00  0.00    -0.460 OA
BRANCH   2   3
ATOM      3  C   UNL     1      -3.103   2.132  -4.465  1.00  0.00     0.335 C 
ATOM      4  O   UNL     1      -3.351   0.951  -4.243  1.00  0.00    -0.249 OA
BRANCH   3   5
ATOM      5  C   UNL     1      -2.354   3.085  -3.478  1.00  0.00     0.243 C 
ATOM      6  C   UNL     1       0.524   1.512  -1.768  1.00  0.00     0.151 A 
ATOM      7  C   UNL     1       1.820   1.849  -1.943  1.00  0.00     0.134 A 
ATOM      8  C   UNL     1      -0.507   2.282  -2.545  1.00  0.00     0.109 A 
ATOM      9  C   UNL     1       2.245   2.927  -2.830  1.00  0.00     0.273 A 
ATOM     10  C   UNL     1      -0.017   3.278  -3.515  1.00  0.00     0.012 A 
ATOM     11  N   UNL     1      -1.795   2.196  -2.406  1.00  0.00    -0.261 NA
ATOM     12  C   UNL     1       1.375   3.613  -3.596  1.00  0.00     0.096 A 
ATOM     13  C   UNL     1      -1.141   3.835  -3.987  1.00  0.00    -0.019 C 
BRANCH   6  14
ATOM     14  O   UNL     1       0.036   0.510  -0.960  1.00  0.00    -0.494 OA
ATOM     15  C   UNL     1       0.894  -0.034   0.035  1.00  0.00     0.278 C 
ENDBRANCH   6  14
BRANCH   9  16
ATOM     16  N   UNL     1       3.653   3.351  -2.863  1.00  0.00     0.062 N 
ATOM     17  O   UNL     1       3.968   4.272  -3.630  1.00  0.00    -0.258 OA
ATOM     18  O   UNL     1       4.425   2.790  -2.077  1.00  0.00    -0.258 OA
ENDBRANCH   9  16
BRANCH  13  19
ATOM     19  C   UNL     1      -1.220   5.223  -4.577  1.00  0.00     0.096 C 
BRANCH  19  20
ATOM     20  C   UNL     1      -1.544   5.404  -6.062  1.00  0.00     0.263 C 
BRANCH  20  21
ATOM     21  N   UNL     1      -2.980   5.379  -6.334  1.00  0.00    -0.357 N 
ATOM     22  H   UNL     1      -3.362   4.474  -6.060  1.00  0.00     0.344 HD
ATOM     23  H   UNL     1      -3.140   5.529  -7.330  1.00  0.00     0.344 HD
ATOM     24  H   UNL     1      -3.439   6.117  -5.800  1.00  0.00     0.344 HD
ENDBRANCH  20  21
ENDBRANCH  19  20
ENDBRANCH  13  19
ENDBRANCH   3   5
ENDBRANCH   2   3
ENDBRANCH   1   2
BRANCH   1  25
ATOM     25  C   UNL     1      -3.256   1.613  -7.757  1.00  0.00     0.275 C 
BRANCH  25  26
ATOM     26  O   UNL     1      -2.225   0.708  -7.335  1.00  0.00    -0.458 OA
BRANCH  26  27
ATOM     27  C   UNL     1      -1.018   1.266  -7.098  1.00  0.00     0.338 C 
ATOM     28  O   UNL     1      -0.679   2.421  -7.270  1.00  0.00    -0.246 OA
BRANCH  27  29
ATOM     29  C   UNL     1      -0.138   0.247  -6.529  1.00  0.00     0.060 A 
ATOM     30  C   UNL     1       0.749  -0.444  -7.349  1.00  0.00     0.016 A 
ATOM     31  C   UNL     1      -0.176   0.018  -5.155  1.00  0.00     0.016 A 
ATOM     32  C   UNL     1       1.565  -1.421  -6.784  1.00  0.00     0.010 A 
ATOM     33  C   UNL     1       0.696  -0.895  -4.582  1.00  0.00     0.010 A 
ATOM     34  C   UNL     1       1.538  -1.658  -5.397  1.00  0.00    -0.014 A 
BRANCH  34  35
ATOM     35  C   UNL     1       2.346  -2.743  -4.796  1.00  0.00     0.031 A 
ATOM     36  C   UNL     1       1.661  -3.922  -4.163  1.00  0.00     0.074 A 
ATOM     37  C   UNL     1       3.687  -2.643  -4.796  1.00  0.00     0.049 A 
ATOM     38  N   UNL     1       2.192  -4.993  -3.635  1.00  0.00    -0.248 NA
ATOM     39  C   UNL     1       0.191  -3.883  -4.082  1.00  0.00     0.031 C 
ATOM     40  C   UNL     1       4.437  -1.500  -5.316  1.00  0.00     0.029 A 
ATOM     41  N   UNL     1       4.655  -3.507  -4.353  1.00  0.00    -0.354 N 
ATOM     42  C   UNL     1       1.125  -5.742  -3.148  1.00  0.00     0.074 A 
ATOM     43  C   UNL     1      -0.074  -4.973  -3.380  1.00  0.00     0.031 C 
ATOM     44  C   UNL     1       5.749  -1.752  -5.207  1.00  0.00     0.029 A 
ATOM     45  C   UNL     1       5.936  -3.061  -4.582  1.00  0.00     0.049 A 
ATOM     46  H   UNL     1       4.453  -4.364  -3.914  1.00  0.00     0.167 HD
ATOM     47  C   UNL     1       1.149  -6.973  -2.588  1.00  0.00     0.034 A 
ATOM     48  C   UNL     1       7.125  -3.649  -4.335  1.00  0.00     0.034 A 
ATOM     49  C   UNL     1       2.360  -7.728  -2.407  1.00  0.00     0.049 A 
ATOM     50  C   UNL     1       7.132  -5.042  -3.760  1.00  0.00     0.074 A 
ATOM     51  C   UNL     1       2.497  -9.023  -1.944  1.00  0.00     0.029 A 
ATOM     52  N   UNL     1       3.639  -7.259  -2.678  1.00  0.00    -0.354 N 
ATOM     53  N   UNL     1       6.110  -5.795  -3.421  1.00  0.00    -0.248 NA
ATOM     54  C   UNL     1       8.438  -5.677  -3.546  1.00  0.00     0.031 C 
ATOM     55  C   UNL     1       3.859  -9.309  -1.863  1.00  0.00     0.029 A 
ATOM     56  C   UNL     1       4.574  -8.227  -2.357  1.00  0.00     0.049 A 
ATOM     57  H   UNL     1       3.849  -6.369  -3.044  1.00  0.00     0.167 HD
ATOM     58  C   UNL     1       6.647  -6.999  -2.978  1.00  0.00     0.074 A 
ATOM     59  C   UNL     1       8.085  -6.880  -3.106  1.00  0.00     0.031 C 
ATOM     60  C   UNL     1       6.006  -8.100  -2.509  1.00  0.00     0.034 A 
BRANCH  47  61
ATOM     61  C   UNL     1      -0.154  -7.600  -2.152  1.00  0.00     0.023 A 
ATOM     62  C   UNL     1      -0.342  -7.963  -0.805  1.00  0.00     0.031 A 
ATOM     63  C   UNL     1      -1.163  -7.936  -3.074  1.00  0.00     0.131 A 
ATOM     64  C   UNL     1      -1.497  -8.656  -0.423  1.00  0.00     0.055 A 
ATOM     65  C   UNL     1      -2.335  -8.582  -2.679  1.00  0.00     0.041 A 
ATOM     66  F   UNL     1      -1.031  -7.625  -4.374  1.00  0.00    -0.206 F 
ATOM     67  C   UNL     1      -2.500  -8.956  -1.350  1.00  0.00     0.022 A 
BRANCH  64  68
ATOM     68  S   UNL     1      -1.713  -9.257   1.274  1.00  0.00     0.124 S 
ATOM     69  O   UNL     1      -2.921  -8.548   1.692  1.00  0.00    -0.237 OA
ATOM     70  O   UNL     1      -1.874 -10.694   1.071  1.00  0.00    -0.237 OA
ATOM     71  O   UNL     1      -0.487  -8.850   1.951  1.00  0.00    -0.744 OA
ENDBRANCH  64  68
ENDBRANCH  47  61
BRANCH  48  72
ATOM     72  C   UNL     1       8.369  -2.940  -4.754  1.00  0.00     0.023 A 
ATOM     73  C   UNL     1       8.717  -1.698  -4.191  1.00  0.00     0.031 A 
ATOM     74  C   UNL     1       9.123  -3.406  -5.844  1.00  0.00     0.131 A 
ATOM     75  C   UNL     1       9.730  -0.928  -4.778  1.00  0.00     0.055 A 
ATOM     76  C   UNL     1      10.179  -2.667  -6.380  1.00  0.00     0.041 A 
ATOM     77  F   UNL     1       8.817  -4.576  -6.425  1.00  0.00    -0.206 F 
ATOM     78  C   UNL     1      10.473  -1.410  -5.860  1.00  0.00     0.022 A 
BRANCH  75  79
ATOM     79  S   UNL     1      10.018   0.786  -4.255  1.00  0.00     0.124 S 
ATOM     80  O   UNL     1      11.448   0.781  -3.961  1.00  0.00    -0.237 OA
ATOM     81  O   UNL     1       9.622   1.526  -5.451  1.00  0.00    -0.237 OA
ATOM     82  O   UNL     1       9.140   0.943  -3.102  1.00  0.00    -0.744 OA
ENDBRANCH  75  79
ENDBRANCH  48  72
BRANCH  60  83
ATOM     83  C   UNL     1       6.821  -9.297  -2.087  1.00  0.00     0.023 A 
ATOM     84  C   UNL     1       6.643 -10.527  -2.750  1.00  0.00     0.031 A 
ATOM     85  C   UNL     1       7.589  -9.277  -0.911  1.00  0.00     0.131 A 
ATOM     86  C   UNL     1       7.165 -11.700  -2.193  1.00  0.00     0.055 A 
ATOM     87  C   UNL     1       8.155 -10.442  -0.390  1.00  0.00     0.041 A 
ATOM     88  F   UNL     1       7.776  -8.131  -0.237  1.00  0.00    -0.206 F 
ATOM     89  C   UNL     1       7.926 -11.663  -1.020  1.00  0.00     0.022 A 
BRANCH  86  90
ATOM     90  S   UNL     1       6.776 -13.323  -2.903  1.00  0.00     0.124 S 
ATOM     91  O   UNL     1       8.105 -13.849  -3.204  1.00  0.00    -0.237 OA
ATOM     92  O   UNL     1       6.080 -13.981  -1.800  1.00  0.00    -0.237 OA
ATOM     93  O   UNL     1       5.954 -13.012  -4.067  1.00  0.00    -0.744 OA
ENDBRANCH  86  90
ENDBRANCH  60  83
ENDBRANCH  34  35
ENDBRANCH  27  29
ENDBRANCH  26  27
ENDBRANCH  25  26
ENDBRANCH   1  25
TORSDOF 19
