REMARK SMILES Cc1ccc(S(=O)(=O)n2cc(C(=O)C(=O)N[C@H](Cc3c[nH]c4ccccc34)C(=O)NCC(=O)OCCOC(=O)c3ccc(-c4c5nc(c(-c6cc(S(=O)(=O)[O-])ccc6F)c6ccc([nH]6)c(-c6cc(S(=O)(=O)[O-])ccc6F)c6nc(c(-c7cc(S(=O)(=O)[O-])ccc7F)c7ccc4[nH]7)C=C6)C=C5)cc3)c3ccccc32)cc1
REMARK SMILES IDX 32 1 33 2 31 3 30 4 28 5 29 6 17 8 16 9 14 10 15 11 12 13
REMARK SMILES IDX 13 14 11 15 9 16 10 17 108 18 103 19 107 20 104 21 106 22
REMARK SMILES IDX 105 23 6 24 7 25 8 26 5 27 1 28 2 29 3 30 110 31 4 32 109 33
REMARK SMILES IDX 18 34 19 35 20 36 27 37 21 38 22 39 26 40 23 42 25 43 24 44
REMARK SMILES IDX 34 45 35 46 36 47 37 48 38 49 39 50 40 51 41 52 102 53 42 54
REMARK SMILES IDX 101 55 43 56 44 57 45 58 95 59 46 60 100 61 94 62 96 63
REMARK SMILES IDX 47 64 99 65 93 66 92 67 48 69 80 70 60 71 79 72 61 73 64 74
REMARK SMILES IDX 78 75 97 76 62 77 63 78 77 80 98 81 65 82 49 83 50 84 58 85
REMARK SMILES IDX 51 86 57 87 59 88 56 89 52 90 53 91 54 92 55 93 81 94 82 95
REMARK SMILES IDX 90 96 83 97 89 98 91 99 88 100 84 101 85 102 86 103 87 104
REMARK SMILES IDX 66 105 67 106 75 107 68 108 74 109 76 110 73 111 69 112
REMARK SMILES IDX 70 113 71 114 72 115
REMARK H PARENT 30 7 16 12 21 41 96 68 64 79
REMARK Flexibility Score: inf
ROOT
ATOM      1  C   UNL     1     -11.071   3.796  -4.491  1.00  0.00     0.325 C 
ATOM      2  O   UNL     1     -11.686   3.770  -5.545  1.00  0.00    -0.250 OA
ENDROOT
BRANCH   1   3
ATOM      3  C   UNL     1     -11.421   2.942  -3.193  1.00  0.00     0.238 C 
BRANCH   3   4
ATOM      4  N   UNL     1     -11.752   1.609  -2.699  1.00  0.00    -0.343 N 
ATOM      5  C   UNL     1     -11.877   1.200  -1.379  1.00  0.00     0.243 C 
ATOM      6  O   UNL     1     -12.634   0.234  -1.192  1.00  0.00    -0.273 OA
ATOM      7  H   UNL     1     -11.904   0.919  -3.383  1.00  0.00     0.164 HD
BRANCH   5   8
ATOM      8  C   UNL     1     -11.114   1.805  -0.092  1.00  0.00     0.176 C 
BRANCH   8   9
ATOM      9  N   UNL     1     -11.905   2.350   1.296  1.00  0.00    -0.337 N 
ATOM     10  C   UNL     1     -12.649   3.430   1.973  1.00  0.00     0.293 C 
ATOM     11  O   UNL     1     -12.695   3.252   3.198  1.00  0.00    -0.265 OA
ATOM     12  H   UNL     1     -11.842   1.615   1.948  1.00  0.00     0.164 HD
BRANCH  10  13
ATOM     13  C   UNL     1     -13.568   4.790   1.322  1.00  0.00     0.252 C 
ATOM     14  O   UNL     1     -14.786   4.638   1.224  1.00  0.00    -0.283 OA
BRANCH  13  15
ATOM     15  C   UNL     1     -12.897   6.341   0.932  1.00  0.00     0.054 A 
ATOM     16  N   UNL     1     -11.098   7.386   3.160  1.00  0.00    -0.240 N 
ATOM     17  C   UNL     1     -12.514   6.306   2.706  1.00  0.00     0.117 A 
ATOM     18  C   UNL     1     -10.052   7.591   1.489  1.00  0.00     0.065 A 
ATOM     19  C   UNL     1     -11.228   7.234   0.022  1.00  0.00     0.012 A 
ATOM     20  C   UNL     1      -8.783   8.144   1.042  1.00  0.00     0.028 A 
ATOM     21  C   UNL     1     -10.970   8.168  -1.076  1.00  0.00     0.011 A 
ATOM     22  C   UNL     1      -8.687   8.743  -0.262  1.00  0.00     0.002 A 
ATOM     23  C   UNL     1      -9.723   8.808  -1.225  1.00  0.00     0.001 A 
BRANCH  16  24
ATOM     24  S   UNL     1     -12.976   8.171   4.148  1.00  0.00     0.268 S 
ATOM     25  O   UNL     1     -12.787   7.448   5.407  1.00  0.00    -0.201 OA
ATOM     26  O   UNL     1     -14.066   7.691   3.311  1.00  0.00    -0.201 OA
BRANCH  24  27
ATOM     27  C   UNL     1     -14.196   9.770   4.836  1.00  0.00     0.088 A 
ATOM     28  C   UNL     1     -15.602  13.384   6.733  1.00  0.00     0.044 C 
ATOM     29  C   UNL     1     -15.579  12.039   6.072  1.00  0.00    -0.051 A 
ATOM     30  C   UNL     1     -15.410  12.027   4.728  1.00  0.00     0.005 A 
ATOM     31  C   UNL     1     -15.446  10.792   6.705  1.00  0.00     0.005 A 
ATOM     32  C   UNL     1     -14.799  10.893   4.160  1.00  0.00     0.022 A 
ATOM     33  C   UNL     1     -14.785   9.656   6.090  1.00  0.00     0.022 A 
ENDBRANCH  24  27
ENDBRANCH  16  24
ENDBRANCH  13  15
ENDBRANCH  10  13
ENDBRANCH   8   9
BRANCH   8  34
ATOM     34  C   UNL     1      -9.595   2.235  -0.246  1.00  0.00     0.072 C 
BRANCH  34  35
ATOM     35  C   UNL     1      -8.853   2.122  -1.540  1.00  0.00    -0.020 A 
ATOM     36  C   UNL     1      -8.251   3.158  -2.238  1.00  0.00     0.087 A 
ATOM     37  C   UNL     1      -8.560   0.939  -2.260  1.00  0.00     0.003 A 
ATOM     38  N   UNL     1      -7.852   2.681  -3.455  1.00  0.00    -0.361 N 
ATOM     39  C   UNL     1      -7.997   1.317  -3.479  1.00  0.00     0.046 A 
ATOM     40  C   UNL     1      -8.764  -0.420  -1.986  1.00  0.00     0.010 A 
ATOM     41  H   UNL     1      -7.513   3.231  -4.198  1.00  0.00     0.166 HD
ATOM     42  C   UNL     1      -7.677   0.395  -4.475  1.00  0.00     0.026 A 
ATOM     43  C   UNL     1      -8.406  -1.359  -2.950  1.00  0.00     0.001 A 
ATOM     44  C   UNL     1      -7.885  -0.955  -4.178  1.00  0.00     0.002 A 
ENDBRANCH  34  35
ENDBRANCH   8  34
ENDBRANCH   5   8
ENDBRANCH   3   4
ENDBRANCH   1   3
BRANCH   1  45
ATOM     45  O   UNL     1     -10.152   4.770  -4.185  1.00  0.00    -0.461 OA
BRANCH  45  46
ATOM     46  C   UNL     1     -10.150   6.152  -4.701  1.00  0.00     0.274 C 
BRANCH  46  47
ATOM     47  C   UNL     1     -11.492   6.904  -5.024  1.00  0.00     0.275 C 
BRANCH  47  48
ATOM     48  O   UNL     1     -12.504   7.122  -4.014  1.00  0.00    -0.458 OA
BRANCH  48  49
ATOM     49  C   UNL     1     -13.300   6.120  -3.599  1.00  0.00     0.338 C 
ATOM     50  O   UNL     1     -14.290   5.650  -4.127  1.00  0.00    -0.246 OA
BRANCH  49  51
ATOM     51  C   UNL     1     -12.704   5.611  -2.361  1.00  0.00     0.060 A 
ATOM     52  C   UNL     1     -13.336   4.735  -1.576  1.00  0.00     0.016 A 
ATOM     53  C   UNL     1     -11.322   5.754  -2.112  1.00  0.00     0.016 A 
ATOM     54  C   UNL     1     -12.499   4.245  -0.579  1.00  0.00     0.010 A 
ATOM     55  C   UNL     1     -10.526   5.247  -1.053  1.00  0.00     0.010 A 
ATOM     56  C   UNL     1     -11.265   4.859   0.015  1.00  0.00    -0.014 A 
BRANCH  56  57
ATOM     57  C   UNL     1     -11.102   6.080   1.464  1.00  0.00     0.031 A 
ATOM     58  C   UNL     1      -9.850   5.326   2.382  1.00  0.00     0.074 A 
ATOM     59  C   UNL     1     -11.886   7.889   1.564  1.00  0.00     0.049 A 
ATOM     60  N   UNL     1      -9.144   5.915   3.286  1.00  0.00    -0.248 NA
ATOM     61  C   UNL     1      -9.360   3.964   2.251  1.00  0.00     0.031 C 
ATOM     62  C   UNL     1     -10.908   9.441   1.754  1.00  0.00     0.029 A 
ATOM     63  N   UNL     1     -12.841   8.737   0.847  1.00  0.00    -0.354 N 
ATOM     64  C   UNL     1      -7.965   5.229   3.476  1.00  0.00     0.074 A 
ATOM     65  C   UNL     1      -8.175   3.959   2.871  1.00  0.00     0.031 C 
ATOM     66  C   UNL     1     -11.280  10.473   1.018  1.00  0.00     0.029 A 
ATOM     67  C   UNL     1     -12.619  10.144   0.955  1.00  0.00     0.049 A 
ATOM     68  H   UNL     1     -13.587   8.362   0.324  1.00  0.00     0.167 HD
ATOM     69  C   UNL     1      -6.933   5.893   4.052  1.00  0.00     0.034 A 
ATOM     70  C   UNL     1     -13.277  10.746   1.961  1.00  0.00     0.034 A 
ATOM     71  C   UNL     1      -7.364   7.242   4.417  1.00  0.00     0.049 A 
ATOM     72  C   UNL     1     -12.227  10.891   3.518  1.00  0.00     0.074 A 
ATOM     73  C   UNL     1      -7.036   8.488   3.932  1.00  0.00     0.029 A 
ATOM     74  N   UNL     1      -8.467   7.409   5.242  1.00  0.00    -0.354 N 
ATOM     75  N   UNL     1     -11.235  10.063   3.923  1.00  0.00    -0.248 NA
ATOM     76  C   UNL     1     -12.334  11.815   4.713  1.00  0.00     0.031 C 
ATOM     77  C   UNL     1      -8.055   9.380   4.346  1.00  0.00     0.029 A 
ATOM     78  C   UNL     1      -8.948   8.701   5.157  1.00  0.00     0.049 A 
ATOM     79  H   UNL     1      -8.854   6.704   5.810  1.00  0.00     0.167 HD
ATOM     80  C   UNL     1     -10.893  10.100   5.283  1.00  0.00     0.074 A 
ATOM     81  C   UNL     1     -11.721  11.172   5.746  1.00  0.00     0.031 C 
ATOM     82  C   UNL     1     -10.099   9.152   5.929  1.00  0.00     0.034 A 
BRANCH  69  83
ATOM     83  C   UNL     1      -5.484   5.495   4.174  1.00  0.00     0.023 A 
ATOM     84  C   UNL     1      -4.665   6.403   4.873  1.00  0.00     0.031 A 
ATOM     85  C   UNL     1      -4.817   4.386   3.623  1.00  0.00     0.131 A 
ATOM     86  C   UNL     1      -3.283   6.236   4.996  1.00  0.00     0.055 A 
ATOM     87  C   UNL     1      -3.430   4.190   3.780  1.00  0.00     0.041 A 
ATOM     88  F   UNL     1      -5.454   3.463   2.890  1.00  0.00    -0.206 F 
ATOM     89  C   UNL     1      -2.652   5.120   4.467  1.00  0.00     0.022 A 
BRANCH  86  90
ATOM     90  S   UNL     1      -2.365   7.543   5.845  1.00  0.00     0.124 S 
ATOM     91  O   UNL     1      -2.581   8.686   4.963  1.00  0.00    -0.237 OA
ATOM     92  O   UNL     1      -3.033   7.593   7.141  1.00  0.00    -0.237 OA
ATOM     93  O   UNL     1      -0.997   7.031   5.872  1.00  0.00    -0.744 OA
ENDBRANCH  86  90
ENDBRANCH  69  83
BRANCH  70  94
ATOM     94  C   UNL     1     -14.845  10.188   1.362  1.00  0.00     0.023 A 
ATOM     95  C   UNL     1     -15.037  10.546  -0.013  1.00  0.00     0.031 A 
ATOM     96  C   UNL     1     -15.511   8.951   1.641  1.00  0.00     0.131 A 
ATOM     97  C   UNL     1     -15.410   9.584  -1.010  1.00  0.00     0.055 A 
ATOM     98  C   UNL     1     -15.831   7.968   0.653  1.00  0.00     0.041 A 
ATOM     99  F   UNL     1     -16.057   8.724   2.848  1.00  0.00    -0.206 F 
ATOM    100  C   UNL     1     -15.699   8.260  -0.692  1.00  0.00     0.022 A 
BRANCH  97 101
ATOM    101  S   UNL     1     -15.320  10.058  -2.762  1.00  0.00     0.124 S 
ATOM    102  O   UNL     1     -16.438  10.989  -2.871  1.00  0.00    -0.237 OA
ATOM    103  O   UNL     1     -13.985  10.644  -2.852  1.00  0.00    -0.237 OA
ATOM    104  O   UNL     1     -15.483   8.799  -3.480  1.00  0.00    -0.744 OA
ENDBRANCH  97 101
ENDBRANCH  70  94
BRANCH  82 105
ATOM    105  C   UNL     1     -10.208   8.683   7.409  1.00  0.00     0.023 A 
ATOM    106  C   UNL     1     -11.420   8.748   8.109  1.00  0.00     0.031 A 
ATOM    107  C   UNL     1      -9.149   8.056   8.140  1.00  0.00     0.131 A 
ATOM    108  C   UNL     1     -11.499   8.413   9.483  1.00  0.00     0.055 A 
ATOM    109  C   UNL     1      -9.252   7.640   9.480  1.00  0.00     0.041 A 
ATOM    110  F   UNL     1      -7.949   7.811   7.595  1.00  0.00    -0.206 F 
ATOM    111  C   UNL     1     -10.421   7.869  10.178  1.00  0.00     0.022 A 
BRANCH 108 112
ATOM    112  S   UNL     1     -12.987   8.905  10.393  1.00  0.00     0.124 S 
ATOM    113  O   UNL     1     -13.085  10.322  10.049  1.00  0.00    -0.237 OA
ATOM    114  O   UNL     1     -14.015   8.040   9.826  1.00  0.00    -0.237 OA
ATOM    115  O   UNL     1     -12.647   8.637  11.790  1.00  0.00    -0.744 OA
ENDBRANCH 108 112
ENDBRANCH  82 105
ENDBRANCH  56  57
ENDBRANCH  49  51
ENDBRANCH  48  49
ENDBRANCH  47  48
ENDBRANCH  46  47
ENDBRANCH  45  46
ENDBRANCH   1  45
TORSDOF 23
