REMARK SMILES O=C(OCCOC(=O)[C@@]1([NH2+]C2CC2)CC[C@@H]([N@@H+]2CC[N@@H+]3CCC[C@@H]3C2)C1)c1ccc(-c2c3nc(c(-c4cc(S(=O)(=O)[O-])ccc4F)c4ccc([nH]4)c(-c4cc(S(=O)(=O)[O-])ccc4F)c4nc(c(-c5cc(S(=O)(=O)[O-])ccc5F)c5ccc2[nH]5)C=C4)C=C3)cc1
REMARK SMILES IDX 4 1 3 2 2 3 1 4 27 5 28 6 89 7 29 8 88 9 30 10 31 11 32 12
REMARK SMILES IDX 82 13 33 14 87 15 81 16 83 17 34 18 86 19 80 20 79 21 35 23
REMARK SMILES IDX 67 24 47 25 66 26 48 27 51 28 65 29 84 30 49 31 50 32 64 34
REMARK SMILES IDX 85 35 52 36 36 37 37 38 45 39 38 40 44 41 46 42 43 43 39 44
REMARK SMILES IDX 40 45 41 46 42 47 68 48 69 49 77 50 70 51 76 52 78 53 75 54
REMARK SMILES IDX 71 55 72 56 73 57 74 58 53 59 54 60 62 61 55 62 61 63 63 64
REMARK SMILES IDX 60 65 56 66 57 67 58 68 59 69 5 70 6 71 7 72 8 73 9 74 14 75
REMARK SMILES IDX 26 76 15 77 16 78 10 79 11 82 12 83 13 84 17 85 18 86 25 87
REMARK SMILES IDX 19 89 24 90 20 91 23 92 21 93 22 95
REMARK H PARENT 83 22 51 33 10 80 10 81 17 88 20 94
REMARK Flexibility Score: inf
ROOT
ATOM      1  C   UNL     1       4.282   0.457  -1.549  1.00  0.00     0.275 C 
ENDROOT
BRANCH   1   2
ATOM      2  O   UNL     1       3.322  -0.592  -1.351  1.00  0.00    -0.458 OA
BRANCH   2   3
ATOM      3  C   UNL     1       3.177  -1.457  -0.320  1.00  0.00     0.338 C 
ATOM      4  O   UNL     1       2.280  -2.297  -0.419  1.00  0.00    -0.246 OA
BRANCH   3   5
ATOM      5  C   UNL     1       3.945  -1.412   0.977  1.00  0.00     0.060 A 
ATOM      6  C   UNL     1       5.031  -0.590   1.297  1.00  0.00     0.016 A 
ATOM      7  C   UNL     1       3.432  -2.218   2.011  1.00  0.00     0.016 A 
ATOM      8  C   UNL     1       5.526  -0.497   2.606  1.00  0.00     0.010 A 
ATOM      9  C   UNL     1       3.888  -2.090   3.332  1.00  0.00     0.010 A 
ATOM     10  C   UNL     1       4.943  -1.222   3.643  1.00  0.00    -0.014 A 
BRANCH  10  11
ATOM     11  C   UNL     1       5.571  -1.233   4.993  1.00  0.00     0.031 A 
ATOM     12  C   UNL     1       6.207  -2.514   5.426  1.00  0.00     0.074 A 
ATOM     13  C   UNL     1       5.620  -0.145   5.789  1.00  0.00     0.049 A 
ATOM     14  N   UNL     1       6.768  -2.814   6.563  1.00  0.00    -0.248 NA
ATOM     15  C   UNL     1       6.169  -3.620   4.455  1.00  0.00     0.031 C 
ATOM     16  C   UNL     1       5.043   1.144   5.447  1.00  0.00     0.029 A 
ATOM     17  N   UNL     1       6.174   0.080   7.025  1.00  0.00    -0.354 N 
ATOM     18  C   UNL     1       7.139  -4.144   6.440  1.00  0.00     0.074 A 
ATOM     19  C   UNL     1       6.621  -4.624   5.181  1.00  0.00     0.031 C 
ATOM     20  C   UNL     1       5.284   2.039   6.419  1.00  0.00     0.029 A 
ATOM     21  C   UNL     1       6.019   1.375   7.486  1.00  0.00     0.049 A 
ATOM     22  H   UNL     1       6.641  -0.619   7.538  1.00  0.00     0.167 HD
ATOM     23  C   UNL     1       7.907  -4.881   7.274  1.00  0.00     0.034 A 
ATOM     24  C   UNL     1       6.430   1.952   8.635  1.00  0.00     0.034 A 
ATOM     25  C   UNL     1       8.423  -4.368   8.511  1.00  0.00     0.049 A 
ATOM     26  C   UNL     1       7.212   1.085   9.593  1.00  0.00     0.074 A 
ATOM     27  C   UNL     1       9.180  -5.016   9.466  1.00  0.00     0.029 A 
ATOM     28  N   UNL     1       8.229  -3.066   8.964  1.00  0.00    -0.354 N 
ATOM     29  N   UNL     1       7.561  -0.176   9.458  1.00  0.00    -0.248 NA
ATOM     30  C   UNL     1       7.668   1.707  10.840  1.00  0.00     0.031 C 
ATOM     31  C   UNL     1       9.398  -4.123  10.520  1.00  0.00     0.029 A 
ATOM     32  C   UNL     1       8.842  -2.895  10.191  1.00  0.00     0.049 A 
ATOM     33  H   UNL     1       7.728  -2.369   8.481  1.00  0.00     0.167 HD
ATOM     34  C   UNL     1       8.308  -0.487  10.588  1.00  0.00     0.074 A 
ATOM     35  C   UNL     1       8.376   0.726  11.380  1.00  0.00     0.031 C 
ATOM     36  C   UNL     1       8.887  -1.663  10.945  1.00  0.00     0.034 A 
BRANCH  23  37
ATOM     37  C   UNL     1       8.173  -6.299   6.843  1.00  0.00     0.023 A 
ATOM     38  C   UNL     1       8.844  -6.577   5.636  1.00  0.00     0.031 A 
ATOM     39  C   UNL     1       7.614  -7.372   7.552  1.00  0.00     0.131 A 
ATOM     40  C   UNL     1       8.823  -7.876   5.112  1.00  0.00     0.055 A 
ATOM     41  C   UNL     1       7.693  -8.682   7.075  1.00  0.00     0.041 A 
ATOM     42  F   UNL     1       6.934  -7.160   8.689  1.00  0.00    -0.206 F 
ATOM     43  C   UNL     1       8.277  -8.937   5.837  1.00  0.00     0.022 A 
BRANCH  40  44
ATOM     44  S   UNL     1       9.322  -8.115   3.383  1.00  0.00     0.124 S 
ATOM     45  O   UNL     1       8.320  -7.319   2.676  1.00  0.00    -0.237 OA
ATOM     46  O   UNL     1      10.681  -7.587   3.367  1.00  0.00    -0.237 OA
ATOM     47  O   UNL     1       9.210  -9.559   3.191  1.00  0.00    -0.744 OA
ENDBRANCH  40  44
ENDBRANCH  23  37
BRANCH  24  48
ATOM     48  C   UNL     1       6.122   3.383   8.965  1.00  0.00     0.023 A 
ATOM     49  C   UNL     1       7.142   4.321   9.210  1.00  0.00     0.031 A 
ATOM     50  C   UNL     1       4.793   3.822   9.122  1.00  0.00     0.131 A 
ATOM     51  C   UNL     1       6.823   5.620   9.651  1.00  0.00     0.055 A 
ATOM     52  C   UNL     1       4.479   5.129   9.506  1.00  0.00     0.041 A 
ATOM     53  F   UNL     1       3.770   2.980   8.906  1.00  0.00    -0.206 F 
ATOM     54  C   UNL     1       5.497   6.032   9.790  1.00  0.00     0.022 A 
BRANCH  51  55
ATOM     55  S   UNL     1       8.169   6.734  10.151  1.00  0.00     0.124 S 
ATOM     56  O   UNL     1       8.866   5.930  11.148  1.00  0.00    -0.237 OA
ATOM     57  O   UNL     1       8.870   6.944   8.889  1.00  0.00    -0.237 OA
ATOM     58  O   UNL     1       7.466   7.904  10.673  1.00  0.00    -0.744 OA
ENDBRANCH  51  55
ENDBRANCH  24  48
BRANCH  36  59
ATOM     59  C   UNL     1       9.683  -1.660  12.222  1.00  0.00     0.023 A 
ATOM     60  C   UNL     1       9.069  -1.480  13.471  1.00  0.00     0.031 A 
ATOM     61  C   UNL     1      11.077  -1.840  12.181  1.00  0.00     0.131 A 
ATOM     62  C   UNL     1       9.856  -1.419  14.627  1.00  0.00     0.055 A 
ATOM     63  C   UNL     1      11.846  -1.854  13.343  1.00  0.00     0.041 A 
ATOM     64  F   UNL     1      11.710  -2.013  11.010  1.00  0.00    -0.206 F 
ATOM     65  C   UNL     1      11.237  -1.628  14.575  1.00  0.00     0.022 A 
BRANCH  62  66
ATOM     66  S   UNL     1       9.062  -0.956  16.188  1.00  0.00     0.124 S 
ATOM     67  O   UNL     1       8.516   0.360  15.870  1.00  0.00    -0.237 OA
ATOM     68  O   UNL     1       8.085  -2.023  16.371  1.00  0.00    -0.237 OA
ATOM     69  O   UNL     1      10.166  -0.955  17.146  1.00  0.00    -0.744 OA
ENDBRANCH  62  66
ENDBRANCH  36  59
ENDBRANCH  10  11
ENDBRANCH   3   5
ENDBRANCH   2   3
ENDBRANCH   1   2
BRANCH   1  70
ATOM     70  C   UNL     1       3.849   1.782  -0.919  1.00  0.00     0.274 C 
BRANCH  70  71
ATOM     71  O   UNL     1       3.392   1.621   0.434  1.00  0.00    -0.457 OA
BRANCH  71  72
ATOM     72  C   UNL     1       2.100   1.964   0.717  1.00  0.00     0.368 C 
ATOM     73  O   UNL     1       1.287   2.323  -0.135  1.00  0.00    -0.245 OA
BRANCH  72  74
ATOM     74  C   UNL     1       1.763   1.820   2.219  1.00  0.00     0.200 C 
ATOM     75  C   UNL     1       0.426   2.458   2.618  1.00  0.00     0.087 C 
ATOM     76  C   UNL     1       1.467   0.341   2.514  1.00  0.00     0.146 C 
ATOM     77  C   UNL     1      -0.032   1.696   3.866  1.00  0.00     0.072 C 
ATOM     78  C   UNL     1       0.484   0.258   3.693  1.00  0.00     0.191 C 
BRANCH  74  79
ATOM     79  N   UNL     1       2.840   2.233   3.127  1.00  0.00    -0.329 N 
ATOM     80  H   UNL     1       3.384   1.389   3.307  1.00  0.00     0.347 HD
ATOM     81  H   UNL     1       2.298   2.686   3.863  1.00  0.00     0.347 HD
BRANCH  79  82
ATOM     82  C   UNL     1       3.813   3.268   2.839  1.00  0.00     0.183 C 
ATOM     83  C   UNL     1       3.672   4.422   1.902  1.00  0.00     0.071 C 
ATOM     84  C   UNL     1       3.513   4.641   3.375  1.00  0.00     0.071 C 
ENDBRANCH  79  82
ENDBRANCH  74  79
BRANCH  78  85
ATOM     85  N   UNL     1      -0.572  -0.760   3.582  1.00  0.00    -0.323 N 
ATOM     86  C   UNL     1      -0.093  -2.139   3.828  1.00  0.00     0.324 C 
ATOM     87  C   UNL     1      -1.401  -0.674   2.379  1.00  0.00     0.328 C 
ATOM     88  H   UNL     1      -1.200  -0.521   4.348  1.00  0.00     0.348 HD
ATOM     89  C   UNL     1      -0.668  -3.259   2.916  1.00  0.00     0.324 C 
ATOM     90  C   UNL     1      -2.515  -1.741   2.357  1.00  0.00     0.240 C 
ATOM     91  N   UNL     1      -2.096  -3.138   2.592  1.00  0.00    -0.323 N 
ATOM     92  C   UNL     1      -3.245  -1.741   1.014  1.00  0.00     0.077 C 
ATOM     93  C   UNL     1      -2.470  -3.938   1.421  1.00  0.00     0.263 C 
ATOM     94  H   UNL     1      -2.579  -3.493   3.417  1.00  0.00     0.348 HD
ATOM     95  C   UNL     1      -3.645  -3.189   0.819  1.00  0.00     0.068 C 
ENDBRANCH  78  85
ENDBRANCH  72  74
ENDBRANCH  71  72
ENDBRANCH  70  71
ENDBRANCH   1  70
TORSDOF 17
