REMARK SMILES C[C@@](NC(=O)CSCc1ccccc1)(C(=O)OCCOC(=O)c1ccc(-c2c3nc(c(-c4cc(S(=O)(=O)[O-])ccc4F)c4ccc([nH]4)c(-c4cc(S(=O)(=O)[O-])ccc4F)c4nc(c(-c5cc(S(=O)(=O)[O-])ccc5F)c5ccc2[nH]5)C=C4)C=C3)cc1)C1CC1
REMARK SMILES IDX 18 1 17 2 15 3 16 4 2 5 1 6 3 7 4 8 5 10 6 11 7 12 8 13 9 14
REMARK SMILES IDX 10 15 14 16 11 17 13 18 12 19 86 20 87 21 88 22 19 23 20 24
REMARK SMILES IDX 21 25 22 26 23 27 24 28 85 29 25 30 84 31 26 32 27 33 28 34
REMARK SMILES IDX 78 35 29 36 83 37 77 38 79 39 30 40 82 41 76 42 75 43 31 45
REMARK SMILES IDX 63 46 43 47 62 48 44 49 47 50 61 51 80 52 45 53 46 54 60 56
REMARK SMILES IDX 81 57 48 58 32 59 33 60 41 61 34 62 40 63 42 64 39 65 35 66
REMARK SMILES IDX 36 67 37 68 38 69 64 70 65 71 73 72 66 73 72 74 74 75 71 76
REMARK SMILES IDX 67 77 68 78 69 79 70 80 49 81 50 82 58 83 51 84 57 85 59 86
REMARK SMILES IDX 56 87 52 88 53 89 54 90 55 91
REMARK H PARENT 3 9 79 44 47 55
REMARK Flexibility Score: inf
ROOT
ATOM      1  C   UNL     1      -2.976   0.847  -0.949  1.00  0.00     0.274 C 
ENDROOT
BRANCH   1   2
ATOM      2  O   UNL     1      -1.538   0.833  -0.767  1.00  0.00    -0.460 OA
BRANCH   2   3
ATOM      3  C   UNL     1      -0.759   1.318  -1.785  1.00  0.00     0.331 C 
ATOM      4  O   UNL     1      -1.218   1.921  -2.751  1.00  0.00    -0.249 OA
BRANCH   3   5
ATOM      5  C   UNL     1       0.745   0.862  -1.658  1.00  0.00     0.138 C 
ATOM      6  C   UNL     1       1.015   0.093  -0.344  1.00  0.00     0.048 C 
BRANCH   5   7
ATOM      7  N   UNL     1       1.190   0.028  -2.812  1.00  0.00    -0.340 N 
ATOM      8  C   UNL     1       0.641  -0.990  -3.517  1.00  0.00     0.230 C 
ATOM      9  H   UNL     1       2.087   0.273  -3.134  1.00  0.00     0.164 HD
ATOM     10  O   UNL     1       1.384  -1.635  -4.264  1.00  0.00    -0.274 OA
BRANCH   8  11
ATOM     11  C   UNL     1      -0.839  -1.275  -3.486  1.00  0.00     0.169 C 
BRANCH  11  12
ATOM     12  S   UNL     1      -1.323  -2.107  -1.944  1.00  0.00    -0.147 SA
BRANCH  12  13
ATOM     13  C   UNL     1      -1.225  -3.823  -2.454  1.00  0.00     0.105 C 
BRANCH  13  14
ATOM     14  C   UNL     1      -2.256  -4.297  -3.450  1.00  0.00    -0.038 A 
ATOM     15  C   UNL     1      -3.276  -3.499  -3.995  1.00  0.00     0.004 A 
ATOM     16  C   UNL     1      -2.163  -5.631  -3.871  1.00  0.00     0.004 A 
ATOM     17  C   UNL     1      -4.126  -3.998  -4.982  1.00  0.00     0.000 A 
ATOM     18  C   UNL     1      -3.028  -6.137  -4.839  1.00  0.00     0.000 A 
ATOM     19  C   UNL     1      -3.998  -5.315  -5.407  1.00  0.00     0.000 A 
ENDBRANCH  13  14
ENDBRANCH  12  13
ENDBRANCH  11  12
ENDBRANCH   8  11
ENDBRANCH   5   7
BRANCH   5  20
ATOM     20  C   UNL     1       1.742   2.059  -1.679  1.00  0.00     0.026 C 
ATOM     21  C   UNL     1       2.246   2.593  -3.018  1.00  0.00     0.007 C 
ATOM     22  C   UNL     1       1.458   3.481  -2.120  1.00  0.00     0.007 C 
ENDBRANCH   5  20
ENDBRANCH   3   5
ENDBRANCH   2   3
ENDBRANCH   1   2
BRANCH   1  23
ATOM     23  C   UNL     1      -3.703   1.007   0.390  1.00  0.00     0.275 C 
BRANCH  23  24
ATOM     24  O   UNL     1      -3.501   2.341   0.872  1.00  0.00    -0.458 OA
BRANCH  24  25
ATOM     25  C   UNL     1      -2.361   2.494   1.581  1.00  0.00     0.338 C 
ATOM     26  O   UNL     1      -1.694   1.620   2.117  1.00  0.00    -0.246 OA
BRANCH  25  27
ATOM     27  C   UNL     1      -1.870   3.847   1.310  1.00  0.00     0.060 A 
ATOM     28  C   UNL     1      -0.662   3.941   0.622  1.00  0.00     0.016 A 
ATOM     29  C   UNL     1      -2.572   4.991   1.693  1.00  0.00     0.016 A 
ATOM     30  C   UNL     1      -0.145   5.186   0.307  1.00  0.00     0.010 A 
ATOM     31  C   UNL     1      -2.039   6.246   1.385  1.00  0.00     0.010 A 
ATOM     32  C   UNL     1      -0.821   6.343   0.691  1.00  0.00    -0.014 A 
BRANCH  32  33
ATOM     33  C   UNL     1      -0.116   7.631   0.530  1.00  0.00     0.031 A 
ATOM     34  C   UNL     1       0.586   8.192   1.728  1.00  0.00     0.074 A 
ATOM     35  C   UNL     1       0.013   8.208  -0.678  1.00  0.00     0.049 A 
ATOM     36  N   UNL     1       1.151   9.356   1.890  1.00  0.00    -0.248 NA
ATOM     37  C   UNL     1       0.668   7.306   2.900  1.00  0.00     0.031 C 
ATOM     38  C   UNL     1      -0.467   7.645  -1.941  1.00  0.00     0.029 A 
ATOM     39  N   UNL     1       0.601   9.393  -1.041  1.00  0.00    -0.354 N 
ATOM     40  C   UNL     1       1.626   9.359   3.197  1.00  0.00     0.074 A 
ATOM     41  C   UNL     1       1.281   8.081   3.779  1.00  0.00     0.031 C 
ATOM     42  C   UNL     1      -0.162   8.493  -2.938  1.00  0.00     0.029 A 
ATOM     43  C   UNL     1       0.456   9.690  -2.376  1.00  0.00     0.049 A 
ATOM     44  H   UNL     1       1.080   9.974  -0.407  1.00  0.00     0.167 HD
ATOM     45  C   UNL     1       2.276  10.353   3.846  1.00  0.00     0.034 A 
ATOM     46  C   UNL     1       0.736  10.828  -3.044  1.00  0.00     0.034 A 
ATOM     47  C   UNL     1       2.595  11.616   3.228  1.00  0.00     0.049 A 
ATOM     48  C   UNL     1       1.313  11.987  -2.263  1.00  0.00     0.074 A 
ATOM     49  C   UNL     1       3.192  12.728   3.792  1.00  0.00     0.029 A 
ATOM     50  N   UNL     1       2.335  11.934   1.899  1.00  0.00    -0.354 N 
ATOM     51  N   UNL     1       1.660  12.039  -0.995  1.00  0.00    -0.248 NA
ATOM     52  C   UNL     1       1.522  13.242  -2.994  1.00  0.00     0.031 C 
ATOM     53  C   UNL     1       3.220  13.742   2.828  1.00  0.00     0.029 A 
ATOM     54  C   UNL     1       2.726  13.236   1.635  1.00  0.00     0.049 A 
ATOM     55  H   UNL     1       1.931  11.322   1.242  1.00  0.00     0.167 HD
ATOM     56  C   UNL     1       2.152  13.325  -0.787  1.00  0.00     0.074 A 
ATOM     57  C   UNL     1       2.073  14.007  -2.063  1.00  0.00     0.031 C 
ATOM     58  C   UNL     1       2.628  13.894   0.352  1.00  0.00     0.034 A 
BRANCH  45  59
ATOM     59  C   UNL     1       2.564  10.141   5.310  1.00  0.00     0.023 A 
ATOM     60  C   UNL     1       3.427   9.129   5.767  1.00  0.00     0.031 A 
ATOM     61  C   UNL     1       1.895  10.919   6.271  1.00  0.00     0.131 A 
ATOM     62  C   UNL     1       3.532   8.871   7.143  1.00  0.00     0.055 A 
ATOM     63  C   UNL     1       2.072  10.715   7.640  1.00  0.00     0.041 A 
ATOM     64  F   UNL     1       1.031  11.876   5.895  1.00  0.00    -0.206 F 
ATOM     65  C   UNL     1       2.882   9.675   8.083  1.00  0.00     0.022 A 
BRANCH  62  66
ATOM     66  S   UNL     1       4.391   7.366   7.681  1.00  0.00     0.124 S 
ATOM     67  O   UNL     1       3.620   6.328   7.002  1.00  0.00    -0.237 OA
ATOM     68  O   UNL     1       5.746   7.582   7.186  1.00  0.00    -0.237 OA
ATOM     69  O   UNL     1       4.246   7.389   9.135  1.00  0.00    -0.744 OA
ENDBRANCH  62  66
ENDBRANCH  45  59
BRANCH  46  70
ATOM     70  C   UNL     1       0.383  10.977  -4.488  1.00  0.00     0.023 A 
ATOM     71  C   UNL     1       1.356  11.283  -5.453  1.00  0.00     0.031 A 
ATOM     72  C   UNL     1      -0.956  10.890  -4.915  1.00  0.00     0.131 A 
ATOM     73  C   UNL     1       0.972  11.534  -6.782  1.00  0.00     0.055 A 
ATOM     74  C   UNL     1      -1.325  11.077  -6.249  1.00  0.00     0.041 A 
ATOM     75  F   UNL     1      -1.935  10.621  -4.037  1.00  0.00    -0.206 F 
ATOM     76  C   UNL     1      -0.359  11.416  -7.189  1.00  0.00     0.022 A 
BRANCH  73  77
ATOM     77  S   UNL     1       2.225  12.126  -7.954  1.00  0.00     0.124 S 
ATOM     78  O   UNL     1       2.694  13.341  -7.297  1.00  0.00    -0.237 OA
ATOM     79  O   UNL     1       3.163  11.009  -7.984  1.00  0.00    -0.237 OA
ATOM     80  O   UNL     1       1.467  12.335  -9.186  1.00  0.00    -0.744 OA
ENDBRANCH  73  77
ENDBRANCH  46  70
BRANCH  58  81
ATOM     81  C   UNL     1       3.146  15.308   0.246  1.00  0.00     0.023 A 
ATOM     82  C   UNL     1       2.297  16.390  -0.041  1.00  0.00     0.031 A 
ATOM     83  C   UNL     1       4.514  15.573   0.440  1.00  0.00     0.131 A 
ATOM     84  C   UNL     1       2.833  17.678  -0.184  1.00  0.00     0.055 A 
ATOM     85  C   UNL     1       5.030  16.866   0.366  1.00  0.00     0.041 A 
ATOM     86  F   UNL     1       5.371  14.576   0.713  1.00  0.00    -0.206 F 
ATOM     87  C   UNL     1       4.190  17.927   0.039  1.00  0.00     0.022 A 
BRANCH  84  88
ATOM     88  S   UNL     1       1.751  19.012  -0.765  1.00  0.00     0.124 S 
ATOM     89  O   UNL     1       1.289  18.490  -2.047  1.00  0.00    -0.237 OA
ATOM     90  O   UNL     1       0.748  19.084   0.293  1.00  0.00    -0.237 OA
ATOM     91  O   UNL     1       2.644  20.166  -0.851  1.00  0.00    -0.744 OA
ENDBRANCH  84  88
ENDBRANCH  58  81
ENDBRANCH  32  33
ENDBRANCH  25  27
ENDBRANCH  24  25
ENDBRANCH  23  24
ENDBRANCH   1  23
TORSDOF 20
