REMARK SMILES Cc1cc2cc(-c3ccc([C@@H](C)C(=O)OCCOC(=O)c4ccc(-c5c6nc(c(-c7cc(S(=O)(=O)[O-])ccc7F)c7ccc([nH]7)c(-c7cc(S(=O)(=O)[O-])ccc7F)c7nc(c(-c8cc(S(=O)(=O)[O-])ccc8F)c8ccc5[nH]8)C=C7)C=C6)cc4)cc3)ccc2[nH]1
REMARK SMILES IDX 17 1 16 2 15 3 13 4 14 5 11 6 12 7 10 8 7 9 8 10 85 11 9 12
REMARK SMILES IDX 84 13 6 14 1 15 2 16 3 17 89 18 4 19 88 20 5 22 87 23 86 24
REMARK SMILES IDX 18 25 19 26 20 27 21 28 22 29 83 30 23 31 82 32 24 33 25 34
REMARK SMILES IDX 26 35 76 36 27 37 81 38 75 39 77 40 28 41 80 42 74 43 73 44
REMARK SMILES IDX 29 46 61 47 41 48 60 49 42 50 45 51 59 52 78 53 43 54 44 55
REMARK SMILES IDX 58 57 79 58 46 59 30 60 31 61 39 62 32 63 38 64 40 65 37 66
REMARK SMILES IDX 33 67 34 68 35 69 36 70 62 71 63 72 71 73 64 74 70 75 72 76
REMARK SMILES IDX 69 77 65 78 66 79 67 80 68 81 47 82 48 83 56 84 49 85 55 86
REMARK SMILES IDX 57 87 54 88 50 89 51 90 52 91 53 92
REMARK H PARENT 89 21 77 45 45 56
REMARK Flexibility Score: inf
ROOT
ATOM      1  C   UNL     1       8.791  -1.854  -3.753  1.00  0.00     0.275 C 
ENDROOT
BRANCH   1   2
ATOM      2  C   UNL     1       8.481  -3.346  -3.631  1.00  0.00     0.274 C 
BRANCH   2   3
ATOM      3  O   UNL     1       7.599  -3.604  -2.523  1.00  0.00    -0.462 OA
BRANCH   3   4
ATOM      4  C   UNL     1       8.165  -4.089  -1.386  1.00  0.00     0.313 C 
ATOM      5  O   UNL     1       9.348  -4.401  -1.288  1.00  0.00    -0.252 OA
BRANCH   4   6
ATOM      6  C   UNL     1       7.178  -4.282  -0.241  1.00  0.00     0.126 C 
ATOM      7  C   UNL     1       6.777  -5.755  -0.152  1.00  0.00     0.025 C 
BRANCH   6   8
ATOM      8  C   UNL     1       5.969  -3.359  -0.238  1.00  0.00    -0.034 A 
ATOM      9  C   UNL     1       3.683  -1.675  -0.145  1.00  0.00    -0.018 A 
ATOM     10  C   UNL     1       3.832  -2.646  -1.147  1.00  0.00     0.009 A 
ATOM     11  C   UNL     1       4.713  -1.537   0.793  1.00  0.00     0.009 A 
ATOM     12  C   UNL     1       4.952  -3.479  -1.192  1.00  0.00     0.005 A 
ATOM     13  C   UNL     1       5.837  -2.370   0.750  1.00  0.00     0.005 A 
BRANCH   9  14
ATOM     14  C   UNL     1       2.452  -0.872  -0.068  1.00  0.00    -0.018 A 
ATOM     15  C   UNL     1      -3.567   0.252   0.046  1.00  0.00     0.064 C 
ATOM     16  C   UNL     1      -2.102   0.036   0.034  1.00  0.00     0.013 A 
ATOM     17  C   UNL     1      -1.367  -1.131   0.000  1.00  0.00     0.031 A 
ATOM     18  N   UNL     1      -1.207   1.080   0.065  1.00  0.00    -0.359 N 
ATOM     19  C   UNL     1       0.009  -0.781  -0.011  1.00  0.00     0.000 A 
ATOM     20  C   UNL     1       0.086   0.608   0.029  1.00  0.00     0.046 A 
ATOM     21  H   UNL     1      -1.456   2.031   0.107  1.00  0.00     0.166 HD
ATOM     22  C   UNL     1       1.202  -1.523  -0.052  1.00  0.00     0.019 A 
ATOM     23  C   UNL     1       1.306   1.293   0.036  1.00  0.00     0.027 A 
ATOM     24  C   UNL     1       2.481   0.529  -0.015  1.00  0.00     0.011 A 
ENDBRANCH   9  14
ENDBRANCH   6   8
ENDBRANCH   4   6
ENDBRANCH   3   4
ENDBRANCH   2   3
ENDBRANCH   1   2
BRANCH   1  25
ATOM     25  O   UNL     1       9.601  -1.403  -2.653  1.00  0.00    -0.458 OA
BRANCH  25  26
ATOM     26  C   UNL     1       8.919  -0.795  -1.654  1.00  0.00     0.338 C 
ATOM     27  O   UNL     1       7.729  -0.541  -1.622  1.00  0.00    -0.246 OA
BRANCH  26  28
ATOM     28  C   UNL     1       9.820  -0.562  -0.517  1.00  0.00     0.060 A 
ATOM     29  C   UNL     1       9.623  -1.312   0.643  1.00  0.00     0.016 A 
ATOM     30  C   UNL     1      10.780   0.449  -0.556  1.00  0.00     0.016 A 
ATOM     31  C   UNL     1      10.367  -1.040   1.787  1.00  0.00     0.010 A 
ATOM     32  C   UNL     1      11.537   0.715   0.591  1.00  0.00     0.010 A 
ATOM     33  C   UNL     1      11.319  -0.013   1.774  1.00  0.00    -0.014 A 
BRANCH  33  34
ATOM     34  C   UNL     1      12.024   0.344   3.030  1.00  0.00     0.031 A 
ATOM     35  C   UNL     1      11.637   1.596   3.766  1.00  0.00     0.074 A 
ATOM     36  C   UNL     1      12.978  -0.468   3.521  1.00  0.00     0.049 A 
ATOM     37  N   UNL     1      12.163   2.123   4.841  1.00  0.00    -0.248 NA
ATOM     38  C   UNL     1      10.508   2.357   3.211  1.00  0.00     0.031 C 
ATOM     39  C   UNL     1      13.403  -1.731   2.916  1.00  0.00     0.029 A 
ATOM     40  N   UNL     1      13.761  -0.352   4.641  1.00  0.00    -0.354 N 
ATOM     41  C   UNL     1      11.442   3.288   5.084  1.00  0.00     0.074 A 
ATOM     42  C   UNL     1      10.460   3.400   4.026  1.00  0.00     0.031 C 
ATOM     43  C   UNL     1      14.370  -2.274   3.673  1.00  0.00     0.029 A 
ATOM     44  C   UNL     1      14.665  -1.379   4.789  1.00  0.00     0.049 A 
ATOM     45  H   UNL     1      13.684   0.394   5.278  1.00  0.00     0.167 HD
ATOM     46  C   UNL     1      11.587   4.177   6.099  1.00  0.00     0.034 A 
ATOM     47  C   UNL     1      15.636  -1.560   5.705  1.00  0.00     0.034 A 
ATOM     48  C   UNL     1      12.573   4.048   7.145  1.00  0.00     0.049 A 
ATOM     49  C   UNL     1      15.812  -0.533   6.793  1.00  0.00     0.074 A 
ATOM     50  C   UNL     1      12.812   4.890   8.217  1.00  0.00     0.029 A 
ATOM     51  N   UNL     1      13.491   3.009   7.248  1.00  0.00    -0.354 N 
ATOM     52  N   UNL     1      15.141   0.577   6.998  1.00  0.00    -0.248 NA
ATOM     53  C   UNL     1      16.874  -0.786   7.775  1.00  0.00     0.031 C 
ATOM     54  C   UNL     1      13.907   4.391   8.935  1.00  0.00     0.029 A 
ATOM     55  C   UNL     1      14.309   3.200   8.351  1.00  0.00     0.049 A 
ATOM     56  H   UNL     1      13.550   2.246   6.628  1.00  0.00     0.167 HD
ATOM     57  C   UNL     1      15.686   1.143   8.148  1.00  0.00     0.074 A 
ATOM     58  C   UNL     1      16.728   0.242   8.598  1.00  0.00     0.031 C 
ATOM     59  C   UNL     1      15.354   2.299   8.777  1.00  0.00     0.034 A 
BRANCH  46  60
ATOM     60  C   UNL     1      10.694   5.394   6.080  1.00  0.00     0.023 A 
ATOM     61  C   UNL     1       9.299   5.295   6.232  1.00  0.00     0.031 A 
ATOM     62  C   UNL     1      11.243   6.669   5.860  1.00  0.00     0.131 A 
ATOM     63  C   UNL     1       8.497   6.438   6.091  1.00  0.00     0.055 A 
ATOM     64  C   UNL     1      10.446   7.814   5.796  1.00  0.00     0.041 A 
ATOM     65  F   UNL     1      12.565   6.823   5.684  1.00  0.00    -0.206 F 
ATOM     66  C   UNL     1       9.063   7.700   5.897  1.00  0.00     0.022 A 
BRANCH  63  67
ATOM     67  S   UNL     1       6.695   6.234   6.024  1.00  0.00     0.124 S 
ATOM     68  O   UNL     1       6.541   5.343   4.876  1.00  0.00    -0.237 OA
ATOM     69  O   UNL     1       6.395   5.655   7.328  1.00  0.00    -0.237 OA
ATOM     70  O   UNL     1       6.203   7.595   5.817  1.00  0.00    -0.744 OA
ENDBRANCH  63  67
ENDBRANCH  46  60
BRANCH  47  71
ATOM     71  C   UNL     1      16.548  -2.735   5.611  1.00  0.00     0.023 A 
ATOM     72  C   UNL     1      16.559  -3.730   6.600  1.00  0.00     0.031 A 
ATOM     73  C   UNL     1      17.455  -2.855   4.543  1.00  0.00     0.131 A 
ATOM     74  C   UNL     1      17.485  -4.782   6.523  1.00  0.00     0.055 A 
ATOM     75  C   UNL     1      18.342  -3.928   4.445  1.00  0.00     0.041 A 
ATOM     76  F   UNL     1      17.484  -1.931   3.569  1.00  0.00    -0.206 F 
ATOM     77  C   UNL     1      18.368  -4.894   5.446  1.00  0.00     0.022 A 
BRANCH  74  78
ATOM     78  S   UNL     1      17.572  -5.967   7.893  1.00  0.00     0.124 S 
ATOM     79  O   UNL     1      17.868  -5.095   9.024  1.00  0.00    -0.237 OA
ATOM     80  O   UNL     1      16.238  -6.556   7.869  1.00  0.00    -0.237 OA
ATOM     81  O   UNL     1      18.655  -6.866   7.498  1.00  0.00    -0.744 OA
ENDBRANCH  74  78
ENDBRANCH  47  71
BRANCH  59  82
ATOM     82  C   UNL     1      16.107   2.622  10.044  1.00  0.00     0.023 A 
ATOM     83  C   UNL     1      17.474   2.951  10.029  1.00  0.00     0.031 A 
ATOM     84  C   UNL     1      15.451   2.570  11.287  1.00  0.00     0.131 A 
ATOM     85  C   UNL     1      18.155   3.158  11.238  1.00  0.00     0.055 A 
ATOM     86  C   UNL     1      16.122   2.831  12.482  1.00  0.00     0.041 A 
ATOM     87  F   UNL     1      14.147   2.260  11.358  1.00  0.00    -0.206 F 
ATOM     88  C   UNL     1      17.485   3.113  12.463  1.00  0.00     0.022 A 
BRANCH  85  89
ATOM     89  S   UNL     1      19.954   3.394  11.195  1.00  0.00     0.124 S 
ATOM     90  O   UNL     1      20.405   2.182  10.519  1.00  0.00    -0.237 OA
ATOM     91  O   UNL     1      20.088   4.634  10.438  1.00  0.00    -0.237 OA
ATOM     92  O   UNL     1      20.321   3.489  12.607  1.00  0.00    -0.744 OA
ENDBRANCH  85  89
ENDBRANCH  59  82
ENDBRANCH  33  34
ENDBRANCH  26  28
ENDBRANCH  25  26
ENDBRANCH   1  25
TORSDOF 16
