REMARK SMILES O=C(OCCOC(=O)C1CC[NH+]([C@@H]2CC(=O)N(c3ccc(Oc4ccccc4)cc3)C2=O)CC1)c1ccc(-c2c3nc(c(-c4cc(S(=O)(=O)[O-])ccc4F)c4ccc([nH]4)c(-c4cc(S(=O)(=O)[O-])ccc4F)c4nc(c(-c5cc(S(=O)(=O)[O-])ccc5F)c5ccc2[nH]5)C=C4)C=C3)cc1
REMARK SMILES IDX 5 1 4 2 3 3 2 4 1 5 35 6 36 7 97 8 37 9 96 10 38 11 39 12
REMARK SMILES IDX 40 13 90 14 41 15 95 16 89 17 91 18 42 19 94 20 88 21 87 22
REMARK SMILES IDX 43 24 75 25 55 26 74 27 56 28 59 29 73 30 92 31 57 32 58 33
REMARK SMILES IDX 72 35 93 36 60 37 44 38 45 39 53 40 46 41 52 42 54 43 51 44
REMARK SMILES IDX 47 45 48 46 49 47 50 48 76 49 77 50 85 51 78 52 84 53 86 54
REMARK SMILES IDX 83 55 79 56 80 57 81 58 82 59 61 60 62 61 70 62 63 63 69 64
REMARK SMILES IDX 71 65 68 66 64 67 65 68 66 69 67 70 6 71 7 72 8 73 9 74
REMARK SMILES IDX 10 75 34 76 11 77 33 78 12 79 13 81 14 82 31 83 15 84 17 85
REMARK SMILES IDX 32 86 16 87 18 88 19 89 30 90 20 91 29 92 21 93 22 94 23 95
REMARK SMILES IDX 24 96 28 97 25 98 27 99 26 100
REMARK H PARENT 91 23 59 34 12 80
REMARK Flexibility Score: inf
ROOT
ATOM      1  C   UNL     1       4.471   0.641  -1.831  1.00  0.00     0.274 C 
ENDROOT
BRANCH   1   2
ATOM      2  C   UNL     1       4.452  -0.827  -1.392  1.00  0.00     0.275 C 
BRANCH   2   3
ATOM      3  O   UNL     1       3.255  -1.222  -0.690  1.00  0.00    -0.458 OA
BRANCH   3   4
ATOM      4  C   UNL     1       2.954  -1.218   0.633  1.00  0.00     0.338 C 
ATOM      5  O   UNL     1       1.931  -1.799   0.996  1.00  0.00    -0.246 OA
BRANCH   4   6
ATOM      6  C   UNL     1       3.684  -0.399   1.658  1.00  0.00     0.060 A 
ATOM      7  C   UNL     1       4.998   0.061   1.550  1.00  0.00     0.016 A 
ATOM      8  C   UNL     1       2.936   0.016   2.784  1.00  0.00     0.016 A 
ATOM      9  C   UNL     1       5.521   0.981   2.461  1.00  0.00     0.010 A 
ATOM     10  C   UNL     1       3.457   0.940   3.706  1.00  0.00     0.010 A 
ATOM     11  C   UNL     1       4.760   1.426   3.543  1.00  0.00    -0.014 A 
BRANCH  11  12
ATOM     12  C   UNL     1       5.465   2.172   4.612  1.00  0.00     0.031 A 
ATOM     13  C   UNL     1       5.984   1.359   5.759  1.00  0.00     0.074 A 
ATOM     14  C   UNL     1       5.773   3.477   4.488  1.00  0.00     0.049 A 
ATOM     15  N   UNL     1       6.783   1.709   6.728  1.00  0.00    -0.248 NA
ATOM     16  C   UNL     1       5.566  -0.052   5.794  1.00  0.00     0.031 C 
ATOM     17  C   UNL     1       5.384   4.324   3.365  1.00  0.00     0.029 A 
ATOM     18  N   UNL     1       6.507   4.316   5.288  1.00  0.00    -0.354 N 
ATOM     19  C   UNL     1       6.983   0.554   7.473  1.00  0.00     0.074 A 
ATOM     20  C   UNL     1       6.175  -0.487   6.881  1.00  0.00     0.031 C 
ATOM     21  C   UNL     1       5.884   5.559   3.538  1.00  0.00     0.029 A 
ATOM     22  C   UNL     1       6.627   5.598   4.792  1.00  0.00     0.049 A 
ATOM     23  H   UNL     1       6.912   4.030   6.138  1.00  0.00     0.167 HD
ATOM     24  C   UNL     1       7.790   0.375   8.544  1.00  0.00     0.034 A 
ATOM     25  C   UNL     1       7.275   6.670   5.295  1.00  0.00     0.034 A 
ATOM     26  C   UNL     1       8.542   1.445   9.142  1.00  0.00     0.049 A 
ATOM     27  C   UNL     1       8.057   6.477   6.573  1.00  0.00     0.074 A 
ATOM     28  C   UNL     1       9.347   1.412  10.264  1.00  0.00     0.029 A 
ATOM     29  N   UNL     1       8.557   2.755   8.674  1.00  0.00    -0.354 N 
ATOM     30  N   UNL     1       8.246   5.376   7.266  1.00  0.00    -0.248 NA
ATOM     31  C   UNL     1       8.729   7.659   7.125  1.00  0.00     0.031 C 
ATOM     32  C   UNL     1       9.781   2.717  10.522  1.00  0.00     0.029 A 
ATOM     33  C   UNL     1       9.327   3.548   9.508  1.00  0.00     0.049 A 
ATOM     34  H   UNL     1       8.089   3.072   7.869  1.00  0.00     0.167 HD
ATOM     35  C   UNL     1       9.095   5.725   8.313  1.00  0.00     0.074 A 
ATOM     36  C   UNL     1       9.389   7.136   8.147  1.00  0.00     0.031 C 
ATOM     37  C   UNL     1       9.595   4.956   9.315  1.00  0.00     0.034 A 
BRANCH  24  38
ATOM     38  C   UNL     1       7.793  -1.002   9.156  1.00  0.00     0.023 A 
ATOM     39  C   UNL     1       8.234  -2.130   8.438  1.00  0.00     0.031 A 
ATOM     40  C   UNL     1       7.225  -1.208  10.424  1.00  0.00     0.131 A 
ATOM     41  C   UNL     1       8.006  -3.416   8.950  1.00  0.00     0.055 A 
ATOM     42  C   UNL     1       7.086  -2.486  10.968  1.00  0.00     0.041 A 
ATOM     43  F   UNL     1       6.752  -0.174  11.137  1.00  0.00    -0.206 F 
ATOM     44  C   UNL     1       7.459  -3.600  10.222  1.00  0.00     0.022 A 
BRANCH  41  45
ATOM     45  S   UNL     1       8.253  -4.842   7.854  1.00  0.00     0.124 S 
ATOM     46  O   UNL     1       7.321  -4.543   6.768  1.00  0.00    -0.237 OA
ATOM     47  O   UNL     1       9.669  -4.745   7.522  1.00  0.00    -0.237 OA
ATOM     48  O   UNL     1       7.882  -5.983   8.687  1.00  0.00    -0.744 OA
ENDBRANCH  41  45
ENDBRANCH  24  38
BRANCH  25  49
ATOM     49  C   UNL     1       7.216   8.006   4.623  1.00  0.00     0.023 A 
ATOM     50  C   UNL     1       8.377   8.659   4.173  1.00  0.00     0.031 A 
ATOM     51  C   UNL     1       5.994   8.692   4.491  1.00  0.00     0.131 A 
ATOM     52  C   UNL     1       8.300   9.967   3.664  1.00  0.00     0.055 A 
ATOM     53  C   UNL     1       5.915   9.972   3.935  1.00  0.00     0.041 A 
ATOM     54  F   UNL     1       4.850   8.126   4.907  1.00  0.00    -0.206 F 
ATOM     55  C   UNL     1       7.075  10.624   3.532  1.00  0.00     0.022 A 
BRANCH  52  56
ATOM     56  S   UNL     1       9.840  10.844   3.266  1.00  0.00     0.124 S 
ATOM     57  O   UNL     1      10.552  10.787   4.538  1.00  0.00    -0.237 OA
ATOM     58  O   UNL     1      10.384  10.024   2.189  1.00  0.00    -0.237 OA
ATOM     59  O   UNL     1       9.383  12.173   2.865  1.00  0.00    -0.744 OA
ENDBRANCH  52  56
ENDBRANCH  25  49
BRANCH  37  60
ATOM     60  C   UNL     1      10.552   5.621  10.272  1.00  0.00     0.023 A 
ATOM     61  C   UNL     1      10.144   6.660  11.126  1.00  0.00     0.031 A 
ATOM     62  C   UNL     1      11.896   5.210  10.322  1.00  0.00     0.131 A 
ATOM     63  C   UNL     1      11.087   7.298  11.943  1.00  0.00     0.055 A 
ATOM     64  C   UNL     1      12.811   5.797  11.193  1.00  0.00     0.041 A 
ATOM     65  F   UNL     1      12.339   4.223   9.525  1.00  0.00    -0.206 F 
ATOM     66  C   UNL     1      12.413   6.859  11.999  1.00  0.00     0.022 A 
BRANCH  63  67
ATOM     67  S   UNL     1      10.583   8.788  12.845  1.00  0.00     0.124 S 
ATOM     68  O   UNL     1      10.118   9.652  11.765  1.00  0.00    -0.237 OA
ATOM     69  O   UNL     1       9.552   8.275  13.742  1.00  0.00    -0.237 OA
ATOM     70  O   UNL     1      11.815   9.223  13.502  1.00  0.00    -0.744 OA
ENDBRANCH  63  67
ENDBRANCH  37  60
ENDBRANCH  11  12
ENDBRANCH   4   6
ENDBRANCH   3   4
ENDBRANCH   2   3
ENDBRANCH   1   2
BRANCH   1  71
ATOM     71  O   UNL     1       4.068   1.529  -0.781  1.00  0.00    -0.462 OA
BRANCH  71  72
ATOM     72  C   UNL     1       2.744   1.850  -0.762  1.00  0.00     0.309 C 
ATOM     73  O   UNL     1       1.952   1.576  -1.657  1.00  0.00    -0.252 OA
BRANCH  72  74
ATOM     74  C   UNL     1       2.384   2.542   0.543  1.00  0.00     0.110 C 
ATOM     75  C   UNL     1       0.888   2.529   0.821  1.00  0.00     0.077 C 
ATOM     76  C   UNL     1       2.908   3.954   0.630  1.00  0.00     0.077 C 
ATOM     77  C   UNL     1       0.141   3.439  -0.145  1.00  0.00     0.263 C 
ATOM     78  C   UNL     1       2.212   4.827  -0.381  1.00  0.00     0.263 C 
ATOM     79  N   UNL     1       0.746   4.765  -0.317  1.00  0.00    -0.324 N 
ATOM     80  H   UNL     1       0.543   5.247   0.559  1.00  0.00     0.348 HD
BRANCH  79  81
ATOM     81  C   UNL     1       0.115   5.478  -1.453  1.00  0.00     0.284 C 
ATOM     82  C   UNL     1       0.416   4.915  -2.842  1.00  0.00     0.176 C 
ATOM     83  C   UNL     1       0.631   6.903  -1.521  1.00  0.00     0.292 C 
ATOM     84  C   UNL     1       1.326   5.924  -3.469  1.00  0.00     0.240 C 
ATOM     85  N   UNL     1       1.435   7.007  -2.633  1.00  0.00    -0.245 N 
ATOM     86  O   UNL     1       0.351   7.776  -0.710  1.00  0.00    -0.267 OA
ATOM     87  O   UNL     1       1.862   5.736  -4.554  1.00  0.00    -0.274 OA
BRANCH  85  88
ATOM     88  C   UNL     1       2.232   8.138  -2.898  1.00  0.00     0.052 A 
ATOM     89  C   UNL     1       2.916   8.792  -1.862  1.00  0.00     0.031 A 
ATOM     90  C   UNL     1       2.340   8.629  -4.199  1.00  0.00     0.031 A 
ATOM     91  C   UNL     1       3.664   9.942  -2.122  1.00  0.00     0.049 A 
ATOM     92  C   UNL     1       3.057   9.794  -4.452  1.00  0.00     0.049 A 
ATOM     93  C   UNL     1       3.697  10.473  -3.410  1.00  0.00     0.127 A 
BRANCH  93  94
ATOM     94  O   UNL     1       4.390  11.657  -3.557  1.00  0.00    -0.457 OA
BRANCH  94  95
ATOM     95  C   UNL     1       4.195  12.348  -4.727  1.00  0.00     0.127 A 
ATOM     96  C   UNL     1       5.255  12.415  -5.628  1.00  0.00     0.047 A 
ATOM     97  C   UNL     1       2.967  12.949  -5.017  1.00  0.00     0.047 A 
ATOM     98  C   UNL     1       5.066  13.034  -6.861  1.00  0.00     0.004 A 
ATOM     99  C   UNL     1       2.780  13.559  -6.255  1.00  0.00     0.004 A 
ATOM    100  C   UNL     1       3.826  13.594  -7.179  1.00  0.00     0.000 A 
ENDBRANCH  94  95
ENDBRANCH  93  94
ENDBRANCH  85  88
ENDBRANCH  79  81
ENDBRANCH  72  74
ENDBRANCH  71  72
ENDBRANCH   1  71
TORSDOF 18
