REMARK SMILES Cc1ccc(C(=O)OCCOC(=O)c2ccc(-c3c4nc(c(-c5cc(S(=O)(=O)[O-])ccc5F)c5ccc([nH]5)c(-c5cc(S(=O)(=O)[O-])ccc5F)c5nc(c(-c6cc(S(=O)(=O)[O-])ccc6F)c6ccc3[nH]6)C=C5)C=C4)cc2)cc1NC(=O)c1nn(C)c(=O)c2ccccc12
REMARK SMILES IDX 10 1 9 2 8 3 6 4 7 5 5 6 1 7 2 8 3 9 78 10 4 11 77 12 79 13
REMARK SMILES IDX 80 14 81 16 82 17 83 18 93 19 84 20 88 21 92 22 85 23 86 24
REMARK SMILES IDX 89 25 91 26 87 27 90 28 11 29 12 30 13 31 14 32 15 33 76 34
REMARK SMILES IDX 16 35 75 36 17 37 18 38 19 39 69 40 20 41 74 42 68 43 70 44
REMARK SMILES IDX 21 45 73 46 67 47 66 48 22 50 54 51 34 52 53 53 35 54 38 55
REMARK SMILES IDX 52 56 71 57 36 58 37 59 51 61 72 62 39 63 23 64 24 65 32 66
REMARK SMILES IDX 25 67 31 68 33 69 30 70 26 71 27 72 28 73 29 74 55 75 56 76
REMARK SMILES IDX 64 77 57 78 63 79 65 80 62 81 58 82 59 83 60 84 61 85 40 86
REMARK SMILES IDX 41 87 49 88 42 89 48 90 50 91 47 92 43 93 44 94 45 95 46 96
REMARK H PARENT 79 15 70 49 38 60
REMARK Flexibility Score: inf
ROOT
ATOM      1  C   UNL     1      -5.856   0.058  -3.609  1.00  0.00     0.275 C 
ENDROOT
BRANCH   1   2
ATOM      2  C   UNL     1      -5.090   1.190  -2.915  1.00  0.00     0.275 C 
BRANCH   2   3
ATOM      3  O   UNL     1      -3.687   0.900  -2.760  1.00  0.00    -0.458 OA
BRANCH   3   4
ATOM      4  C   UNL     1      -3.221   1.310  -1.564  1.00  0.00     0.338 C 
ATOM      5  O   UNL     1      -3.877   1.923  -0.723  1.00  0.00    -0.246 OA
BRANCH   4   6
ATOM      6  C   UNL     1      -1.765   1.224  -1.370  1.00  0.00     0.062 A 
ATOM      7  C   UNL     1       2.003   1.440   0.688  1.00  0.00     0.046 C 
ATOM      8  C   UNL     1       0.687   1.442  -0.042  1.00  0.00    -0.027 A 
ATOM      9  C   UNL     1       0.292   0.231  -0.682  1.00  0.00     0.006 A 
ATOM     10  C   UNL     1      -0.192   2.542  -0.063  1.00  0.00     0.045 A 
ATOM     11  C   UNL     1      -0.955   0.104  -1.318  1.00  0.00     0.016 A 
ATOM     12  C   UNL     1      -1.317   2.424  -0.839  1.00  0.00     0.042 A 
BRANCH  10  13
ATOM     13  N   UNL     1      -0.097   3.647   0.819  1.00  0.00    -0.320 N 
ATOM     14  C   UNL     1      -0.963   4.726   1.059  1.00  0.00     0.276 C 
ATOM     15  H   UNL     1       0.725   3.660   1.361  1.00  0.00     0.170 HD
ATOM     16  O   UNL     1      -0.860   5.351   2.114  1.00  0.00    -0.267 OA
BRANCH  14  17
ATOM     17  C   UNL     1      -1.983   5.267   0.041  1.00  0.00     0.157 A 
ATOM     18  N   UNL     1      -1.603   5.359  -1.210  1.00  0.00    -0.164 NA
ATOM     19  C   UNL     1      -3.353   5.734   0.443  1.00  0.00     0.020 A 
ATOM     20  N   UNL     1      -2.557   5.857  -2.094  1.00  0.00    -0.232 N 
ATOM     21  C   UNL     1      -3.945   6.698  -0.381  1.00  0.00     0.051 A 
ATOM     22  C   UNL     1      -4.141   5.177   1.441  1.00  0.00     0.011 A 
ATOM     23  C   UNL     1      -3.337   4.846  -2.810  1.00  0.00     0.178 C 
ATOM     24  C   UNL     1      -3.303   6.957  -1.679  1.00  0.00     0.274 A 
ATOM     25  C   UNL     1      -5.249   7.165  -0.175  1.00  0.00     0.014 A 
ATOM     26  C   UNL     1      -5.473   5.588   1.623  1.00  0.00     0.001 A 
ATOM     27  O   UNL     1      -3.621   7.912  -2.388  1.00  0.00    -0.267 OA
ATOM     28  C   UNL     1      -6.019   6.597   0.832  1.00  0.00     0.001 A 
ENDBRANCH  14  17
ENDBRANCH  10  13
ENDBRANCH   4   6
ENDBRANCH   3   4
ENDBRANCH   2   3
ENDBRANCH   1   2
BRANCH   1  29
ATOM     29  O   UNL     1      -5.906  -1.211  -2.929  1.00  0.00    -0.458 OA
BRANCH  29  30
ATOM     30  C   UNL     1      -4.758  -1.680  -2.374  1.00  0.00     0.338 C 
ATOM     31  O   UNL     1      -3.748  -1.978  -2.993  1.00  0.00    -0.246 OA
BRANCH  30  32
ATOM     32  C   UNL     1      -4.787  -1.406  -0.909  1.00  0.00     0.060 A 
ATOM     33  C   UNL     1      -3.646  -1.644  -0.126  1.00  0.00     0.016 A 
ATOM     34  C   UNL     1      -5.839  -0.640  -0.401  1.00  0.00     0.016 A 
ATOM     35  C   UNL     1      -3.541  -1.080   1.148  1.00  0.00     0.010 A 
ATOM     36  C   UNL     1      -5.673   0.041   0.777  1.00  0.00     0.010 A 
ATOM     37  C   UNL     1      -4.561  -0.233   1.585  1.00  0.00    -0.014 A 
BRANCH  37  38
ATOM     38  C   UNL     1      -4.798   0.105   2.979  1.00  0.00     0.031 A 
ATOM     39  C   UNL     1      -4.104   1.184   3.708  1.00  0.00     0.074 A 
ATOM     40  C   UNL     1      -5.836  -0.600   3.489  1.00  0.00     0.049 A 
ATOM     41  N   UNL     1      -4.179   1.351   4.981  1.00  0.00    -0.248 NA
ATOM     42  C   UNL     1      -3.256   2.186   3.075  1.00  0.00     0.031 C 
ATOM     43  C   UNL     1      -6.579  -0.428   4.722  1.00  0.00     0.029 A 
ATOM     44  N   UNL     1      -6.383  -1.785   2.986  1.00  0.00    -0.354 N 
ATOM     45  C   UNL     1      -3.716   2.616   5.286  1.00  0.00     0.074 A 
ATOM     46  C   UNL     1      -3.060   3.055   4.083  1.00  0.00     0.031 C 
ATOM     47  C   UNL     1      -7.142  -1.614   5.035  1.00  0.00     0.029 A 
ATOM     48  C   UNL     1      -6.613  -2.592   4.087  1.00  0.00     0.049 A 
ATOM     49  H   UNL     1      -6.567  -2.001   2.043  1.00  0.00     0.167 HD
ATOM     50  C   UNL     1      -4.114   3.171   6.470  1.00  0.00     0.034 A 
ATOM     51  C   UNL     1      -5.760  -3.616   4.408  1.00  0.00     0.034 A 
ATOM     52  C   UNL     1      -4.774   2.156   7.292  1.00  0.00     0.049 A 
ATOM     53  C   UNL     1      -5.162  -3.390   5.784  1.00  0.00     0.074 A 
ATOM     54  C   UNL     1      -6.108   1.870   7.528  1.00  0.00     0.029 A 
ATOM     55  N   UNL     1      -4.047   1.043   7.701  1.00  0.00    -0.354 N 
ATOM     56  N   UNL     1      -4.868  -2.213   6.271  1.00  0.00    -0.248 NA
ATOM     57  C   UNL     1      -4.943  -4.471   6.737  1.00  0.00     0.031 C 
ATOM     58  C   UNL     1      -6.184   0.516   7.953  1.00  0.00     0.029 A 
ATOM     59  C   UNL     1      -4.899   0.002   8.008  1.00  0.00     0.049 A 
ATOM     60  H   UNL     1      -3.066   1.004   7.763  1.00  0.00     0.167 HD
ATOM     61  C   UNL     1      -4.564  -2.344   7.602  1.00  0.00     0.074 A 
ATOM     62  C   UNL     1      -4.586  -3.781   7.834  1.00  0.00     0.031 C 
ATOM     63  C   UNL     1      -4.371  -1.280   8.440  1.00  0.00     0.034 A 
BRANCH  50  64
ATOM     64  C   UNL     1      -4.221   4.655   6.780  1.00  0.00     0.023 A 
ATOM     65  C   UNL     1      -5.197   5.074   7.718  1.00  0.00     0.031 A 
ATOM     66  C   UNL     1      -3.500   5.698   6.173  1.00  0.00     0.131 A 
ATOM     67  C   UNL     1      -5.492   6.432   7.944  1.00  0.00     0.055 A 
ATOM     68  C   UNL     1      -3.796   7.057   6.389  1.00  0.00     0.041 A 
ATOM     69  F   UNL     1      -2.458   5.456   5.370  1.00  0.00    -0.206 F 
ATOM     70  C   UNL     1      -4.808   7.431   7.265  1.00  0.00     0.022 A 
BRANCH  67  71
ATOM     71  S   UNL     1      -6.812   6.859   9.115  1.00  0.00     0.124 S 
ATOM     72  O   UNL     1      -7.983   6.245   8.496  1.00  0.00    -0.237 OA
ATOM     73  O   UNL     1      -6.342   6.247  10.353  1.00  0.00    -0.237 OA
ATOM     74  O   UNL     1      -6.810   8.321   9.113  1.00  0.00    -0.744 OA
ENDBRANCH  67  71
ENDBRANCH  50  64
BRANCH  51  75
ATOM     75  C   UNL     1      -5.046  -4.289   3.268  1.00  0.00     0.023 A 
ATOM     76  C   UNL     1      -5.800  -4.679   2.138  1.00  0.00     0.031 A 
ATOM     77  C   UNL     1      -3.649  -4.348   3.146  1.00  0.00     0.131 A 
ATOM     78  C   UNL     1      -5.177  -4.968   0.913  1.00  0.00     0.055 A 
ATOM     79  C   UNL     1      -3.025  -4.699   1.935  1.00  0.00     0.041 A 
ATOM     80  F   UNL     1      -2.854  -3.991   4.164  1.00  0.00    -0.206 F 
ATOM     81  C   UNL     1      -3.788  -4.984   0.803  1.00  0.00     0.022 A 
BRANCH  78  82
ATOM     82  S   UNL     1      -6.214  -5.067  -0.578  1.00  0.00     0.124 S 
ATOM     83  O   UNL     1      -6.796  -6.398  -0.458  1.00  0.00    -0.237 OA
ATOM     84  O   UNL     1      -7.130  -3.945  -0.386  1.00  0.00    -0.237 OA
ATOM     85  O   UNL     1      -5.257  -4.891  -1.666  1.00  0.00    -0.744 OA
ENDBRANCH  78  82
ENDBRANCH  51  75
BRANCH  63  86
ATOM     86  C   UNL     1      -3.771  -1.374   9.819  1.00  0.00     0.023 A 
ATOM     87  C   UNL     1      -2.989  -2.462  10.218  1.00  0.00     0.031 A 
ATOM     88  C   UNL     1      -3.878  -0.313  10.751  1.00  0.00     0.131 A 
ATOM     89  C   UNL     1      -2.460  -2.534  11.513  1.00  0.00     0.055 A 
ATOM     90  C   UNL     1      -3.259  -0.339  12.001  1.00  0.00     0.041 A 
ATOM     91  F   UNL     1      -4.577   0.801  10.484  1.00  0.00    -0.206 F 
ATOM     92  C   UNL     1      -2.563  -1.468  12.401  1.00  0.00     0.022 A 
BRANCH  89  93
ATOM     93  S   UNL     1      -1.728  -4.104  12.030  1.00  0.00     0.124 S 
ATOM     94  O   UNL     1      -2.861  -5.017  11.899  1.00  0.00    -0.237 OA
ATOM     95  O   UNL     1      -0.655  -4.286  11.057  1.00  0.00    -0.237 OA
ATOM     96  O   UNL     1      -1.293  -3.846  13.400  1.00  0.00    -0.744 OA
ENDBRANCH  89  93
ENDBRANCH  63  86
ENDBRANCH  37  38
ENDBRANCH  30  32
ENDBRANCH  29  30
ENDBRANCH   1  29
TORSDOF 16
