REMARK SMILES NS(=O)(=O)c1ccc(-n2nc(C(=O)OCCOC(=O)c3ccc(-c4c5nc(c(-c6cc(S(=O)(=O)[O-])ccc6F)c6ccc([nH]6)c(-c6cc(S(=O)(=O)[O-])ccc6F)c6nc(c(-c7cc(S(=O)(=O)[O-])ccc7F)c7ccc4[nH]7)C=C6)C=C5)cc3)cc2-c2cc3ccccc3s2)cc1
REMARK SMILES IDX 15 1 14 2 12 3 13 4 11 5 9 6 10 7 84 8 83 9 8 10 5 11 6 12
REMARK SMILES IDX 95 13 7 14 94 15 2 16 3 17 4 18 1 19 85 22 86 23 93 24 87 25
REMARK SMILES IDX 92 26 88 27 91 28 89 29 90 30 16 31 17 32 18 33 19 34 20 35
REMARK SMILES IDX 21 36 82 37 22 38 81 39 23 40 24 41 25 42 75 43 26 44 80 45
REMARK SMILES IDX 74 46 76 47 27 48 79 49 73 50 72 51 28 53 60 54 40 55 59 56
REMARK SMILES IDX 41 57 44 58 58 59 77 60 42 61 43 62 57 64 78 65 45 66 29 67
REMARK SMILES IDX 30 68 38 69 31 70 37 71 39 72 36 73 32 74 33 75 34 76 35 77
REMARK SMILES IDX 61 78 62 79 70 80 63 81 69 82 71 83 68 84 64 85 65 86 66 87
REMARK SMILES IDX 67 88 46 89 47 90 55 91 48 92 54 93 56 94 53 95 49 96 50 97
REMARK SMILES IDX 51 98 52 99
REMARK H PARENT 1 20 1 21 76 52 44 63
REMARK Flexibility Score: inf
ROOT
ATOM      1  C   UNL     1       4.928  -6.800  -9.401  1.00  0.00     0.275 C 
ENDROOT
BRANCH   1   2
ATOM      2  O   UNL     1       3.932  -6.386  -8.450  1.00  0.00    -0.457 OA
BRANCH   2   3
ATOM      3  C   UNL     1       4.354  -6.081  -7.174  1.00  0.00     0.358 C 
ATOM      4  O   UNL     1       5.438  -6.424  -6.714  1.00  0.00    -0.244 OA
BRANCH   3   5
ATOM      5  C   UNL     1       3.337  -5.296  -6.453  1.00  0.00     0.171 A 
ATOM      6  N   UNL     1       2.125  -4.555  -4.866  1.00  0.00    -0.231 N 
ATOM      7  N   UNL     1       3.409  -4.896  -5.165  1.00  0.00    -0.160 NA
ATOM      8  C   UNL     1       1.274  -4.840  -5.906  1.00  0.00     0.085 A 
ATOM      9  C   UNL     1       2.100  -4.900  -7.010  1.00  0.00     0.068 A 
BRANCH   6  10
ATOM     10  C   UNL     1       1.797  -3.897  -3.670  1.00  0.00     0.065 A 
ATOM     11  C   UNL     1       1.046  -2.512  -1.391  1.00  0.00     0.082 A 
ATOM     12  C   UNL     1       0.634  -3.841  -1.568  1.00  0.00     0.024 A 
ATOM     13  C   UNL     1       1.833  -1.871  -2.353  1.00  0.00     0.024 A 
ATOM     14  C   UNL     1       0.994  -4.534  -2.723  1.00  0.00     0.030 A 
ATOM     15  C   UNL     1       2.230  -2.575  -3.492  1.00  0.00     0.030 A 
BRANCH  11  16
ATOM     16  S   UNL     1       0.550  -1.694   0.096  1.00  0.00     0.238 S 
ATOM     17  O   UNL     1       1.194  -2.359   1.211  1.00  0.00    -0.207 OA
ATOM     18  O   UNL     1      -0.874  -1.483   0.043  1.00  0.00    -0.207 OA
BRANCH  16  19
ATOM     19  N   UNL     1       1.245  -0.172   0.015  1.00  0.00    -0.225 NA
ATOM     20  H   UNL     1       0.998   0.360   0.849  1.00  0.00     0.137 HD
ATOM     21  H   UNL     1       0.901   0.316  -0.813  1.00  0.00     0.137 HD
ENDBRANCH  16  19
ENDBRANCH  11  16
ENDBRANCH   6  10
BRANCH   8  22
ATOM     22  C   UNL     1      -0.088  -5.312  -5.887  1.00  0.00     0.054 A 
ATOM     23  C   UNL     1      -1.125  -4.857  -6.697  1.00  0.00     0.031 A 
ATOM     24  S   UNL     1      -0.249  -7.064  -5.972  1.00  0.00    -0.134 S 
ATOM     25  C   UNL     1      -1.043  -5.638  -7.928  1.00  0.00    -0.007 A 
ATOM     26  C   UNL     1      -0.372  -6.851  -7.698  1.00  0.00     0.035 A 
ATOM     27  C   UNL     1      -1.347  -5.288  -9.261  1.00  0.00     0.009 A 
ATOM     28  C   UNL     1       0.130  -7.645  -8.740  1.00  0.00     0.019 A 
ATOM     29  C   UNL     1      -0.815  -6.052 -10.307  1.00  0.00     0.001 A 
ATOM     30  C   UNL     1      -0.054  -7.189 -10.047  1.00  0.00     0.001 A 
ENDBRANCH   8  22
ENDBRANCH   3   5
ENDBRANCH   2   3
ENDBRANCH   1   2
BRANCH   1  31
ATOM     31  C   UNL     1       5.556  -5.594 -10.086  1.00  0.00     0.275 C 
BRANCH  31  32
ATOM     32  O   UNL     1       6.302  -4.846  -9.134  1.00  0.00    -0.458 OA
BRANCH  32  33
ATOM     33  C   UNL     1       5.617  -3.855  -8.518  1.00  0.00     0.338 C 
ATOM     34  O   UNL     1       4.427  -3.613  -8.630  1.00  0.00    -0.246 OA
BRANCH  33  35
ATOM     35  C   UNL     1       6.561  -3.008  -7.790  1.00  0.00     0.060 A 
ATOM     36  C   UNL     1       6.021  -1.883  -7.164  1.00  0.00     0.016 A 
ATOM     37  C   UNL     1       7.917  -3.115  -8.120  1.00  0.00     0.016 A 
ATOM     38  C   UNL     1       6.777  -0.736  -7.166  1.00  0.00     0.010 A 
ATOM     39  C   UNL     1       8.656  -1.967  -8.146  1.00  0.00     0.010 A 
ATOM     40  C   UNL     1       8.033  -0.779  -7.778  1.00  0.00    -0.014 A 
BRANCH  40  41
ATOM     41  C   UNL     1       8.773   0.448  -7.940  1.00  0.00     0.031 A 
ATOM     42  C   UNL     1       9.354   0.890  -6.658  1.00  0.00     0.074 A 
ATOM     43  C   UNL     1       9.010   0.988  -9.151  1.00  0.00     0.049 A 
ATOM     44  N   UNL     1       8.964   1.875  -5.922  1.00  0.00    -0.248 NA
ATOM     45  C   UNL     1      10.296  -0.024  -5.985  1.00  0.00     0.031 C 
ATOM     46  C   UNL     1       8.679   0.461 -10.477  1.00  0.00     0.029 A 
ATOM     47  N   UNL     1       9.706   2.112  -9.448  1.00  0.00    -0.354 N 
ATOM     48  C   UNL     1       9.816   1.859  -4.827  1.00  0.00     0.074 A 
ATOM     49  C   UNL     1      10.385   0.543  -4.783  1.00  0.00     0.031 C 
ATOM     50  C   UNL     1       9.386   1.136 -11.417  1.00  0.00     0.029 A 
ATOM     51  C   UNL     1      10.118   2.216 -10.774  1.00  0.00     0.049 A 
ATOM     52  H   UNL     1       9.906   2.804  -8.777  1.00  0.00     0.167 HD
ATOM     53  C   UNL     1      10.234   3.021  -4.259  1.00  0.00     0.034 A 
ATOM     54  C   UNL     1      11.059   3.078 -11.256  1.00  0.00     0.034 A 
ATOM     55  C   UNL     1       9.371   4.119  -4.639  1.00  0.00     0.049 A 
ATOM     56  C   UNL     1      11.164   4.179 -10.256  1.00  0.00     0.074 A 
ATOM     57  C   UNL     1       8.015   4.362  -4.517  1.00  0.00     0.029 A 
ATOM     58  N   UNL     1       9.810   4.975  -5.627  1.00  0.00    -0.354 N 
ATOM     59  N   UNL     1      10.178   5.000 -10.003  1.00  0.00    -0.248 NA
ATOM     60  C   UNL     1      12.123   4.021  -9.168  1.00  0.00     0.031 C 
ATOM     61  C   UNL     1       7.634   4.949  -5.760  1.00  0.00     0.029 A 
ATOM     62  C   UNL     1       8.784   5.127  -6.533  1.00  0.00     0.049 A 
ATOM     63  H   UNL     1      10.696   5.401  -5.676  1.00  0.00     0.167 HD
ATOM     64  C   UNL     1      10.146   5.119  -8.621  1.00  0.00     0.074 A 
ATOM     65  C   UNL     1      11.415   4.550  -8.163  1.00  0.00     0.031 C 
ATOM     66  C   UNL     1       8.980   5.374  -7.952  1.00  0.00     0.034 A 
BRANCH  53  67
ATOM     67  C   UNL     1      11.628   3.228  -3.715  1.00  0.00     0.023 A 
ATOM     68  C   UNL     1      11.898   4.474  -3.127  1.00  0.00     0.031 A 
ATOM     69  C   UNL     1      12.759   2.418  -3.985  1.00  0.00     0.131 A 
ATOM     70  C   UNL     1      13.220   4.905  -2.932  1.00  0.00     0.055 A 
ATOM     71  C   UNL     1      14.068   2.823  -3.722  1.00  0.00     0.041 A 
ATOM     72  F   UNL     1      12.685   1.235  -4.604  1.00  0.00    -0.206 F 
ATOM     73  C   UNL     1      14.309   4.088  -3.224  1.00  0.00     0.022 A 
BRANCH  70  74
ATOM     74  S   UNL     1      13.492   6.630  -2.462  1.00  0.00     0.124 S 
ATOM     75  O   UNL     1      12.746   7.338  -3.497  1.00  0.00    -0.237 OA
ATOM     76  O   UNL     1      12.922   6.665  -1.119  1.00  0.00    -0.237 OA
ATOM     77  O   UNL     1      14.944   6.773  -2.528  1.00  0.00    -0.744 OA
ENDBRANCH  70  74
ENDBRANCH  53  67
BRANCH  54  78
ATOM     78  C   UNL     1      12.130   2.760 -12.255  1.00  0.00     0.023 A 
ATOM     79  C   UNL     1      12.861   3.742 -12.964  1.00  0.00     0.031 A 
ATOM     80  C   UNL     1      12.612   1.433 -12.352  1.00  0.00     0.131 A 
ATOM     81  C   UNL     1      14.004   3.377 -13.726  1.00  0.00     0.055 A 
ATOM     82  C   UNL     1      13.738   1.081 -13.101  1.00  0.00     0.041 A 
ATOM     83  F   UNL     1      12.052   0.436 -11.650  1.00  0.00    -0.206 F 
ATOM     84  C   UNL     1      14.444   2.053 -13.786  1.00  0.00     0.022 A 
BRANCH  81  85
ATOM     85  S   UNL     1      14.992   4.634 -14.609  1.00  0.00     0.124 S 
ATOM     86  O   UNL     1      14.064   5.097 -15.634  1.00  0.00    -0.237 OA
ATOM     87  O   UNL     1      15.316   5.583 -13.550  1.00  0.00    -0.237 OA
ATOM     88  O   UNL     1      16.137   3.876 -15.118  1.00  0.00    -0.744 OA
ENDBRANCH  81  85
ENDBRANCH  54  78
BRANCH  66  89
ATOM     89  C   UNL     1       7.749   5.757  -8.758  1.00  0.00     0.023 A 
ATOM     90  C   UNL     1       7.149   4.961  -9.765  1.00  0.00     0.031 A 
ATOM     91  C   UNL     1       7.085   6.938  -8.386  1.00  0.00     0.131 A 
ATOM     92  C   UNL     1       5.936   5.370 -10.361  1.00  0.00     0.055 A 
ATOM     93  C   UNL     1       5.875   7.327  -8.961  1.00  0.00     0.041 A 
ATOM     94  F   UNL     1       7.586   7.723  -7.418  1.00  0.00    -0.206 F 
ATOM     95  C   UNL     1       5.299   6.547  -9.955  1.00  0.00     0.022 A 
BRANCH  92  96
ATOM     96  S   UNL     1       5.165   4.391 -11.695  1.00  0.00     0.124 S 
ATOM     97  O   UNL     1       6.269   4.135 -12.612  1.00  0.00    -0.237 OA
ATOM     98  O   UNL     1       4.647   3.229 -10.976  1.00  0.00    -0.237 OA
ATOM     99  O   UNL     1       4.132   5.286 -12.221  1.00  0.00    -0.744 OA
ENDBRANCH  92  96
ENDBRANCH  66  89
ENDBRANCH  40  41
ENDBRANCH  33  35
ENDBRANCH  32  33
ENDBRANCH  31  32
ENDBRANCH   1  31
TORSDOF 18
