REMARK SMILES CC[C@@H](C)N(C)c1ccc(/C=C/C(=O)OCCOC(=O)c2ccc(-c3c4nc(c(-c5cc(S(=O)(=O)[O-])ccc5F)c5ccc([nH]5)c(-c5cc(S(=O)(=O)[O-])ccc5F)c5nc(c(-c6cc(S(=O)(=O)[O-])ccc6F)c6ccc3[nH]6)C=C5)C=C4)cc2)cc1F
REMARK SMILES IDX 16 1 15 2 13 3 14 4 12 5 11 6 10 7 7 8 8 9 85 10 9 11 84 12
REMARK SMILES IDX 86 13 5 14 6 15 3 16 4 17 2 18 1 19 17 20 18 21 19 22 20 23
REMARK SMILES IDX 21 24 22 25 83 26 23 27 82 28 24 29 25 30 26 31 76 32 27 33
REMARK SMILES IDX 81 34 75 35 77 36 28 37 80 38 74 39 73 40 29 42 61 43 41 44
REMARK SMILES IDX 60 45 42 46 45 47 59 48 78 49 43 50 44 51 58 53 79 54 46 55
REMARK SMILES IDX 30 56 31 57 39 58 32 59 38 60 40 61 37 62 33 63 34 64 35 65
REMARK SMILES IDX 36 66 62 67 63 68 71 69 64 70 70 71 72 72 69 73 65 74 66 75
REMARK SMILES IDX 67 76 68 77 47 78 48 79 56 80 49 81 55 82 57 83 54 84 50 85
REMARK SMILES IDX 51 86 52 87 53 88
REMARK H PARENT 77 41 45 52
REMARK Flexibility Score: inf
ROOT
ATOM      1  C   UNL     1      -9.393   2.901   4.498  1.00  0.00     0.275 C 
ENDROOT
BRANCH   1   2
ATOM      2  O   UNL     1      -8.017   2.750   4.106  1.00  0.00    -0.459 OA
BRANCH   2   3
ATOM      3  C   UNL     1      -7.387   3.882   3.712  1.00  0.00     0.330 C 
ATOM      4  O   UNL     1      -7.907   4.977   3.554  1.00  0.00    -0.247 OA
BRANCH   3   5
ATOM      5  C   UNL     1      -5.939   3.682   3.496  1.00  0.00     0.094 C 
ATOM      6  C   UNL     1      -5.264   2.557   3.782  1.00  0.00     0.016 C 
BRANCH   6   7
ATOM      7  C   UNL     1      -3.812   2.413   3.595  1.00  0.00    -0.022 A 
ATOM      8  C   UNL     1      -1.000   2.052   3.215  1.00  0.00     0.073 A 
ATOM      9  C   UNL     1      -1.535   3.282   3.631  1.00  0.00     0.029 A 
ATOM     10  C   UNL     1      -1.917   1.000   3.052  1.00  0.00     0.147 A 
ATOM     11  C   UNL     1      -2.914   3.460   3.822  1.00  0.00     0.010 A 
ATOM     12  C   UNL     1      -3.293   1.169   3.234  1.00  0.00     0.049 A 
ATOM     13  F   UNL     1      -1.490  -0.236   2.746  1.00  0.00    -0.205 F 
BRANCH   8  14
ATOM     14  N   UNL     1       0.369   1.899   2.979  1.00  0.00    -0.370 N 
ATOM     15  C   UNL     1       1.280   2.477   3.967  1.00  0.00     0.144 C 
BRANCH  14  16
ATOM     16  C   UNL     1       0.877   1.786   1.590  1.00  0.00     0.078 C 
ATOM     17  C   UNL     1       0.401   2.953   0.720  1.00  0.00     0.031 C 
BRANCH  16  18
ATOM     18  C   UNL     1       0.564   0.415   0.971  1.00  0.00     0.021 C 
ATOM     19  C   UNL     1       1.384   0.110  -0.277  1.00  0.00     0.006 C 
ENDBRANCH  16  18
ENDBRANCH  14  16
ENDBRANCH   8  14
ENDBRANCH   6   7
ENDBRANCH   3   5
ENDBRANCH   2   3
ENDBRANCH   1   2
BRANCH   1  20
ATOM     20  C   UNL     1      -9.541   2.905   6.022  1.00  0.00     0.275 C 
BRANCH  20  21
ATOM     21  O   UNL     1      -8.941   4.068   6.620  1.00  0.00    -0.458 OA
BRANCH  21  22
ATOM     22  C   UNL     1      -7.636   3.920   6.962  1.00  0.00     0.338 C 
ATOM     23  O   UNL     1      -6.963   2.910   6.834  1.00  0.00    -0.246 OA
BRANCH  22  24
ATOM     24  C   UNL     1      -7.074   5.201   7.430  1.00  0.00     0.060 A 
ATOM     25  C   UNL     1      -5.828   5.588   6.925  1.00  0.00     0.016 A 
ATOM     26  C   UNL     1      -7.703   5.964   8.417  1.00  0.00     0.016 A 
ATOM     27  C   UNL     1      -5.194   6.723   7.425  1.00  0.00     0.010 A 
ATOM     28  C   UNL     1      -7.061   7.103   8.922  1.00  0.00     0.010 A 
ATOM     29  C   UNL     1      -5.792   7.474   8.447  1.00  0.00    -0.014 A 
BRANCH  29  30
ATOM     30  C   UNL     1      -5.030   8.582   9.076  1.00  0.00     0.031 A 
ATOM     31  C   UNL     1      -4.358   8.356  10.404  1.00  0.00     0.074 A 
ATOM     32  C   UNL     1      -4.887   9.759   8.437  1.00  0.00     0.049 A 
ATOM     33  N   UNL     1      -3.651   9.189  11.123  1.00  0.00    -0.248 NA
ATOM     34  C   UNL     1      -4.495   7.016  10.998  1.00  0.00     0.031 C 
ATOM     35  C   UNL     1      -5.454  10.080   7.126  1.00  0.00     0.029 A 
ATOM     36  N   UNL     1      -4.213  10.900   8.798  1.00  0.00    -0.354 N 
ATOM     37  C   UNL     1      -3.262   8.479  12.253  1.00  0.00     0.074 A 
ATOM     38  C   UNL     1      -3.829   7.153  12.136  1.00  0.00     0.031 C 
ATOM     39  C   UNL     1      -5.096  11.331   6.790  1.00  0.00     0.029 A 
ATOM     40  C   UNL     1      -4.307  11.915   7.874  1.00  0.00     0.049 A 
ATOM     41  H   UNL     1      -3.710  10.983   9.640  1.00  0.00     0.167 HD
ATOM     42  C   UNL     1      -2.493   8.893  13.287  1.00  0.00     0.034 A 
ATOM     43  C   UNL     1      -3.830  13.176   7.907  1.00  0.00     0.034 A 
ATOM     44  C   UNL     1      -1.913  10.207  13.390  1.00  0.00     0.049 A 
ATOM     45  C   UNL     1      -3.041  13.633   9.107  1.00  0.00     0.074 A 
ATOM     46  C   UNL     1      -1.093  10.707  14.387  1.00  0.00     0.029 A 
ATOM     47  N   UNL     1      -2.094  11.228  12.471  1.00  0.00    -0.354 N 
ATOM     48  N   UNL     1      -2.695  12.951  10.174  1.00  0.00    -0.248 NA
ATOM     49  C   UNL     1      -2.587  15.032   9.116  1.00  0.00     0.031 C 
ATOM     50  C   UNL     1      -0.822  12.047  14.098  1.00  0.00     0.029 A 
ATOM     51  C   UNL     1      -1.429  12.366  12.894  1.00  0.00     0.049 A 
ATOM     52  H   UNL     1      -2.618  11.155  11.640  1.00  0.00     0.167 HD
ATOM     53  C   UNL     1      -1.976  13.834  10.973  1.00  0.00     0.074 A 
ATOM     54  C   UNL     1      -1.926  15.096  10.264  1.00  0.00     0.031 C 
ATOM     55  C   UNL     1      -1.406  13.620  12.184  1.00  0.00     0.034 A 
BRANCH  42  56
ATOM     56  C   UNL     1      -2.252   7.929  14.415  1.00  0.00     0.023 A 
ATOM     57  C   UNL     1      -1.368   6.847  14.280  1.00  0.00     0.031 A 
ATOM     58  C   UNL     1      -2.874   8.135  15.659  1.00  0.00     0.131 A 
ATOM     59  C   UNL     1      -1.145   5.993  15.371  1.00  0.00     0.055 A 
ATOM     60  C   UNL     1      -2.611   7.311  16.753  1.00  0.00     0.041 A 
ATOM     61  F   UNL     1      -3.737   9.149  15.830  1.00  0.00    -0.206 F 
ATOM     62  C   UNL     1      -1.744   6.231  16.612  1.00  0.00     0.022 A 
BRANCH  59  63
ATOM     63  S   UNL     1      -0.082   4.542  15.145  1.00  0.00     0.124 S 
ATOM     64  O   UNL     1      -0.912   3.702  14.286  1.00  0.00    -0.237 OA
ATOM     65  O   UNL     1       1.109   5.110  14.523  1.00  0.00    -0.237 OA
ATOM     66  O   UNL     1       0.107   4.042  16.505  1.00  0.00    -0.744 OA
ENDBRANCH  59  63
ENDBRANCH  42  56
BRANCH  43  67
ATOM     67  C   UNL     1      -4.132  14.123   6.797  1.00  0.00     0.023 A 
ATOM     68  C   UNL     1      -3.118  14.617   5.963  1.00  0.00     0.031 A 
ATOM     69  C   UNL     1      -5.445  14.582   6.587  1.00  0.00     0.131 A 
ATOM     70  C   UNL     1      -3.428  15.565   4.974  1.00  0.00     0.055 A 
ATOM     71  C   UNL     1      -5.755  15.492   5.576  1.00  0.00     0.041 A 
ATOM     72  F   UNL     1      -6.450  14.141   7.361  1.00  0.00    -0.206 F 
ATOM     73  C   UNL     1      -4.741  15.996   4.768  1.00  0.00     0.022 A 
BRANCH  70  74
ATOM     74  S   UNL     1      -2.078  16.273   3.991  1.00  0.00     0.124 S 
ATOM     75  O   UNL     1      -1.284  16.941   5.016  1.00  0.00    -0.237 OA
ATOM     76  O   UNL     1      -1.483  15.085   3.389  1.00  0.00    -0.237 OA
ATOM     77  O   UNL     1      -2.767  17.162   3.057  1.00  0.00    -0.744 OA
ENDBRANCH  70  74
ENDBRANCH  43  67
BRANCH  55  78
ATOM     78  C   UNL     1      -0.670  14.767  12.819  1.00  0.00     0.023 A 
ATOM     79  C   UNL     1      -1.362  15.835  13.412  1.00  0.00     0.031 A 
ATOM     80  C   UNL     1       0.734  14.757  12.887  1.00  0.00     0.131 A 
ATOM     81  C   UNL     1      -0.644  16.867  14.035  1.00  0.00     0.055 A 
ATOM     82  C   UNL     1       1.441  15.766  13.542  1.00  0.00     0.041 A 
ATOM     83  F   UNL     1       1.437  13.752  12.341  1.00  0.00    -0.206 F 
ATOM     84  C   UNL     1       0.751  16.830  14.118  1.00  0.00     0.022 A 
BRANCH  81  85
ATOM     85  S   UNL     1      -1.557  18.267  14.738  1.00  0.00     0.124 S 
ATOM     86  O   UNL     1      -2.073  18.922  13.540  1.00  0.00    -0.237 OA
ATOM     87  O   UNL     1      -2.551  17.610  15.581  1.00  0.00    -0.237 OA
ATOM     88  O   UNL     1      -0.532  19.015  15.463  1.00  0.00    -0.744 OA
ENDBRANCH  81  85
ENDBRANCH  55  78
ENDBRANCH  29  30
ENDBRANCH  22  24
ENDBRANCH  21  22
ENDBRANCH  20  21
ENDBRANCH   1  20
TORSDOF 18
