REMARK SMILES Cc1nnc(SCC(=O)Nc2cccc(C(=O)OCCOC(=O)c3ccc(-c4c5nc(c(-c6cc(S(=O)(=O)[O-])ccc6F)c6ccc([nH]6)c(-c6cc(S(=O)(=O)[O-])ccc6F)c6nc(c(-c7cc(S(=O)(=O)[O-])ccc7F)c7ccc4[nH]7)C=C6)C=C5)cc3)c2)n1-c1ccccc1
REMARK SMILES IDX 19 1 18 2 16 3 17 4 15 5 11 6 12 7 87 8 13 9 14 10 10 11
REMARK SMILES IDX 8 12 9 13 7 15 6 16 5 17 1 18 2 19 3 20 88 21 4 22 89 23
REMARK SMILES IDX 90 24 94 25 91 26 93 27 92 28 20 29 21 30 22 31 23 32 24 33
REMARK SMILES IDX 25 34 86 35 26 36 85 37 27 38 28 39 29 40 79 41 30 42 84 43
REMARK SMILES IDX 78 44 80 45 31 46 83 47 77 48 76 49 32 51 64 52 44 53 63 54
REMARK SMILES IDX 45 55 48 56 62 57 81 58 46 59 47 60 61 62 82 63 49 64 33 65
REMARK SMILES IDX 34 66 42 67 35 68 41 69 43 70 40 71 36 72 37 73 38 74 39 75
REMARK SMILES IDX 65 76 66 77 74 78 67 79 73 80 75 81 72 82 68 83 69 84 70 85
REMARK SMILES IDX 71 86 50 87 51 88 59 89 52 90 58 91 60 92 57 93 53 94 54 95
REMARK SMILES IDX 55 96 56 97
REMARK H PARENT 10 14 80 50 48 61
REMARK Flexibility Score: inf
ROOT
ATOM      1  C   UNL     1      -0.540  -7.185  -2.970  1.00  0.00     0.275 C 
ENDROOT
BRANCH   1   2
ATOM      2  O   UNL     1      -1.741  -6.403  -2.989  1.00  0.00    -0.458 OA
BRANCH   2   3
ATOM      3  C   UNL     1      -2.906  -7.049  -3.233  1.00  0.00     0.338 C 
ATOM      4  O   UNL     1      -3.030  -8.168  -3.714  1.00  0.00    -0.246 OA
BRANCH   3   5
ATOM      5  C   UNL     1      -4.049  -6.212  -2.783  1.00  0.00     0.062 A 
ATOM      6  C   UNL     1      -4.890  -4.136  -1.887  1.00  0.00     0.042 A 
ATOM      7  C   UNL     1      -6.188  -4.642  -1.898  1.00  0.00     0.026 A 
ATOM      8  C   UNL     1      -3.829  -4.949  -2.236  1.00  0.00     0.041 A 
ATOM      9  C   UNL     1      -6.422  -5.924  -2.394  1.00  0.00     0.003 A 
ATOM     10  C   UNL     1      -5.357  -6.699  -2.864  1.00  0.00     0.016 A 
BRANCH   6  11
ATOM     11  N   UNL     1      -4.704  -2.799  -1.552  1.00  0.00    -0.325 N 
ATOM     12  C   UNL     1      -4.001  -1.851  -2.232  1.00  0.00     0.234 C 
ATOM     13  O   UNL     1      -4.279  -0.688  -1.911  1.00  0.00    -0.274 OA
ATOM     14  H   UNL     1      -5.135  -2.500  -0.718  1.00  0.00     0.169 HD
BRANCH  12  15
ATOM     15  C   UNL     1      -3.176  -2.118  -3.482  1.00  0.00     0.178 C 
BRANCH  15  16
ATOM     16  S   UNL     1      -1.517  -2.802  -3.410  1.00  0.00    -0.076 SA
BRANCH  16  17
ATOM     17  C   UNL     1      -0.733  -2.356  -1.938  1.00  0.00     0.196 A 
ATOM     18  C   UNL     1       1.223  -0.146   0.184  1.00  0.00     0.090 C 
ATOM     19  C   UNL     1       0.520  -1.244  -0.519  1.00  0.00     0.135 A 
ATOM     20  N   UNL     1       0.642  -2.529  -0.255  1.00  0.00    -0.134 NA
ATOM     21  N   UNL     1      -0.352  -1.083  -1.576  1.00  0.00    -0.274 N 
ATOM     22  N   UNL     1      -0.134  -3.225  -1.152  1.00  0.00    -0.123 NA
BRANCH  21  23
ATOM     23  C   UNL     1      -0.761   0.121  -2.158  1.00  0.00     0.049 A 
ATOM     24  C   UNL     1      -1.919   0.720  -1.670  1.00  0.00     0.027 A 
ATOM     25  C   UNL     1      -0.119   0.593  -3.302  1.00  0.00     0.027 A 
ATOM     26  C   UNL     1      -2.514   1.740  -2.406  1.00  0.00     0.002 A 
ATOM     27  C   UNL     1      -0.696   1.650  -4.003  1.00  0.00     0.002 A 
ATOM     28  C   UNL     1      -1.909   2.198  -3.575  1.00  0.00     0.000 A 
ENDBRANCH  21  23
ENDBRANCH  16  17
ENDBRANCH  15  16
ENDBRANCH  12  15
ENDBRANCH   6  11
ENDBRANCH   3   5
ENDBRANCH   2   3
ENDBRANCH   1   2
BRANCH   1  29
ATOM     29  C   UNL     1      -0.260  -7.704  -1.566  1.00  0.00     0.275 C 
BRANCH  29  30
ATOM     30  O   UNL     1      -1.244  -8.656  -1.157  1.00  0.00    -0.458 OA
BRANCH  30  31
ATOM     31  C   UNL     1      -2.248  -8.158  -0.407  1.00  0.00     0.338 C 
ATOM     32  O   UNL     1      -2.551  -6.974  -0.262  1.00  0.00    -0.246 OA
BRANCH  31  33
ATOM     33  C   UNL     1      -2.870  -9.232   0.361  1.00  0.00     0.060 A 
ATOM     34  C   UNL     1      -4.085  -8.971   1.006  1.00  0.00     0.016 A 
ATOM     35  C   UNL     1      -2.143 -10.405   0.606  1.00  0.00     0.016 A 
ATOM     36  C   UNL     1      -4.517  -9.843   1.987  1.00  0.00     0.010 A 
ATOM     37  C   UNL     1      -2.566 -11.261   1.594  1.00  0.00     0.010 A 
ATOM     38  C   UNL     1      -3.723 -10.948   2.309  1.00  0.00    -0.014 A 
BRANCH  38  39
ATOM     39  C   UNL     1      -4.203 -11.884   3.311  1.00  0.00     0.031 A 
ATOM     40  C   UNL     1      -5.342 -12.712   2.847  1.00  0.00     0.074 A 
ATOM     41  C   UNL     1      -3.538 -12.116   4.459  1.00  0.00     0.049 A 
ATOM     42  N   UNL     1      -6.516 -12.818   3.371  1.00  0.00    -0.248 NA
ATOM     43  C   UNL     1      -5.203 -13.398   1.550  1.00  0.00     0.031 C 
ATOM     44  C   UNL     1      -2.243 -11.556   4.854  1.00  0.00     0.029 A 
ATOM     45  N   UNL     1      -3.807 -13.011   5.451  1.00  0.00    -0.354 N 
ATOM     46  C   UNL     1      -7.179 -13.774   2.608  1.00  0.00     0.074 A 
ATOM     47  C   UNL     1      -6.417 -13.923   1.401  1.00  0.00     0.031 C 
ATOM     48  C   UNL     1      -1.737 -12.290   5.868  1.00  0.00     0.029 A 
ATOM     49  C   UNL     1      -2.710 -13.300   6.257  1.00  0.00     0.049 A 
ATOM     50  H   UNL     1      -4.694 -13.417   5.584  1.00  0.00     0.167 HD
ATOM     51  C   UNL     1      -8.143 -14.561   3.156  1.00  0.00     0.034 A 
ATOM     52  C   UNL     1      -2.570 -14.347   7.113  1.00  0.00     0.034 A 
ATOM     53  C   UNL     1      -8.691 -13.951   4.349  1.00  0.00     0.049 A 
ATOM     54  C   UNL     1      -3.929 -14.859   7.417  1.00  0.00     0.074 A 
ATOM     55  C   UNL     1      -9.260 -12.719   4.620  1.00  0.00     0.029 A 
ATOM     56  N   UNL     1      -8.363 -14.480   5.578  1.00  0.00    -0.354 N 
ATOM     57  N   UNL     1      -4.818 -14.191   8.097  1.00  0.00    -0.248 NA
ATOM     58  C   UNL     1      -4.467 -15.926   6.585  1.00  0.00     0.031 C 
ATOM     59  C   UNL     1      -8.787 -12.368   5.917  1.00  0.00     0.029 A 
ATOM     60  C   UNL     1      -8.026 -13.433   6.402  1.00  0.00     0.049 A 
ATOM     61  H   UNL     1      -8.369 -15.434   5.822  1.00  0.00     0.167 HD
ATOM     62  C   UNL     1      -6.022 -14.442   7.458  1.00  0.00     0.074 A 
ATOM     63  C   UNL     1      -5.763 -15.605   6.613  1.00  0.00     0.031 C 
ATOM     64  C   UNL     1      -7.026 -13.514   7.451  1.00  0.00     0.034 A 
BRANCH  51  65
ATOM     65  C   UNL     1      -8.293 -16.038   2.844  1.00  0.00     0.023 A 
ATOM     66  C   UNL     1      -9.282 -16.734   3.561  1.00  0.00     0.031 A 
ATOM     67  C   UNL     1      -7.362 -16.848   2.150  1.00  0.00     0.131 A 
ATOM     68  C   UNL     1      -9.228 -18.131   3.695  1.00  0.00     0.055 A 
ATOM     69  C   UNL     1      -7.361 -18.244   2.223  1.00  0.00     0.041 A 
ATOM     70  F   UNL     1      -6.350 -16.352   1.430  1.00  0.00    -0.206 F 
ATOM     71  C   UNL     1      -8.271 -18.893   3.035  1.00  0.00     0.022 A 
BRANCH  68  72
ATOM     72  S   UNL     1     -10.306 -18.901   4.927  1.00  0.00     0.124 S 
ATOM     73  O   UNL     1      -9.962 -18.138   6.122  1.00  0.00    -0.237 OA
ATOM     74  O   UNL     1     -11.628 -18.655   4.361  1.00  0.00    -0.237 OA
ATOM     75  O   UNL     1      -9.875 -20.297   4.927  1.00  0.00    -0.744 OA
ENDBRANCH  68  72
ENDBRANCH  51  65
BRANCH  52  76
ATOM     76  C   UNL     1      -1.321 -15.082   7.454  1.00  0.00     0.023 A 
ATOM     77  C   UNL     1      -1.214 -15.905   8.595  1.00  0.00     0.031 A 
ATOM     78  C   UNL     1      -0.263 -15.162   6.519  1.00  0.00     0.131 A 
ATOM     79  C   UNL     1      -0.090 -16.747   8.765  1.00  0.00     0.055 A 
ATOM     80  C   UNL     1       0.853 -15.980   6.701  1.00  0.00     0.041 A 
ATOM     81  F   UNL     1      -0.317 -14.511   5.346  1.00  0.00    -0.206 F 
ATOM     82  C   UNL     1       0.940 -16.785   7.823  1.00  0.00     0.022 A 
BRANCH  79  83
ATOM     83  S   UNL     1      -0.007 -17.904  10.170  1.00  0.00     0.124 S 
ATOM     84  O   UNL     1       0.248 -17.011  11.294  1.00  0.00    -0.237 OA
ATOM     85  O   UNL     1      -1.317 -18.543  10.131  1.00  0.00    -0.237 OA
ATOM     86  O   UNL     1       1.109 -18.784   9.820  1.00  0.00    -0.744 OA
ENDBRANCH  79  83
ENDBRANCH  52  76
BRANCH  64  87
ATOM     87  C   UNL     1      -6.972 -12.372   8.448  1.00  0.00     0.023 A 
ATOM     88  C   UNL     1      -5.871 -11.505   8.633  1.00  0.00     0.031 A 
ATOM     89  C   UNL     1      -8.140 -12.101   9.186  1.00  0.00     0.131 A 
ATOM     90  C   UNL     1      -5.959 -10.436   9.546  1.00  0.00     0.055 A 
ATOM     91  C   UNL     1      -8.232 -11.027  10.069  1.00  0.00     0.041 A 
ATOM     92  F   UNL     1      -9.233 -12.869   9.040  1.00  0.00    -0.206 F 
ATOM     93  C   UNL     1      -7.136 -10.195  10.261  1.00  0.00     0.022 A 
BRANCH  90  94
ATOM     94  S   UNL     1      -4.528  -9.353   9.856  1.00  0.00     0.124 S 
ATOM     95  O   UNL     1      -3.398 -10.273   9.898  1.00  0.00    -0.237 OA
ATOM     96  O   UNL     1      -4.571  -8.444   8.713  1.00  0.00    -0.237 OA
ATOM     97  O   UNL     1      -4.852  -8.727  11.140  1.00  0.00    -0.744 OA
ENDBRANCH  90  94
ENDBRANCH  64  87
ENDBRANCH  38  39
ENDBRANCH  31  33
ENDBRANCH  30  31
ENDBRANCH  29  30
ENDBRANCH   1  29
TORSDOF 19
