REMARK SMILES NS(=O)(=O)c1ccc(-n2nc(C(F)F)cc2-c2ccc(C(=O)OCCOC(=O)c3ccc(-c4c5nc(c(-c6cc(S(=O)(=O)[O-])ccc6F)c6ccc([nH]6)c(-c6cc(S(=O)(=O)[O-])ccc6F)c6nc(c(-c7cc(S(=O)(=O)[O-])ccc7F)c7ccc4[nH]7)C=C6)C=C5)cc3)cc2)cc1
REMARK SMILES IDX 24 1 23 2 21 3 22 4 20 5 17 6 18 7 93 8 19 9 92 10 16 11
REMARK SMILES IDX 9 12 10 13 11 14 15 15 8 16 5 17 6 18 95 19 7 20 94 21 2 22
REMARK SMILES IDX 3 23 4 24 1 25 12 28 13 29 14 30 25 31 26 32 27 33 28 34
REMARK SMILES IDX 29 35 30 36 91 37 31 38 90 39 32 40 33 41 34 42 84 43 35 44
REMARK SMILES IDX 89 45 83 46 85 47 36 48 88 49 82 50 81 51 37 53 69 54 49 55
REMARK SMILES IDX 68 56 50 57 53 58 67 59 86 60 51 61 52 62 66 64 87 65 54 66
REMARK SMILES IDX 38 67 39 68 47 69 40 70 46 71 48 72 45 73 41 74 42 75 43 76
REMARK SMILES IDX 44 77 70 78 71 79 79 80 72 81 78 82 80 83 77 84 73 85 74 86
REMARK SMILES IDX 75 87 76 88 55 89 56 90 64 91 57 92 63 93 65 94 62 95 58 96
REMARK SMILES IDX 59 97 60 98 61 99
REMARK H PARENT 1 26 1 27 85 52 53 63
REMARK Flexibility Score: inf
ROOT
ATOM      1  C   UNL     1       1.180   1.136 -12.372  1.00  0.00     0.275 C 
ENDROOT
BRANCH   1   2
ATOM      2  O   UNL     1       1.524   2.010 -11.287  1.00  0.00    -0.458 OA
BRANCH   2   3
ATOM      3  C   UNL     1       0.486   2.427 -10.517  1.00  0.00     0.338 C 
ATOM      4  O   UNL     1      -0.702   2.300 -10.772  1.00  0.00    -0.246 OA
BRANCH   3   5
ATOM      5  C   UNL     1       0.985   3.020  -9.252  1.00  0.00     0.060 A 
ATOM      6  C   UNL     1       1.777   4.342  -6.912  1.00  0.00     0.000 A 
ATOM      7  C   UNL     1       0.507   3.754  -6.992  1.00  0.00     0.011 A 
ATOM      8  C   UNL     1       2.674   4.186  -7.977  1.00  0.00     0.011 A 
ATOM      9  C   UNL     1       0.113   3.096  -8.159  1.00  0.00     0.016 A 
ATOM     10  C   UNL     1       2.284   3.523  -9.140  1.00  0.00     0.016 A 
BRANCH   6  11
ATOM     11  C   UNL     1       2.114   5.255  -5.822  1.00  0.00     0.075 A 
ATOM     12  N   UNL     1       1.945   5.045  -4.460  1.00  0.00    -0.233 N 
ATOM     13  N   UNL     1       2.049   6.207  -3.756  1.00  0.00    -0.166 NA
ATOM     14  C   UNL     1       2.462   7.121  -4.648  1.00  0.00     0.129 A 
ATOM     15  C   UNL     1       2.482   6.581  -5.949  1.00  0.00     0.060 A 
BRANCH  12  16
ATOM     16  C   UNL     1       1.672   3.827  -3.787  1.00  0.00     0.065 A 
ATOM     17  C   UNL     1       0.999   1.430  -2.551  1.00  0.00     0.082 A 
ATOM     18  C   UNL     1       1.943   1.432  -3.583  1.00  0.00     0.024 A 
ATOM     19  C   UNL     1       0.407   2.620  -2.117  1.00  0.00     0.024 A 
ATOM     20  C   UNL     1       2.270   2.633  -4.213  1.00  0.00     0.030 A 
ATOM     21  C   UNL     1       0.770   3.829  -2.714  1.00  0.00     0.030 A 
BRANCH  17  22
ATOM     22  S   UNL     1       0.479  -0.105  -1.841  1.00  0.00     0.238 S 
ATOM     23  O   UNL     1       1.131  -1.190  -2.543  1.00  0.00    -0.207 OA
ATOM     24  O   UNL     1      -0.942  -0.046  -1.624  1.00  0.00    -0.207 OA
BRANCH  22  25
ATOM     25  N   UNL     1       1.195  -0.056  -0.320  1.00  0.00    -0.225 NA
ATOM     26  H   UNL     1       0.962  -0.906   0.194  1.00  0.00     0.137 HD
ATOM     27  H   UNL     1       0.851   0.756   0.192  1.00  0.00     0.137 HD
ENDBRANCH  22  25
ENDBRANCH  17  22
ENDBRANCH  12  16
BRANCH  14  28
ATOM     28  C   UNL     1       2.809   8.531  -4.282  1.00  0.00     0.393 C 
ATOM     29  F   UNL     1       1.964   9.068  -3.361  1.00  0.00    -0.203 F 
ATOM     30  F   UNL     1       4.065   8.619  -3.760  1.00  0.00    -0.203 F 
ENDBRANCH  14  28
ENDBRANCH   6  11
ENDBRANCH   3   5
ENDBRANCH   2   3
ENDBRANCH   1   2
BRANCH   1  31
ATOM     31  C   UNL     1       1.163  -0.316 -11.920  1.00  0.00     0.275 C 
BRANCH  31  32
ATOM     32  O   UNL     1       0.071  -0.568 -11.040  1.00  0.00    -0.458 OA
BRANCH  32  33
ATOM     33  C   UNL     1       0.380  -0.520  -9.723  1.00  0.00     0.338 C 
ATOM     34  O   UNL     1       1.325   0.051  -9.205  1.00  0.00    -0.246 OA
BRANCH  33  35
ATOM     35  C   UNL     1      -0.452  -1.488  -9.010  1.00  0.00     0.060 A 
ATOM     36  C   UNL     1      -0.400  -1.491  -7.612  1.00  0.00     0.016 A 
ATOM     37  C   UNL     1      -0.985  -2.558  -9.740  1.00  0.00     0.016 A 
ATOM     38  C   UNL     1      -0.725  -2.657  -6.950  1.00  0.00     0.010 A 
ATOM     39  C   UNL     1      -1.278  -3.723  -9.083  1.00  0.00     0.010 A 
ATOM     40  C   UNL     1      -1.074  -3.781  -7.706  1.00  0.00    -0.014 A 
BRANCH  40  41
ATOM     41  C   UNL     1      -1.442  -5.010  -7.035  1.00  0.00     0.031 A 
ATOM     42  C   UNL     1      -2.745  -4.874  -6.340  1.00  0.00     0.074 A 
ATOM     43  C   UNL     1      -0.760  -6.158  -7.223  1.00  0.00     0.049 A 
ATOM     44  N   UNL     1      -2.949  -4.920  -5.068  1.00  0.00    -0.248 NA
ATOM     45  C   UNL     1      -3.912  -4.393  -7.107  1.00  0.00     0.031 C 
ATOM     46  C   UNL     1       0.416  -6.390  -8.065  1.00  0.00     0.029 A 
ATOM     47  N   UNL     1      -1.049  -7.409  -6.777  1.00  0.00    -0.354 N 
ATOM     48  C   UNL     1      -4.318  -4.755  -4.906  1.00  0.00     0.074 A 
ATOM     49  C   UNL     1      -4.800  -4.190  -6.134  1.00  0.00     0.031 C 
ATOM     50  C   UNL     1       0.578  -7.721  -8.256  1.00  0.00     0.029 A 
ATOM     51  C   UNL     1      -0.414  -8.440  -7.473  1.00  0.00     0.049 A 
ATOM     52  H   UNL     1      -1.658  -7.576  -6.022  1.00  0.00     0.167 HD
ATOM     53  C   UNL     1      -4.968  -5.386  -3.893  1.00  0.00     0.034 A 
ATOM     54  C   UNL     1      -0.754  -9.764  -7.458  1.00  0.00     0.034 A 
ATOM     55  C   UNL     1      -4.031  -5.807  -2.872  1.00  0.00     0.049 A 
ATOM     56  C   UNL     1      -1.514  -9.975  -6.192  1.00  0.00     0.074 A 
ATOM     57  C   UNL     1      -3.099  -5.138  -2.100  1.00  0.00     0.029 A 
ATOM     58  N   UNL     1      -3.655  -7.134  -2.845  1.00  0.00    -0.354 N 
ATOM     59  N   UNL     1      -0.963  -9.842  -5.013  1.00  0.00    -0.248 NA
ATOM     60  C   UNL     1      -2.957  -9.766  -6.223  1.00  0.00     0.031 C 
ATOM     61  C   UNL     1      -1.955  -5.988  -2.095  1.00  0.00     0.029 A 
ATOM     62  C   UNL     1      -2.284  -7.177  -2.751  1.00  0.00     0.049 A 
ATOM     63  H   UNL     1      -4.259  -7.910  -2.886  1.00  0.00     0.167 HD
ATOM     64  C   UNL     1      -1.875  -9.105  -4.271  1.00  0.00     0.074 A 
ATOM     65  C   UNL     1      -3.118  -9.149  -5.046  1.00  0.00     0.031 C 
ATOM     66  C   UNL     1      -1.468  -8.258  -3.276  1.00  0.00     0.034 A 
BRANCH  53  67
ATOM     67  C   UNL     1      -6.348  -5.989  -4.021  1.00  0.00     0.023 A 
ATOM     68  C   UNL     1      -6.857  -6.636  -2.882  1.00  0.00     0.031 A 
ATOM     69  C   UNL     1      -7.038  -6.238  -5.231  1.00  0.00     0.131 A 
ATOM     70  C   UNL     1      -7.899  -7.571  -2.991  1.00  0.00     0.055 A 
ATOM     71  C   UNL     1      -8.121  -7.115  -5.321  1.00  0.00     0.041 A 
ATOM     72  F   UNL     1      -6.659  -5.732  -6.409  1.00  0.00    -0.206 F 
ATOM     73  C   UNL     1      -8.534  -7.817  -4.204  1.00  0.00     0.022 A 
BRANCH  70  74
ATOM     74  S   UNL     1      -8.271  -8.598  -1.550  1.00  0.00     0.124 S 
ATOM     75  O   UNL     1      -6.965  -9.183  -1.264  1.00  0.00    -0.237 OA
ATOM     76  O   UNL     1      -8.757  -7.609  -0.594  1.00  0.00    -0.237 OA
ATOM     77  O   UNL     1      -9.278  -9.530  -2.051  1.00  0.00    -0.744 OA
ENDBRANCH  70  74
ENDBRANCH  53  67
BRANCH  54  78
ATOM     78  C   UNL     1      -0.790 -10.709  -8.627  1.00  0.00     0.023 A 
ATOM     79  C   UNL     1      -0.949 -12.114  -8.507  1.00  0.00     0.031 A 
ATOM     80  C   UNL     1      -0.901 -10.190  -9.940  1.00  0.00     0.131 A 
ATOM     81  C   UNL     1      -1.199 -12.916  -9.656  1.00  0.00     0.055 A 
ATOM     82  C   UNL     1      -1.150 -10.982 -11.063  1.00  0.00     0.041 A 
ATOM     83  F   UNL     1      -0.857  -8.870 -10.177  1.00  0.00    -0.206 F 
ATOM     84  C   UNL     1      -1.311 -12.348 -10.926  1.00  0.00     0.022 A 
BRANCH  81  85
ATOM     85  S   UNL     1      -1.468 -14.721  -9.526  1.00  0.00     0.124 S 
ATOM     86  O   UNL     1      -0.133 -15.213  -9.208  1.00  0.00    -0.237 OA
ATOM     87  O   UNL     1      -2.467 -14.820  -8.468  1.00  0.00    -0.237 OA
ATOM     88  O   UNL     1      -1.955 -15.091 -10.857  1.00  0.00    -0.744 OA
ENDBRANCH  81  85
ENDBRANCH  54  78
BRANCH  66  89
ATOM     89  C   UNL     1      -0.022  -8.307  -2.809  1.00  0.00     0.023 A 
ATOM     90  C   UNL     1       1.115  -8.118  -3.631  1.00  0.00     0.031 A 
ATOM     91  C   UNL     1       0.191  -8.412  -1.423  1.00  0.00     0.131 A 
ATOM     92  C   UNL     1       2.401  -8.052  -3.053  1.00  0.00     0.055 A 
ATOM     93  C   UNL     1       1.459  -8.317  -0.854  1.00  0.00     0.041 A 
ATOM     94  F   UNL     1      -0.847  -8.569  -0.585  1.00  0.00    -0.206 F 
ATOM     95  C   UNL     1       2.571  -8.142  -1.667  1.00  0.00     0.022 A 
BRANCH  92  96
ATOM     96  S   UNL     1       3.894  -7.881  -4.089  1.00  0.00     0.124 S 
ATOM     97  O   UNL     1       3.702  -8.883  -5.131  1.00  0.00    -0.237 OA
ATOM     98  O   UNL     1       3.826  -6.488  -4.521  1.00  0.00    -0.237 OA
ATOM     99  O   UNL     1       4.988  -8.173  -3.160  1.00  0.00    -0.744 OA
ENDBRANCH  92  96
ENDBRANCH  66  89
ENDBRANCH  40  41
ENDBRANCH  33  35
ENDBRANCH  32  33
ENDBRANCH  31  32
ENDBRANCH   1  31
TORSDOF 19
