REMARK SMILES CC1(C)O[C@H]2C[C@@H]3[C@@H]4CCC5=CC(=O)C=C[C@]5(C)[C@@]4(F)[C@H](O)C[C@@]3(C)[C@@]2(C(=O)OCCOC(=O)c2ccc(-c3c4nc(c(-c5cc(S(=O)(=O)[O-])ccc5F)c5ccc([nH]5)c(-c5cc(S(=O)(=O)[O-])ccc5F)c5nc(c(-c6cc(S(=O)(=O)[O-])ccc6F)c6ccc3[nH]6)C=C5)C=C4)cc2)O1
REMARK SMILES IDX 31 1 30 2 29 3 27 4 28 5 26 6 1 7 2 8 3 9 4 10 98 11 5 12
REMARK SMILES IDX 6 13 24 14 7 15 23 16 25 17 8 18 21 19 9 20 19 21 10 22
REMARK SMILES IDX 17 23 20 24 11 25 16 26 18 27 12 28 15 29 13 30 14 31 22 32
REMARK SMILES IDX 32 34 33 35 34 36 35 37 36 38 97 39 37 40 96 41 38 42 39 43
REMARK SMILES IDX 40 44 90 45 41 46 95 47 89 48 91 49 42 50 94 51 88 52 87 53
REMARK SMILES IDX 43 55 75 56 55 57 74 58 56 59 59 60 73 61 92 62 57 63 58 64
REMARK SMILES IDX 72 66 93 67 60 68 44 69 45 70 53 71 46 72 52 73 54 74 51 75
REMARK SMILES IDX 47 76 48 77 49 78 50 79 76 80 77 81 85 82 78 83 84 84 86 85
REMARK SMILES IDX 83 86 79 87 80 88 81 89 82 90 61 91 62 92 70 93 63 94 69 95
REMARK SMILES IDX 71 96 68 97 64 98 65 99 66 100 67 101
REMARK H PARENT 22 33 91 54 59 65
REMARK Flexibility Score: inf
ROOT
ATOM      1  C   UNL     1       2.055   4.425  -5.553  1.00  0.00     0.275 C 
ENDROOT
BRANCH   1   2
ATOM      2  C   UNL     1       1.434   5.248  -4.433  1.00  0.00     0.274 C 
BRANCH   2   3
ATOM      3  O   UNL     1       1.075   4.392  -3.334  1.00  0.00    -0.460 OA
BRANCH   3   4
ATOM      4  C   UNL     1      -0.250   4.092  -3.160  1.00  0.00     0.342 C 
ATOM      5  O   UNL     1      -1.159   4.487  -3.876  1.00  0.00    -0.249 OA
BRANCH   4   6
ATOM      6  C   UNL     1      -0.430   3.301  -1.862  1.00  0.00     0.200 C 
ATOM      7  C   UNL     1       0.440   0.263  -0.402  1.00  0.00     0.075 C 
ATOM      8  C   UNL     1       0.206   1.026  -1.725  1.00  0.00     0.165 C 
ATOM      9  C   UNL     1       0.974   0.238  -2.776  1.00  0.00     0.075 C 
ATOM     10  O   UNL     1      -1.188   1.054  -2.029  1.00  0.00    -0.344 OA
ATOM     11  O   UNL     1       0.703   2.388  -1.675  1.00  0.00    -0.329 OA
ATOM     12  C   UNL     1      -1.663   2.370  -1.720  1.00  0.00     0.166 C 
ATOM     13  C   UNL     1      -2.106   2.450  -0.197  1.00  0.00     0.040 C 
ATOM     14  C   UNL     1      -0.634   4.312  -0.649  1.00  0.00     0.016 C 
ATOM     15  C   UNL     1      -0.943   3.243   0.412  1.00  0.00     0.008 C 
ATOM     16  C   UNL     1       0.535   5.221  -0.269  1.00  0.00     0.046 C 
ATOM     17  C   UNL     1      -1.838   5.260  -0.932  1.00  0.00     0.015 C 
ATOM     18  C   UNL     1      -0.307   3.175   1.801  1.00  0.00     0.035 C 
ATOM     19  C   UNL     1       1.496   4.638   0.753  1.00  0.00     0.154 C 
ATOM     20  C   UNL     1      -1.165   2.849   3.006  1.00  0.00     0.012 C 
ATOM     21  C   UNL     1       0.761   4.257   2.087  1.00  0.00     0.152 C 
ATOM     22  C   UNL     1      -0.240   2.156   4.022  1.00  0.00     0.032 C 
ATOM     23  C   UNL     1       1.737   3.757   3.236  1.00  0.00     0.044 C 
ATOM     24  F   UNL     1       0.083   5.365   2.531  1.00  0.00    -0.239 F 
ATOM     25  C   UNL     1       1.006   2.957   4.351  1.00  0.00    -0.053 C 
ATOM     26  C   UNL     1       2.505   4.913   3.879  1.00  0.00    -0.009 C 
ATOM     27  C   UNL     1       2.825   2.816   2.632  1.00  0.00     0.024 C 
ATOM     28  C   UNL     1       1.492   2.911   5.606  1.00  0.00     0.052 C 
ATOM     29  C   UNL     1       2.963   4.888   5.138  1.00  0.00     0.048 C 
ATOM     30  C   UNL     1       2.648   3.740   6.011  1.00  0.00     0.178 C 
ATOM     31  O   UNL     1       3.263   3.530   7.048  1.00  0.00    -0.290 OA
BRANCH  19  32
ATOM     32  O   UNL     1       2.528   5.609   0.953  1.00  0.00    -0.390 OA
ATOM     33  H   UNL     1       2.137   6.436   1.274  1.00  0.00     0.211 HD
ENDBRANCH  19  32
ENDBRANCH   4   6
ENDBRANCH   3   4
ENDBRANCH   2   3
ENDBRANCH   1   2
BRANCH   1  34
ATOM     34  O   UNL     1       1.060   3.517  -6.048  1.00  0.00    -0.458 OA
BRANCH  34  35
ATOM     35  C   UNL     1       1.377   2.211  -5.982  1.00  0.00     0.338 C 
ATOM     36  O   UNL     1       2.464   1.721  -5.683  1.00  0.00    -0.246 OA
BRANCH  35  37
ATOM     37  C   UNL     1       0.187   1.408  -6.285  1.00  0.00     0.060 A 
ATOM     38  C   UNL     1      -0.910   1.451  -5.420  1.00  0.00     0.016 A 
ATOM     39  C   UNL     1       0.220   0.491  -7.330  1.00  0.00     0.016 A 
ATOM     40  C   UNL     1      -1.941   0.531  -5.542  1.00  0.00     0.010 A 
ATOM     41  C   UNL     1      -0.861  -0.373  -7.510  1.00  0.00     0.010 A 
ATOM     42  C   UNL     1      -1.937  -0.378  -6.601  1.00  0.00    -0.014 A 
BRANCH  42  43
ATOM     43  C   UNL     1      -3.020  -1.380  -6.736  1.00  0.00     0.031 A 
ATOM     44  C   UNL     1      -2.683  -2.839  -6.648  1.00  0.00     0.074 A 
ATOM     45  C   UNL     1      -4.289  -0.983  -6.947  1.00  0.00     0.049 A 
ATOM     46  N   UNL     1      -3.385  -3.876  -7.017  1.00  0.00    -0.248 NA
ATOM     47  C   UNL     1      -1.366  -3.168  -6.081  1.00  0.00     0.031 C 
ATOM     48  C   UNL     1      -4.755   0.406  -6.949  1.00  0.00     0.029 A 
ATOM     49  N   UNL     1      -5.418  -1.712  -7.217  1.00  0.00    -0.354 N 
ATOM     50  C   UNL     1      -2.575  -4.982  -6.782  1.00  0.00     0.074 A 
ATOM     51  C   UNL     1      -1.329  -4.484  -6.238  1.00  0.00     0.031 C 
ATOM     52  C   UNL     1      -6.071   0.427  -7.209  1.00  0.00     0.029 A 
ATOM     53  C   UNL     1      -6.517  -0.932  -7.491  1.00  0.00     0.049 A 
ATOM     54  H   UNL     1      -5.439  -2.696  -7.216  1.00  0.00     0.167 HD
ATOM     55  C   UNL     1      -2.853  -6.289  -7.015  1.00  0.00     0.034 A 
ATOM     56  C   UNL     1      -7.724  -1.267  -7.984  1.00  0.00     0.034 A 
ATOM     57  C   UNL     1      -4.118  -6.747  -7.538  1.00  0.00     0.049 A 
ATOM     58  C   UNL     1      -7.988  -2.713  -8.313  1.00  0.00     0.074 A 
ATOM     59  C   UNL     1      -4.515  -8.038  -7.841  1.00  0.00     0.029 A 
ATOM     60  N   UNL     1      -5.200  -5.923  -7.829  1.00  0.00    -0.354 N 
ATOM     61  N   UNL     1      -7.187  -3.747  -8.187  1.00  0.00    -0.248 NA
ATOM     62  C   UNL     1      -9.309  -3.035  -8.863  1.00  0.00     0.031 C 
ATOM     63  C   UNL     1      -5.813  -7.987  -8.363  1.00  0.00     0.029 A 
ATOM     64  C   UNL     1      -6.255  -6.674  -8.323  1.00  0.00     0.049 A 
ATOM     65  H   UNL     1      -5.214  -4.946  -7.703  1.00  0.00     0.167 HD
ATOM     66  C   UNL     1      -7.918  -4.847  -8.622  1.00  0.00     0.074 A 
ATOM     67  C   UNL     1      -9.226  -4.350  -9.002  1.00  0.00     0.031 C 
ATOM     68  C   UNL     1      -7.547  -6.150  -8.699  1.00  0.00     0.034 A 
BRANCH  55  69
ATOM     69  C   UNL     1      -1.744  -7.285  -6.784  1.00  0.00     0.023 A 
ATOM     70  C   UNL     1      -1.209  -7.528  -5.508  1.00  0.00     0.031 A 
ATOM     71  C   UNL     1      -1.176  -7.968  -7.876  1.00  0.00     0.131 A 
ATOM     72  C   UNL     1      -0.096  -8.372  -5.364  1.00  0.00     0.055 A 
ATOM     73  C   UNL     1      -0.119  -8.866  -7.716  1.00  0.00     0.041 A 
ATOM     74  F   UNL     1      -1.627  -7.757  -9.123  1.00  0.00    -0.206 F 
ATOM     75  C   UNL     1       0.438  -9.061  -6.457  1.00  0.00     0.022 A 
BRANCH  72  76
ATOM     76  S   UNL     1       0.738  -8.445  -3.755  1.00  0.00     0.124 S 
ATOM     77  O   UNL     1       1.109  -7.047  -3.550  1.00  0.00    -0.237 OA
ATOM     78  O   UNL     1      -0.308  -8.962  -2.880  1.00  0.00    -0.237 OA
ATOM     79  O   UNL     1       1.860  -9.351  -3.990  1.00  0.00    -0.744 OA
ENDBRANCH  72  76
ENDBRANCH  55  69
BRANCH  56  80
ATOM     80  C   UNL     1      -8.736  -0.213  -8.277  1.00  0.00     0.023 A 
ATOM     81  C   UNL     1      -9.957  -0.170  -7.589  1.00  0.00     0.031 A 
ATOM     82  C   UNL     1      -8.502   0.758  -9.270  1.00  0.00     0.131 A 
ATOM     83  C   UNL     1     -10.913   0.802  -7.925  1.00  0.00     0.055 A 
ATOM     84  C   UNL     1      -9.434   1.754  -9.562  1.00  0.00     0.041 A 
ATOM     85  F   UNL     1      -7.349   0.762  -9.958  1.00  0.00    -0.206 F 
ATOM     86  C   UNL     1     -10.654   1.773  -8.895  1.00  0.00     0.022 A 
BRANCH  83  87
ATOM     87  S   UNL     1     -12.537   0.735  -7.121  1.00  0.00     0.124 S 
ATOM     88  O   UNL     1     -12.993  -0.602  -7.482  1.00  0.00    -0.237 OA
ATOM     89  O   UNL     1     -12.189   0.938  -5.718  1.00  0.00    -0.237 OA
ATOM     90  O   UNL     1     -13.271   1.835  -7.743  1.00  0.00    -0.744 OA
ENDBRANCH  83  87
ENDBRANCH  56  80
BRANCH  68  91
ATOM     91  C   UNL     1      -8.599  -7.126  -9.157  1.00  0.00     0.023 A 
ATOM     92  C   UNL     1      -9.055  -7.153 -10.486  1.00  0.00     0.031 A 
ATOM     93  C   UNL     1      -9.160  -8.032  -8.240  1.00  0.00     0.131 A 
ATOM     94  C   UNL     1     -10.080  -8.038 -10.850  1.00  0.00     0.055 A 
ATOM     95  C   UNL     1     -10.143  -8.945  -8.621  1.00  0.00     0.041 A 
ATOM     96  F   UNL     1      -8.759  -8.044  -6.959  1.00  0.00    -0.206 F 
ATOM     97  C   UNL     1     -10.616  -8.944  -9.930  1.00  0.00     0.022 A 
BRANCH  94  98
ATOM     98  S   UNL     1     -10.761  -7.939 -12.528  1.00  0.00     0.124 S 
ATOM     99  O   UNL     1     -11.261  -6.569 -12.573  1.00  0.00    -0.237 OA
ATOM    100  O   UNL     1      -9.592  -8.218 -13.357  1.00  0.00    -0.237 OA
ATOM    101  O   UNL     1     -11.791  -8.976 -12.543  1.00  0.00    -0.744 OA
ENDBRANCH  94  98
ENDBRANCH  68  91
ENDBRANCH  42  43
ENDBRANCH  35  37
ENDBRANCH  34  35
ENDBRANCH   1  34
TORSDOF 15
