REMARK SMILES O=C(COCCNc1nncs1)OCCOC(=O)c1ccc(-c2c3nc(c(-c4cc(S(=O)(=O)[O-])ccc4F)c4ccc([nH]4)c(-c4cc(S(=O)(=O)[O-])ccc4F)c4nc(c(-c5cc(S(=O)(=O)[O-])ccc5F)c5ccc2[nH]5)C=C4)C=C3)cc1
REMARK SMILES IDX 14 1 13 2 2 3 1 4 3 5 4 6 5 7 6 8 7 9 8 11 9 12 12 13 10 14
REMARK SMILES IDX 11 15 15 16 16 17 17 18 18 19 19 20 20 21 81 22 21 23 80 24
REMARK SMILES IDX 22 25 23 26 24 27 74 28 25 29 79 30 73 31 75 32 26 33 78 34
REMARK SMILES IDX 72 35 71 36 27 38 59 39 39 40 58 41 40 42 43 43 57 44 76 45
REMARK SMILES IDX 41 46 42 47 56 49 77 50 44 51 28 52 29 53 37 54 30 55 36 56
REMARK SMILES IDX 38 57 35 58 31 59 32 60 33 61 34 62 60 63 61 64 69 65 62 66
REMARK SMILES IDX 68 67 70 68 67 69 63 70 64 71 65 72 66 73 45 74 46 75 54 76
REMARK SMILES IDX 47 77 53 78 55 79 52 80 48 81 49 82 50 83 51 84
REMARK H PARENT 7 10 75 37 43 48
REMARK Flexibility Score: inf
ROOT
ATOM      1  C   UNL     1       4.848  -0.722   0.944  1.00  0.00     0.274 C 
ENDROOT
BRANCH   1   2
ATOM      2  O   UNL     1       3.516  -0.227   1.189  1.00  0.00    -0.460 OA
BRANCH   2   3
ATOM      3  C   UNL     1       2.885   0.752   0.498  1.00  0.00     0.332 C 
ATOM      4  O   UNL     1       1.826   1.201   0.933  1.00  0.00    -0.250 OA
BRANCH   3   5
ATOM      5  C   UNL     1       3.489   1.256  -0.821  1.00  0.00     0.282 C 
BRANCH   5   6
ATOM      6  O   UNL     1       3.716   2.652  -0.953  1.00  0.00    -0.368 OA
BRANCH   6   7
ATOM      7  C   UNL     1       2.545   3.474  -1.048  1.00  0.00     0.182 C 
BRANCH   7   8
ATOM      8  C   UNL     1       1.893   3.479  -2.442  1.00  0.00     0.143 C 
BRANCH   8   9
ATOM      9  N   UNL     1       1.035   2.331  -2.644  1.00  0.00    -0.358 N 
ATOM     10  H   UNL     1       1.452   1.524  -3.022  1.00  0.00     0.163 HD
BRANCH   9  11
ATOM     11  C   UNL     1      -0.286   2.262  -2.363  1.00  0.00     0.205 A 
ATOM     12  N   UNL     1      -0.919   1.109  -2.280  1.00  0.00    -0.121 NA
ATOM     13  S   UNL     1      -1.336   3.613  -2.137  1.00  0.00    -0.083 S 
ATOM     14  N   UNL     1      -2.274   1.239  -2.063  1.00  0.00    -0.145 NA
ATOM     15  C   UNL     1      -2.630   2.501  -2.013  1.00  0.00     0.204 A 
ENDBRANCH   9  11
ENDBRANCH   8   9
ENDBRANCH   7   8
ENDBRANCH   6   7
ENDBRANCH   5   6
ENDBRANCH   3   5
ENDBRANCH   2   3
ENDBRANCH   1   2
BRANCH   1  16
ATOM     16  C   UNL     1       4.813  -2.037   0.169  1.00  0.00     0.275 C 
BRANCH  16  17
ATOM     17  O   UNL     1       4.303  -1.832  -1.160  1.00  0.00    -0.458 OA
BRANCH  17  18
ATOM     18  C   UNL     1       3.021  -2.235  -1.368  1.00  0.00     0.338 C 
ATOM     19  O   UNL     1       2.288  -2.757  -0.546  1.00  0.00    -0.246 OA
BRANCH  18  20
ATOM     20  C   UNL     1       2.589  -1.818  -2.722  1.00  0.00     0.060 A 
ATOM     21  C   UNL     1       1.263  -1.408  -2.900  1.00  0.00     0.016 A 
ATOM     22  C   UNL     1       3.472  -1.815  -3.809  1.00  0.00     0.016 A 
ATOM     23  C   UNL     1       0.820  -0.994  -4.160  1.00  0.00     0.010 A 
ATOM     24  C   UNL     1       3.023  -1.407  -5.069  1.00  0.00     0.010 A 
ATOM     25  C   UNL     1       1.692  -1.000  -5.255  1.00  0.00    -0.014 A 
BRANCH  25  26
ATOM     26  C   UNL     1       1.188  -0.701  -6.617  1.00  0.00     0.031 A 
ATOM     27  C   UNL     1       0.673  -1.829  -7.465  1.00  0.00     0.074 A 
ATOM     28  C   UNL     1       1.204   0.554  -7.104  1.00  0.00     0.049 A 
ATOM     29  N   UNL     1       0.218  -1.805  -8.691  1.00  0.00    -0.248 NA
ATOM     30  C   UNL     1       0.682  -3.162  -6.846  1.00  0.00     0.031 C 
ATOM     31  C   UNL     1       1.654   1.738  -6.375  1.00  0.00     0.029 A 
ATOM     32  N   UNL     1       0.840   1.038  -8.336  1.00  0.00    -0.354 N 
ATOM     33  C   UNL     1      -0.141  -3.115  -8.985  1.00  0.00     0.074 A 
ATOM     34  C   UNL     1       0.202  -3.914  -7.825  1.00  0.00     0.031 C 
ATOM     35  C   UNL     1       1.554   2.810  -7.179  1.00  0.00     0.029 A 
ATOM     36  C   UNL     1       1.060   2.386  -8.489  1.00  0.00     0.049 A 
ATOM     37  H   UNL     1       0.457   0.471  -9.045  1.00  0.00     0.167 HD
ATOM     38  C   UNL     1      -0.713  -3.607 -10.111  1.00  0.00     0.034 A 
ATOM     39  C   UNL     1       0.902   3.181  -9.567  1.00  0.00     0.034 A 
ATOM     40  C   UNL     1      -1.009  -2.816 -11.279  1.00  0.00     0.049 A 
ATOM     41  C   UNL     1       0.376   2.589 -10.854  1.00  0.00     0.074 A 
ATOM     42  C   UNL     1      -1.592  -3.217 -12.469  1.00  0.00     0.029 A 
ATOM     43  N   UNL     1      -0.723  -1.464 -11.417  1.00  0.00    -0.354 N 
ATOM     44  N   UNL     1       0.012   1.353 -11.108  1.00  0.00    -0.248 NA
ATOM     45  C   UNL     1       0.236   3.502 -11.997  1.00  0.00     0.031 C 
ATOM     46  C   UNL     1      -1.593  -2.129 -13.348  1.00  0.00     0.029 A 
ATOM     47  C   UNL     1      -1.079  -1.027 -12.684  1.00  0.00     0.049 A 
ATOM     48  H   UNL     1      -0.325  -0.898 -10.716  1.00  0.00     0.167 HD
ATOM     49  C   UNL     1      -0.435   1.353 -12.428  1.00  0.00     0.074 A 
ATOM     50  C   UNL     1      -0.296   2.709 -12.915  1.00  0.00     0.031 C 
ATOM     51  C   UNL     1      -0.927   0.326 -13.166  1.00  0.00     0.034 A 
BRANCH  38  52
ATOM     52  C   UNL     1      -1.005  -5.085 -10.137  1.00  0.00     0.023 A 
ATOM     53  C   UNL     1      -1.952  -5.661  -9.271  1.00  0.00     0.031 A 
ATOM     54  C   UNL     1      -0.301  -5.936 -11.006  1.00  0.00     0.131 A 
ATOM     55  C   UNL     1      -2.118  -7.053  -9.244  1.00  0.00     0.055 A 
ATOM     56  C   UNL     1      -0.524  -7.313 -11.026  1.00  0.00     0.041 A 
ATOM     57  F   UNL     1       0.631  -5.443 -11.837  1.00  0.00    -0.206 F 
ATOM     58  C   UNL     1      -1.427  -7.881 -10.131  1.00  0.00     0.022 A 
BRANCH  55  59
ATOM     59  S   UNL     1      -3.147  -7.779  -7.938  1.00  0.00     0.124 S 
ATOM     60  O   UNL     1      -2.468  -7.310  -6.733  1.00  0.00    -0.237 OA
ATOM     61  O   UNL     1      -4.455  -7.195  -8.206  1.00  0.00    -0.237 OA
ATOM     62  O   UNL     1      -3.044  -9.217  -8.181  1.00  0.00    -0.744 OA
ENDBRANCH  55  59
ENDBRANCH  38  52
BRANCH  39  63
ATOM     63  C   UNL     1       1.285   4.620  -9.509  1.00  0.00     0.023 A 
ATOM     64  C   UNL     1       0.325   5.633  -9.658  1.00  0.00     0.031 A 
ATOM     65  C   UNL     1       2.633   5.001  -9.382  1.00  0.00     0.131 A 
ATOM     66  C   UNL     1       0.730   6.975  -9.728  1.00  0.00     0.055 A 
ATOM     67  C   UNL     1       3.026   6.340  -9.405  1.00  0.00     0.041 A 
ATOM     68  F   UNL     1       3.590   4.071  -9.237  1.00  0.00    -0.206 F 
ATOM     69  C   UNL     1       2.073   7.336  -9.593  1.00  0.00     0.022 A 
BRANCH  66  70
ATOM     70  S   UNL     1      -0.517   8.243 -10.086  1.00  0.00     0.124 S 
ATOM     71  O   UNL     1      -1.025   7.803 -11.380  1.00  0.00    -0.237 OA
ATOM     72  O   UNL     1      -1.427   8.098  -8.955  1.00  0.00    -0.237 OA
ATOM     73  O   UNL     1       0.255   9.483 -10.106  1.00  0.00    -0.744 OA
ENDBRANCH  66  70
ENDBRANCH  39  63
BRANCH  51  74
ATOM     74  C   UNL     1      -1.400   0.643 -14.565  1.00  0.00     0.023 A 
ATOM     75  C   UNL     1      -0.507   1.002 -15.590  1.00  0.00     0.031 A 
ATOM     76  C   UNL     1      -2.771   0.580 -14.874  1.00  0.00     0.131 A 
ATOM     77  C   UNL     1      -1.000   1.325 -16.864  1.00  0.00     0.055 A 
ATOM     78  C   UNL     1      -3.250   0.852 -16.157  1.00  0.00     0.041 A 
ATOM     79  F   UNL     1      -3.669   0.244 -13.934  1.00  0.00    -0.206 F 
ATOM     80  C   UNL     1      -2.363   1.237 -17.158  1.00  0.00     0.022 A 
BRANCH  77  81
ATOM     81  S   UNL     1       0.159   1.931 -18.122  1.00  0.00     0.124 S 
ATOM     82  O   UNL     1       0.702   3.127 -17.486  1.00  0.00    -0.237 OA
ATOM     83  O   UNL     1       1.083   0.810 -18.263  1.00  0.00    -0.237 OA
ATOM     84  O   UNL     1      -0.693   2.180 -19.284  1.00  0.00    -0.744 OA
ENDBRANCH  77  81
ENDBRANCH  51  74
ENDBRANCH  25  26
ENDBRANCH  18  20
ENDBRANCH  17  18
ENDBRANCH  16  17
ENDBRANCH   1  16
TORSDOF 19
