REMARK SMILES C[C@H](Nc1ccc(N(C)C)cc1)[C@@H](C)C(=O)OCCOC(=O)c1ccc(-c2c3nc(c(-c4cc(S(=O)(=O)[O-])ccc4F)c4ccc([nH]4)c(-c4cc(S(=O)(=O)[O-])ccc4F)c4nc(c(-c5cc(S(=O)(=O)[O-])ccc5F)c5ccc2[nH]5)C=C4)C=C3)cc1
REMARK SMILES IDX 18 1 17 2 15 3 16 4 13 5 14 6 2 7 1 8 3 9 4 11 5 12 12 13
REMARK SMILES IDX 6 14 11 15 7 16 8 17 9 18 10 19 19 20 20 21 21 22 22 23
REMARK SMILES IDX 23 24 24 25 85 26 25 27 84 28 26 29 27 30 28 31 78 32 29 33
REMARK SMILES IDX 83 34 77 35 79 36 30 37 82 38 76 39 75 40 31 42 63 43 43 44
REMARK SMILES IDX 62 45 44 46 47 47 61 48 80 49 45 50 46 51 60 53 81 54 48 55
REMARK SMILES IDX 32 56 33 57 41 58 34 59 40 60 42 61 39 62 35 63 36 64 37 65
REMARK SMILES IDX 38 66 64 67 65 68 73 69 66 70 72 71 74 72 71 73 67 74 68 75
REMARK SMILES IDX 69 76 70 77 49 78 50 79 58 80 51 81 57 82 59 83 56 84 52 85
REMARK SMILES IDX 53 86 54 87 55 88
REMARK H PARENT 3 10 79 41 47 52
REMARK Flexibility Score: inf
ROOT
ATOM      1  C   UNL     1      -1.704  -4.099  -2.462  1.00  0.00     0.274 C 
ENDROOT
BRANCH   1   2
ATOM      2  O   UNL     1      -0.994  -2.933  -1.996  1.00  0.00    -0.462 OA
BRANCH   2   3
ATOM      3  C   UNL     1      -1.740  -2.039  -1.293  1.00  0.00     0.310 C 
ATOM      4  O   UNL     1      -2.945  -2.148  -1.093  1.00  0.00    -0.252 OA
BRANCH   3   5
ATOM      5  C   UNL     1      -0.957  -0.819  -0.843  1.00  0.00     0.118 C 
ATOM      6  C   UNL     1      -1.230   0.278  -1.874  1.00  0.00     0.022 C 
BRANCH   5   7
ATOM      7  C   UNL     1       0.549  -1.079  -0.615  1.00  0.00     0.090 C 
ATOM      8  C   UNL     1       0.779  -2.023   0.575  1.00  0.00     0.031 C 
BRANCH   7   9
ATOM      9  N   UNL     1       1.230   0.190  -0.321  1.00  0.00    -0.382 N 
ATOM     10  H   UNL     1       0.698   1.003  -0.165  1.00  0.00     0.160 HD
BRANCH   9  11
ATOM     11  C   UNL     1       2.616   0.254  -0.261  1.00  0.00     0.034 A 
ATOM     12  C   UNL     1       3.225   0.921   0.798  1.00  0.00     0.028 A 
ATOM     13  C   UNL     1       3.448  -0.390  -1.171  1.00  0.00     0.028 A 
ATOM     14  C   UNL     1       4.620   0.912   0.964  1.00  0.00     0.028 A 
ATOM     15  C   UNL     1       4.843  -0.381  -1.009  1.00  0.00     0.028 A 
ATOM     16  C   UNL     1       5.479   0.254   0.072  1.00  0.00     0.036 A 
BRANCH  16  17
ATOM     17  N   UNL     1       6.862   0.243   0.221  1.00  0.00    -0.378 N 
ATOM     18  C   UNL     1       7.532   0.764   1.409  1.00  0.00     0.143 C 
ATOM     19  C   UNL     1       7.681  -0.608  -0.636  1.00  0.00     0.143 C 
ENDBRANCH  16  17
ENDBRANCH   9  11
ENDBRANCH   7   9
ENDBRANCH   5   7
ENDBRANCH   3   5
ENDBRANCH   2   3
ENDBRANCH   1   2
BRANCH   1  20
ATOM     20  C   UNL     1      -1.550  -5.259  -1.481  1.00  0.00     0.275 C 
BRANCH  20  21
ATOM     21  O   UNL     1      -2.016  -4.852  -0.186  1.00  0.00    -0.458 OA
BRANCH  21  22
ATOM     22  C   UNL     1      -1.290  -5.299   0.864  1.00  0.00     0.338 C 
ATOM     23  O   UNL     1      -0.354  -6.078   0.824  1.00  0.00    -0.246 OA
BRANCH  22  24
ATOM     24  C   UNL     1      -1.810  -4.708   2.114  1.00  0.00     0.060 A 
ATOM     25  C   UNL     1      -2.110  -3.345   2.204  1.00  0.00     0.016 A 
ATOM     26  C   UNL     1      -1.927  -5.524   3.240  1.00  0.00     0.016 A 
ATOM     27  C   UNL     1      -2.475  -2.786   3.427  1.00  0.00     0.010 A 
ATOM     28  C   UNL     1      -2.366  -4.976   4.447  1.00  0.00     0.010 A 
ATOM     29  C   UNL     1      -2.622  -3.599   4.559  1.00  0.00    -0.014 A 
BRANCH  29  30
ATOM     30  C   UNL     1      -3.015  -3.018   5.869  1.00  0.00     0.031 A 
ATOM     31  C   UNL     1      -2.068  -3.091   7.036  1.00  0.00     0.074 A 
ATOM     32  C   UNL     1      -4.227  -2.448   6.019  1.00  0.00     0.049 A 
ATOM     33  N   UNL     1      -2.281  -2.815   8.297  1.00  0.00    -0.248 NA
ATOM     34  C   UNL     1      -0.704  -3.554   6.742  1.00  0.00     0.031 C 
ATOM     35  C   UNL     1      -5.221  -2.280   4.957  1.00  0.00     0.029 A 
ATOM     36  N   UNL     1      -4.833  -1.913   7.127  1.00  0.00    -0.354 N 
ATOM     37  C   UNL     1      -1.091  -3.106   8.956  1.00  0.00     0.074 A 
ATOM     38  C   UNL     1      -0.168  -3.599   7.953  1.00  0.00     0.031 C 
ATOM     39  C   UNL     1      -6.306  -1.673   5.462  1.00  0.00     0.029 A 
ATOM     40  C   UNL     1      -6.116  -1.476   6.895  1.00  0.00     0.049 A 
ATOM     41  H   UNL     1      -4.392  -1.847   8.005  1.00  0.00     0.167 HD
ATOM     42  C   UNL     1      -0.797  -2.973  10.274  1.00  0.00     0.034 A 
ATOM     43  C   UNL     1      -7.052  -1.010   7.745  1.00  0.00     0.034 A 
ATOM     44  C   UNL     1      -1.725  -2.464  11.257  1.00  0.00     0.049 A 
ATOM     45  C   UNL     1      -6.721  -0.916   9.211  1.00  0.00     0.074 A 
ATOM     46  C   UNL     1      -1.532  -2.282  12.616  1.00  0.00     0.029 A 
ATOM     47  N   UNL     1      -3.024  -2.050  10.985  1.00  0.00    -0.354 N 
ATOM     48  N   UNL     1      -5.608  -1.240   9.830  1.00  0.00    -0.248 NA
ATOM     49  C   UNL     1      -7.774  -0.398  10.092  1.00  0.00     0.031 C 
ATOM     50  C   UNL     1      -2.728  -1.811  13.172  1.00  0.00     0.029 A 
ATOM     51  C   UNL     1      -3.648  -1.635  12.152  1.00  0.00     0.049 A 
ATOM     52  H   UNL     1      -3.441  -2.053  10.093  1.00  0.00     0.167 HD
ATOM     53  C   UNL     1      -5.825  -0.948  11.173  1.00  0.00     0.074 A 
ATOM     54  C   UNL     1      -7.165  -0.404  11.268  1.00  0.00     0.031 C 
ATOM     55  C   UNL     1      -4.993  -1.114  12.233  1.00  0.00     0.034 A 
BRANCH  42  56
ATOM     56  C   UNL     1       0.563  -3.445  10.730  1.00  0.00     0.023 A 
ATOM     57  C   UNL     1       1.749  -2.823  10.303  1.00  0.00     0.031 A 
ATOM     58  C   UNL     1       0.675  -4.564  11.575  1.00  0.00     0.131 A 
ATOM     59  C   UNL     1       2.993  -3.365  10.664  1.00  0.00     0.055 A 
ATOM     60  C   UNL     1       1.914  -5.053  11.992  1.00  0.00     0.041 A 
ATOM     61  F   UNL     1      -0.422  -5.213  11.998  1.00  0.00    -0.206 F 
ATOM     62  C   UNL     1       3.084  -4.462  11.524  1.00  0.00     0.022 A 
BRANCH  59  63
ATOM     63  S   UNL     1       4.490  -2.701   9.881  1.00  0.00     0.124 S 
ATOM     64  O   UNL     1       4.207  -2.925   8.465  1.00  0.00    -0.237 OA
ATOM     65  O   UNL     1       4.487  -1.312  10.322  1.00  0.00    -0.237 OA
ATOM     66  O   UNL     1       5.561  -3.529  10.432  1.00  0.00    -0.744 OA
ENDBRANCH  59  63
ENDBRANCH  42  56
BRANCH  43  67
ATOM     67  C   UNL     1      -8.409  -0.652   7.246  1.00  0.00     0.023 A 
ATOM     68  C   UNL     1      -8.868   0.673   7.289  1.00  0.00     0.031 A 
ATOM     69  C   UNL     1      -9.278  -1.639   6.748  1.00  0.00     0.131 A 
ATOM     70  C   UNL     1     -10.176   0.971   6.875  1.00  0.00     0.055 A 
ATOM     71  C   UNL     1     -10.559  -1.330   6.292  1.00  0.00     0.041 A 
ATOM     72  F   UNL     1      -8.884  -2.921   6.684  1.00  0.00    -0.206 F 
ATOM     73  C   UNL     1     -11.020  -0.019   6.365  1.00  0.00     0.022 A 
BRANCH  70  74
ATOM     74  S   UNL     1     -10.785   2.667   7.078  1.00  0.00     0.124 S 
ATOM     75  O   UNL     1     -10.650   2.862   8.517  1.00  0.00    -0.237 OA
ATOM     76  O   UNL     1      -9.862   3.423   6.239  1.00  0.00    -0.237 OA
ATOM     77  O   UNL     1     -12.159   2.597   6.584  1.00  0.00    -0.744 OA
ENDBRANCH  70  74
ENDBRANCH  43  67
BRANCH  55  78
ATOM     78  C   UNL     1      -5.511  -0.661  13.574  1.00  0.00     0.023 A 
ATOM     79  C   UNL     1      -6.572  -1.322  14.217  1.00  0.00     0.031 A 
ATOM     80  C   UNL     1      -4.963   0.475  14.196  1.00  0.00     0.131 A 
ATOM     81  C   UNL     1      -7.093  -0.806  15.414  1.00  0.00     0.055 A 
ATOM     82  C   UNL     1      -5.449   0.951  15.414  1.00  0.00     0.041 A 
ATOM     83  F   UNL     1      -3.951   1.145  13.623  1.00  0.00    -0.206 F 
ATOM     84  C   UNL     1      -6.530   0.319  16.022  1.00  0.00     0.022 A 
BRANCH  81  85
ATOM     85  S   UNL     1      -8.586  -1.565  16.112  1.00  0.00     0.124 S 
ATOM     86  O   UNL     1      -9.532  -1.450  15.007  1.00  0.00    -0.237 OA
ATOM     87  O   UNL     1      -8.132  -2.916  16.425  1.00  0.00    -0.237 OA
ATOM     88  O   UNL     1      -8.885  -0.728  17.273  1.00  0.00    -0.744 OA
ENDBRANCH  81  85
ENDBRANCH  55  78
ENDBRANCH  29  30
ENDBRANCH  22  24
ENDBRANCH  21  22
ENDBRANCH  20  21
ENDBRANCH   1  20
TORSDOF 18
