REMARK SMILES O=C1C=C/C(=C\NCc2ccc(C(=O)OCCOC(=O)c3ccc(-c4c5nc(c(-c6cc(S(=O)(=O)[O-])ccc6F)c6ccc([nH]6)c(-c6cc(S(=O)(=O)[O-])ccc6F)c6nc(c(-c7cc(S(=O)(=O)[O-])ccc7F)c7ccc4[nH]7)C=C6)C=C5)cc3)cc2)C=C1[N+](=O)[O-]
REMARK SMILES IDX 16 1 15 2 13 3 14 4 12 5 9 6 10 7 85 8 11 9 84 10 8 11 7 12
REMARK SMILES IDX 6 14 1 15 2 16 3 17 87 18 4 19 86 20 5 21 88 22 89 23 90 24
REMARK SMILES IDX 17 25 18 26 19 27 20 28 21 29 22 30 83 31 23 32 82 33 24 34
REMARK SMILES IDX 25 35 26 36 76 37 27 38 81 39 75 40 77 41 28 42 80 43 74 44
REMARK SMILES IDX 73 45 29 47 61 48 41 49 60 50 42 51 45 52 59 53 78 54 43 55
REMARK SMILES IDX 44 56 58 58 79 59 46 60 30 61 31 62 39 63 32 64 38 65 40 66
REMARK SMILES IDX 37 67 33 68 34 69 35 70 36 71 62 72 63 73 71 74 64 75 70 76
REMARK SMILES IDX 72 77 69 78 65 79 66 80 67 81 68 82 47 83 48 84 56 85 49 86
REMARK SMILES IDX 55 87 57 88 54 89 50 90 51 91 52 92 53 93
REMARK H PARENT 7 13 77 46 45 57
REMARK Flexibility Score: inf
ROOT
ATOM      1  C   UNL     1       6.802   3.688  -7.264  1.00  0.00     0.275 C 
ENDROOT
BRANCH   1   2
ATOM      2  O   UNL     1       6.462   2.970  -6.061  1.00  0.00    -0.458 OA
BRANCH   2   3
ATOM      3  C   UNL     1       7.005   3.455  -4.917  1.00  0.00     0.338 C 
ATOM      4  O   UNL     1       7.761   4.410  -4.825  1.00  0.00    -0.246 OA
BRANCH   3   5
ATOM      5  C   UNL     1       6.505   2.717  -3.730  1.00  0.00     0.060 A 
ATOM      6  C   UNL     1       5.599   1.415  -1.407  1.00  0.00    -0.029 A 
ATOM      7  C   UNL     1       5.947   2.769  -1.368  1.00  0.00     0.006 A 
ATOM      8  C   UNL     1       5.699   0.721  -2.625  1.00  0.00     0.006 A 
ATOM      9  C   UNL     1       6.424   3.404  -2.512  1.00  0.00     0.016 A 
ATOM     10  C   UNL     1       6.144   1.368  -3.784  1.00  0.00     0.016 A 
BRANCH   6  11
ATOM     11  C   UNL     1       5.098   0.736  -0.159  1.00  0.00     0.148 C 
BRANCH  11  12
ATOM     12  N   UNL     1       3.663   0.895  -0.062  1.00  0.00    -0.386 N 
ATOM     13  H   UNL     1       3.318   1.817  -0.038  1.00  0.00     0.160 HD
BRANCH  12  14
ATOM     14  C   UNL     1       2.736  -0.113  -0.001  1.00  0.00     0.086 C 
ATOM     15  O   UNL     1      -2.692   0.003  -0.157  1.00  0.00    -0.282 OA
ATOM     16  C   UNL     1      -1.476  -0.059  -0.029  1.00  0.00     0.255 C 
ATOM     17  C   UNL     1      -0.690   1.208   0.029  1.00  0.00     0.060 C 
ATOM     18  C   UNL     1      -0.696  -1.319   0.045  1.00  0.00     0.316 C 
ATOM     19  C   UNL     1       0.651   1.196   0.057  1.00  0.00     0.014 C 
ATOM     20  C   UNL     1       0.649  -1.314   0.077  1.00  0.00     0.099 C 
ATOM     21  C   UNL     1       1.391  -0.058   0.040  1.00  0.00    -0.003 C 
BRANCH  18  22
ATOM     22  N   UNL     1      -1.363  -2.609   0.062  1.00  0.00     0.067 N 
ATOM     23  O   UNL     1      -0.669  -3.620  -0.143  1.00  0.00    -0.258 OA
ATOM     24  O   UNL     1      -2.574  -2.656   0.303  1.00  0.00    -0.258 OA
ENDBRANCH  18  22
ENDBRANCH  12  14
ENDBRANCH  11  12
ENDBRANCH   6  11
ENDBRANCH   3   5
ENDBRANCH   2   3
ENDBRANCH   1   2
BRANCH   1  25
ATOM     25  C   UNL     1       5.680   4.634  -7.690  1.00  0.00     0.275 C 
BRANCH  25  26
ATOM     26  O   UNL     1       5.527   5.707  -6.744  1.00  0.00    -0.458 OA
BRANCH  26  27
ATOM     27  C   UNL     1       4.424   5.636  -5.964  1.00  0.00     0.338 C 
ATOM     28  O   UNL     1       3.548   4.789  -5.992  1.00  0.00    -0.246 OA
BRANCH  27  29
ATOM     29  C   UNL     1       4.423   6.755  -5.011  1.00  0.00     0.060 A 
ATOM     30  C   UNL     1       5.234   6.679  -3.881  1.00  0.00     0.016 A 
ATOM     31  C   UNL     1       3.527   7.810  -5.163  1.00  0.00     0.016 A 
ATOM     32  C   UNL     1       5.097   7.611  -2.853  1.00  0.00     0.010 A 
ATOM     33  C   UNL     1       3.455   8.794  -4.171  1.00  0.00     0.010 A 
ATOM     34  C   UNL     1       4.215   8.691  -2.989  1.00  0.00    -0.014 A 
BRANCH  34  35
ATOM     35  C   UNL     1       4.041   9.694  -1.899  1.00  0.00     0.031 A 
ATOM     36  C   UNL     1       2.671   9.926  -1.316  1.00  0.00     0.074 A 
ATOM     37  C   UNL     1       5.084  10.418  -1.444  1.00  0.00     0.049 A 
ATOM     38  N   UNL     1       2.230  10.922  -0.593  1.00  0.00    -0.248 NA
ATOM     39  C   UNL     1       1.657   8.900  -1.607  1.00  0.00     0.031 C 
ATOM     40  C   UNL     1       6.479  10.249  -1.854  1.00  0.00     0.029 A 
ATOM     41  N   UNL     1       5.129  11.457  -0.545  1.00  0.00    -0.354 N 
ATOM     42  C   UNL     1       0.873  10.680  -0.396  1.00  0.00     0.074 A 
ATOM     43  C   UNL     1       0.568   9.440  -1.080  1.00  0.00     0.031 C 
ATOM     44  C   UNL     1       7.240  11.143  -1.205  1.00  0.00     0.029 A 
ATOM     45  C   UNL     1       6.380  12.017  -0.417  1.00  0.00     0.049 A 
ATOM     46  H   UNL     1       4.343  11.770  -0.041  1.00  0.00     0.167 HD
ATOM     47  C   UNL     1      -0.030  11.430   0.285  1.00  0.00     0.034 A 
ATOM     48  C   UNL     1       6.784  13.145   0.203  1.00  0.00     0.034 A 
ATOM     49  C   UNL     1       0.308  12.642   0.992  1.00  0.00     0.049 A 
ATOM     50  C   UNL     1       5.757  14.002   0.898  1.00  0.00     0.074 A 
ATOM     51  C   UNL     1      -0.524  13.484   1.711  1.00  0.00     0.029 A 
ATOM     52  N   UNL     1       1.585  13.181   1.077  1.00  0.00    -0.354 N 
ATOM     53  N   UNL     1       4.462  13.815   1.000  1.00  0.00    -0.248 NA
ATOM     54  C   UNL     1       6.243  15.227   1.546  1.00  0.00     0.031 C 
ATOM     55  C   UNL     1       0.239  14.557   2.184  1.00  0.00     0.029 A 
ATOM     56  C   UNL     1       1.561  14.349   1.823  1.00  0.00     0.049 A 
ATOM     57  H   UNL     1       2.391  12.790   0.668  1.00  0.00     0.167 HD
ATOM     58  C   UNL     1       3.984  14.884   1.752  1.00  0.00     0.074 A 
ATOM     59  C   UNL     1       5.128  15.710   2.077  1.00  0.00     0.031 C 
ATOM     60  C   UNL     1       2.714  15.155   2.144  1.00  0.00     0.034 A 
BRANCH  47  61
ATOM     61  C   UNL     1      -1.475  10.994   0.238  1.00  0.00     0.023 A 
ATOM     62  C   UNL     1      -1.908   9.782   0.800  1.00  0.00     0.031 A 
ATOM     63  C   UNL     1      -2.431  11.795  -0.413  1.00  0.00     0.131 A 
ATOM     64  C   UNL     1      -3.240   9.371   0.636  1.00  0.00     0.055 A 
ATOM     65  C   UNL     1      -3.773  11.419  -0.501  1.00  0.00     0.041 A 
ATOM     66  F   UNL     1      -2.074  12.955  -0.988  1.00  0.00    -0.206 F 
ATOM     67  C   UNL     1      -4.181  10.192   0.011  1.00  0.00     0.022 A 
BRANCH  64  68
ATOM     68  S   UNL     1      -3.689   7.681   1.121  1.00  0.00     0.124 S 
ATOM     69  O   UNL     1      -2.763   6.886   0.318  1.00  0.00    -0.237 OA
ATOM     70  O   UNL     1      -3.439   7.690   2.558  1.00  0.00    -0.237 OA
ATOM     71  O   UNL     1      -5.093   7.575   0.730  1.00  0.00    -0.744 OA
ENDBRANCH  64  68
ENDBRANCH  47  61
BRANCH  48  72
ATOM     72  C   UNL     1       8.210  13.574   0.123  1.00  0.00     0.023 A 
ATOM     73  C   UNL     1       9.010  13.653   1.273  1.00  0.00     0.031 A 
ATOM     74  C   UNL     1       8.789  13.935  -1.108  1.00  0.00     0.131 A 
ATOM     75  C   UNL     1      10.333  14.111   1.174  1.00  0.00     0.055 A 
ATOM     76  C   UNL     1      10.121  14.336  -1.210  1.00  0.00     0.041 A 
ATOM     77  F   UNL     1       8.068  13.881  -2.239  1.00  0.00    -0.206 F 
ATOM     78  C   UNL     1      10.899  14.437  -0.062  1.00  0.00     0.022 A 
BRANCH  75  79
ATOM     79  S   UNL     1      11.288  14.348   2.697  1.00  0.00     0.124 S 
ATOM     80  O   UNL     1      10.456  15.302   3.423  1.00  0.00    -0.237 OA
ATOM     81  O   UNL     1      11.334  12.995   3.239  1.00  0.00    -0.237 OA
ATOM     82  O   UNL     1      12.566  14.871   2.220  1.00  0.00    -0.744 OA
ENDBRANCH  75  79
ENDBRANCH  48  72
BRANCH  60  83
ATOM     83  C   UNL     1       2.510  16.351   3.037  1.00  0.00     0.023 A 
ATOM     84  C   UNL     1       2.627  17.667   2.558  1.00  0.00     0.031 A 
ATOM     85  C   UNL     1       2.178  16.161   4.390  1.00  0.00     0.131 A 
ATOM     86  C   UNL     1       2.447  18.745   3.438  1.00  0.00     0.055 A 
ATOM     87  C   UNL     1       1.955  17.237   5.249  1.00  0.00     0.041 A 
ATOM     88  F   UNL     1       2.056  14.923   4.895  1.00  0.00    -0.206 F 
ATOM     89  C   UNL     1       2.097  18.538   4.776  1.00  0.00     0.022 A 
BRANCH  86  90
ATOM     90  S   UNL     1       2.728  20.430   2.826  1.00  0.00     0.124 S 
ATOM     91  O   UNL     1       4.139  20.387   2.457  1.00  0.00    -0.237 OA
ATOM     92  O   UNL     1       1.782  20.523   1.719  1.00  0.00    -0.237 OA
ATOM     93  O   UNL     1       2.413  21.271   3.980  1.00  0.00    -0.744 OA
ENDBRANCH  86  90
ENDBRANCH  60  83
ENDBRANCH  34  35
ENDBRANCH  27  29
ENDBRANCH  26  27
ENDBRANCH  25  26
ENDBRANCH   1  25
TORSDOF 18
