REMARK SMILES Cc1cc2c(c(C)c1Br)C=C(C(=O)OCCOC(=O)c1ccc(-c3c4nc(c(-c5cc(S(=O)(=O)[O-])ccc5F)c5ccc([nH]5)c(-c5cc(S(=O)(=O)[O-])ccc5F)c5nc(c(-c6cc(S(=O)(=O)[O-])ccc6F)c6ccc3[nH]6)C=C5)C=C4)cc1)[C@@H](C(F)(F)F)O2
REMARK SMILES IDX 16 1 15 2 14 3 12 4 13 5 11 6 1 7 2 8 3 9 8 10 4 11 6 12
REMARK SMILES IDX 9 13 5 14 88 15 7 16 10 17 83 18 84 19 85 20 86 21 87 22
REMARK SMILES IDX 17 23 18 24 19 25 20 26 21 27 82 28 22 29 81 30 23 31 24 32
REMARK SMILES IDX 25 33 75 34 26 35 80 36 74 37 76 38 27 39 79 40 73 41 72 42
REMARK SMILES IDX 28 44 60 45 40 46 59 47 41 48 44 49 58 50 77 51 42 52 43 53
REMARK SMILES IDX 57 55 78 56 45 57 29 58 30 59 38 60 31 61 37 62 39 63 36 64
REMARK SMILES IDX 32 65 33 66 34 67 35 68 61 69 62 70 70 71 63 72 69 73 71 74
REMARK SMILES IDX 68 75 64 76 65 77 66 78 67 79 46 80 47 81 55 82 48 83 54 84
REMARK SMILES IDX 56 85 53 86 49 87 50 88 51 89 52 90
REMARK H PARENT 76 43 44 54
REMARK Flexibility Score: inf
ROOT
ATOM      1  C   UNL     1      -3.378  -2.515  -9.369  1.00  0.00     0.275 C 
ENDROOT
BRANCH   1   2
ATOM      2  C   UNL     1      -2.044  -3.156  -8.989  1.00  0.00     0.275 C 
BRANCH   2   3
ATOM      3  O   UNL     1      -1.754  -2.970  -7.587  1.00  0.00    -0.459 OA
BRANCH   3   4
ATOM      4  C   UNL     1      -0.826  -2.026  -7.306  1.00  0.00     0.338 C 
ATOM      5  O   UNL     1      -0.208  -1.351  -8.114  1.00  0.00    -0.246 OA
BRANCH   4   6
ATOM      6  C   UNL     1      -0.634  -1.907  -5.848  1.00  0.00     0.087 C 
ATOM      7  C   UNL     1       0.991  -0.289   0.218  1.00  0.00     0.046 C 
ATOM      8  C   UNL     1       0.494  -0.321  -1.202  1.00  0.00    -0.033 A 
ATOM      9  C   UNL     1       0.363  -1.569  -1.828  1.00  0.00     0.051 A 
ATOM     10  C   UNL     1       0.212   0.847  -1.940  1.00  0.00     0.024 A 
ATOM     11  C   UNL     1      -0.027  -1.668  -3.161  1.00  0.00     0.128 A 
ATOM     12  C   UNL     1      -0.223   0.766  -3.285  1.00  0.00    -0.026 A 
ATOM     13  Br  UNL     1       0.475   2.546  -1.096  1.00  0.00    -0.050 Br
ATOM     14  C   UNL     1      -0.312  -0.515  -3.897  1.00  0.00     0.021 A 
ATOM     15  O   UNL     1      -0.111  -2.943  -3.651  1.00  0.00    -0.475 OA
ATOM     16  C   UNL     1      -0.588   1.999  -4.083  1.00  0.00     0.046 C 
ATOM     17  C   UNL     1      -0.655  -0.684  -5.307  1.00  0.00     0.027 C 
ATOM     18  C   UNL     1      -0.284  -3.141  -5.077  1.00  0.00     0.316 C 
BRANCH  18  19
ATOM     19  C   UNL     1       0.972  -3.823  -5.643  1.00  0.00     0.430 C 
ATOM     20  F   UNL     1       1.302  -4.925  -4.925  1.00  0.00    -0.167 F 
ATOM     21  F   UNL     1       0.777  -4.247  -6.917  1.00  0.00    -0.167 F 
ATOM     22  F   UNL     1       2.049  -3.007  -5.649  1.00  0.00    -0.167 F 
ENDBRANCH  18  19
ENDBRANCH   4   6
ENDBRANCH   3   4
ENDBRANCH   2   3
ENDBRANCH   1   2
BRANCH   1  23
ATOM     23  O   UNL     1      -3.293  -1.086  -9.239  1.00  0.00    -0.458 OA
BRANCH  23  24
ATOM     24  C   UNL     1      -3.975  -0.558  -8.196  1.00  0.00     0.338 C 
ATOM     25  O   UNL     1      -4.694  -1.152  -7.411  1.00  0.00    -0.246 OA
BRANCH  24  26
ATOM     26  C   UNL     1      -3.680   0.879  -8.075  1.00  0.00     0.060 A 
ATOM     27  C   UNL     1      -2.375   1.275  -7.814  1.00  0.00     0.016 A 
ATOM     28  C   UNL     1      -4.711   1.815  -8.024  1.00  0.00     0.016 A 
ATOM     29  C   UNL     1      -2.122   2.556  -7.336  1.00  0.00     0.010 A 
ATOM     30  C   UNL     1      -4.425   3.145  -7.685  1.00  0.00     0.010 A 
ATOM     31  C   UNL     1      -3.135   3.523  -7.268  1.00  0.00    -0.014 A 
BRANCH  31  32
ATOM     32  C   UNL     1      -2.852   4.883  -6.701  1.00  0.00     0.031 A 
ATOM     33  C   UNL     1      -3.718   5.447  -5.594  1.00  0.00     0.074 A 
ATOM     34  C   UNL     1      -1.785   5.601  -7.118  1.00  0.00     0.049 A 
ATOM     35  N   UNL     1      -3.750   6.663  -5.107  1.00  0.00    -0.248 NA
ATOM     36  C   UNL     1      -4.685   4.533  -4.964  1.00  0.00     0.031 C 
ATOM     37  C   UNL     1      -0.811   5.170  -8.125  1.00  0.00     0.029 A 
ATOM     38  N   UNL     1      -1.314   6.832  -6.724  1.00  0.00    -0.354 N 
ATOM     39  C   UNL     1      -4.778   6.675  -4.168  1.00  0.00     0.074 A 
ATOM     40  C   UNL     1      -5.353   5.348  -4.160  1.00  0.00     0.031 C 
ATOM     41  C   UNL     1       0.182   6.066  -8.195  1.00  0.00     0.029 A 
ATOM     42  C   UNL     1      -0.147   7.208  -7.352  1.00  0.00     0.049 A 
ATOM     43  H   UNL     1      -1.770   7.393  -6.055  1.00  0.00     0.167 HD
ATOM     44  C   UNL     1      -5.199   7.697  -3.381  1.00  0.00     0.034 A 
ATOM     45  C   UNL     1       0.559   8.356  -7.308  1.00  0.00     0.034 A 
ATOM     46  C   UNL     1      -4.569   8.993  -3.338  1.00  0.00     0.049 A 
ATOM     47  C   UNL     1       0.032   9.501  -6.487  1.00  0.00     0.074 A 
ATOM     48  C   UNL     1      -4.916  10.092  -2.571  1.00  0.00     0.029 A 
ATOM     49  N   UNL     1      -3.449   9.358  -4.071  1.00  0.00    -0.354 N 
ATOM     50  N   UNL     1      -1.018   9.533  -5.702  1.00  0.00    -0.248 NA
ATOM     51  C   UNL     1       0.757  10.775  -6.580  1.00  0.00     0.031 C 
ATOM     52  C   UNL     1      -4.042  11.138  -2.881  1.00  0.00     0.029 A 
ATOM     53  C   UNL     1      -3.110  10.673  -3.794  1.00  0.00     0.049 A 
ATOM     54  H   UNL     1      -2.967   8.770  -4.696  1.00  0.00     0.167 HD
ATOM     55  C   UNL     1      -1.079  10.831  -5.207  1.00  0.00     0.074 A 
ATOM     56  C   UNL     1       0.049  11.547  -5.766  1.00  0.00     0.031 C 
ATOM     57  C   UNL     1      -1.993  11.379  -4.370  1.00  0.00     0.034 A 
BRANCH  44  58
ATOM     58  C   UNL     1      -6.426   7.479  -2.530  1.00  0.00     0.023 A 
ATOM     59  C   UNL     1      -6.426   6.615  -1.424  1.00  0.00     0.031 A 
ATOM     60  C   UNL     1      -7.610   8.184  -2.819  1.00  0.00     0.131 A 
ATOM     61  C   UNL     1      -7.599   6.446  -0.671  1.00  0.00     0.055 A 
ATOM     62  C   UNL     1      -8.753   8.062  -2.027  1.00  0.00     0.041 A 
ATOM     63  F   UNL     1      -7.671   9.013  -3.874  1.00  0.00    -0.206 F 
ATOM     64  C   UNL     1      -8.754   7.183  -0.949  1.00  0.00     0.022 A 
BRANCH  61  65
ATOM     65  S   UNL     1      -7.624   5.187   0.634  1.00  0.00     0.124 S 
ATOM     66  O   UNL     1      -7.429   3.962  -0.137  1.00  0.00    -0.237 OA
ATOM     67  O   UNL     1      -6.511   5.590   1.485  1.00  0.00    -0.237 OA
ATOM     68  O   UNL     1      -8.950   5.337   1.230  1.00  0.00    -0.744 OA
ENDBRANCH  61  65
ENDBRANCH  44  58
BRANCH  45  69
ATOM     69  C   UNL     1       1.792   8.508  -8.134  1.00  0.00     0.023 A 
ATOM     70  C   UNL     1       3.050   8.668  -7.533  1.00  0.00     0.031 A 
ATOM     71  C   UNL     1       1.730   8.485  -9.540  1.00  0.00     0.131 A 
ATOM     72  C   UNL     1       4.194   8.805  -8.336  1.00  0.00     0.055 A 
ATOM     73  C   UNL     1       2.875   8.570 -10.332  1.00  0.00     0.041 A 
ATOM     74  F   UNL     1       0.550   8.340 -10.165  1.00  0.00    -0.206 F 
ATOM     75  C   UNL     1       4.117   8.736  -9.730  1.00  0.00     0.022 A 
BRANCH  72  76
ATOM     76  S   UNL     1       5.793   9.111  -7.536  1.00  0.00     0.124 S 
ATOM     77  O   UNL     1       5.566  10.409  -6.910  1.00  0.00    -0.237 OA
ATOM     78  O   UNL     1       5.905   7.972  -6.631  1.00  0.00    -0.237 OA
ATOM     79  O   UNL     1       6.737   9.113  -8.651  1.00  0.00    -0.744 OA
ENDBRANCH  72  76
ENDBRANCH  45  69
BRANCH  57  80
ATOM     80  C   UNL     1      -1.810  12.824  -3.993  1.00  0.00     0.023 A 
ATOM     81  C   UNL     1      -2.082  13.854  -4.907  1.00  0.00     0.031 A 
ATOM     82  C   UNL     1      -1.416  13.172  -2.690  1.00  0.00     0.131 A 
ATOM     83  C   UNL     1      -1.939  15.191  -4.511  1.00  0.00     0.055 A 
ATOM     84  C   UNL     1      -1.316  14.504  -2.288  1.00  0.00     0.041 A 
ATOM     85  F   UNL     1      -1.148  12.221  -1.780  1.00  0.00    -0.206 F 
ATOM     86  C   UNL     1      -1.576  15.522  -3.201  1.00  0.00     0.022 A 
BRANCH  83  87
ATOM     87  S   UNL     1      -2.217  16.499  -5.734  1.00  0.00     0.124 S 
ATOM     88  O   UNL     1      -1.121  16.273  -6.671  1.00  0.00    -0.237 OA
ATOM     89  O   UNL     1      -3.554  16.191  -6.231  1.00  0.00    -0.237 OA
ATOM     90  O   UNL     1      -2.119  17.729  -4.950  1.00  0.00    -0.744 OA
ENDBRANCH  83  87
ENDBRANCH  57  80
ENDBRANCH  31  32
ENDBRANCH  24  26
ENDBRANCH  23  24
ENDBRANCH   1  23
TORSDOF 15
