REMARK SMILES CS(=O)(=O)c1ccc(C2=NN(c3ccc(C(=O)OCCOC(=O)c4ccc(-c5c6nc(c(-c7cc(S(=O)(=O)[O-])ccc7F)c7ccc([nH]7)c(-c7cc(S(=O)(=O)[O-])ccc7F)c7nc(c(-c8cc(S(=O)(=O)[O-])ccc8F)c8ccc5[nH]8)C=C7)C=C6)cc4)cc3)[C@H](c3ccc(F)cc3)C2)cc1
REMARK SMILES IDX 19 1 18 2 16 3 17 4 15 5 12 6 13 7 88 8 14 9 87 10 11 11
REMARK SMILES IDX 9 12 10 13 97 14 89 15 8 16 5 17 6 18 99 19 7 20 98 21 2 22
REMARK SMILES IDX 1 23 3 24 4 25 90 26 91 27 96 28 92 29 95 30 93 31 94 32
REMARK SMILES IDX 20 33 21 34 22 35 23 36 24 37 25 38 86 39 26 40 85 41 27 42
REMARK SMILES IDX 28 43 29 44 79 45 30 46 84 47 78 48 80 49 31 50 83 51 77 52
REMARK SMILES IDX 76 53 32 55 64 56 44 57 63 58 45 59 48 60 62 61 81 62 46 63
REMARK SMILES IDX 47 64 61 66 82 67 49 68 33 69 34 70 42 71 35 72 41 73 43 74
REMARK SMILES IDX 40 75 36 76 37 77 38 78 39 79 65 80 66 81 74 82 67 83 73 84
REMARK SMILES IDX 75 85 72 86 68 87 69 88 70 89 71 90 50 91 51 92 59 93 52 94
REMARK SMILES IDX 58 95 60 96 57 97 53 98 54 99 55 100 56 101
REMARK H PARENT 80 54 48 65
REMARK Flexibility Score: inf
ROOT
ATOM      1  C   UNL     1       2.440  -1.687 -16.279  1.00  0.00     0.275 C 
ENDROOT
BRANCH   1   2
ATOM      2  O   UNL     1       2.666  -1.542 -14.864  1.00  0.00    -0.458 OA
BRANCH   2   3
ATOM      3  C   UNL     1       2.149  -0.424 -14.298  1.00  0.00     0.338 C 
ATOM      4  O   UNL     1       1.554   0.470 -14.879  1.00  0.00    -0.246 OA
BRANCH   3   5
ATOM      5  C   UNL     1       2.350  -0.422 -12.827  1.00  0.00     0.060 A 
ATOM      6  C   UNL     1       2.764  -0.180 -10.060  1.00  0.00     0.060 A 
ATOM      7  C   UNL     1       1.645   0.405 -10.655  1.00  0.00     0.029 A 
ATOM      8  C   UNL     1       3.630  -0.950 -10.851  1.00  0.00     0.029 A 
ATOM      9  C   UNL     1       1.461   0.317 -12.033  1.00  0.00     0.018 A 
ATOM     10  C   UNL     1       3.426  -1.079 -12.228  1.00  0.00     0.018 A 
BRANCH   6  11
ATOM     11  N   UNL     1       3.118   0.128  -8.745  1.00  0.00    -0.257 N 
ATOM     12  C   UNL     1       2.474   0.426  -6.734  1.00  0.00     0.071 C 
ATOM     13  N   UNL     1       2.414  -0.412  -7.722  1.00  0.00    -0.176 NA
ATOM     14  C   UNL     1       3.177   1.726  -7.023  1.00  0.00     0.091 C 
ATOM     15  C   UNL     1       3.644   1.471  -8.463  1.00  0.00     0.144 C 
BRANCH  12  16
ATOM     16  C   UNL     1       1.915   0.116  -5.403  1.00  0.00    -0.002 A 
ATOM     17  C   UNL     1       0.902  -0.591  -2.901  1.00  0.00     0.067 A 
ATOM     18  C   UNL     1       1.448  -1.574  -3.728  1.00  0.00     0.021 A 
ATOM     19  C   UNL     1       0.842   0.743  -3.324  1.00  0.00     0.021 A 
ATOM     20  C   UNL     1       1.943  -1.220  -4.983  1.00  0.00     0.011 A 
ATOM     21  C   UNL     1       1.364   1.100  -4.575  1.00  0.00     0.011 A 
BRANCH  17  22
ATOM     22  S   UNL     1       0.283  -1.058  -1.301  1.00  0.00     0.175 S 
ATOM     23  C   UNL     1       1.004   0.101  -0.172  1.00  0.00     0.163 C 
ATOM     24  O   UNL     1       0.854  -2.353  -0.972  1.00  0.00    -0.224 OA
ATOM     25  O   UNL     1      -1.147  -0.839  -1.310  1.00  0.00    -0.224 OA
ENDBRANCH  17  22
ENDBRANCH  12  16
BRANCH  15  26
ATOM     26  C   UNL     1       5.139   1.466  -8.764  1.00  0.00    -0.023 A 
ATOM     27  C   UNL     1       6.112   1.095  -7.825  1.00  0.00     0.009 A 
ATOM     28  C   UNL     1       5.548   1.682 -10.100  1.00  0.00     0.009 A 
ATOM     29  C   UNL     1       7.446   0.931  -8.212  1.00  0.00     0.039 A 
ATOM     30  C   UNL     1       6.872   1.487 -10.491  1.00  0.00     0.039 A 
ATOM     31  C   UNL     1       7.809   1.110  -9.542  1.00  0.00     0.123 A 
ATOM     32  F   UNL     1       9.078   0.894  -9.916  1.00  0.00    -0.207 F 
ENDBRANCH  15  26
ENDBRANCH   6  11
ENDBRANCH   3   5
ENDBRANCH   2   3
ENDBRANCH   1   2
BRANCH   1  33
ATOM     33  C   UNL     1       1.330  -2.698 -16.561  1.00  0.00     0.275 C 
BRANCH  33  34
ATOM     34  O   UNL     1       0.064  -2.200 -16.093  1.00  0.00    -0.458 OA
BRANCH  34  35
ATOM     35  C   UNL     1      -0.414  -2.804 -14.979  1.00  0.00     0.338 C 
ATOM     36  O   UNL     1       0.076  -3.746 -14.381  1.00  0.00    -0.246 OA
BRANCH  35  37
ATOM     37  C   UNL     1      -1.622  -2.105 -14.514  1.00  0.00     0.060 A 
ATOM     38  C   UNL     1      -1.460  -0.925 -13.799  1.00  0.00     0.016 A 
ATOM     39  C   UNL     1      -2.883  -2.683 -14.631  1.00  0.00     0.016 A 
ATOM     40  C   UNL     1      -2.530  -0.363 -13.111  1.00  0.00     0.010 A 
ATOM     41  C   UNL     1      -3.982  -2.058 -14.025  1.00  0.00     0.010 A 
ATOM     42  C   UNL     1      -3.814  -0.912 -13.223  1.00  0.00    -0.014 A 
BRANCH  42  43
ATOM     43  C   UNL     1      -4.952  -0.316 -12.461  1.00  0.00     0.031 A 
ATOM     44  C   UNL     1      -5.742  -1.159 -11.491  1.00  0.00     0.074 A 
ATOM     45  C   UNL     1      -5.271   0.986 -12.614  1.00  0.00     0.049 A 
ATOM     46  N   UNL     1      -6.861  -0.886 -10.869  1.00  0.00    -0.248 NA
ATOM     47  C   UNL     1      -5.208  -2.498 -11.205  1.00  0.00     0.031 C 
ATOM     48  C   UNL     1      -4.568   1.933 -13.483  1.00  0.00     0.029 A 
ATOM     49  N   UNL     1      -6.266   1.743 -12.044  1.00  0.00    -0.354 N 
ATOM     50  C   UNL     1      -7.195  -2.038 -10.160  1.00  0.00     0.074 A 
ATOM     51  C   UNL     1      -6.170  -3.017 -10.458  1.00  0.00     0.031 C 
ATOM     52  C   UNL     1      -5.130   3.143 -13.365  1.00  0.00     0.029 A 
ATOM     53  C   UNL     1      -6.297   3.042 -12.497  1.00  0.00     0.049 A 
ATOM     54  H   UNL     1      -6.897   1.390 -11.375  1.00  0.00     0.167 HD
ATOM     55  C   UNL     1      -8.254  -2.253  -9.337  1.00  0.00     0.034 A 
ATOM     56  C   UNL     1      -7.191   4.030 -12.293  1.00  0.00     0.034 A 
ATOM     57  C   UNL     1      -9.246  -1.248  -9.026  1.00  0.00     0.049 A 
ATOM     58  C   UNL     1      -8.386   3.760 -11.420  1.00  0.00     0.074 A 
ATOM     59  C   UNL     1     -10.347  -1.348  -8.192  1.00  0.00     0.029 A 
ATOM     60  N   UNL     1      -9.258   0.047  -9.536  1.00  0.00    -0.354 N 
ATOM     61  N   UNL     1      -8.719   2.653 -10.796  1.00  0.00    -0.248 NA
ATOM     62  C   UNL     1      -9.328   4.869 -11.228  1.00  0.00     0.031 C 
ATOM     63  C   UNL     1     -11.060  -0.144  -8.254  1.00  0.00     0.029 A 
ATOM     64  C   UNL     1     -10.362   0.741  -9.060  1.00  0.00     0.049 A 
ATOM     65  H   UNL     1      -8.580   0.417 -10.147  1.00  0.00     0.167 HD
ATOM     66  C   UNL     1      -9.908   2.936 -10.131  1.00  0.00     0.074 A 
ATOM     67  C   UNL     1     -10.215   4.325 -10.407  1.00  0.00     0.031 C 
ATOM     68  C   UNL     1     -10.675   2.120  -9.363  1.00  0.00     0.034 A 
BRANCH  55  69
ATOM     69  C   UNL     1      -8.424  -3.650  -8.775  1.00  0.00     0.023 A 
ATOM     70  C   UNL     1      -7.458  -4.249  -7.947  1.00  0.00     0.031 A 
ATOM     71  C   UNL     1      -9.550  -4.419  -9.125  1.00  0.00     0.131 A 
ATOM     72  C   UNL     1      -7.586  -5.600  -7.584  1.00  0.00     0.055 A 
ATOM     73  C   UNL     1      -9.718  -5.732  -8.679  1.00  0.00     0.041 A 
ATOM     74  F   UNL     1     -10.501  -3.915  -9.928  1.00  0.00    -0.206 F 
ATOM     75  C   UNL     1      -8.722  -6.338  -7.922  1.00  0.00     0.022 A 
BRANCH  72  76
ATOM     76  S   UNL     1      -6.162  -6.432  -6.825  1.00  0.00     0.124 S 
ATOM     77  O   UNL     1      -5.118  -6.191  -7.819  1.00  0.00    -0.237 OA
ATOM     78  O   UNL     1      -6.021  -5.721  -5.561  1.00  0.00    -0.237 OA
ATOM     79  O   UNL     1      -6.596  -7.823  -6.716  1.00  0.00    -0.744 OA
ENDBRANCH  72  76
ENDBRANCH  55  69
BRANCH  56  80
ATOM     80  C   UNL     1      -7.030   5.334 -13.001  1.00  0.00     0.023 A 
ATOM     81  C   UNL     1      -6.795   6.527 -12.300  1.00  0.00     0.031 A 
ATOM     82  C   UNL     1      -7.111   5.399 -14.405  1.00  0.00     0.131 A 
ATOM     83  C   UNL     1      -6.668   7.736 -13.004  1.00  0.00     0.055 A 
ATOM     84  C   UNL     1      -6.929   6.593 -15.103  1.00  0.00     0.041 A 
ATOM     85  F   UNL     1      -7.337   4.287 -15.124  1.00  0.00    -0.206 F 
ATOM     86  C   UNL     1      -6.714   7.773 -14.400  1.00  0.00     0.022 A 
BRANCH  83  87
ATOM     87  S   UNL     1      -6.495   9.278 -12.065  1.00  0.00     0.124 S 
ATOM     88  O   UNL     1      -7.726   9.290 -11.283  1.00  0.00    -0.237 OA
ATOM     89  O   UNL     1      -5.263   9.043 -11.319  1.00  0.00    -0.237 OA
ATOM     90  O   UNL     1      -6.405  10.302 -13.104  1.00  0.00    -0.744 OA
ENDBRANCH  83  87
ENDBRANCH  56  80
BRANCH  68  91
ATOM     91  C   UNL     1     -11.908   2.733  -8.742  1.00  0.00     0.023 A 
ATOM     92  C   UNL     1     -12.990   3.172  -9.525  1.00  0.00     0.031 A 
ATOM     93  C   UNL     1     -11.987   2.908  -7.349  1.00  0.00     0.131 A 
ATOM     94  C   UNL     1     -14.075   3.822  -8.917  1.00  0.00     0.055 A 
ATOM     95  C   UNL     1     -13.098   3.495  -6.743  1.00  0.00     0.041 A 
ATOM     96  F   UNL     1     -10.980   2.514  -6.553  1.00  0.00    -0.206 F 
ATOM     97  C   UNL     1     -14.144   3.970  -7.529  1.00  0.00     0.022 A 
BRANCH  94  98
ATOM     98  S   UNL     1     -15.346   4.572  -9.972  1.00  0.00     0.124 S 
ATOM     99  O   UNL     1     -14.560   5.497 -10.782  1.00  0.00    -0.237 OA
ATOM    100  O   UNL     1     -15.893   3.415 -10.674  1.00  0.00    -0.237 OA
ATOM    101  O   UNL     1     -16.256   5.203  -9.018  1.00  0.00    -0.744 OA
ENDBRANCH  94  98
ENDBRANCH  68  91
ENDBRANCH  42  43
ENDBRANCH  35  37
ENDBRANCH  34  35
ENDBRANCH  33  34
ENDBRANCH   1  33
TORSDOF 18
