REMARK SMILES CCOc1cc(OCC)cc(-c2ccc([C@@H](C)C(=O)OCCOC(=O)c3ccc(-c4c5nc(c(-c6cc(S(=O)(=O)[O-])ccc6F)c6ccc([nH]6)c(-c6cc(S(=O)(=O)[O-])ccc6F)c6nc(c(-c7cc(S(=O)(=O)[O-])ccc7F)c7ccc4[nH]7)C=C6)C=C5)cc3)cc2F)c1
REMARK SMILES IDX 21 1 20 2 18 3 19 4 16 5 17 6 15 7 12 8 13 9 90 10 14 11
REMARK SMILES IDX 89 12 91 13 11 14 4 15 5 16 92 17 6 18 10 19 3 20 2 21 1 22
REMARK SMILES IDX 7 23 8 24 9 25 22 26 23 27 24 28 25 29 26 30 27 31 88 32
REMARK SMILES IDX 28 33 87 34 29 35 30 36 31 37 81 38 32 39 86 40 80 41 82 42
REMARK SMILES IDX 33 43 85 44 79 45 78 46 34 48 66 49 46 50 65 51 47 52 50 53
REMARK SMILES IDX 64 54 83 55 48 56 49 57 63 59 84 60 51 61 35 62 36 63 44 64
REMARK SMILES IDX 37 65 43 66 45 67 42 68 38 69 39 70 40 71 41 72 67 73 68 74
REMARK SMILES IDX 76 75 69 76 75 77 77 78 74 79 70 80 71 81 72 82 73 83 52 84
REMARK SMILES IDX 53 85 61 86 54 87 60 88 62 89 59 90 55 91 56 92 57 93 58 94
REMARK H PARENT 82 47 50 58
REMARK Flexibility Score: inf
ROOT
ATOM      1  C   UNL     1       8.444  -4.273   0.669  1.00  0.00     0.274 C 
ENDROOT
BRANCH   1   2
ATOM      2  O   UNL     1       8.397  -3.176  -0.262  1.00  0.00    -0.462 OA
BRANCH   2   3
ATOM      3  C   UNL     1       8.691  -3.451  -1.560  1.00  0.00     0.313 C 
ATOM      4  O   UNL     1       9.117  -4.532  -1.954  1.00  0.00    -0.252 OA
BRANCH   3   5
ATOM      5  C   UNL     1       8.493  -2.264  -2.497  1.00  0.00     0.126 C 
ATOM      6  C   UNL     1       9.839  -1.607  -2.795  1.00  0.00     0.025 C 
BRANCH   5   7
ATOM      7  C   UNL     1       7.447  -1.248  -2.066  1.00  0.00    -0.031 A 
ATOM      8  C   UNL     1       5.486   0.664  -1.305  1.00  0.00     0.018 A 
ATOM      9  C   UNL     1       6.662   0.487  -0.557  1.00  0.00     0.012 A 
ATOM     10  C   UNL     1       5.303  -0.156  -2.423  1.00  0.00     0.131 A 
ATOM     11  C   UNL     1       7.632  -0.441  -0.937  1.00  0.00     0.005 A 
ATOM     12  C   UNL     1       6.262  -1.096  -2.804  1.00  0.00     0.044 A 
ATOM     13  F   UNL     1       4.206  -0.026  -3.185  1.00  0.00    -0.206 F 
BRANCH   8  14
ATOM     14  C   UNL     1       4.530   1.713  -0.923  1.00  0.00    -0.008 A 
ATOM     15  C   UNL     1       2.308   2.468  -0.311  1.00  0.00     0.123 A 
ATOM     16  C   UNL     1       2.794   3.759  -0.092  1.00  0.00     0.092 A 
ATOM     17  C   UNL     1       3.165   1.458  -0.749  1.00  0.00     0.055 A 
ATOM     18  C   UNL     1       4.143   4.046  -0.297  1.00  0.00     0.123 A 
ATOM     19  C   UNL     1       4.995   3.023  -0.709  1.00  0.00     0.055 A 
BRANCH  15  20
ATOM     20  O   UNL     1       0.960   2.271  -0.195  1.00  0.00    -0.494 OA
BRANCH  20  21
ATOM     21  C   UNL     1       0.591   1.336   0.825  1.00  0.00     0.226 C 
ATOM     22  C   UNL     1       0.409  -0.072   0.280  1.00  0.00     0.049 C 
ENDBRANCH  20  21
ENDBRANCH  15  20
BRANCH  18  23
ATOM     23  O   UNL     1       4.532   5.334  -0.042  1.00  0.00    -0.494 OA
BRANCH  23  24
ATOM     24  C   UNL     1       5.776   5.767  -0.602  1.00  0.00     0.226 C 
ATOM     25  C   UNL     1       6.929   5.545   0.367  1.00  0.00     0.049 C 
ENDBRANCH  23  24
ENDBRANCH  18  23
ENDBRANCH   8  14
ENDBRANCH   5   7
ENDBRANCH   3   5
ENDBRANCH   2   3
ENDBRANCH   1   2
BRANCH   1  26
ATOM     26  C   UNL     1       7.035  -4.780   0.981  1.00  0.00     0.275 C 
BRANCH  26  27
ATOM     27  O   UNL     1       6.458  -5.434  -0.163  1.00  0.00    -0.458 OA
BRANCH  27  28
ATOM     28  C   UNL     1       5.642  -4.661  -0.917  1.00  0.00     0.338 C 
ATOM     29  O   UNL     1       5.315  -3.507  -0.710  1.00  0.00    -0.246 OA
BRANCH  28  30
ATOM     30  C   UNL     1       5.256  -5.410  -2.120  1.00  0.00     0.060 A 
ATOM     31  C   UNL     1       5.826  -5.061  -3.346  1.00  0.00     0.016 A 
ATOM     32  C   UNL     1       4.285  -6.407  -2.042  1.00  0.00     0.016 A 
ATOM     33  C   UNL     1       5.417  -5.702  -4.514  1.00  0.00     0.010 A 
ATOM     34  C   UNL     1       3.886  -7.059  -3.210  1.00  0.00     0.010 A 
ATOM     35  C   UNL     1       4.441  -6.703  -4.454  1.00  0.00    -0.014 A 
BRANCH  35  36
ATOM     36  C   UNL     1       3.944  -7.356  -5.688  1.00  0.00     0.031 A 
ATOM     37  C   UNL     1       2.555  -7.051  -6.167  1.00  0.00     0.074 A 
ATOM     38  C   UNL     1       4.715  -8.242  -6.344  1.00  0.00     0.049 A 
ATOM     39  N   UNL     1       1.837  -7.660  -7.073  1.00  0.00    -0.248 NA
ATOM     40  C   UNL     1       1.883  -5.910  -5.525  1.00  0.00     0.031 C 
ATOM     41  C   UNL     1       6.103  -8.564  -6.009  1.00  0.00     0.029 A 
ATOM     42  N   UNL     1       4.431  -9.053  -7.413  1.00  0.00    -0.354 N 
ATOM     43  C   UNL     1       0.613  -6.999  -7.091  1.00  0.00     0.074 A 
ATOM     44  C   UNL     1       0.687  -5.951  -6.094  1.00  0.00     0.031 C 
ATOM     45  C   UNL     1       6.542  -9.520  -6.844  1.00  0.00     0.029 A 
ATOM     46  C   UNL     1       5.449  -9.925  -7.723  1.00  0.00     0.049 A 
ATOM     47  H   UNL     1       3.582  -9.015  -7.910  1.00  0.00     0.167 HD
ATOM     48  C   UNL     1      -0.469  -7.253  -7.868  1.00  0.00     0.034 A 
ATOM     49  C   UNL     1       5.476 -10.967  -8.578  1.00  0.00     0.034 A 
ATOM     50  C   UNL     1      -0.511  -8.303  -8.856  1.00  0.00     0.049 A 
ATOM     51  C   UNL     1       4.234 -11.290  -9.370  1.00  0.00     0.074 A 
ATOM     52  C   UNL     1      -1.550  -8.654  -9.701  1.00  0.00     0.029 A 
ATOM     53  N   UNL     1       0.533  -9.178  -9.129  1.00  0.00    -0.354 N 
ATOM     54  N   UNL     1       3.066 -10.689  -9.352  1.00  0.00    -0.248 NA
ATOM     55  C   UNL     1       4.308 -12.431 -10.291  1.00  0.00     0.031 C 
ATOM     56  C   UNL     1      -1.156  -9.776 -10.438  1.00  0.00     0.029 A 
ATOM     57  C   UNL     1       0.155 -10.082 -10.108  1.00  0.00     0.049 A 
ATOM     58  H   UNL     1       1.415  -9.159  -8.690  1.00  0.00     0.167 HD
ATOM     59  C   UNL     1       2.280 -11.358 -10.286  1.00  0.00     0.074 A 
ATOM     60  C   UNL     1       3.104 -12.410 -10.845  1.00  0.00     0.031 C 
ATOM     61  C   UNL     1       0.996 -11.120 -10.655  1.00  0.00     0.034 A 
BRANCH  48  62
ATOM     62  C   UNL     1      -1.706  -6.425  -7.626  1.00  0.00     0.023 A 
ATOM     63  C   UNL     1      -1.734  -5.040  -7.867  1.00  0.00     0.031 A 
ATOM     64  C   UNL     1      -2.869  -7.028  -7.113  1.00  0.00     0.131 A 
ATOM     65  C   UNL     1      -2.875  -4.295  -7.530  1.00  0.00     0.055 A 
ATOM     66  C   UNL     1      -4.027  -6.293  -6.852  1.00  0.00     0.041 A 
ATOM     67  F   UNL     1      -2.894  -8.342  -6.841  1.00  0.00    -0.206 F 
ATOM     68  C   UNL     1      -4.030  -4.915  -7.046  1.00  0.00     0.022 A 
BRANCH  65  69
ATOM     69  S   UNL     1      -2.781  -2.485  -7.601  1.00  0.00     0.124 S 
ATOM     70  O   UNL     1      -1.684  -2.212  -6.677  1.00  0.00    -0.237 OA
ATOM     71  O   UNL     1      -2.507  -2.240  -9.012  1.00  0.00    -0.237 OA
ATOM     72  O   UNL     1      -4.099  -2.056  -7.138  1.00  0.00    -0.744 OA
ENDBRANCH  65  69
ENDBRANCH  48  62
BRANCH  49  73
ATOM     73  C   UNL     1       6.693 -11.823  -8.683  1.00  0.00     0.023 A 
ATOM     74  C   UNL     1       7.427 -11.897  -9.876  1.00  0.00     0.031 A 
ATOM     75  C   UNL     1       7.119 -12.608  -7.596  1.00  0.00     0.131 A 
ATOM     76  C   UNL     1       8.526 -12.765  -9.967  1.00  0.00     0.055 A 
ATOM     77  C   UNL     1       8.243 -13.431  -7.675  1.00  0.00     0.041 A 
ATOM     78  F   UNL     1       6.451 -12.576  -6.431  1.00  0.00    -0.206 F 
ATOM     79  C   UNL     1       8.948 -13.521  -8.871  1.00  0.00     0.022 A 
BRANCH  76  80
ATOM     80  S   UNL     1       9.354 -12.952 -11.570  1.00  0.00     0.124 S 
ATOM     81  O   UNL     1       8.258 -13.401 -12.421  1.00  0.00    -0.237 OA
ATOM     82  O   UNL     1       9.847 -11.601 -11.816  1.00  0.00    -0.237 OA
ATOM     83  O   UNL     1      10.388 -13.951 -11.305  1.00  0.00    -0.744 OA
ENDBRANCH  76  80
ENDBRANCH  49  73
BRANCH  61  84
ATOM     84  C   UNL     1       0.431 -11.965 -11.768  1.00  0.00     0.023 A 
ATOM     85  C   UNL     1       0.110 -13.320 -11.585  1.00  0.00     0.031 A 
ATOM     86  C   UNL     1       0.190 -11.387 -13.027  1.00  0.00     0.131 A 
ATOM     87  C   UNL     1      -0.406 -14.064 -12.658  1.00  0.00     0.055 A 
ATOM     88  C   UNL     1      -0.367 -12.118 -14.076  1.00  0.00     0.041 A 
ATOM     89  F   UNL     1       0.480 -10.095 -13.252  1.00  0.00    -0.206 F 
ATOM     90  C   UNL     1      -0.661 -13.467 -13.896  1.00  0.00     0.022 A 
BRANCH  87  91
ATOM     91  S   UNL     1      -0.699 -15.839 -12.432  1.00  0.00     0.124 S 
ATOM     92  O   UNL     1       0.646 -16.337 -12.164  1.00  0.00    -0.237 OA
ATOM     93  O   UNL     1      -1.624 -15.864 -11.303  1.00  0.00    -0.237 OA
ATOM     94  O   UNL     1      -1.272 -16.258 -13.710  1.00  0.00    -0.744 OA
ENDBRANCH  87  91
ENDBRANCH  61  84
ENDBRANCH  35  36
ENDBRANCH  28  30
ENDBRANCH  27  28
ENDBRANCH  26  27
ENDBRANCH   1  26
TORSDOF 20
