REMARK SMILES CC(C)(C)N(CC(=O)OCCOC(=O)c1ccc(-c2c3nc(c(-c4cc(S(=O)(=O)[O-])ccc4F)c4ccc([nH]4)c(-c4cc(S(=O)(=O)[O-])ccc4F)c4nc(c(-c5cc(S(=O)(=O)[O-])ccc5F)c5ccc2[nH]5)C=C4)C=C3)cc1)C(=O)Nc1ccc([N+](=O)[O-])cc1
REMARK SMILES IDX 10 1 9 2 7 3 8 4 6 5 5 6 2 7 1 8 3 9 4 10 78 11 79 12 80 13
REMARK SMILES IDX 81 15 82 16 89 17 83 18 88 19 84 20 85 21 86 22 87 23 11 24
REMARK SMILES IDX 12 25 13 26 14 27 15 28 16 29 77 30 17 31 76 32 18 33 19 34
REMARK SMILES IDX 20 35 70 36 21 37 75 38 69 39 71 40 22 41 74 42 68 43 67 44
REMARK SMILES IDX 23 46 55 47 35 48 54 49 36 50 39 51 53 52 72 53 37 54 38 55
REMARK SMILES IDX 52 57 73 58 40 59 24 60 25 61 33 62 26 63 32 64 34 65 31 66
REMARK SMILES IDX 27 67 28 68 29 69 30 70 56 71 57 72 65 73 58 74 64 75 66 76
REMARK SMILES IDX 63 77 59 78 60 79 61 80 62 81 41 82 42 83 50 84 43 85 49 86
REMARK SMILES IDX 51 87 48 88 44 89 45 90 46 91 47 92
REMARK H PARENT 80 14 71 45 39 56
REMARK Flexibility Score: inf
ROOT
ATOM      1  C   UNL     1       5.220  -1.974   1.769  1.00  0.00     0.274 C 
ENDROOT
BRANCH   1   2
ATOM      2  O   UNL     1       3.843  -1.476   1.595  1.00  0.00    -0.461 OA
BRANCH   2   3
ATOM      3  C   UNL     1       3.492  -1.000   0.344  1.00  0.00     0.325 C 
ATOM      4  O   UNL     1       4.316  -0.603  -0.477  1.00  0.00    -0.250 OA
BRANCH   3   5
ATOM      5  C   UNL     1       2.007  -1.357  -0.068  1.00  0.00     0.244 C 
BRANCH   5   6
ATOM      6  N   UNL     1       1.008  -1.568   0.993  1.00  0.00    -0.309 N 
BRANCH   6   7
ATOM      7  C   UNL     1       0.334  -0.288   1.467  1.00  0.00     0.037 C 
ATOM      8  C   UNL     1       0.622   0.959   0.571  1.00  0.00     0.034 C 
ATOM      9  C   UNL     1       0.832   0.084   2.874  1.00  0.00     0.034 C 
ATOM     10  C   UNL     1      -1.209  -0.424   1.425  1.00  0.00     0.034 C 
ENDBRANCH   6   7
BRANCH   6  11
ATOM     11  C   UNL     1       0.625  -2.762   1.609  1.00  0.00     0.322 C 
ATOM     12  O   UNL     1      -0.111  -2.737   2.606  1.00  0.00    -0.248 OA
ATOM     13  N   UNL     1       0.873  -4.035   1.191  1.00  0.00    -0.308 N 
ATOM     14  H   UNL     1       0.206  -4.659   1.560  1.00  0.00     0.171 HD
BRANCH  13  15
ATOM     15  C   UNL     1       1.795  -4.713   0.392  1.00  0.00     0.043 A 
ATOM     16  C   UNL     1       1.656  -6.451  -0.075  1.00  0.00     0.033 A 
ATOM     17  C   UNL     1       3.242  -3.910  -0.143  1.00  0.00     0.033 A 
ATOM     18  C   UNL     1       3.148  -7.239  -1.199  1.00  0.00     0.088 A 
ATOM     19  C   UNL     1       4.544  -4.585  -1.133  1.00  0.00     0.088 A 
ATOM     20  C   UNL     1       4.521  -6.211  -1.665  1.00  0.00     0.269 A 
BRANCH  20  21
ATOM     21  N   UNL     1       5.481  -6.634  -2.652  1.00  0.00     0.062 N 
ATOM     22  O   UNL     1       5.403  -7.793  -3.063  1.00  0.00    -0.258 OA
ATOM     23  O   UNL     1       6.299  -5.785  -3.030  1.00  0.00    -0.258 OA
ENDBRANCH  20  21
ENDBRANCH  13  15
ENDBRANCH   6  11
ENDBRANCH   5   6
ENDBRANCH   3   5
ENDBRANCH   2   3
ENDBRANCH   1   2
BRANCH   1  24
ATOM     24  C   UNL     1       5.255  -3.409   2.393  1.00  0.00     0.275 C 
BRANCH  24  25
ATOM     25  O   UNL     1       5.141  -4.430   1.356  1.00  0.00    -0.458 OA
BRANCH  25  26
ATOM     26  C   UNL     1       4.254  -5.449   1.570  1.00  0.00     0.338 C 
ATOM     27  O   UNL     1       3.971  -5.834   2.700  1.00  0.00    -0.246 OA
BRANCH  26  28
ATOM     28  C   UNL     1       3.488  -6.085   0.279  1.00  0.00     0.060 A 
ATOM     29  C   UNL     1       2.539  -5.477  -1.416  1.00  0.00     0.016 A 
ATOM     30  C   UNL     1       3.089  -7.751   0.864  1.00  0.00     0.016 A 
ATOM     31  C   UNL     1       1.363  -6.559  -2.209  1.00  0.00     0.010 A 
ATOM     32  C   UNL     1       1.938  -8.718  -0.048  1.00  0.00     0.010 A 
ATOM     33  C   UNL     1       1.127  -8.148  -1.530  1.00  0.00    -0.014 A 
BRANCH  33  34
ATOM     34  C   UNL     1       0.482  -9.183  -2.368  1.00  0.00     0.031 A 
ATOM     35  C   UNL     1      -0.589 -10.021  -1.757  1.00  0.00     0.074 A 
ATOM     36  C   UNL     1       1.015  -9.453  -3.578  1.00  0.00     0.049 A 
ATOM     37  N   UNL     1      -1.084 -11.155  -2.163  1.00  0.00    -0.248 NA
ATOM     38  C   UNL     1      -1.153  -9.527  -0.492  1.00  0.00     0.031 C 
ATOM     39  C   UNL     1       2.073  -8.686  -4.247  1.00  0.00     0.029 A 
ATOM     40  N   UNL     1       0.784 -10.487  -4.450  1.00  0.00    -0.354 N 
ATOM     41  C   UNL     1      -2.008 -11.525  -1.194  1.00  0.00     0.074 A 
ATOM     42  C   UNL     1      -1.956 -10.523  -0.152  1.00  0.00     0.031 C 
ATOM     43  C   UNL     1       2.423  -9.286  -5.390  1.00  0.00     0.029 A 
ATOM     44  C   UNL     1       1.661 -10.512  -5.515  1.00  0.00     0.049 A 
ATOM     45  H   UNL     1       0.064 -11.147  -4.327  1.00  0.00     0.167 HD
ATOM     46  C   UNL     1      -2.829 -12.603  -1.198  1.00  0.00     0.034 A 
ATOM     47  C   UNL     1       1.864 -11.444  -6.465  1.00  0.00     0.034 A 
ATOM     48  C   UNL     1      -2.811 -13.581  -2.258  1.00  0.00     0.049 A 
ATOM     49  C   UNL     1       0.987 -12.660  -6.422  1.00  0.00     0.074 A 
ATOM     50  C   UNL     1      -3.585 -14.715  -2.409  1.00  0.00     0.029 A 
ATOM     51  N   UNL     1      -1.948 -13.537  -3.353  1.00  0.00    -0.354 N 
ATOM     52  N   UNL     1       0.095 -12.992  -5.515  1.00  0.00    -0.248 NA
ATOM     53  C   UNL     1       1.114 -13.609  -7.529  1.00  0.00     0.031 C 
ATOM     54  C   UNL     1      -3.146 -15.389  -3.554  1.00  0.00     0.029 A 
ATOM     55  C   UNL     1      -2.159 -14.632  -4.170  1.00  0.00     0.049 A 
ATOM     56  H   UNL     1      -1.285 -12.829  -3.519  1.00  0.00     0.167 HD
ATOM     57  C   UNL     1      -0.491 -14.163  -5.975  1.00  0.00     0.074 A 
ATOM     58  C   UNL     1       0.162 -14.482  -7.232  1.00  0.00     0.031 C 
ATOM     59  C   UNL     1      -1.488 -14.898  -5.423  1.00  0.00     0.034 A 
BRANCH  46  60
ATOM     60  C   UNL     1      -3.750 -12.775  -0.013  1.00  0.00     0.023 A 
ATOM     61  C   UNL     1      -4.697 -11.793   0.330  1.00  0.00     0.031 A 
ATOM     62  C   UNL     1      -3.631 -13.890   0.835  1.00  0.00     0.131 A 
ATOM     63  C   UNL     1      -5.407 -11.889   1.536  1.00  0.00     0.055 A 
ATOM     64  C   UNL     1      -4.410 -14.028   1.986  1.00  0.00     0.041 A 
ATOM     65  F   UNL     1      -2.729 -14.851   0.579  1.00  0.00    -0.206 F 
ATOM     66  C   UNL     1      -5.290 -13.014   2.355  1.00  0.00     0.022 A 
BRANCH  63  67
ATOM     67  S   UNL     1      -6.341 -10.442   2.106  1.00  0.00     0.124 S 
ATOM     68  O   UNL     1      -5.285  -9.437   2.212  1.00  0.00    -0.237 OA
ATOM     69  O   UNL     1      -7.303 -10.243   1.029  1.00  0.00    -0.237 OA
ATOM     70  O   UNL     1      -6.908 -10.878   3.379  1.00  0.00    -0.744 OA
ENDBRANCH  63  67
ENDBRANCH  46  60
BRANCH  47  71
ATOM     71  C   UNL     1       2.909 -11.248  -7.511  1.00  0.00     0.023 A 
ATOM     72  C   UNL     1       2.553 -11.071  -8.856  1.00  0.00     0.031 A 
ATOM     73  C   UNL     1       4.279 -11.213  -7.186  1.00  0.00     0.131 A 
ATOM     74  C   UNL     1       3.549 -10.907  -9.832  1.00  0.00     0.055 A 
ATOM     75  C   UNL     1       5.264 -10.997  -8.153  1.00  0.00     0.041 A 
ATOM     76  F   UNL     1       4.678 -11.362  -5.913  1.00  0.00    -0.206 F 
ATOM     77  C   UNL     1       4.902 -10.855  -9.489  1.00  0.00     0.022 A 
BRANCH  74  78
ATOM     78  S   UNL     1       3.049 -10.841 -11.574  1.00  0.00     0.124 S 
ATOM     79  O   UNL     1       2.292 -12.079 -11.713  1.00  0.00    -0.237 OA
ATOM     80  O   UNL     1       2.274  -9.606 -11.618  1.00  0.00    -0.237 OA
ATOM     81  O   UNL     1       4.321 -10.803 -12.293  1.00  0.00    -0.744 OA
ENDBRANCH  74  78
ENDBRANCH  47  71
BRANCH  59  82
ATOM     82  C   UNL     1      -1.985 -16.066  -6.227  1.00  0.00     0.023 A 
ATOM     83  C   UNL     1      -1.204 -17.213  -6.430  1.00  0.00     0.031 A 
ATOM     84  C   UNL     1      -3.280 -16.028  -6.774  1.00  0.00     0.131 A 
ATOM     85  C   UNL     1      -1.714 -18.267  -7.199  1.00  0.00     0.055 A 
ATOM     86  C   UNL     1      -3.805 -17.106  -7.481  1.00  0.00     0.041 A 
ATOM     87  F   UNL     1      -4.059 -14.946  -6.610  1.00  0.00    -0.206 F 
ATOM     88  C   UNL     1      -3.017 -18.231  -7.704  1.00  0.00     0.022 A 
BRANCH  85  89
ATOM     89  S   UNL     1      -0.622 -19.658  -7.591  1.00  0.00     0.124 S 
ATOM     90  O   UNL     1       0.447 -19.001  -8.338  1.00  0.00    -0.237 OA
ATOM     91  O   UNL     1      -0.261 -20.157  -6.268  1.00  0.00    -0.237 OA
ATOM     92  O   UNL     1      -1.472 -20.549  -8.379  1.00  0.00    -0.744 OA
ENDBRANCH  85  89
ENDBRANCH  59  82
ENDBRANCH  33  34
ENDBRANCH  26  28
ENDBRANCH  25  26
ENDBRANCH  24  25
ENDBRANCH   1  24
TORSDOF 19
