REMARK SMILES COc1ccc(-n2c(SCc3cn(-c4ccc(C(=O)OCCOC(=O)c5ccc(-c6c7nc(c(-c8cc(S(=O)(=O)[O-])ccc8F)c8ccc([nH]8)c(-c8cc(S(=O)(=O)[O-])ccc8F)c8nc(c(-c9cc(S(=O)(=O)[O-])ccc9F)c9ccc6[nH]9)C=C8)C=C7)cc5)cc4)nn3)nc3ccccc3c2=O)cc1
REMARK SMILES IDX 20 1 18 2 19 3 17 4 14 5 15 6 90 7 16 8 89 9 13 10 11 11
REMARK SMILES IDX 12 12 92 13 91 14 10 15 9 16 8 17 7 18 100 19 93 20 99 21
REMARK SMILES IDX 101 22 94 23 98 24 95 25 97 26 96 27 6 28 3 29 4 30 103 31
REMARK SMILES IDX 5 32 102 33 2 34 1 35 21 36 22 37 23 38 24 39 25 40 26 41
REMARK SMILES IDX 27 42 88 43 28 44 87 45 29 46 30 47 31 48 81 49 32 50 86 51
REMARK SMILES IDX 80 52 82 53 33 54 85 55 79 56 78 57 34 59 66 60 46 61 65 62
REMARK SMILES IDX 47 63 50 64 64 65 83 66 48 67 49 68 63 70 84 71 51 72 35 73
REMARK SMILES IDX 36 74 44 75 37 76 43 77 45 78 42 79 38 80 39 81 40 82 41 83
REMARK SMILES IDX 67 84 68 85 76 86 69 87 75 88 77 89 74 90 70 91 71 92 72 93
REMARK SMILES IDX 73 94 52 95 53 96 61 97 54 98 60 99 62 100 59 101 55 102
REMARK SMILES IDX 56 103 57 104 58 105
REMARK H PARENT 82 58 50 69
REMARK Flexibility Score: inf
ROOT
ATOM      1  O   UNL     1      -1.368  -1.851   6.015  1.00  0.00    -0.458 OA
ENDROOT
BRANCH   1   2
ATOM      2  C   UNL     1      -2.014  -1.335   4.942  1.00  0.00     0.338 C 
ATOM      3  O   UNL     1      -3.148  -1.595   4.567  1.00  0.00    -0.246 OA
BRANCH   2   4
ATOM      4  C   UNL     1      -1.154  -0.306   4.328  1.00  0.00     0.060 A 
ATOM      5  C   UNL     1       0.429   1.655   3.222  1.00  0.00     0.066 A 
ATOM      6  C   UNL     1      -0.959   1.763   3.095  1.00  0.00     0.029 A 
ATOM      7  C   UNL     1       1.029   0.611   3.930  1.00  0.00     0.029 A 
ATOM      8  C   UNL     1      -1.752   0.755   3.630  1.00  0.00     0.018 A 
ATOM      9  C   UNL     1       0.234  -0.362   4.499  1.00  0.00     0.018 A 
BRANCH   5  10
ATOM     10  N   UNL     1       1.262   2.595   2.620  1.00  0.00    -0.220 N 
ATOM     11  C   UNL     1       2.968   3.610   1.775  1.00  0.00     0.093 A 
ATOM     12  C   UNL     1       2.541   2.377   2.181  1.00  0.00     0.141 A 
ATOM     13  N   UNL     1       1.950   4.507   1.949  1.00  0.00    -0.134 NA
ATOM     14  N   UNL     1       0.885   3.858   2.377  1.00  0.00    -0.062 NA
BRANCH  11  15
ATOM     15  C   UNL     1       4.267   3.965   1.191  1.00  0.00     0.138 C 
BRANCH  15  16
ATOM     16  S   UNL     1       4.640   5.698   1.284  1.00  0.00    -0.081 SA
BRANCH  16  17
ATOM     17  C   UNL     1       3.151   6.504   0.622  1.00  0.00     0.176 A 
ATOM     18  N   UNL     1       2.981   6.286  -0.736  1.00  0.00    -0.255 N 
ATOM     19  C   UNL     1       3.549   7.234  -1.579  1.00  0.00     0.266 A 
ATOM     20  N   UNL     1       2.955   7.704   1.084  1.00  0.00    -0.223 NA
ATOM     21  C   UNL     1       4.288   8.316  -0.845  1.00  0.00     0.066 A 
ATOM     22  O   UNL     1       3.539   7.220  -2.806  1.00  0.00    -0.268 OA
ATOM     23  C   UNL     1       3.884   8.572   0.481  1.00  0.00     0.079 A 
ATOM     24  C   UNL     1       5.497   8.818  -1.315  1.00  0.00     0.016 A 
ATOM     25  C   UNL     1       4.639   9.402   1.306  1.00  0.00     0.029 A 
ATOM     26  C   UNL     1       6.298   9.571  -0.448  1.00  0.00     0.001 A 
ATOM     27  C   UNL     1       5.862   9.881   0.847  1.00  0.00     0.002 A 
BRANCH  18  28
ATOM     28  C   UNL     1       2.175   5.209  -1.191  1.00  0.00     0.052 A 
ATOM     29  C   UNL     1       0.794   2.776  -1.417  1.00  0.00     0.119 A 
ATOM     30  C   UNL     1       0.131   3.904  -0.946  1.00  0.00     0.048 A 
ATOM     31  C   UNL     1       2.097   2.892  -1.904  1.00  0.00     0.048 A 
ATOM     32  C   UNL     1       0.829   5.112  -0.803  1.00  0.00     0.030 A 
ATOM     33  C   UNL     1       2.774   4.117  -1.826  1.00  0.00     0.030 A 
BRANCH  29  34
ATOM     34  O   UNL     1       0.116   1.588  -1.460  1.00  0.00    -0.497 OA
ATOM     35  C   UNL     1       0.687   0.592  -0.608  1.00  0.00     0.278 C 
ENDBRANCH  29  34
ENDBRANCH  18  28
ENDBRANCH  16  17
ENDBRANCH  15  16
ENDBRANCH  11  15
ENDBRANCH   5  10
ENDBRANCH   2   4
ENDBRANCH   1   2
BRANCH   1  36
ATOM     36  C   UNL     1      -2.177  -2.567   6.950  1.00  0.00     0.275 C 
BRANCH  36  37
ATOM     37  C   UNL     1      -2.760  -1.620   7.988  1.00  0.00     0.275 C 
BRANCH  37  38
ATOM     38  O   UNL     1      -3.756  -0.761   7.431  1.00  0.00    -0.458 OA
BRANCH  38  39
ATOM     39  C   UNL     1      -3.323   0.488   7.133  1.00  0.00     0.338 C 
ATOM     40  O   UNL     1      -2.179   0.830   6.885  1.00  0.00    -0.246 OA
BRANCH  39  41
ATOM     41  C   UNL     1      -4.405   1.444   7.389  1.00  0.00     0.060 A 
ATOM     42  C   UNL     1      -4.275   2.749   6.905  1.00  0.00     0.016 A 
ATOM     43  C   UNL     1      -5.397   1.100   8.318  1.00  0.00     0.016 A 
ATOM     44  C   UNL     1      -5.079   3.738   7.446  1.00  0.00     0.010 A 
ATOM     45  C   UNL     1      -6.174   2.089   8.875  1.00  0.00     0.010 A 
ATOM     46  C   UNL     1      -5.978   3.408   8.472  1.00  0.00    -0.014 A 
BRANCH  46  47
ATOM     47  C   UNL     1      -6.904   4.422   8.957  1.00  0.00     0.031 A 
ATOM     48  C   UNL     1      -7.902   4.774   7.914  1.00  0.00     0.074 A 
ATOM     49  C   UNL     1      -6.944   4.840  10.241  1.00  0.00     0.049 A 
ATOM     50  N   UNL     1      -8.024   5.896   7.289  1.00  0.00    -0.248 NA
ATOM     51  C   UNL     1      -8.708   3.684   7.327  1.00  0.00     0.031 C 
ATOM     52  C   UNL     1      -6.143   4.336  11.361  1.00  0.00     0.029 A 
ATOM     53  N   UNL     1      -7.776   5.735  10.850  1.00  0.00    -0.354 N 
ATOM     54  C   UNL     1      -9.111   5.730   6.435  1.00  0.00     0.074 A 
ATOM     55  C   UNL     1      -9.310   4.316   6.320  1.00  0.00     0.031 C 
ATOM     56  C   UNL     1      -6.675   4.764  12.530  1.00  0.00     0.029 A 
ATOM     57  C   UNL     1      -7.775   5.673  12.248  1.00  0.00     0.049 A 
ATOM     58  H   UNL     1      -8.332   6.372  10.346  1.00  0.00     0.167 HD
ATOM     59  C   UNL     1      -9.938   6.777   6.172  1.00  0.00     0.034 A 
ATOM     60  C   UNL     1      -8.634   6.293  13.108  1.00  0.00     0.034 A 
ATOM     61  C   UNL     1      -9.282   8.022   6.508  1.00  0.00     0.049 A 
ATOM     62  C   UNL     1      -9.233   7.422  12.362  1.00  0.00     0.074 A 
ATOM     63  C   UNL     1      -8.179   8.709   6.046  1.00  0.00     0.029 A 
ATOM     64  N   UNL     1      -9.563   8.521   7.759  1.00  0.00    -0.354 N 
ATOM     65  N   UNL     1      -8.545   8.451  11.956  1.00  0.00    -0.248 NA
ATOM     66  C   UNL     1     -10.498   7.215  11.673  1.00  0.00     0.031 C 
ATOM     67  C   UNL     1      -7.621   9.346   7.194  1.00  0.00     0.029 A 
ATOM     68  C   UNL     1      -8.443   9.099   8.296  1.00  0.00     0.049 A 
ATOM     69  H   UNL     1     -10.440   8.469   8.203  1.00  0.00     0.167 HD
ATOM     70  C   UNL     1      -9.046   8.737  10.697  1.00  0.00     0.074 A 
ATOM     71  C   UNL     1     -10.337   8.055  10.646  1.00  0.00     0.031 C 
ATOM     72  C   UNL     1      -8.227   9.243   9.727  1.00  0.00     0.034 A 
BRANCH  59  73
ATOM     73  C   UNL     1     -11.457   6.669   6.112  1.00  0.00     0.023 A 
ATOM     74  C   UNL     1     -12.171   7.881   6.015  1.00  0.00     0.031 A 
ATOM     75  C   UNL     1     -12.234   5.535   6.447  1.00  0.00     0.131 A 
ATOM     76  C   UNL     1     -13.530   7.955   6.366  1.00  0.00     0.055 A 
ATOM     77  C   UNL     1     -13.598   5.605   6.744  1.00  0.00     0.041 A 
ATOM     78  F   UNL     1     -11.723   4.308   6.587  1.00  0.00    -0.206 F 
ATOM     79  C   UNL     1     -14.248   6.824   6.739  1.00  0.00     0.022 A 
BRANCH  76  80
ATOM     80  S   UNL     1     -14.298   9.589   6.496  1.00  0.00     0.124 S 
ATOM     81  O   UNL     1     -13.423  10.245   7.461  1.00  0.00    -0.237 OA
ATOM     82  O   UNL     1     -14.219  10.066   5.120  1.00  0.00    -0.237 OA
ATOM     83  O   UNL     1     -15.646   9.290   6.975  1.00  0.00    -0.744 OA
ENDBRANCH  76  80
ENDBRANCH  59  73
BRANCH  60  84
ATOM     84  C   UNL     1      -9.190   5.803  14.408  1.00  0.00     0.023 A 
ATOM     85  C   UNL     1      -9.778   6.647  15.384  1.00  0.00     0.031 A 
ATOM     86  C   UNL     1      -9.390   4.416  14.580  1.00  0.00     0.131 A 
ATOM     87  C   UNL     1     -10.527   6.095  16.457  1.00  0.00     0.055 A 
ATOM     88  C   UNL     1     -10.135   3.878  15.634  1.00  0.00     0.041 A 
ATOM     89  F   UNL     1      -8.943   3.534  13.672  1.00  0.00    -0.206 F 
ATOM     90  C   UNL     1     -10.716   4.716  16.571  1.00  0.00     0.022 A 
BRANCH  87  91
ATOM     91  S   UNL     1     -11.346   7.163  17.696  1.00  0.00     0.124 S 
ATOM     92  O   UNL     1     -10.215   7.787  18.371  1.00  0.00    -0.237 OA
ATOM     93  O   UNL     1     -12.171   8.034  16.866  1.00  0.00    -0.237 OA
ATOM     94  O   UNL     1     -12.101   6.216  18.520  1.00  0.00    -0.744 OA
ENDBRANCH  87  91
ENDBRANCH  60  84
BRANCH  72  95
ATOM     95  C   UNL     1      -6.931   9.891  10.174  1.00  0.00     0.023 A 
ATOM     96  C   UNL     1      -5.887   9.253  10.885  1.00  0.00     0.031 A 
ATOM     97  C   UNL     1      -6.733  11.228   9.786  1.00  0.00     0.131 A 
ATOM     98  C   UNL     1      -4.707   9.965  11.188  1.00  0.00     0.055 A 
ATOM     99  C   UNL     1      -5.556  11.917  10.062  1.00  0.00     0.041 A 
ATOM    100  F   UNL     1      -7.683  11.884   9.098  1.00  0.00    -0.206 F 
ATOM    101  C   UNL     1      -4.540  11.290  10.772  1.00  0.00     0.022 A 
BRANCH  98 102
ATOM    102  S   UNL     1      -3.374   9.196  12.167  1.00  0.00     0.124 S 
ATOM    103  O   UNL     1      -4.077   8.595  13.293  1.00  0.00    -0.237 OA
ATOM    104  O   UNL     1      -2.778   8.264  11.214  1.00  0.00    -0.237 OA
ATOM    105  O   UNL     1      -2.515  10.329  12.521  1.00  0.00    -0.744 OA
ENDBRANCH  98 102
ENDBRANCH  72  95
ENDBRANCH  46  47
ENDBRANCH  39  41
ENDBRANCH  38  39
ENDBRANCH  37  38
ENDBRANCH  36  37
ENDBRANCH   1  36
TORSDOF 20
