REMARK SMILES CC1(C)CC[NH+](CC[C@H]2CCC[C@]2([NH3+])C(=O)OCCOC(=O)c2ccc(-c3c4nc(c(-c5cc(S(=O)(=O)[O-])ccc5F)c5ccc([nH]5)c(-c5cc(S(=O)(=O)[O-])ccc5F)c5nc(c(-c6cc(S(=O)(=O)[O-])ccc6F)c6ccc3[nH]6)C=C5)C=C4)cc2)CC1
REMARK SMILES IDX 18 1 17 2 15 3 16 4 13 5 9 6 10 7 11 8 12 9 8 10 7 11 6 12
REMARK SMILES IDX 1 13 2 14 3 15 4 16 87 17 5 18 86 19 14 21 19 25 20 26 21 27
REMARK SMILES IDX 22 28 23 29 24 30 85 31 25 32 84 33 26 34 27 35 28 36 78 37
REMARK SMILES IDX 29 38 83 39 77 40 79 41 30 42 82 43 76 44 75 45 31 47 63 48
REMARK SMILES IDX 43 49 62 50 44 51 47 52 61 53 80 54 45 55 46 56 60 58 81 59
REMARK SMILES IDX 48 60 32 61 33 62 41 63 34 64 40 65 42 66 39 67 35 68 36 69
REMARK SMILES IDX 37 70 38 71 64 72 65 73 73 74 66 75 72 76 74 77 71 78 67 79
REMARK SMILES IDX 68 80 69 81 70 82 49 83 50 84 58 85 51 86 57 87 59 88 56 89
REMARK SMILES IDX 52 90 53 91 54 92 55 93
REMARK H PARENT 6 20 14 22 14 23 14 24 79 46 47 57
REMARK Flexibility Score: inf
ROOT
ATOM      1  C   UNL     1       0.736  -1.816   1.275  1.00  0.00     0.274 C 
ENDROOT
BRANCH   1   2
ATOM      2  O   UNL     1       1.136  -2.339  -0.015  1.00  0.00    -0.457 OA
BRANCH   2   3
ATOM      3  C   UNL     1       1.089  -1.466  -1.070  1.00  0.00     0.368 C 
ATOM      4  O   UNL     1       0.971  -0.252  -0.923  1.00  0.00    -0.245 OA
BRANCH   3   5
ATOM      5  C   UNL     1       1.103  -2.186  -2.475  1.00  0.00     0.195 C 
ATOM      6  C   UNL     1       0.539  -3.647  -2.397  1.00  0.00     0.068 C 
ATOM      7  C   UNL     1       1.799  -4.548  -2.532  1.00  0.00     0.011 C 
ATOM      8  C   UNL     1       3.010  -3.638  -2.371  1.00  0.00     0.008 C 
ATOM      9  C   UNL     1       2.540  -2.339  -2.984  1.00  0.00     0.081 C 
BRANCH   6  10
ATOM     10  C   UNL     1      -0.572  -4.061  -3.402  1.00  0.00     0.072 C 
BRANCH  10  11
ATOM     11  C   UNL     1      -1.853  -4.622  -2.748  1.00  0.00     0.262 C 
BRANCH  11  12
ATOM     12  N   UNL     1      -2.745  -3.654  -2.143  1.00  0.00    -0.335 N 
ATOM     13  C   UNL     1      -4.503  -0.667  -0.633  1.00  0.00     0.011 C 
ATOM     14  C   UNL     1      -3.155  -0.862  -1.346  1.00  0.00    -0.025 C 
ATOM     15  C   UNL     1      -2.428   0.500  -1.368  1.00  0.00     0.011 C 
ATOM     16  C   UNL     1      -2.295  -1.865  -0.553  1.00  0.00     0.068 C 
ATOM     17  C   UNL     1      -3.362  -1.347  -2.802  1.00  0.00     0.068 C 
ATOM     18  C   UNL     1      -2.665  -3.332  -0.742  1.00  0.00     0.262 C 
ATOM     19  C   UNL     1      -3.634  -2.847  -2.948  1.00  0.00     0.262 C 
ATOM     20  H   UNL     1      -3.204  -4.566  -2.137  1.00  0.00     0.348 HD
ENDBRANCH  11  12
ENDBRANCH  10  11
ENDBRANCH   6  10
BRANCH   5  21
ATOM     21  N   UNL     1       0.422  -1.291  -3.428  1.00  0.00    -0.343 N 
ATOM     22  H   UNL     1       0.411  -1.722  -4.352  1.00  0.00     0.345 HD
ATOM     23  H   UNL     1       0.920  -0.402  -3.474  1.00  0.00     0.345 HD
ATOM     24  H   UNL     1      -0.535  -1.129  -3.117  1.00  0.00     0.345 HD
ENDBRANCH   5  21
ENDBRANCH   3   5
ENDBRANCH   2   3
ENDBRANCH   1   2
BRANCH   1  25
ATOM     25  C   UNL     1       1.776  -2.124   2.347  1.00  0.00     0.275 C 
BRANCH  25  26
ATOM     26  O   UNL     1       2.979  -1.439   1.989  1.00  0.00    -0.458 OA
BRANCH  26  27
ATOM     27  C   UNL     1       4.016  -2.227   1.631  1.00  0.00     0.338 C 
ATOM     28  O   UNL     1       4.188  -3.399   1.933  1.00  0.00    -0.246 OA
BRANCH  27  29
ATOM     29  C   UNL     1       4.877  -1.476   0.697  1.00  0.00     0.060 A 
ATOM     30  C   UNL     1       4.294  -0.600  -0.220  1.00  0.00     0.016 A 
ATOM     31  C   UNL     1       6.239  -1.750   0.623  1.00  0.00     0.016 A 
ATOM     32  C   UNL     1       5.035  -0.098  -1.282  1.00  0.00     0.010 A 
ATOM     33  C   UNL     1       7.008  -1.137  -0.371  1.00  0.00     0.010 A 
ATOM     34  C   UNL     1       6.408  -0.337  -1.365  1.00  0.00    -0.014 A 
BRANCH  34  35
ATOM     35  C   UNL     1       7.215   0.177  -2.507  1.00  0.00     0.031 A 
ATOM     36  C   UNL     1       8.098  -0.781  -3.259  1.00  0.00     0.074 A 
ATOM     37  C   UNL     1       7.179   1.473  -2.878  1.00  0.00     0.049 A 
ATOM     38  N   UNL     1       9.170  -0.544  -3.965  1.00  0.00    -0.248 NA
ATOM     39  C   UNL     1       7.739  -2.205  -3.165  1.00  0.00     0.031 C 
ATOM     40  C   UNL     1       6.287   2.500  -2.335  1.00  0.00     0.029 A 
ATOM     41  N   UNL     1       7.930   2.154  -3.807  1.00  0.00    -0.354 N 
ATOM     42  C   UNL     1       9.678  -1.794  -4.310  1.00  0.00     0.074 A 
ATOM     43  C   UNL     1       8.777  -2.782  -3.755  1.00  0.00     0.031 C 
ATOM     44  C   UNL     1       6.515   3.663  -2.961  1.00  0.00     0.029 A 
ATOM     45  C   UNL     1       7.667   3.505  -3.836  1.00  0.00     0.049 A 
ATOM     46  H   UNL     1       8.590   1.718  -4.394  1.00  0.00     0.167 HD
ATOM     47  C   UNL     1      10.811  -2.071  -5.002  1.00  0.00     0.034 A 
ATOM     48  C   UNL     1       8.334   4.520  -4.418  1.00  0.00     0.034 A 
ATOM     49  C   UNL     1      11.639  -1.048  -5.597  1.00  0.00     0.049 A 
ATOM     50  C   UNL     1       9.609   4.204  -5.153  1.00  0.00     0.074 A 
ATOM     51  C   UNL     1      12.822  -1.186  -6.301  1.00  0.00     0.029 A 
ATOM     52  N   UNL     1      11.346   0.311  -5.579  1.00  0.00    -0.354 N 
ATOM     53  N   UNL     1      10.191   3.040  -5.331  1.00  0.00    -0.248 NA
ATOM     54  C   UNL     1      10.334   5.340  -5.732  1.00  0.00     0.031 C 
ATOM     55  C   UNL     1      13.264   0.091  -6.671  1.00  0.00     0.029 A 
ATOM     56  C   UNL     1      12.326   1.022  -6.253  1.00  0.00     0.049 A 
ATOM     57  H   UNL     1      10.555   0.712  -5.149  1.00  0.00     0.167 HD
ATOM     58  C   UNL     1      11.353   3.305  -6.047  1.00  0.00     0.074 A 
ATOM     59  C   UNL     1      11.374   4.735  -6.287  1.00  0.00     0.031 C 
ATOM     60  C   UNL     1      12.322   2.450  -6.464  1.00  0.00     0.034 A 
BRANCH  47  61
ATOM     61  C   UNL     1      11.258  -3.513  -5.059  1.00  0.00     0.023 A 
ATOM     62  C   UNL     1      10.514  -4.513  -5.708  1.00  0.00     0.031 A 
ATOM     63  C   UNL     1      12.438  -3.901  -4.396  1.00  0.00     0.131 A 
ATOM     64  C   UNL     1      10.916  -5.856  -5.616  1.00  0.00     0.055 A 
ATOM     65  C   UNL     1      12.875  -5.227  -4.376  1.00  0.00     0.041 A 
ATOM     66  F   UNL     1      13.180  -2.998  -3.735  1.00  0.00    -0.206 F 
ATOM     67  C   UNL     1      12.104  -6.217  -4.975  1.00  0.00     0.022 A 
BRANCH  64  68
ATOM     68  S   UNL     1       9.789  -7.144  -6.219  1.00  0.00     0.124 S 
ATOM     69  O   UNL     1       8.601  -6.904  -5.403  1.00  0.00    -0.237 OA
ATOM     70  O   UNL     1       9.667  -6.819  -7.635  1.00  0.00    -0.237 OA
ATOM     71  O   UNL     1      10.498  -8.387  -5.924  1.00  0.00    -0.744 OA
ENDBRANCH  64  68
ENDBRANCH  47  61
BRANCH  48  72
ATOM     72  C   UNL     1       7.881   5.928  -4.223  1.00  0.00     0.023 A 
ATOM     73  C   UNL     1       7.451   6.710  -5.306  1.00  0.00     0.031 A 
ATOM     74  C   UNL     1       7.880   6.517  -2.944  1.00  0.00     0.131 A 
ATOM     75  C   UNL     1       7.056   8.041  -5.093  1.00  0.00     0.055 A 
ATOM     76  C   UNL     1       7.431   7.821  -2.730  1.00  0.00     0.041 A 
ATOM     77  F   UNL     1       8.288   5.818  -1.873  1.00  0.00    -0.206 F 
ATOM     78  C   UNL     1       7.024   8.594  -3.811  1.00  0.00     0.022 A 
BRANCH  75  79
ATOM     79  S   UNL     1       6.644   9.068  -6.530  1.00  0.00     0.124 S 
ATOM     80  O   UNL     1       7.880   9.008  -7.303  1.00  0.00    -0.237 OA
ATOM     81  O   UNL     1       5.501   8.358  -7.094  1.00  0.00    -0.237 OA
ATOM     82  O   UNL     1       6.338  10.370  -5.942  1.00  0.00    -0.744 OA
ENDBRANCH  75  79
ENDBRANCH  48  72
BRANCH  60  83
ATOM     83  C   UNL     1      13.449   3.052  -7.258  1.00  0.00     0.023 A 
ATOM     84  C   UNL     1      14.413   3.878  -6.657  1.00  0.00     0.031 A 
ATOM     85  C   UNL     1      13.540   2.814  -8.640  1.00  0.00     0.131 A 
ATOM     86  C   UNL     1      15.401   4.482  -7.448  1.00  0.00     0.055 A 
ATOM     87  C   UNL     1      14.554   3.377  -9.413  1.00  0.00     0.041 A 
ATOM     88  F   UNL     1      12.640   2.033  -9.259  1.00  0.00    -0.206 F 
ATOM     89  C   UNL     1      15.485   4.226  -8.819  1.00  0.00     0.022 A 
BRANCH  86  90
ATOM     90  S   UNL     1      16.530   5.671  -6.674  1.00  0.00     0.124 S 
ATOM     91  O   UNL     1      15.608   6.694  -6.191  1.00  0.00    -0.237 OA
ATOM     92  O   UNL     1      17.181   4.864  -5.648  1.00  0.00    -0.237 OA
ATOM     93  O   UNL     1      17.396   6.088  -7.775  1.00  0.00    -0.744 OA
ENDBRANCH  86  90
ENDBRANCH  60  83
ENDBRANCH  34  35
ENDBRANCH  27  29
ENDBRANCH  26  27
ENDBRANCH  25  26
ENDBRANCH   1  25
TORSDOF 18
