REMARK SMILES O=C(OCCOC(=O)C1CC2(CCCC2)C1)c1ccc(-c2c3nc(c(-c4cc(S(=O)(=O)[O-])ccc4F)c4ccc([nH]4)c(-c4cc(S(=O)(=O)[O-])ccc4F)c4nc(c(-c5cc(S(=O)(=O)[O-])ccc5F)c5ccc2[nH]5)C=C4)C=C3)cc1
REMARK SMILES IDX 3 1 2 2 1 3 17 4 18 5 79 6 19 7 78 8 20 9 21 10 22 11 72 12
REMARK SMILES IDX 23 13 77 14 71 15 73 16 24 17 76 18 70 19 69 20 25 22 57 23
REMARK SMILES IDX 37 24 56 25 38 26 41 27 55 28 74 29 39 30 40 31 54 33 75 34
REMARK SMILES IDX 42 35 26 36 27 37 35 38 28 39 34 40 36 41 33 42 29 43 30 44
REMARK SMILES IDX 31 45 32 46 58 47 59 48 67 49 60 50 66 51 68 52 65 53 61 54
REMARK SMILES IDX 62 55 63 56 64 57 43 58 44 59 52 60 45 61 51 62 53 63 50 64
REMARK SMILES IDX 46 65 47 66 48 67 49 68 4 69 5 70 6 71 7 72 8 73 9 74 10 75
REMARK SMILES IDX 16 76 11 77 12 78 15 79 13 80 14 81
REMARK H PARENT 73 21 41 32
REMARK Flexibility Score: inf
ROOT
ATOM      1  O   UNL     1       3.418  -0.848   1.198  1.00  0.00    -0.458 OA
ENDROOT
BRANCH   1   2
ATOM      2  C   UNL     1       3.155   0.438   1.538  1.00  0.00     0.338 C 
ATOM      3  O   UNL     1       2.243   0.653   2.336  1.00  0.00    -0.246 OA
BRANCH   2   4
ATOM      4  C   UNL     1       3.787   1.625   0.869  1.00  0.00     0.060 A 
ATOM      5  C   UNL     1       5.041   1.655   0.251  1.00  0.00     0.016 A 
ATOM      6  C   UNL     1       3.012   2.802   0.826  1.00  0.00     0.016 A 
ATOM      7  C   UNL     1       5.482   2.782  -0.453  1.00  0.00     0.010 A 
ATOM      8  C   UNL     1       3.446   3.934   0.124  1.00  0.00     0.010 A 
ATOM      9  C   UNL     1       4.695   3.931  -0.512  1.00  0.00    -0.014 A 
BRANCH   9  10
ATOM     10  C   UNL     1       5.303   5.200  -0.978  1.00  0.00     0.031 A 
ATOM     11  C   UNL     1       5.829   6.121   0.082  1.00  0.00     0.074 A 
ATOM     12  C   UNL     1       5.442   5.503  -2.282  1.00  0.00     0.049 A 
ATOM     13  N   UNL     1       6.432   7.271  -0.042  1.00  0.00    -0.248 NA
ATOM     14  C   UNL     1       5.668   5.666   1.473  1.00  0.00     0.031 C 
ATOM     15  C   UNL     1       5.069   4.635  -3.392  1.00  0.00     0.029 A 
ATOM     16  N   UNL     1       5.929   6.628  -2.899  1.00  0.00    -0.354 N 
ATOM     17  C   UNL     1       6.758   7.655   1.252  1.00  0.00     0.074 A 
ATOM     18  C   UNL     1       6.200   6.667   2.147  1.00  0.00     0.031 C 
ATOM     19  C   UNL     1       5.272   5.279  -4.555  1.00  0.00     0.029 A 
ATOM     20  C   UNL     1       5.808   6.605  -4.271  1.00  0.00     0.049 A 
ATOM     21  H   UNL     1       6.328   7.382  -2.406  1.00  0.00     0.167 HD
ATOM     22  C   UNL     1       7.496   8.715   1.656  1.00  0.00     0.034 A 
ATOM     23  C   UNL     1       6.099   7.551  -5.187  1.00  0.00     0.034 A 
ATOM     24  C   UNL     1       7.990   9.715   0.749  1.00  0.00     0.049 A 
ATOM     25  C   UNL     1       6.764   8.818  -4.706  1.00  0.00     0.074 A 
ATOM     26  C   UNL     1       8.706  10.862   1.031  1.00  0.00     0.029 A 
ATOM     27  N   UNL     1       7.790   9.695  -0.628  1.00  0.00    -0.354 N 
ATOM     28  N   UNL     1       7.096   9.158  -3.480  1.00  0.00    -0.248 NA
ATOM     29  C   UNL     1       7.135   9.804  -5.727  1.00  0.00     0.031 C 
ATOM     30  C   UNL     1       8.876  11.571  -0.165  1.00  0.00     0.029 A 
ATOM     31  C   UNL     1       8.338  10.827  -1.206  1.00  0.00     0.049 A 
ATOM     32  H   UNL     1       7.327   8.979  -1.120  1.00  0.00     0.167 HD
ATOM     33  C   UNL     1       7.768  10.371  -3.590  1.00  0.00     0.074 A 
ATOM     34  C   UNL     1       7.785  10.704  -5.002  1.00  0.00     0.031 C 
ATOM     35  C   UNL     1       8.337  11.131  -2.619  1.00  0.00     0.034 A 
BRANCH  22  36
ATOM     36  C   UNL     1       7.729   8.835   3.140  1.00  0.00     0.023 A 
ATOM     37  C   UNL     1       8.429   7.840   3.850  1.00  0.00     0.031 A 
ATOM     38  C   UNL     1       7.132   9.872   3.874  1.00  0.00     0.131 A 
ATOM     39  C   UNL     1       8.416   7.842   5.252  1.00  0.00     0.055 A 
ATOM     40  C   UNL     1       7.204   9.919   5.267  1.00  0.00     0.041 A 
ATOM     41  F   UNL     1       6.425  10.829   3.253  1.00  0.00    -0.206 F 
ATOM     42  C   UNL     1       7.828   8.888   5.966  1.00  0.00     0.022 A 
BRANCH  39  43
ATOM     43  S   UNL     1       9.000   6.360   6.124  1.00  0.00     0.124 S 
ATOM     44  O   UNL     1       8.098   5.336   5.602  1.00  0.00    -0.237 OA
ATOM     45  O   UNL     1      10.389   6.266   5.693  1.00  0.00    -0.237 OA
ATOM     46  O   UNL     1       8.804   6.693   7.534  1.00  0.00    -0.744 OA
ENDBRANCH  39  43
ENDBRANCH  22  36
BRANCH  23  47
ATOM     47  C   UNL     1       5.774   7.347  -6.631  1.00  0.00     0.023 A 
ATOM     48  C   UNL     1       6.778   7.262  -7.609  1.00  0.00     0.031 A 
ATOM     49  C   UNL     1       4.435   7.282  -7.060  1.00  0.00     0.131 A 
ATOM     50  C   UNL     1       6.429   7.157  -8.967  1.00  0.00     0.055 A 
ATOM     51  C   UNL     1       4.094   7.138  -8.407  1.00  0.00     0.041 A 
ATOM     52  F   UNL     1       3.433   7.356  -6.169  1.00  0.00    -0.206 F 
ATOM     53  C   UNL     1       5.094   7.087  -9.372  1.00  0.00     0.022 A 
BRANCH  50  54
ATOM     54  S   UNL     1       7.750   7.182 -10.213  1.00  0.00     0.124 S 
ATOM     55  O   UNL     1       8.417   8.445  -9.916  1.00  0.00    -0.237 OA
ATOM     56  O   UNL     1       8.494   5.970  -9.886  1.00  0.00    -0.237 OA
ATOM     57  O   UNL     1       7.024   7.142 -11.481  1.00  0.00    -0.744 OA
ENDBRANCH  50  54
ENDBRANCH  23  47
BRANCH  35  58
ATOM     58  C   UNL     1       9.077  12.366  -3.064  1.00  0.00     0.023 A 
ATOM     59  C   UNL     1       8.410  13.465  -3.629  1.00  0.00     0.031 A 
ATOM     60  C   UNL     1      10.472  12.443  -2.907  1.00  0.00     0.131 A 
ATOM     61  C   UNL     1       9.146  14.575  -4.066  1.00  0.00     0.055 A 
ATOM     62  C   UNL     1      11.191  13.577  -3.283  1.00  0.00     0.041 A 
ATOM     63  F   UNL     1      11.158  11.418  -2.374  1.00  0.00    -0.206 F 
ATOM     64  C   UNL     1      10.530  14.647  -3.878  1.00  0.00     0.022 A 
BRANCH  61  65
ATOM     65  S   UNL     1       8.281  15.889  -4.966  1.00  0.00     0.124 S 
ATOM     66  O   UNL     1       7.742  15.165  -6.113  1.00  0.00    -0.237 OA
ATOM     67  O   UNL     1       7.304  16.349  -3.985  1.00  0.00    -0.237 OA
ATOM     68  O   UNL     1       9.342  16.845  -5.279  1.00  0.00    -0.744 OA
ENDBRANCH  61  65
ENDBRANCH  35  58
ENDBRANCH   9  10
ENDBRANCH   2   4
ENDBRANCH   1   2
BRANCH   1  69
ATOM     69  C   UNL     1       4.570  -1.429   0.555  1.00  0.00     0.275 C 
BRANCH  69  70
ATOM     70  C   UNL     1       4.453  -1.540  -0.969  1.00  0.00     0.274 C 
BRANCH  70  71
ATOM     71  O   UNL     1       4.060  -0.304  -1.588  1.00  0.00    -0.462 OA
BRANCH  71  72
ATOM     72  C   UNL     1       2.709  -0.159  -1.731  1.00  0.00     0.309 C 
ATOM     73  O   UNL     1       1.921  -1.074  -1.471  1.00  0.00    -0.252 OA
BRANCH  72  74
ATOM     74  C   UNL     1       2.261   1.245  -2.225  1.00  0.00     0.100 C 
ATOM     75  C   UNL     1       2.708   1.897  -3.574  1.00  0.00     0.022 C 
ATOM     76  C   UNL     1       0.865   1.198  -2.859  1.00  0.00     0.022 C 
ATOM     77  C   UNL     1       1.590   1.056  -4.249  1.00  0.00    -0.028 C 
ATOM     78  C   UNL     1       2.262  -0.196  -4.831  1.00  0.00     0.007 C 
ATOM     79  C   UNL     1       0.524   1.366  -5.287  1.00  0.00     0.007 C 
ATOM     80  C   UNL     1       1.141  -0.975  -5.494  1.00  0.00     0.001 C 
ATOM     81  C   UNL     1      -0.067  -0.041  -5.480  1.00  0.00     0.001 C 
ENDBRANCH  72  74
ENDBRANCH  71  72
ENDBRANCH  70  71
ENDBRANCH  69  70
ENDBRANCH   1  69
TORSDOF 14
