REMARK SMILES COc1ccc(-c2c(C(=O)OCCOC(=O)c3ccc(-c4c5nc(c(-c6cc(S(=O)(=O)[O-])ccc6F)c6ccc([nH]6)c(-c6cc(S(=O)(=O)[O-])ccc6F)c6nc(c(-c7cc(S(=O)(=O)[O-])ccc7F)c7ccc4[nH]7)C=C6)C=C5)cc3)sc3c2N=C(O)C[C@H]3c2ccc(OC)c(OC)c2)cc1
REMARK SMILES IDX 13 1 12 2 11 3 9 4 10 5 8 6 7 7 82 8 80 9 81 10 83 11 87 12
REMARK SMILES IDX 84 13 86 14 6 15 3 16 4 17 99 18 5 19 98 20 2 21 1 22 88 23
REMARK SMILES IDX 89 24 97 25 90 26 94 27 91 28 95 29 96 30 92 31 93 32 85 33
REMARK SMILES IDX 14 35 15 36 16 37 17 38 18 39 79 40 19 41 78 42 20 43 21 44
REMARK SMILES IDX 22 45 72 46 23 47 77 48 71 49 73 50 24 51 76 52 70 53 69 54
REMARK SMILES IDX 25 56 57 57 37 58 56 59 38 60 41 61 55 62 74 63 39 64 40 65
REMARK SMILES IDX 54 67 75 68 42 69 26 70 27 71 35 72 28 73 34 74 36 75 33 76
REMARK SMILES IDX 29 77 30 78 31 79 32 80 58 81 59 82 67 83 60 84 66 85 68 86
REMARK SMILES IDX 65 87 61 88 62 89 63 90 64 91 43 92 44 93 52 94 45 95 51 96
REMARK SMILES IDX 53 97 50 98 46 99 47 100 48 101 49 102
REMARK H PARENT 85 34 73 55 41 66
REMARK Flexibility Score: inf
ROOT
ATOM      1  C   UNL     1      -1.027  -0.993   6.005  1.00  0.00     0.275 C 
ENDROOT
BRANCH   1   2
ATOM      2  C   UNL     1      -1.511   0.359   5.516  1.00  0.00     0.275 C 
BRANCH   2   3
ATOM      3  O   UNL     1      -0.420   1.287   5.478  1.00  0.00    -0.458 OA
BRANCH   3   4
ATOM      4  C   UNL     1      -0.199   2.094   6.553  1.00  0.00     0.349 C 
ATOM      5  O   UNL     1      -0.962   2.164   7.514  1.00  0.00    -0.245 OA
BRANCH   4   6
ATOM      6  C   UNL     1       1.055   2.821   6.397  1.00  0.00     0.123 A 
ATOM      7  C   UNL     1       1.842   3.085   5.276  1.00  0.00     0.033 A 
ATOM      8  C   UNL     1       2.979   3.874   5.624  1.00  0.00     0.090 A 
ATOM      9  S   UNL     1       1.788   3.449   7.830  1.00  0.00    -0.130 S 
ATOM     10  C   UNL     1       3.083   4.131   6.963  1.00  0.00     0.040 A 
ATOM     11  N   UNL     1       3.871   4.371   4.667  1.00  0.00    -0.216 NA
ATOM     12  C   UNL     1       4.182   4.910   7.606  1.00  0.00     0.071 C 
ATOM     13  C   UNL     1       4.861   5.051   5.133  1.00  0.00     0.186 C 
ATOM     14  C   UNL     1       5.229   5.343   6.567  1.00  0.00     0.111 C 
BRANCH   7  15
ATOM     15  C   UNL     1       1.510   2.599   3.940  1.00  0.00    -0.014 A 
ATOM     16  C   UNL     1       0.797   1.460   1.475  1.00  0.00     0.118 A 
ATOM     17  C   UNL     1      -0.068   2.343   2.122  1.00  0.00     0.047 A 
ATOM     18  C   UNL     1       2.041   1.178   2.042  1.00  0.00     0.047 A 
ATOM     19  C   UNL     1       0.291   2.927   3.338  1.00  0.00     0.012 A 
ATOM     20  C   UNL     1       2.393   1.740   3.274  1.00  0.00     0.012 A 
BRANCH  16  21
ATOM     21  O   UNL     1       0.325   0.957   0.294  1.00  0.00    -0.497 OA
ATOM     22  C   UNL     1       0.965  -0.221  -0.182  1.00  0.00     0.278 C 
ENDBRANCH  16  21
ENDBRANCH   7  15
BRANCH  12  23
ATOM     23  C   UNL     1       3.683   6.114   8.398  1.00  0.00    -0.035 A 
ATOM     24  C   UNL     1       2.876   7.090   7.807  1.00  0.00     0.008 A 
ATOM     25  C   UNL     1       4.044   6.263   9.750  1.00  0.00     0.054 A 
ATOM     26  C   UNL     1       2.438   8.180   8.556  1.00  0.00     0.051 A 
ATOM     27  C   UNL     1       3.614   7.362  10.513  1.00  0.00     0.161 A 
ATOM     28  C   UNL     1       2.791   8.326   9.905  1.00  0.00     0.160 A 
BRANCH  27  29
ATOM     29  O   UNL     1       3.983   7.551  11.819  1.00  0.00    -0.493 OA
ATOM     30  C   UNL     1       4.774   6.551  12.450  1.00  0.00     0.278 C 
ENDBRANCH  27  29
BRANCH  28  31
ATOM     31  O   UNL     1       2.268   9.470  10.453  1.00  0.00    -0.493 OA
ATOM     32  C   UNL     1       2.269   9.601  11.866  1.00  0.00     0.278 C 
ENDBRANCH  28  31
ENDBRANCH  12  23
BRANCH  13  33
ATOM     33  O   UNL     1       5.731   5.579   4.243  1.00  0.00    -0.496 OA
ATOM     34  H   UNL     1       5.594   5.455   3.324  1.00  0.00     0.294 HD
ENDBRANCH  13  33
ENDBRANCH   4   6
ENDBRANCH   3   4
ENDBRANCH   2   3
ENDBRANCH   1   2
BRANCH   1  35
ATOM     35  O   UNL     1      -0.775  -0.927   7.404  1.00  0.00    -0.458 OA
BRANCH  35  36
ATOM     36  C   UNL     1       0.490  -0.606   7.757  1.00  0.00     0.338 C 
ATOM     37  O   UNL     1       1.374  -0.179   7.035  1.00  0.00    -0.246 OA
BRANCH  36  38
ATOM     38  C   UNL     1       0.711  -1.066   9.128  1.00  0.00     0.060 A 
ATOM     39  C   UNL     1       2.016  -0.966   9.616  1.00  0.00     0.016 A 
ATOM     40  C   UNL     1      -0.258  -1.878   9.735  1.00  0.00     0.016 A 
ATOM     41  C   UNL     1       2.416  -1.867  10.575  1.00  0.00     0.010 A 
ATOM     42  C   UNL     1       0.149  -2.794  10.667  1.00  0.00     0.010 A 
ATOM     43  C   UNL     1       1.499  -2.830  11.005  1.00  0.00    -0.014 A 
BRANCH  43  44
ATOM     44  C   UNL     1       1.956  -3.850  11.916  1.00  0.00     0.031 A 
ATOM     45  C   UNL     1       2.137  -3.334  13.287  1.00  0.00     0.074 A 
ATOM     46  C   UNL     1       2.046  -5.143  11.558  1.00  0.00     0.049 A 
ATOM     47  N   UNL     1       3.243  -3.161  13.926  1.00  0.00    -0.248 NA
ATOM     48  C   UNL     1       0.963  -2.731  13.941  1.00  0.00     0.031 C 
ATOM     49  C   UNL     1       1.602  -5.771  10.312  1.00  0.00     0.029 A 
ATOM     50  N   UNL     1       2.448  -6.200  12.307  1.00  0.00    -0.354 N 
ATOM     51  C   UNL     1       2.870  -2.666  15.169  1.00  0.00     0.074 A 
ATOM     52  C   UNL     1       1.527  -2.186  15.018  1.00  0.00     0.031 C 
ATOM     53  C   UNL     1       1.533  -7.110  10.493  1.00  0.00     0.029 A 
ATOM     54  C   UNL     1       2.042  -7.434  11.818  1.00  0.00     0.049 A 
ATOM     55  H   UNL     1       2.982  -6.100  13.128  1.00  0.00     0.167 HD
ATOM     56  C   UNL     1       3.587  -2.974  16.283  1.00  0.00     0.034 A 
ATOM     57  C   UNL     1       2.034  -8.609  12.504  1.00  0.00     0.034 A 
ATOM     58  C   UNL     1       4.914  -3.436  15.928  1.00  0.00     0.049 A 
ATOM     59  C   UNL     1       2.982  -8.447  13.641  1.00  0.00     0.074 A 
ATOM     60  C   UNL     1       5.958  -2.893  15.199  1.00  0.00     0.029 A 
ATOM     61  N   UNL     1       5.175  -4.789  15.987  1.00  0.00    -0.354 N 
ATOM     62  N   UNL     1       4.266  -8.272  13.481  1.00  0.00    -0.248 NA
ATOM     63  C   UNL     1       2.453  -7.968  14.912  1.00  0.00     0.031 C 
ATOM     64  C   UNL     1       6.488  -3.983  14.447  1.00  0.00     0.029 A 
ATOM     65  C   UNL     1       5.801  -5.142  14.815  1.00  0.00     0.049 A 
ATOM     66  H   UNL     1       4.953  -5.393  16.732  1.00  0.00     0.167 HD
ATOM     67  C   UNL     1       4.618  -7.295  14.402  1.00  0.00     0.074 A 
ATOM     68  C   UNL     1       3.483  -7.220  15.322  1.00  0.00     0.031 C 
ATOM     69  C   UNL     1       5.654  -6.434  14.168  1.00  0.00     0.034 A 
BRANCH  56  70
ATOM     70  C   UNL     1       2.960  -3.256  17.634  1.00  0.00     0.023 A 
ATOM     71  C   UNL     1       3.838  -3.647  18.657  1.00  0.00     0.031 A 
ATOM     72  C   UNL     1       1.584  -3.458  17.901  1.00  0.00     0.131 A 
ATOM     73  C   UNL     1       3.369  -4.337  19.787  1.00  0.00     0.055 A 
ATOM     74  C   UNL     1       1.117  -4.082  19.060  1.00  0.00     0.041 A 
ATOM     75  F   UNL     1       0.611  -3.149  17.039  1.00  0.00    -0.206 F 
ATOM     76  C   UNL     1       2.013  -4.566  19.993  1.00  0.00     0.022 A 
BRANCH  73  77
ATOM     77  S   UNL     1       4.592  -5.108  20.872  1.00  0.00     0.124 S 
ATOM     78  O   UNL     1       5.395  -5.862  19.914  1.00  0.00    -0.237 OA
ATOM     79  O   UNL     1       5.231  -3.943  21.473  1.00  0.00    -0.237 OA
ATOM     80  O   UNL     1       3.778  -5.914  21.778  1.00  0.00    -0.744 OA
ENDBRANCH  73  77
ENDBRANCH  56  70
BRANCH  57  81
ATOM     81  C   UNL     1       0.977  -9.660  12.439  1.00  0.00     0.023 A 
ATOM     82  C   UNL     1       1.183 -10.989  12.864  1.00  0.00     0.031 A 
ATOM     83  C   UNL     1      -0.358  -9.292  12.148  1.00  0.00     0.131 A 
ATOM     84  C   UNL     1       0.088 -11.882  12.971  1.00  0.00     0.055 A 
ATOM     85  C   UNL     1      -1.432 -10.178  12.247  1.00  0.00     0.041 A 
ATOM     86  F   UNL     1      -0.680  -8.027  11.835  1.00  0.00    -0.206 F 
ATOM     87  C   UNL     1      -1.214 -11.478  12.667  1.00  0.00     0.022 A 
BRANCH  84  88
ATOM     88  S   UNL     1       0.330 -13.580  13.591  1.00  0.00     0.124 S 
ATOM     89  O   UNL     1       1.115 -14.191  12.524  1.00  0.00    -0.237 OA
ATOM     90  O   UNL     1       1.018 -13.356  14.857  1.00  0.00    -0.237 OA
ATOM     91  O   UNL     1      -1.034 -14.095  13.720  1.00  0.00    -0.744 OA
ENDBRANCH  84  88
ENDBRANCH  57  81
BRANCH  69  92
ATOM     92  C   UNL     1       6.595  -6.731  13.014  1.00  0.00     0.023 A 
ATOM     93  C   UNL     1       6.204  -6.851  11.660  1.00  0.00     0.031 A 
ATOM     94  C   UNL     1       7.972  -6.763  13.298  1.00  0.00     0.131 A 
ATOM     95  C   UNL     1       7.180  -7.007  10.654  1.00  0.00     0.055 A 
ATOM     96  C   UNL     1       8.935  -6.897  12.299  1.00  0.00     0.041 A 
ATOM     97  F   UNL     1       8.410  -6.622  14.560  1.00  0.00    -0.206 F 
ATOM     98  C   UNL     1       8.542  -7.025  10.972  1.00  0.00     0.022 A 
BRANCH  95  99
ATOM     99  S   UNL     1       6.699  -7.200   8.906  1.00  0.00     0.124 S 
ATOM    100  O   UNL     1       5.649  -8.211   8.949  1.00  0.00    -0.237 OA
ATOM    101  O   UNL     1       6.274  -5.850   8.545  1.00  0.00    -0.237 OA
ATOM    102  O   UNL     1       7.938  -7.637   8.258  1.00  0.00    -0.744 OA
ENDBRANCH  95  99
ENDBRANCH  69  92
ENDBRANCH  43  44
ENDBRANCH  36  38
ENDBRANCH  35  36
ENDBRANCH   1  35
TORSDOF 20
