REMARK SMILES O=C(OCCOC(=O)[C@H](S)c1ccccc1)c1ccc(-c2c3nc(c(-c4cc(S(=O)(=O)[O-])ccc4F)c4ccc([nH]4)c(-c4cc(S(=O)(=O)[O-])ccc4F)c4nc(c(-c5cc(S(=O)(=O)[O-])ccc5F)c5ccc2[nH]5)C=C4)C=C3)cc1
REMARK SMILES IDX 4 1 3 2 2 3 1 4 17 5 18 6 79 7 19 8 78 9 20 10 21 11 22 12
REMARK SMILES IDX 72 13 23 14 77 15 71 16 73 17 24 18 76 19 70 20 69 21 25 23
REMARK SMILES IDX 57 24 37 25 56 26 38 27 41 28 55 29 74 30 39 31 40 32 54 34
REMARK SMILES IDX 75 35 42 36 26 37 27 38 35 39 28 40 34 41 36 42 33 43 29 44
REMARK SMILES IDX 30 45 31 46 32 47 58 48 59 49 67 50 60 51 66 52 68 53 65 54
REMARK SMILES IDX 61 55 62 56 63 57 64 58 43 59 44 60 52 61 45 62 51 63 53 64
REMARK SMILES IDX 50 65 46 66 47 67 48 68 49 69 5 70 6 71 7 72 8 73 9 74 11 75
REMARK SMILES IDX 12 76 16 77 13 78 15 79 14 80 10 81
REMARK H PARENT 73 22 41 33 10 82
REMARK Flexibility Score: inf
ROOT
ATOM      1  C   UNL     1       2.757  -3.486  -4.403  1.00  0.00     0.275 C 
ENDROOT
BRANCH   1   2
ATOM      2  O   UNL     1       2.078  -2.338  -3.857  1.00  0.00    -0.458 OA
BRANCH   2   3
ATOM      3  C   UNL     1       1.137  -2.226  -2.889  1.00  0.00     0.338 C 
ATOM      4  O   UNL     1       0.556  -1.144  -2.789  1.00  0.00    -0.246 OA
BRANCH   3   5
ATOM      5  C   UNL     1       0.835  -3.266  -1.842  1.00  0.00     0.060 A 
ATOM      6  C   UNL     1       1.190  -4.615  -1.879  1.00  0.00     0.016 A 
ATOM      7  C   UNL     1       0.168  -2.812  -0.681  1.00  0.00     0.016 A 
ATOM      8  C   UNL     1       0.968  -5.455  -0.778  1.00  0.00     0.010 A 
ATOM      9  C   UNL     1      -0.075  -3.654   0.418  1.00  0.00     0.010 A 
ATOM     10  C   UNL     1       0.349  -4.981   0.384  1.00  0.00    -0.014 A 
BRANCH  10  11
ATOM     11  C   UNL     1       0.093  -5.942   1.487  1.00  0.00     0.031 A 
ATOM     12  C   UNL     1      -1.065  -6.880   1.359  1.00  0.00     0.074 A 
ATOM     13  C   UNL     1       0.922  -6.028   2.545  1.00  0.00     0.049 A 
ATOM     14  N   UNL     1      -1.393  -7.891   2.113  1.00  0.00    -0.248 NA
ATOM     15  C   UNL     1      -1.996  -6.613   0.252  1.00  0.00     0.031 C 
ATOM     16  C   UNL     1       2.007  -5.097   2.815  1.00  0.00     0.029 A 
ATOM     17  N   UNL     1       1.020  -6.951   3.563  1.00  0.00    -0.354 N 
ATOM     18  C   UNL     1      -2.608  -8.344   1.619  1.00  0.00     0.074 A 
ATOM     19  C   UNL     1      -2.927  -7.530   0.464  1.00  0.00     0.031 C 
ATOM     20  C   UNL     1       2.729  -5.556   3.850  1.00  0.00     0.029 A 
ATOM     21  C   UNL     1       2.160  -6.806   4.333  1.00  0.00     0.049 A 
ATOM     22  H   UNL     1       0.344  -7.647   3.726  1.00  0.00     0.167 HD
ATOM     23  C   UNL     1      -3.407  -9.309   2.130  1.00  0.00     0.034 A 
ATOM     24  C   UNL     1       2.686  -7.606   5.289  1.00  0.00     0.034 A 
ATOM     25  C   UNL     1      -3.086 -10.068   3.312  1.00  0.00     0.049 A 
ATOM     26  C   UNL     1       1.841  -8.780   5.739  1.00  0.00     0.074 A 
ATOM     27  C   UNL     1      -3.844 -11.033   3.949  1.00  0.00     0.029 A 
ATOM     28  N   UNL     1      -1.914  -9.933   4.046  1.00  0.00    -0.354 N 
ATOM     29  N   UNL     1       0.701  -9.212   5.246  1.00  0.00    -0.248 NA
ATOM     30  C   UNL     1       2.313  -9.536   6.908  1.00  0.00     0.031 C 
ATOM     31  C   UNL     1      -3.162 -11.432   5.103  1.00  0.00     0.029 A 
ATOM     32  C   UNL     1      -1.940 -10.781   5.142  1.00  0.00     0.049 A 
ATOM     33  H   UNL     1      -1.173  -9.324   3.822  1.00  0.00     0.167 HD
ATOM     34  C   UNL     1       0.300 -10.252   6.079  1.00  0.00     0.074 A 
ATOM     35  C   UNL     1       1.369 -10.454   7.035  1.00  0.00     0.031 C 
ATOM     36  C   UNL     1      -0.870 -10.939   6.097  1.00  0.00     0.034 A 
BRANCH  23  37
ATOM     37  C   UNL     1      -4.754  -9.486   1.482  1.00  0.00     0.023 A 
ATOM     38  C   UNL     1      -4.892  -9.963   0.169  1.00  0.00     0.031 A 
ATOM     39  C   UNL     1      -5.915  -9.097   2.174  1.00  0.00     0.131 A 
ATOM     40  C   UNL     1      -6.157  -9.974  -0.435  1.00  0.00     0.055 A 
ATOM     41  C   UNL     1      -7.180  -9.188   1.594  1.00  0.00     0.041 A 
ATOM     42  F   UNL     1      -5.835  -8.598   3.417  1.00  0.00    -0.206 F 
ATOM     43  C   UNL     1      -7.306  -9.616   0.277  1.00  0.00     0.022 A 
BRANCH  40  44
ATOM     44  S   UNL     1      -6.264 -10.327  -2.210  1.00  0.00     0.124 S 
ATOM     45  O   UNL     1      -5.517  -9.206  -2.777  1.00  0.00    -0.237 OA
ATOM     46  O   UNL     1      -5.625 -11.634  -2.313  1.00  0.00    -0.237 OA
ATOM     47  O   UNL     1      -7.700 -10.312  -2.478  1.00  0.00    -0.744 OA
ENDBRANCH  40  44
ENDBRANCH  23  37
BRANCH  24  48
ATOM     48  C   UNL     1       4.032  -7.361   5.920  1.00  0.00     0.023 A 
ATOM     49  C   UNL     1       4.996  -8.391   5.982  1.00  0.00     0.031 A 
ATOM     50  C   UNL     1       4.358  -6.152   6.559  1.00  0.00     0.131 A 
ATOM     51  C   UNL     1       6.187  -8.215   6.712  1.00  0.00     0.055 A 
ATOM     52  C   UNL     1       5.589  -5.946   7.193  1.00  0.00     0.041 A 
ATOM     53  F   UNL     1       3.475  -5.142   6.604  1.00  0.00    -0.206 F 
ATOM     54  C   UNL     1       6.504  -6.987   7.290  1.00  0.00     0.022 A 
BRANCH  51  55
ATOM     55  S   UNL     1       7.229  -9.665   7.059  1.00  0.00     0.124 S 
ATOM     56  O   UNL     1       6.263 -10.593   7.637  1.00  0.00    -0.237 OA
ATOM     57  O   UNL     1       7.730 -10.003   5.732  1.00  0.00    -0.237 OA
ATOM     58  O   UNL     1       8.230  -9.149   7.991  1.00  0.00    -0.744 OA
ENDBRANCH  51  55
ENDBRANCH  24  48
BRANCH  36  59
ATOM     59  C   UNL     1      -1.050 -11.940   7.211  1.00  0.00     0.023 A 
ATOM     60  C   UNL     1      -1.123 -11.529   8.554  1.00  0.00     0.031 A 
ATOM     61  C   UNL     1      -1.149 -13.313   6.931  1.00  0.00     0.131 A 
ATOM     62  C   UNL     1      -1.230 -12.485   9.573  1.00  0.00     0.055 A 
ATOM     63  C   UNL     1      -1.322 -14.255   7.945  1.00  0.00     0.041 A 
ATOM     64  F   UNL     1      -1.084 -13.759   5.666  1.00  0.00    -0.206 F 
ATOM     65  C   UNL     1      -1.349 -13.845   9.275  1.00  0.00     0.022 A 
BRANCH  62  66
ATOM     66  S   UNL     1      -1.118 -11.937  11.298  1.00  0.00     0.124 S 
ATOM     67  O   UNL     1       0.198 -11.305  11.331  1.00  0.00    -0.237 OA
ATOM     68  O   UNL     1      -2.260 -11.037  11.416  1.00  0.00    -0.237 OA
ATOM     69  O   UNL     1      -1.228 -13.179  12.060  1.00  0.00    -0.744 OA
ENDBRANCH  62  66
ENDBRANCH  36  59
ENDBRANCH  10  11
ENDBRANCH   3   5
ENDBRANCH   2   3
ENDBRANCH   1   2
BRANCH   1  70
ATOM     70  C   UNL     1       4.114  -3.729  -3.742  1.00  0.00     0.274 C 
BRANCH  70  71
ATOM     71  O   UNL     1       3.984  -3.765  -2.315  1.00  0.00    -0.461 OA
BRANCH  71  72
ATOM     72  C   UNL     1       4.475  -2.704  -1.607  1.00  0.00     0.323 C 
ATOM     73  O   UNL     1       5.096  -1.774  -2.117  1.00  0.00    -0.251 OA
BRANCH  72  74
ATOM     74  C   UNL     1       4.049  -2.786  -0.132  1.00  0.00     0.183 C 
BRANCH  74  75
ATOM     75  C   UNL     1       4.660  -3.945   0.651  1.00  0.00    -0.024 A 
ATOM     76  C   UNL     1       4.426  -5.268   0.220  1.00  0.00     0.005 A 
ATOM     77  C   UNL     1       5.352  -3.786   1.863  1.00  0.00     0.005 A 
ATOM     78  C   UNL     1       4.856  -6.374   0.956  1.00  0.00     0.000 A 
ATOM     79  C   UNL     1       5.793  -4.893   2.597  1.00  0.00     0.000 A 
ATOM     80  C   UNL     1       5.542  -6.186   2.147  1.00  0.00     0.000 A 
ENDBRANCH  74  75
BRANCH  74  81
ATOM     81  S   UNL     1       4.208  -1.114   0.628  1.00  0.00    -0.159 SA
ATOM     82  H   UNL     1       5.509  -0.722   0.594  1.00  0.00     0.103 HD
ENDBRANCH  74  81
ENDBRANCH  72  74
ENDBRANCH  71  72
ENDBRANCH  70  71
ENDBRANCH   1  70
TORSDOF 16
